MODEL        1
REMARK 921   NORMALIZED FREE ENERGY PREDICTED BY IDOCK:   -7.21 KCAL/MOL
REMARK 922        TOTAL FREE ENERGY PREDICTED BY IDOCK:   -8.45 KCAL/MOL
REMARK 923 INTER-LIGAND FREE ENERGY PREDICTED BY IDOCK:   -8.06 KCAL/MOL
REMARK 924 INTRA-LIGAND FREE ENERGY PREDICTED BY IDOCK:   -0.40 KCAL/MOL
REMARK 927      BINDING AFFINITY PREDICTED BY RF-SCORE:    0.00 PKD
ROOT
HETATM    1  C   UNL     1     -12.810  15.891  73.673  1.00  0.00    -0.599 C  
HETATM    2  N   UNL     1     -12.214  15.143  72.577  1.00  0.00    -0.362 NA 
HETATM    3  C   UNL     1     -13.154  14.235  71.925  1.00  0.00    -0.365 C  
HETATM    4  C   UNL     1     -12.387  13.871  70.665  1.00  0.00    -0.451 C  
HETATM    5  C   UNL     1     -11.820  15.217  70.210  1.00  0.00    -0.353 C  
HETATM    6  C   UNL     1     -11.661  16.005  71.523  1.00  0.00    -0.484 C  
ENDROOT
BRANCH   5   7
HETATM    7  C   UNL     1     -10.508  15.169  69.410  1.00  0.00    -0.255 C  
BRANCH   7   8
HETATM    8  N   UNL     1     -10.664  15.588  67.991  1.00  0.00    -0.274 NA 
HETATM    9  C   UNL     1     -11.041  14.571  67.049  1.00  0.00    -0.322 A  
HETATM   10  C   UNL     1     -11.225  13.216  67.417  1.00  0.00    -0.319 A  
HETATM   11  C   UNL     1     -11.642  12.229  66.511  1.00  0.00    -0.440 A  
HETATM   12  C   UNL     1     -11.880  12.554  65.187  1.00  0.00    -0.450 A  
HETATM   13  C   UNL     1     -11.686  13.865  64.779  1.00  0.00    -0.399 A  
HETATM   14  C   UNL     1     -11.265  14.861  65.688  1.00  0.00    -0.347 A  
HETATM   15  S   UNL     1     -11.034  16.460  64.960  1.00  0.00    -0.132 SA 
HETATM   16  C   UNL     1     -10.652  17.468  66.365  1.00  0.00    -0.195 A  
HETATM   17  C   UNL     1     -10.486  18.837  66.066  1.00  0.00    -0.483 A  
HETATM   18  C   UNL     1     -10.203  19.762  67.060  1.00  0.00    -0.579 A  
HETATM   19  C   UNL     1     -10.097  19.323  68.364  1.00  0.00    -0.518 A  
HETATM   20  C   UNL     1     -10.258  17.962  68.665  1.00  0.00    -0.387 A  
HETATM   21  C   UNL     1     -10.525  16.979  67.684  1.00  0.00    -0.343 A  
ENDBRANCH   7   8
ENDBRANCH   5   7
TORSDOF 2
ENDMDL
MODEL        2
REMARK 921   NORMALIZED FREE ENERGY PREDICTED BY IDOCK:   -7.14 KCAL/MOL
REMARK 922        TOTAL FREE ENERGY PREDICTED BY IDOCK:   -8.37 KCAL/MOL
REMARK 923 INTER-LIGAND FREE ENERGY PREDICTED BY IDOCK:   -7.87 KCAL/MOL
REMARK 924 INTRA-LIGAND FREE ENERGY PREDICTED BY IDOCK:   -0.50 KCAL/MOL
REMARK 927      BINDING AFFINITY PREDICTED BY RF-SCORE:    0.00 PKD
ROOT
HETATM    1  C   UNL     1     -12.883  15.985  73.807  1.00  0.00    -0.572 C  
HETATM    2  N   UNL     1     -12.370  15.213  72.687  1.00  0.00    -0.356 NA 
HETATM    3  C   UNL     1     -13.395  14.405  72.031  1.00  0.00    -0.384 C  
HETATM    4  C   UNL     1     -12.679  14.004  70.751  1.00  0.00    -0.396 C  
HETATM    5  C   UNL     1     -12.004  15.305  70.316  1.00  0.00    -0.367 C  
HETATM    6  C   UNL     1     -11.759  16.048  71.642  1.00  0.00    -0.506 C  
ENDROOT
BRANCH   5   7
HETATM    7  C   UNL     1     -10.712  15.161  69.494  1.00  0.00    -0.266 C  
BRANCH   7   8
HETATM    8  N   UNL     1     -10.855  15.609  68.082  1.00  0.00    -0.290 NA 
HETATM    9  C   UNL     1     -10.543  16.982  67.801  1.00  0.00    -0.350 A  
HETATM   10  C   UNL     1     -10.151  17.901  68.803  1.00  0.00    -0.384 A  
HETATM   11  C   UNL     1      -9.796  19.230  68.526  1.00  0.00    -0.498 A  
HETATM   12  C   UNL     1      -9.832  19.704  67.226  1.00  0.00    -0.492 A  
HETATM   13  C   UNL     1     -10.236  18.843  66.216  1.00  0.00    -0.491 A  
HETATM   14  C   UNL     1     -10.595  17.506  66.492  1.00  0.00    -0.191 A  
HETATM   15  S   UNL     1     -11.123  16.585  65.072  1.00  0.00    -0.028 SA 
HETATM   16  C   UNL     1     -11.358  14.960  65.737  1.00  0.00    -0.314 A  
HETATM   17  C   UNL     1     -11.721  13.991  64.777  1.00  0.00    -0.403 A  
HETATM   18  C   UNL     1     -11.923  12.666  65.132  1.00  0.00    -0.474 A  
HETATM   19  C   UNL     1     -11.748  12.300  66.452  1.00  0.00    -0.431 A  
HETATM   20  C   UNL     1     -11.391  13.261  67.409  1.00  0.00    -0.337 A  
HETATM   21  C   UNL     1     -11.196  14.627  67.100  1.00  0.00    -0.344 A  
ENDBRANCH   7   8
ENDBRANCH   5   7
TORSDOF 2
ENDMDL
MODEL        3
REMARK 921   NORMALIZED FREE ENERGY PREDICTED BY IDOCK:   -7.00 KCAL/MOL
REMARK 922        TOTAL FREE ENERGY PREDICTED BY IDOCK:   -8.22 KCAL/MOL
REMARK 923 INTER-LIGAND FREE ENERGY PREDICTED BY IDOCK:   -7.82 KCAL/MOL
REMARK 924 INTRA-LIGAND FREE ENERGY PREDICTED BY IDOCK:   -0.40 KCAL/MOL
REMARK 927      BINDING AFFINITY PREDICTED BY RF-SCORE:    0.00 PKD
ROOT
HETATM    1  C   UNL     1     -12.200  12.342  63.523  1.00  0.00    -0.568 C  
HETATM    2  N   UNL     1     -11.571  12.988  64.664  1.00  0.00    -0.331 NA 
HETATM    3  C   UNL     1     -12.053  14.349  64.888  1.00  0.00    -0.436 C  
HETATM    4  C   UNL     1     -11.507  14.629  66.279  1.00  0.00    -0.351 C  
HETATM    5  C   UNL     1     -11.803  13.330  67.029  1.00  0.00    -0.442 C  
HETATM    6  C   UNL     1     -11.771  12.258  65.924  1.00  0.00    -0.389 C  
ENDROOT
BRANCH   5   7
HETATM    7  C   UNL     1     -10.855  12.982  68.189  1.00  0.00    -0.247 C  
BRANCH   7   8
HETATM    8  N   UNL     1     -11.540  12.328  69.337  1.00  0.00    -0.303 NA 
HETATM    9  C   UNL     1     -11.328  10.917  69.503  1.00  0.00    -0.283 A  
HETATM   10  C   UNL     1     -10.540  10.150  68.612  1.00  0.00    -0.236 A  
HETATM   11  C   UNL     1     -10.288   8.782  68.798  1.00  0.00    -0.234 A  
HETATM   12  C   UNL     1     -10.829   8.116  69.883  1.00  0.00    -0.215 A  
HETATM   13  C   UNL     1     -11.630   8.825  70.767  1.00  0.00    -0.288 A  
HETATM   14  C   UNL     1     -11.886  10.201  70.582  1.00  0.00    -0.342 A  
HETATM   15  S   UNL     1     -12.966  10.910  71.796  1.00  0.00    -0.372 SA 
HETATM   16  C   UNL     1     -12.961  12.626  71.354  1.00  0.00    -0.258 A  
HETATM   17  C   UNL     1     -13.706  13.448  72.226  1.00  0.00    -0.705 A  
HETATM   18  C   UNL     1     -13.786  14.819  72.031  1.00  0.00    -0.548 A  
HETATM   19  C   UNL     1     -13.107  15.377  70.966  1.00  0.00    -0.565 A  
HETATM   20  C   UNL     1     -12.368  14.563  70.095  1.00  0.00    -0.398 A  
HETATM   21  C   UNL     1     -12.275  13.159  70.240  1.00  0.00    -0.306 A  
ENDBRANCH   7   8
ENDBRANCH   5   7
TORSDOF 2
ENDMDL
MODEL        4
REMARK 921   NORMALIZED FREE ENERGY PREDICTED BY IDOCK:   -6.73 KCAL/MOL
REMARK 922        TOTAL FREE ENERGY PREDICTED BY IDOCK:   -7.91 KCAL/MOL
REMARK 923 INTER-LIGAND FREE ENERGY PREDICTED BY IDOCK:   -7.42 KCAL/MOL
REMARK 924 INTRA-LIGAND FREE ENERGY PREDICTED BY IDOCK:   -0.49 KCAL/MOL
REMARK 927      BINDING AFFINITY PREDICTED BY RF-SCORE:    0.00 PKD
ROOT
HETATM    1  C   UNL     1      -8.861  19.339  68.467  1.00  0.00    -0.369 C  
HETATM    2  N   UNL     1      -9.489  18.204  67.808  1.00  0.00    -0.264 NA 
HETATM    3  C   UNL     1      -8.525  17.292  67.198  1.00  0.00    -0.205 C  
HETATM    4  C   UNL     1      -9.404  16.086  66.907  1.00  0.00    -0.246 C  
HETATM    5  C   UNL     1     -10.233  15.953  68.186  1.00  0.00    -0.232 C  
HETATM    6  C   UNL     1     -10.317  17.397  68.715  1.00  0.00    -0.357 C  
ENDROOT
BRANCH   5   7
HETATM    7  C   UNL     1     -11.625  15.319  68.032  1.00  0.00    -0.312 C  
BRANCH   7   8
HETATM    8  N   UNL     1     -11.794  14.064  68.815  1.00  0.00    -0.344 NA 
HETATM    9  C   UNL     1     -12.406  14.182  70.109  1.00  0.00    -0.351 A  
HETATM   10  C   UNL     1     -12.807  15.424  70.658  1.00  0.00    -0.484 A  
HETATM   11  C   UNL     1     -13.451  15.538  71.899  1.00  0.00    -0.576 A  
HETATM   12  C   UNL     1     -13.711  14.409  72.656  1.00  0.00    -0.546 A  
HETATM   13  C   UNL     1     -13.310  13.174  72.167  1.00  0.00    -0.621 A  
HETATM   14  C   UNL     1     -12.661  13.055  70.918  1.00  0.00    -0.280 A  
HETATM   15  S   UNL     1     -12.193  11.399  70.495  1.00  0.00    -0.370 SA 
HETATM   16  C   UNL     1     -11.547  11.592  68.857  1.00  0.00    -0.320 A  
HETATM   17  C   UNL     1     -11.158  10.381  68.244  1.00  0.00    -0.338 A  
HETATM   18  C   UNL     1     -10.651  10.358  66.954  1.00  0.00    -0.293 A  
HETATM   19  C   UNL     1     -10.543  11.548  66.262  1.00  0.00    -0.309 A  
HETATM   20  C   UNL     1     -10.926  12.754  66.870  1.00  0.00    -0.291 A  
HETATM   21  C   UNL     1     -11.427  12.831  68.190  1.00  0.00    -0.314 A  
ENDBRANCH   7   8
ENDBRANCH   5   7
TORSDOF 2
ENDMDL
MODEL        5
REMARK 921   NORMALIZED FREE ENERGY PREDICTED BY IDOCK:   -6.67 KCAL/MOL
REMARK 922        TOTAL FREE ENERGY PREDICTED BY IDOCK:   -7.85 KCAL/MOL
REMARK 923 INTER-LIGAND FREE ENERGY PREDICTED BY IDOCK:   -7.43 KCAL/MOL
REMARK 924 INTRA-LIGAND FREE ENERGY PREDICTED BY IDOCK:   -0.41 KCAL/MOL
REMARK 927      BINDING AFFINITY PREDICTED BY RF-SCORE:    0.00 PKD
ROOT
HETATM    1  C   UNL     1     -11.172  12.361  63.570  1.00  0.00    -0.469 C  
HETATM    2  N   UNL     1     -11.101  13.035  64.857  1.00  0.00    -0.291 NA 
HETATM    3  C   UNL     1     -12.242  13.911  65.108  1.00  0.00    -0.427 C  
HETATM    4  C   UNL     1     -12.078  14.190  66.593  1.00  0.00    -0.480 C  
HETATM    5  C   UNL     1     -11.733  12.813  67.162  1.00  0.00    -0.443 C  
HETATM    6  C   UNL     1     -11.027  12.104  65.992  1.00  0.00    -0.293 C  
ENDROOT
BRANCH   5   7
HETATM    7  C   UNL     1     -10.877  12.798  68.439  1.00  0.00    -0.249 C  
BRANCH   7   8
HETATM    8  N   UNL     1     -11.557  12.165  69.601  1.00  0.00    -0.303 NA 
HETATM    9  C   UNL     1     -12.384  13.014  70.413  1.00  0.00    -0.277 A  
HETATM   10  C   UNL     1     -12.534  14.400  70.168  1.00  0.00    -0.395 A  
HETATM   11  C   UNL     1     -13.379  15.224  70.928  1.00  0.00    -0.475 A  
HETATM   12  C   UNL     1     -14.104  14.695  71.980  1.00  0.00    -0.603 A  
HETATM   13  C   UNL     1     -13.966  13.346  72.272  1.00  0.00    -0.605 A  
HETATM   14  C   UNL     1     -13.116  12.514  71.510  1.00  0.00    -0.277 A  
HETATM   15  S   UNL     1     -13.046  10.835  72.070  1.00  0.00    -0.202 SA 
HETATM   16  C   UNL     1     -12.026  10.065  70.844  1.00  0.00    -0.361 A  
HETATM   17  C   UNL     1     -11.864   8.674  71.018  1.00  0.00    -0.303 A  
HETATM   18  C   UNL     1     -11.111   7.920  70.131  1.00  0.00    -0.204 A  
HETATM   19  C   UNL     1     -10.524   8.554  69.054  1.00  0.00    -0.216 A  
HETATM   20  C   UNL     1     -10.680   9.937  68.879  1.00  0.00    -0.244 A  
HETATM   21  C   UNL     1     -11.420  10.751  69.768  1.00  0.00    -0.311 A  
ENDBRANCH   7   8
ENDBRANCH   5   7
TORSDOF 2
ENDMDL
MODEL        6
REMARK 921   NORMALIZED FREE ENERGY PREDICTED BY IDOCK:   -6.66 KCAL/MOL
REMARK 922        TOTAL FREE ENERGY PREDICTED BY IDOCK:   -7.84 KCAL/MOL
REMARK 923 INTER-LIGAND FREE ENERGY PREDICTED BY IDOCK:   -7.35 KCAL/MOL
REMARK 924 INTRA-LIGAND FREE ENERGY PREDICTED BY IDOCK:   -0.49 KCAL/MOL
REMARK 927      BINDING AFFINITY PREDICTED BY RF-SCORE:    0.00 PKD
ROOT
HETATM    1  C   UNL     1      -9.802  19.084  68.628  1.00  0.00    -0.413 C  
HETATM    2  N   UNL     1     -10.316  18.122  67.666  1.00  0.00    -0.380 NA 
HETATM    3  C   UNL     1      -9.350  17.779  66.627  1.00  0.00    -0.287 C  
HETATM    4  C   UNL     1     -10.007  16.557  66.005  1.00  0.00    -0.359 C  
HETATM    5  C   UNL     1     -10.482  15.768  67.226  1.00  0.00    -0.308 C  
HETATM    6  C   UNL     1     -10.738  16.857  68.284  1.00  0.00    -0.377 C  
ENDROOT
BRANCH   5   7
HETATM    7  C   UNL     1     -11.714  14.871  67.020  1.00  0.00    -0.261 C  
BRANCH   7   8
HETATM    8  N   UNL     1     -11.442  13.428  67.260  1.00  0.00    -0.322 NA 
HETATM    9  C   UNL     1     -11.743  12.918  68.569  1.00  0.00    -0.339 A  
HETATM   10  C   UNL     1     -12.239  13.733  69.614  1.00  0.00    -0.359 A  
HETATM   11  C   UNL     1     -12.581  13.230  70.879  1.00  0.00    -0.386 A  
HETATM   12  C   UNL     1     -12.427  11.884  71.158  1.00  0.00    -0.365 A  
HETATM   13  C   UNL     1     -11.918  11.054  70.169  1.00  0.00    -0.443 A  
HETATM   14  C   UNL     1     -11.572  11.557  68.896  1.00  0.00    -0.320 A  
HETATM   15  S   UNL     1     -10.900  10.344  67.792  1.00  0.00    -0.311 SA 
HETATM   16  C   UNL     1     -10.711  11.261  66.288  1.00  0.00    -0.257 A  
HETATM   17  C   UNL     1     -10.246  10.493  65.199  1.00  0.00    -0.358 A  
HETATM   18  C   UNL     1     -10.065  11.058  63.945  1.00  0.00    -0.414 A  
HETATM   19  C   UNL     1     -10.360  12.396  63.772  1.00  0.00    -0.454 A  
HETATM   20  C   UNL     1     -10.818  13.163  64.853  1.00  0.00    -0.348 A  
HETATM   21  C   UNL     1     -10.998  12.638  66.153  1.00  0.00    -0.282 A  
ENDBRANCH   7   8
ENDBRANCH   5   7
TORSDOF 2
ENDMDL
MODEL        7
REMARK 921   NORMALIZED FREE ENERGY PREDICTED BY IDOCK:   -6.66 KCAL/MOL
REMARK 922        TOTAL FREE ENERGY PREDICTED BY IDOCK:   -7.83 KCAL/MOL
REMARK 923 INTER-LIGAND FREE ENERGY PREDICTED BY IDOCK:   -7.34 KCAL/MOL
REMARK 924 INTRA-LIGAND FREE ENERGY PREDICTED BY IDOCK:   -0.48 KCAL/MOL
REMARK 927      BINDING AFFINITY PREDICTED BY RF-SCORE:    0.00 PKD
ROOT
HETATM    1  C   UNL     1      -9.324   7.250  69.729  1.00  0.00    -0.150 C  
HETATM    2  N   UNL     1     -10.445   8.111  70.070  1.00  0.00    -0.226 NA 
HETATM    3  C   UNL     1     -10.456   8.506  71.476  1.00  0.00    -0.248 C  
HETATM    4  C   UNL     1     -11.484   9.626  71.459  1.00  0.00    -0.439 C  
HETATM    5  C   UNL     1     -11.108  10.414  70.204  1.00  0.00    -0.383 C  
HETATM    6  C   UNL     1     -10.480   9.352  69.283  1.00  0.00    -0.218 C  
ENDROOT
BRANCH   5   7
HETATM    7  C   UNL     1     -12.251  11.171  69.506  1.00  0.00    -0.277 C  
BRANCH   7   8
HETATM    8  N   UNL     1     -11.995  12.630  69.365  1.00  0.00    -0.289 NA 
HETATM    9  C   UNL     1     -11.439  13.076  68.118  1.00  0.00    -0.319 A  
HETATM   10  C   UNL     1     -11.103  12.188  67.067  1.00  0.00    -0.347 A  
HETATM   11  C   UNL     1     -10.606  12.623  65.829  1.00  0.00    -0.296 A  
HETATM   12  C   UNL     1     -10.411  13.972  65.592  1.00  0.00    -0.342 A  
HETATM   13  C   UNL     1     -10.702  14.875  66.605  1.00  0.00    -0.312 A  
HETATM   14  C   UNL     1     -11.201  14.440  67.853  1.00  0.00    -0.286 A  
HETATM   15  S   UNL     1     -11.468  15.743  69.024  1.00  0.00    -0.403 SA 
HETATM   16  C   UNL     1     -12.203  14.885  70.388  1.00  0.00    -0.336 A  
HETATM   17  C   UNL     1     -12.588  15.723  71.457  1.00  0.00    -0.517 A  
HETATM   18  C   UNL     1     -13.196  15.209  72.592  1.00  0.00    -0.536 A  
HETATM   19  C   UNL     1     -13.436  13.850  72.658  1.00  0.00    -0.652 A  
HETATM   20  C   UNL     1     -13.051  13.014  71.599  1.00  0.00    -0.440 A  
HETATM   21  C   UNL     1     -12.408  13.488  70.433  1.00  0.00    -0.327 A  
ENDBRANCH   7   8
ENDBRANCH   5   7
TORSDOF 2
ENDMDL
MODEL        8
REMARK 921   NORMALIZED FREE ENERGY PREDICTED BY IDOCK:   -6.57 KCAL/MOL
REMARK 922        TOTAL FREE ENERGY PREDICTED BY IDOCK:   -7.73 KCAL/MOL
REMARK 923 INTER-LIGAND FREE ENERGY PREDICTED BY IDOCK:   -7.33 KCAL/MOL
REMARK 924 INTRA-LIGAND FREE ENERGY PREDICTED BY IDOCK:   -0.40 KCAL/MOL
REMARK 927      BINDING AFFINITY PREDICTED BY RF-SCORE:    0.00 PKD
ROOT
HETATM    1  C   UNL     1      -9.062  19.296  68.514  1.00  0.00    -0.377 C  
HETATM    2  N   UNL     1      -9.638  18.146  67.836  1.00  0.00    -0.280 NA 
HETATM    3  C   UNL     1      -8.632  17.253  67.266  1.00  0.00    -0.203 C  
HETATM    4  C   UNL     1      -9.473  16.028  66.946  1.00  0.00    -0.242 C  
HETATM    5  C   UNL     1     -10.347  15.880  68.192  1.00  0.00    -0.256 C  
HETATM    6  C   UNL     1     -10.483  17.323  68.712  1.00  0.00    -0.340 C  
ENDROOT
BRANCH   5   7
HETATM    7  C   UNL     1     -11.718  15.215  67.987  1.00  0.00    -0.285 C  
BRANCH   7   8
HETATM    8  N   UNL     1     -11.918  14.000  68.824  1.00  0.00    -0.352 NA 
HETATM    9  C   UNL     1     -11.488  12.748  68.268  1.00  0.00    -0.314 A  
HETATM   10  C   UNL     1     -10.932  12.636  66.971  1.00  0.00    -0.300 A  
HETATM   11  C   UNL     1     -10.464  11.423  66.442  1.00  0.00    -0.299 A  
HETATM   12  C   UNL     1     -10.546  10.261  67.188  1.00  0.00    -0.320 A  
HETATM   13  C   UNL     1     -11.110  10.321  68.454  1.00  0.00    -0.302 A  
HETATM   14  C   UNL     1     -11.583  11.540  68.989  1.00  0.00    -0.318 A  
HETATM   15  S   UNL     1     -12.305  11.397  70.601  1.00  0.00    -0.345 SA 
HETATM   16  C   UNL     1     -12.656  13.083  71.013  1.00  0.00    -0.299 A  
HETATM   17  C   UNL     1     -13.186  13.262  72.309  1.00  0.00    -0.567 A  
HETATM   18  C   UNL     1     -13.495  14.525  72.792  1.00  0.00    -0.575 A  
HETATM   19  C   UNL     1     -13.263  15.620  71.983  1.00  0.00    -0.541 A  
HETATM   20  C   UNL     1     -12.740  15.445  70.693  1.00  0.00    -0.490 A  
HETATM   21  C   UNL     1     -12.430  14.177  70.149  1.00  0.00    -0.331 A  
ENDBRANCH   7   8
ENDBRANCH   5   7
TORSDOF 2
ENDMDL
MODEL        9
REMARK 921   NORMALIZED FREE ENERGY PREDICTED BY IDOCK:   -6.53 KCAL/MOL
REMARK 922        TOTAL FREE ENERGY PREDICTED BY IDOCK:   -7.68 KCAL/MOL
REMARK 923 INTER-LIGAND FREE ENERGY PREDICTED BY IDOCK:   -7.30 KCAL/MOL
REMARK 924 INTRA-LIGAND FREE ENERGY PREDICTED BY IDOCK:   -0.38 KCAL/MOL
REMARK 927      BINDING AFFINITY PREDICTED BY RF-SCORE:    0.00 PKD
ROOT
HETATM    1  C   UNL     1      -8.920  19.408  66.262  1.00  0.00    -0.346 C  
HETATM    2  N   UNL     1      -9.217  18.015  65.970  1.00  0.00    -0.522 NA 
HETATM    3  C   UNL     1      -8.121  17.112  66.316  1.00  0.00    -0.290 C  
HETATM    4  C   UNL     1      -8.815  15.762  66.232  1.00  0.00    -0.378 C  
HETATM    5  C   UNL     1     -10.152  16.022  66.929  1.00  0.00    -0.266 C  
HETATM    6  C   UNL     1     -10.409  17.518  66.671  1.00  0.00    -0.319 C  
ENDROOT
BRANCH   5   7
HETATM    7  C   UNL     1     -11.337  15.153  66.476  1.00  0.00    -0.234 C  
BRANCH   7   8
HETATM    8  N   UNL     1     -11.240  13.738  66.930  1.00  0.00    -0.305 NA 
HETATM    9  C   UNL     1     -11.616  13.464  68.289  1.00  0.00    -0.344 A  
HETATM   10  C   UNL     1     -12.025  14.475  69.191  1.00  0.00    -0.344 A  
HETATM   11  C   UNL     1     -12.441  14.206  70.504  1.00  0.00    -0.431 A  
HETATM   12  C   UNL     1     -12.451  12.907  70.978  1.00  0.00    -0.374 A  
HETATM   13  C   UNL     1     -12.031  11.887  70.135  1.00  0.00    -0.413 A  
HETATM   14  C   UNL     1     -11.611  12.155  68.814  1.00  0.00    -0.327 A  
HETATM   15  S   UNL     1     -11.074  10.725  67.916  1.00  0.00    -0.319 SA 
HETATM   16  C   UNL     1     -10.758  11.383  66.302  1.00  0.00    -0.270 A  
HETATM   17  C   UNL     1     -10.374  10.415  65.349  1.00  0.00    -0.270 A  
HETATM   18  C   UNL     1     -10.110  10.765  64.034  1.00  0.00    -0.410 A  
HETATM   19  C   UNL     1     -10.243  12.088  63.660  1.00  0.00    -0.470 A  
HETATM   20  C   UNL     1     -10.621  13.053  64.606  1.00  0.00    -0.397 A  
HETATM   21  C   UNL     1     -10.878  12.749  65.962  1.00  0.00    -0.276 A  
ENDBRANCH   7   8
ENDBRANCH   5   7
TORSDOF 2
ENDMDL
MODEL       10
REMARK 921   NORMALIZED FREE ENERGY PREDICTED BY IDOCK:   -6.51 KCAL/MOL
REMARK 922        TOTAL FREE ENERGY PREDICTED BY IDOCK:   -7.67 KCAL/MOL
REMARK 923 INTER-LIGAND FREE ENERGY PREDICTED BY IDOCK:   -7.20 KCAL/MOL
REMARK 924 INTRA-LIGAND FREE ENERGY PREDICTED BY IDOCK:   -0.47 KCAL/MOL
REMARK 927      BINDING AFFINITY PREDICTED BY RF-SCORE:    0.00 PKD
ROOT
HETATM    1  C   UNL     1     -10.272  11.438  63.572  1.00  0.00    -0.413 C  
HETATM    2  N   UNL     1     -10.503  12.074  64.860  1.00  0.00    -0.273 NA 
HETATM    3  C   UNL     1     -11.845  12.637  64.988  1.00  0.00    -0.395 C  
HETATM    4  C   UNL     1     -11.908  12.908  66.482  1.00  0.00    -0.473 C  
HETATM    5  C   UNL     1     -11.295  11.644  67.085  1.00  0.00    -0.373 C  
HETATM    6  C   UNL     1     -10.318  11.161  65.996  1.00  0.00    -0.254 C  
ENDROOT
BRANCH   5   7
HETATM    7  C   UNL     1     -10.597  11.806  68.446  1.00  0.00    -0.216 C  
BRANCH   7   8
HETATM    8  N   UNL     1     -11.420  11.333  69.592  1.00  0.00    -0.284 NA 
HETATM    9  C   UNL     1     -11.365   9.931  69.898  1.00  0.00    -0.222 A  
HETATM   10  C   UNL     1     -10.603   9.010  69.140  1.00  0.00    -0.219 A  
HETATM   11  C   UNL     1     -10.506   7.648  69.465  1.00  0.00    -0.227 A  
HETATM   12  C   UNL     1     -11.182   7.144  70.561  1.00  0.00    -0.321 A  
HETATM   13  C   UNL     1     -11.962   8.008  71.317  1.00  0.00    -0.321 A  
HETATM   14  C   UNL     1     -12.063   9.378  70.992  1.00  0.00    -0.298 A  
HETATM   15  S   UNL     1     -13.142  10.301  72.053  1.00  0.00    -0.341 SA 
HETATM   16  C   UNL     1     -12.932  11.958  71.463  1.00  0.00    -0.323 A  
HETATM   17  C   UNL     1     -13.645  12.928  72.200  1.00  0.00    -0.589 A  
HETATM   18  C   UNL     1     -13.571  14.274  71.879  1.00  0.00    -0.501 A  
HETATM   19  C   UNL     1     -12.770  14.661  70.823  1.00  0.00    -0.422 A  
HETATM   20  C   UNL     1     -12.062  13.700  70.085  1.00  0.00    -0.431 A  
HETATM   21  C   UNL     1     -12.123  12.314  70.361  1.00  0.00    -0.300 A  
ENDBRANCH   7   8
ENDBRANCH   5   7
TORSDOF 2
ENDMDL
MODEL       11
REMARK 921   NORMALIZED FREE ENERGY PREDICTED BY IDOCK:   -6.44 KCAL/MOL
REMARK 922        TOTAL FREE ENERGY PREDICTED BY IDOCK:   -7.59 KCAL/MOL
REMARK 923 INTER-LIGAND FREE ENERGY PREDICTED BY IDOCK:   -7.24 KCAL/MOL
REMARK 924 INTRA-LIGAND FREE ENERGY PREDICTED BY IDOCK:   -0.35 KCAL/MOL
REMARK 927      BINDING AFFINITY PREDICTED BY RF-SCORE:    0.00 PKD
ROOT
HETATM    1  C   UNL     1      -9.217   7.482  70.308  1.00  0.00    -0.157 C  
HETATM    2  N   UNL     1     -10.448   8.244  70.445  1.00  0.00    -0.210 NA 
HETATM    3  C   UNL     1     -10.732   8.629  71.825  1.00  0.00    -0.321 C  
HETATM    4  C   UNL     1     -11.832   9.658  71.623  1.00  0.00    -0.457 C  
HETATM    5  C   UNL     1     -11.315  10.482  70.443  1.00  0.00    -0.411 C  
HETATM    6  C   UNL     1     -10.452   9.481  69.653  1.00  0.00    -0.223 C  
ENDROOT
BRANCH   5   7
HETATM    7  C   UNL     1     -12.382  11.143  69.554  1.00  0.00    -0.194 C  
BRANCH   7   8
HETATM    8  N   UNL     1     -12.157  12.599  69.341  1.00  0.00    -0.230 NA 
HETATM    9  C   UNL     1     -12.523  13.477  70.417  1.00  0.00    -0.275 A  
HETATM   10  C   UNL     1     -13.108  13.015  71.620  1.00  0.00    -0.440 A  
HETATM   11  C   UNL     1     -13.421  13.863  72.693  1.00  0.00    -0.652 A  
HETATM   12  C   UNL     1     -13.174  15.221  72.602  1.00  0.00    -0.554 A  
HETATM   13  C   UNL     1     -12.625  15.720  71.429  1.00  0.00    -0.516 A  
HETATM   14  C   UNL     1     -12.310  14.870  70.347  1.00  0.00    -0.345 A  
HETATM   15  S   UNL     1     -11.660  15.708  68.927  1.00  0.00    -0.386 SA 
HETATM   16  C   UNL     1     -11.258  14.366  67.843  1.00  0.00    -0.286 A  
HETATM   17  C   UNL     1     -10.643  14.763  66.637  1.00  0.00    -0.299 A  
HETATM   18  C   UNL     1     -10.247  13.831  65.689  1.00  0.00    -0.326 A  
HETATM   19  C   UNL     1     -10.454  12.491  65.951  1.00  0.00    -0.289 A  
HETATM   20  C   UNL     1     -11.069  12.093  67.147  1.00  0.00    -0.345 A  
HETATM   21  C   UNL     1     -11.509  13.006  68.133  1.00  0.00    -0.319 A  
ENDBRANCH   7   8
ENDBRANCH   5   7
TORSDOF 2
ENDMDL
MODEL       12
REMARK 921   NORMALIZED FREE ENERGY PREDICTED BY IDOCK:   -6.36 KCAL/MOL
REMARK 922        TOTAL FREE ENERGY PREDICTED BY IDOCK:   -7.50 KCAL/MOL
REMARK 923 INTER-LIGAND FREE ENERGY PREDICTED BY IDOCK:   -7.11 KCAL/MOL
REMARK 924 INTRA-LIGAND FREE ENERGY PREDICTED BY IDOCK:   -0.38 KCAL/MOL
REMARK 927      BINDING AFFINITY PREDICTED BY RF-SCORE:    0.00 PKD
ROOT
HETATM    1  C   UNL     1      -9.794  18.801  68.557  1.00  0.00    -0.396 C  
HETATM    2  N   UNL     1     -10.439  17.944  67.575  1.00  0.00    -0.383 NA 
HETATM    3  C   UNL     1      -9.638  17.752  66.369  1.00  0.00    -0.283 C  
HETATM    4  C   UNL     1     -10.370  16.594  65.711  1.00  0.00    -0.338 C  
HETATM    5  C   UNL     1     -10.646  15.654  66.886  1.00  0.00    -0.311 C  
HETATM    6  C   UNL     1     -10.749  16.604  68.093  1.00  0.00    -0.349 C  
ENDROOT
BRANCH   5   7
HETATM    7  C   UNL     1     -11.886  14.753  66.761  1.00  0.00    -0.257 C  
BRANCH   7   8
HETATM    8  N   UNL     1     -11.608  13.320  67.050  1.00  0.00    -0.339 NA 
HETATM    9  C   UNL     1     -11.053  12.537  65.982  1.00  0.00    -0.294 A  
HETATM   10  C   UNL     1     -10.805  13.064  64.692  1.00  0.00    -0.373 A  
HETATM   11  C   UNL     1     -10.216  12.317  63.660  1.00  0.00    -0.430 A  
HETATM   12  C   UNL     1      -9.860  10.997  63.873  1.00  0.00    -0.368 A  
HETATM   13  C   UNL     1     -10.110  10.432  65.115  1.00  0.00    -0.379 A  
HETATM   14  C   UNL     1     -10.703  11.181  66.155  1.00  0.00    -0.225 A  
HETATM   15  S   UNL     1     -10.977  10.265  67.647  1.00  0.00    -0.244 SA 
HETATM   16  C   UNL     1     -11.588  11.509  68.751  1.00  0.00    -0.316 A  
HETATM   17  C   UNL     1     -11.826  11.048  70.064  1.00  0.00    -0.435 A  
HETATM   18  C   UNL     1     -12.287  11.903  71.054  1.00  0.00    -0.362 A  
HETATM   19  C   UNL     1     -12.500  13.230  70.738  1.00  0.00    -0.403 A  
HETATM   20  C   UNL     1     -12.269  13.690  69.433  1.00  0.00    -0.307 A  
HETATM   21  C   UNL     1     -11.821  12.853  68.385  1.00  0.00    -0.318 A  
ENDBRANCH   7   8
ENDBRANCH   5   7
TORSDOF 2
ENDMDL
MODEL       13
REMARK 921   NORMALIZED FREE ENERGY PREDICTED BY IDOCK:   -6.27 KCAL/MOL
REMARK 922        TOTAL FREE ENERGY PREDICTED BY IDOCK:   -7.40 KCAL/MOL
REMARK 923 INTER-LIGAND FREE ENERGY PREDICTED BY IDOCK:   -7.10 KCAL/MOL
REMARK 924 INTRA-LIGAND FREE ENERGY PREDICTED BY IDOCK:   -0.30 KCAL/MOL
REMARK 927      BINDING AFFINITY PREDICTED BY RF-SCORE:    0.00 PKD
ROOT
HETATM    1  C   UNL     1      -8.173  19.049  68.562  1.00  0.00    -0.355 C  
HETATM    2  N   UNL     1      -8.833  17.759  68.435  1.00  0.00    -0.281 NA 
HETATM    3  C   UNL     1      -8.143  16.690  69.154  1.00  0.00    -0.139 C  
HETATM    4  C   UNL     1      -9.195  15.594  69.133  1.00  0.00    -0.254 C  
HETATM    5  C   UNL     1     -10.482  16.351  69.465  1.00  0.00    -0.301 C  
HETATM    6  C   UNL     1     -10.219  17.768  68.924  1.00  0.00    -0.345 C  
ENDROOT
BRANCH   5   7
HETATM    7  C   UNL     1     -11.785  15.758  68.904  1.00  0.00    -0.394 C  
BRANCH   7   8
HETATM    8  N   UNL     1     -11.669  14.324  68.525  1.00  0.00    -0.322 NA 
HETATM    9  C   UNL     1     -12.022  13.356  69.526  1.00  0.00    -0.319 A  
HETATM   10  C   UNL     1     -12.429  13.717  70.833  1.00  0.00    -0.451 A  
HETATM   11  C   UNL     1     -12.823  12.778  71.798  1.00  0.00    -0.342 A  
HETATM   12  C   UNL     1     -12.813  11.427  71.499  1.00  0.00    -0.508 A  
HETATM   13  C   UNL     1     -12.395  11.027  70.238  1.00  0.00    -0.410 A  
HETATM   14  C   UNL     1     -11.997  11.970  69.265  1.00  0.00    -0.270 A  
HETATM   15  S   UNL     1     -11.457  11.255  67.736  1.00  0.00    -0.242 SA 
HETATM   16  C   UNL     1     -11.171  12.683  66.726  1.00  0.00    -0.300 A  
HETATM   17  C   UNL     1     -10.790  12.385  65.400  1.00  0.00    -0.320 A  
HETATM   18  C   UNL     1     -10.549  13.392  64.478  1.00  0.00    -0.441 A  
HETATM   19  C   UNL     1     -10.701  14.706  64.875  1.00  0.00    -0.447 A  
HETATM   20  C   UNL     1     -11.075  15.005  66.193  1.00  0.00    -0.329 A  
HETATM   21  C   UNL     1     -11.310  14.015  67.175  1.00  0.00    -0.331 A  
ENDBRANCH   7   8
ENDBRANCH   5   7
TORSDOF 2
ENDMDL
MODEL       14
REMARK 921   NORMALIZED FREE ENERGY PREDICTED BY IDOCK:   -6.21 KCAL/MOL
REMARK 922        TOTAL FREE ENERGY PREDICTED BY IDOCK:   -7.33 KCAL/MOL
REMARK 923 INTER-LIGAND FREE ENERGY PREDICTED BY IDOCK:   -6.88 KCAL/MOL
REMARK 924 INTRA-LIGAND FREE ENERGY PREDICTED BY IDOCK:   -0.45 KCAL/MOL
REMARK 927      BINDING AFFINITY PREDICTED BY RF-SCORE:    0.00 PKD
ROOT
HETATM    1  C   UNL     1     -11.867  16.291  72.031  1.00  0.00    -0.487 C  
HETATM    2  N   UNL     1     -12.070  15.799  70.677  1.00  0.00    -0.389 NA 
HETATM    3  C   UNL     1     -11.058  16.274  69.737  1.00  0.00    -0.337 C  
HETATM    4  C   UNL     1     -11.311  15.364  68.547  1.00  0.00    -0.342 C  
HETATM    5  C   UNL     1     -11.503  13.994  69.200  1.00  0.00    -0.340 C  
HETATM    6  C   UNL     1     -12.070  14.332  70.590  1.00  0.00    -0.346 C  
ENDROOT
BRANCH   5   7
HETATM    7  C   UNL     1     -12.399  12.998  68.444  1.00  0.00     0.218 C  
BRANCH   7   8
HETATM    8  N   UNL     1     -11.634  11.952  67.712  1.00  0.00    -0.433 NA 
HETATM    9  C   UNL     1     -11.199  10.813  68.472  1.00  0.00    -0.279 A  
HETATM   10  C   UNL     1     -11.437  10.682  69.861  1.00  0.00    -0.393 A  
HETATM   11  C   UNL     1     -11.058   9.549  70.598  1.00  0.00    -0.364 A  
HETATM   12  C   UNL     1     -10.408   8.498  69.974  1.00  0.00    -0.213 A  
HETATM   13  C   UNL     1     -10.131   8.598  68.618  1.00  0.00    -0.207 A  
HETATM   14  C   UNL     1     -10.510   9.737  67.875  1.00  0.00    -0.239 A  
HETATM   15  S   UNL     1     -10.026   9.688  66.171  1.00  0.00    -0.257 SA 
HETATM   16  C   UNL     1     -10.759  11.165  65.523  1.00  0.00    -0.185 A  
HETATM   17  C   UNL     1     -10.581  11.337  64.134  1.00  0.00    -0.437 A  
HETATM   18  C   UNL     1     -11.111  12.433  63.470  1.00  0.00    -0.521 A  
HETATM   19  C   UNL     1     -11.837  13.359  64.193  1.00  0.00    -0.492 A  
HETATM   20  C   UNL     1     -12.013  13.193  65.574  1.00  0.00    -0.457 A  
HETATM   21  C   UNL     1     -11.473  12.106  66.299  1.00  0.00    -0.374 A  
ENDBRANCH   7   8
ENDBRANCH   5   7
TORSDOF 2
ENDMDL
MODEL       15
REMARK 921   NORMALIZED FREE ENERGY PREDICTED BY IDOCK:   -6.16 KCAL/MOL
REMARK 922        TOTAL FREE ENERGY PREDICTED BY IDOCK:   -7.28 KCAL/MOL
REMARK 923 INTER-LIGAND FREE ENERGY PREDICTED BY IDOCK:   -7.02 KCAL/MOL
REMARK 924 INTRA-LIGAND FREE ENERGY PREDICTED BY IDOCK:   -0.26 KCAL/MOL
REMARK 927      BINDING AFFINITY PREDICTED BY RF-SCORE:    0.00 PKD
ROOT
HETATM    1  C   UNL     1      -7.230  19.399  65.909  1.00  0.00    -0.290 C  
HETATM    2  N   UNL     1      -7.937  18.131  65.835  1.00  0.00    -0.535 NA 
HETATM    3  C   UNL     1      -7.213  17.034  66.473  1.00  0.00    -0.276 C  
HETATM    4  C   UNL     1      -8.296  15.969  66.544  1.00  0.00    -0.348 C  
HETATM    5  C   UNL     1      -9.521  16.759  67.006  1.00  0.00    -0.240 C  
HETATM    6  C   UNL     1      -9.268  18.175  66.456  1.00  0.00    -0.281 C  
ENDROOT
BRANCH   5   7
HETATM    7  C   UNL     1     -10.890  16.212  66.569  1.00  0.00    -0.139 C  
BRANCH   7   8
HETATM    8  N   UNL     1     -11.185  14.856  67.107  1.00  0.00    -0.336 NA 
HETATM    9  C   UNL     1     -11.044  13.751  66.200  1.00  0.00    -0.296 A  
HETATM   10  C   UNL     1     -10.681  13.915  64.842  1.00  0.00    -0.422 A  
HETATM   11  C   UNL     1     -10.494  12.835  63.965  1.00  0.00    -0.433 A  
HETATM   12  C   UNL     1     -10.676  11.538  64.410  1.00  0.00    -0.404 A  
HETATM   13  C   UNL     1     -11.059  11.334  65.728  1.00  0.00    -0.153 A  
HETATM   14  C   UNL     1     -11.250  12.418  66.612  1.00  0.00    -0.315 A  
HETATM   15  S   UNL     1     -11.779  11.948  68.237  1.00  0.00    -0.293 SA 
HETATM   16  C   UNL     1     -11.787  13.496  69.098  1.00  0.00    -0.340 A  
HETATM   17  C   UNL     1     -12.113  13.393  70.467  1.00  0.00    -0.399 A  
HETATM   18  C   UNL     1     -12.143  14.511  71.286  1.00  0.00    -0.419 A  
HETATM   19  C   UNL     1     -11.833  15.741  70.741  1.00  0.00    -0.438 A  
HETATM   20  C   UNL     1     -11.512  15.848  69.379  1.00  0.00    -0.351 A  
HETATM   21  C   UNL     1     -11.489  14.741  68.500  1.00  0.00    -0.308 A  
ENDBRANCH   7   8
ENDBRANCH   5   7
TORSDOF 2
ENDMDL
MODEL       16
REMARK 921   NORMALIZED FREE ENERGY PREDICTED BY IDOCK:   -6.16 KCAL/MOL
REMARK 922        TOTAL FREE ENERGY PREDICTED BY IDOCK:   -7.27 KCAL/MOL
REMARK 923 INTER-LIGAND FREE ENERGY PREDICTED BY IDOCK:   -6.98 KCAL/MOL
REMARK 924 INTRA-LIGAND FREE ENERGY PREDICTED BY IDOCK:   -0.29 KCAL/MOL
REMARK 927      BINDING AFFINITY PREDICTED BY RF-SCORE:    0.00 PKD
ROOT
HETATM    1  C   UNL     1     -10.749  11.496  63.090  1.00  0.00    -0.207 C  
HETATM    2  N   UNL     1     -10.835  12.230  64.343  1.00  0.00    -0.307 NA 
HETATM    3  C   UNL     1     -12.197  12.642  64.673  1.00  0.00    -0.452 C  
HETATM    4  C   UNL     1     -12.035  13.056  66.127  1.00  0.00    -0.488 C  
HETATM    5  C   UNL     1     -11.162  11.940  66.703  1.00  0.00    -0.384 C  
HETATM    6  C   UNL     1     -10.335  11.466  65.495  1.00  0.00    -0.266 C  
ENDROOT
BRANCH   5   7
HETATM    7  C   UNL     1     -10.266  12.322  67.894  1.00  0.00    -0.200 C  
BRANCH   7   8
HETATM    8  N   UNL     1     -10.863  13.364  68.773  1.00  0.00    -0.250 NA 
HETATM    9  C   UNL     1     -11.707  12.908  69.842  1.00  0.00    -0.254 A  
HETATM   10  C   UNL     1     -12.006  11.541  70.053  1.00  0.00    -0.435 A  
HETATM   11  C   UNL     1     -12.789  11.086  71.126  1.00  0.00    -0.491 A  
HETATM   12  C   UNL     1     -13.320  11.987  72.031  1.00  0.00    -0.447 A  
HETATM   13  C   UNL     1     -13.073  13.340  71.846  1.00  0.00    -0.483 A  
HETATM   14  C   UNL     1     -12.287  13.801  70.768  1.00  0.00    -0.379 A  
HETATM   15  S   UNL     1     -12.126  15.564  70.684  1.00  0.00    -0.417 SA 
HETATM   16  C   UNL     1     -10.999  15.781  69.335  1.00  0.00    -0.296 A  
HETATM   17  C   UNL     1     -10.638  17.124  69.095  1.00  0.00    -0.259 A  
HETATM   18  C   UNL     1      -9.747  17.461  68.087  1.00  0.00    -0.291 A  
HETATM   19  C   UNL     1      -9.201  16.452  67.320  1.00  0.00    -0.224 A  
HETATM   20  C   UNL     1      -9.561  15.116  67.553  1.00  0.00    -0.207 A  
HETATM   21  C   UNL     1     -10.480  14.725  68.553  1.00  0.00    -0.249 A  
ENDBRANCH   7   8
ENDBRANCH   5   7
TORSDOF 2
ENDMDL
MODEL       17
REMARK 921   NORMALIZED FREE ENERGY PREDICTED BY IDOCK:   -6.09 KCAL/MOL
REMARK 922        TOTAL FREE ENERGY PREDICTED BY IDOCK:   -7.20 KCAL/MOL
REMARK 923 INTER-LIGAND FREE ENERGY PREDICTED BY IDOCK:   -6.73 KCAL/MOL
REMARK 924 INTRA-LIGAND FREE ENERGY PREDICTED BY IDOCK:   -0.47 KCAL/MOL
REMARK 927      BINDING AFFINITY PREDICTED BY RF-SCORE:    0.00 PKD
ROOT
HETATM    1  C   UNL     1     -12.623  16.164  74.406  1.00  0.00    -0.448 C  
HETATM    2  N   UNL     1     -12.831  15.811  73.011  1.00  0.00    -0.453 NA 
HETATM    3  C   UNL     1     -11.885  16.463  72.108  1.00  0.00    -0.418 C  
HETATM    4  C   UNL     1     -12.108  15.673  70.829  1.00  0.00    -0.454 C  
HETATM    5  C   UNL     1     -12.178  14.229  71.327  1.00  0.00    -0.426 C  
HETATM    6  C   UNL     1     -12.725  14.366  72.760  1.00  0.00    -0.340 C  
ENDROOT
BRANCH   5   7
HETATM    7  C   UNL     1     -13.020  13.257  70.484  1.00  0.00     0.133 C  
BRANCH   7   8
HETATM    8  N   UNL     1     -12.222  12.161  69.870  1.00  0.00    -0.217 NA 
HETATM    9  C   UNL     1     -12.195  10.906  70.568  1.00  0.00    -0.367 A  
HETATM   10  C   UNL     1     -12.855  10.701  71.803  1.00  0.00    -0.549 A  
HETATM   11  C   UNL     1     -12.873   9.462  72.463  1.00  0.00    -0.306 A  
HETATM   12  C   UNL     1     -12.216   8.373  71.919  1.00  0.00    -0.395 A  
HETATM   13  C   UNL     1     -11.534   8.538  70.722  1.00  0.00    -0.281 A  
HETATM   14  C   UNL     1     -11.512   9.783  70.056  1.00  0.00    -0.180 A  
HETATM   15  S   UNL     1     -10.551   9.796  68.567  1.00  0.00    -0.215 SA 
HETATM   16  C   UNL     1     -10.846  11.425  67.936  1.00  0.00    -0.225 A  
HETATM   17  C   UNL     1     -10.237  11.680  66.689  1.00  0.00    -0.249 A  
HETATM   18  C   UNL     1     -10.388  12.901  66.050  1.00  0.00    -0.294 A  
HETATM   19  C   UNL     1     -11.164  13.872  66.651  1.00  0.00    -0.328 A  
HETATM   20  C   UNL     1     -11.768  13.624  67.893  1.00  0.00    -0.395 A  
HETATM   21  C   UNL     1     -11.624  12.404  68.593  1.00  0.00    -0.319 A  
ENDBRANCH   7   8
ENDBRANCH   5   7
TORSDOF 2
ENDMDL
MODEL       18
REMARK 921   NORMALIZED FREE ENERGY PREDICTED BY IDOCK:   -6.09 KCAL/MOL
REMARK 922        TOTAL FREE ENERGY PREDICTED BY IDOCK:   -7.19 KCAL/MOL
REMARK 923 INTER-LIGAND FREE ENERGY PREDICTED BY IDOCK:   -6.77 KCAL/MOL
REMARK 924 INTRA-LIGAND FREE ENERGY PREDICTED BY IDOCK:   -0.42 KCAL/MOL
REMARK 927      BINDING AFFINITY PREDICTED BY RF-SCORE:    0.00 PKD
ROOT
HETATM    1  C   UNL     1     -13.980  13.547  72.315  1.00  0.00    -0.539 C  
HETATM    2  N   UNL     1     -12.823  13.033  71.601  1.00  0.00    -0.317 NA 
HETATM    3  C   UNL     1     -13.018  11.676  71.097  1.00  0.00    -0.212 C  
HETATM    4  C   UNL     1     -11.841  11.544  70.144  1.00  0.00    -0.440 C  
HETATM    5  C   UNL     1     -11.839  12.889  69.416  1.00  0.00    -0.371 C  
HETATM    6  C   UNL     1     -12.441  13.860  70.448  1.00  0.00    -0.334 C  
ENDROOT
BRANCH   5   7
HETATM    7  C   UNL     1     -10.478  13.380  68.895  1.00  0.00    -0.113 C  
BRANCH   7   8
HETATM    8  N   UNL     1     -10.555  14.028  67.557  1.00  0.00    -0.258 NA 
HETATM    9  C   UNL     1     -10.515  15.463  67.526  1.00  0.00    -0.275 A  
HETATM   10  C   UNL     1     -10.445  16.254  68.697  1.00  0.00    -0.282 A  
HETATM   11  C   UNL     1     -10.356  17.655  68.670  1.00  0.00    -0.359 A  
HETATM   12  C   UNL     1     -10.346  18.328  67.461  1.00  0.00    -0.415 A  
HETATM   13  C   UNL     1     -10.441  17.592  66.289  1.00  0.00    -0.292 A  
HETATM   14  C   UNL     1     -10.532  16.183  66.313  1.00  0.00    -0.315 A  
HETATM   15  S   UNL     1     -10.687  15.436  64.714  1.00  0.00    -0.195 SA 
HETATM   16  C   UNL     1     -10.640  13.706  65.094  1.00  0.00    -0.361 A  
HETATM   17  C   UNL     1     -10.677  12.865  63.962  1.00  0.00    -0.429 A  
HETATM   18  C   UNL     1     -10.627  11.485  64.088  1.00  0.00    -0.420 A  
HETATM   19  C   UNL     1     -10.527  10.938  65.352  1.00  0.00    -0.291 A  
HETATM   20  C   UNL     1     -10.494  11.771  66.481  1.00  0.00    -0.265 A  
HETATM   21  C   UNL     1     -10.564  13.181  66.404  1.00  0.00    -0.286 A  
ENDBRANCH   7   8
ENDBRANCH   5   7
TORSDOF 2
ENDMDL
MODEL       19
REMARK 921   NORMALIZED FREE ENERGY PREDICTED BY IDOCK:   -6.09 KCAL/MOL
REMARK 922        TOTAL FREE ENERGY PREDICTED BY IDOCK:   -7.19 KCAL/MOL
REMARK 923 INTER-LIGAND FREE ENERGY PREDICTED BY IDOCK:   -6.78 KCAL/MOL
REMARK 924 INTRA-LIGAND FREE ENERGY PREDICTED BY IDOCK:   -0.41 KCAL/MOL
REMARK 927      BINDING AFFINITY PREDICTED BY RF-SCORE:    0.00 PKD
ROOT
HETATM    1  C   UNL     1      -9.864   7.917  67.203  1.00  0.00    -0.208 C  
HETATM    2  N   UNL     1     -10.614   8.822  68.060  1.00  0.00    -0.197 NA 
HETATM    3  C   UNL     1     -10.005   9.001  69.376  1.00  0.00    -0.191 C  
HETATM    4  C   UNL     1     -10.774  10.205  69.895  1.00  0.00    -0.340 C  
HETATM    5  C   UNL     1     -10.815  11.133  68.680  1.00  0.00    -0.251 C  
HETATM    6  C   UNL     1     -10.772  10.165  67.483  1.00  0.00    -0.290 C  
ENDROOT
BRANCH   5   7
HETATM    7  C   UNL     1     -12.013  12.092  68.596  1.00  0.00    -0.237 C  
BRANCH   7   8
HETATM    8  N   UNL     1     -11.653  13.514  68.849  1.00  0.00    -0.299 NA 
HETATM    9  C   UNL     1     -11.086  14.247  67.752  1.00  0.00    -0.280 A  
HETATM   10  C   UNL     1     -10.835  13.663  66.487  1.00  0.00    -0.283 A  
HETATM   11  C   UNL     1     -10.329  14.387  65.397  1.00  0.00    -0.400 A  
HETATM   12  C   UNL     1     -10.038  15.733  65.531  1.00  0.00    -0.383 A  
HETATM   13  C   UNL     1     -10.244  16.339  66.762  1.00  0.00    -0.280 A  
HETATM   14  C   UNL     1     -10.752  15.613  67.861  1.00  0.00    -0.294 A  
HETATM   15  S   UNL     1     -10.901  16.558  69.352  1.00  0.00    -0.285 SA 
HETATM   16  C   UNL     1     -11.674  15.409  70.457  1.00  0.00    -0.325 A  
HETATM   17  C   UNL     1     -11.977  15.944  71.727  1.00  0.00    -0.573 A  
HETATM   18  C   UNL     1     -12.603  15.179  72.700  1.00  0.00    -0.466 A  
HETATM   19  C   UNL     1     -12.941  13.874  72.401  1.00  0.00    -0.457 A  
HETATM   20  C   UNL     1     -12.638  13.338  71.141  1.00  0.00    -0.412 A  
HETATM   21  C   UNL     1     -11.982  14.071  70.125  1.00  0.00    -0.330 A  
ENDBRANCH   7   8
ENDBRANCH   5   7
TORSDOF 2
ENDMDL
MODEL       20
REMARK 921   NORMALIZED FREE ENERGY PREDICTED BY IDOCK:   -6.07 KCAL/MOL
REMARK 922        TOTAL FREE ENERGY PREDICTED BY IDOCK:   -7.18 KCAL/MOL
REMARK 923 INTER-LIGAND FREE ENERGY PREDICTED BY IDOCK:   -6.93 KCAL/MOL
REMARK 924 INTRA-LIGAND FREE ENERGY PREDICTED BY IDOCK:   -0.24 KCAL/MOL
REMARK 927      BINDING AFFINITY PREDICTED BY RF-SCORE:    0.00 PKD
ROOT
HETATM    1  C   UNL     1     -11.919  16.118  72.098  1.00  0.00    -0.537 C  
HETATM    2  N   UNL     1     -12.079  15.727  70.707  1.00  0.00    -0.400 NA 
HETATM    3  C   UNL     1     -11.011  16.226  69.845  1.00  0.00    -0.365 C  
HETATM    4  C   UNL     1     -11.243  15.409  68.585  1.00  0.00    -0.312 C  
HETATM    5  C   UNL     1     -11.510  14.006  69.132  1.00  0.00    -0.340 C  
HETATM    6  C   UNL     1     -12.126  14.270  70.518  1.00  0.00    -0.343 C  
ENDROOT
BRANCH   5   7
HETATM    7  C   UNL     1     -12.405  13.098  68.272  1.00  0.00     0.175 C  
BRANCH   7   8
HETATM    8  N   UNL     1     -11.697  11.902  67.739  1.00  0.00    -0.516 NA 
HETATM    9  C   UNL     1     -11.284  11.950  66.365  1.00  0.00    -0.331 A  
HETATM   10  C   UNL     1     -11.556  13.052  65.520  1.00  0.00    -0.382 A  
HETATM   11  C   UNL     1     -11.111  13.125  64.191  1.00  0.00    -0.426 A  
HETATM   12  C   UNL     1     -10.382  12.085  63.643  1.00  0.00    -0.482 A  
HETATM   13  C   UNL     1     -10.115  10.972  64.429  1.00  0.00    -0.393 A  
HETATM   14  C   UNL     1     -10.563  10.896  65.766  1.00  0.00    -0.163 A  
HETATM   15  S   UNL     1     -10.158   9.377  66.584  1.00  0.00    -0.255 SA 
HETATM   16  C   UNL     1     -10.731   9.667  68.235  1.00  0.00    -0.217 A  
HETATM   17  C   UNL     1     -10.461   8.613  69.133  1.00  0.00    -0.223 A  
HETATM   18  C   UNL     1     -10.827   8.693  70.468  1.00  0.00    -0.257 A  
HETATM   19  C   UNL     1     -11.456   9.838  70.916  1.00  0.00    -0.447 A  
HETATM   20  C   UNL     1     -11.729  10.886  70.024  1.00  0.00    -0.427 A  
HETATM   21  C   UNL     1     -11.396  10.842  68.651  1.00  0.00    -0.291 A  
ENDBRANCH   7   8
ENDBRANCH   5   7
TORSDOF 2
ENDMDL
MODEL       21
REMARK 921   NORMALIZED FREE ENERGY PREDICTED BY IDOCK:   -5.94 KCAL/MOL
REMARK 922        TOTAL FREE ENERGY PREDICTED BY IDOCK:   -7.03 KCAL/MOL
REMARK 923 INTER-LIGAND FREE ENERGY PREDICTED BY IDOCK:   -6.74 KCAL/MOL
REMARK 924 INTRA-LIGAND FREE ENERGY PREDICTED BY IDOCK:   -0.29 KCAL/MOL
REMARK 927      BINDING AFFINITY PREDICTED BY RF-SCORE:    0.00 PKD
ROOT
HETATM    1  C   UNL     1     -10.365  11.160  63.337  1.00  0.00    -0.360 C  
HETATM    2  N   UNL     1     -10.444  11.640  64.708  1.00  0.00    -0.279 NA 
HETATM    3  C   UNL     1     -11.725  12.266  65.023  1.00  0.00    -0.352 C  
HETATM    4  C   UNL     1     -11.648  12.348  66.539  1.00  0.00    -0.447 C  
HETATM    5  C   UNL     1     -11.084  10.980  66.925  1.00  0.00    -0.280 C  
HETATM    6  C   UNL     1     -10.237  10.579  65.704  1.00  0.00    -0.246 C  
ENDROOT
BRANCH   5   7
HETATM    7  C   UNL     1     -10.269  10.923  68.229  1.00  0.00    -0.173 C  
BRANCH   7   8
HETATM    8  N   UNL     1     -11.059  10.456  69.400  1.00  0.00    -0.239 NA 
HETATM    9  C   UNL     1     -11.759  11.457  70.155  1.00  0.00    -0.328 A  
HETATM   10  C   UNL     1     -11.690  12.837  69.848  1.00  0.00    -0.321 A  
HETATM   11  C   UNL     1     -12.411  13.814  70.552  1.00  0.00    -0.429 A  
HETATM   12  C   UNL     1     -13.227  13.451  71.608  1.00  0.00    -0.449 A  
HETATM   13  C   UNL     1     -13.303  12.111  71.960  1.00  0.00    -0.470 A  
HETATM   14  C   UNL     1     -12.577  11.126  71.255  1.00  0.00    -0.398 A  
HETATM   15  S   UNL     1     -12.777   9.482  71.888  1.00  0.00    -0.417 SA 
HETATM   16  C   UNL     1     -11.867   8.510  70.720  1.00  0.00    -0.163 A  
HETATM   17  C   UNL     1     -11.923   7.120  70.957  1.00  0.00    -0.387 A  
HETATM   18  C   UNL     1     -11.280   6.220  70.121  1.00  0.00    -0.470 A  
HETATM   19  C   UNL     1     -10.585   6.708  69.031  1.00  0.00    -0.273 A  
HETATM   20  C   UNL     1     -10.523   8.089  68.795  1.00  0.00    -0.196 A  
HETATM   21  C   UNL     1     -11.144   9.046  69.631  1.00  0.00    -0.067 A  
ENDBRANCH   7   8
ENDBRANCH   5   7
TORSDOF 2
ENDMDL
MODEL       22
REMARK 921   NORMALIZED FREE ENERGY PREDICTED BY IDOCK:   -5.93 KCAL/MOL
REMARK 922        TOTAL FREE ENERGY PREDICTED BY IDOCK:   -7.01 KCAL/MOL
REMARK 923 INTER-LIGAND FREE ENERGY PREDICTED BY IDOCK:   -6.67 KCAL/MOL
REMARK 924 INTRA-LIGAND FREE ENERGY PREDICTED BY IDOCK:   -0.34 KCAL/MOL
REMARK 927      BINDING AFFINITY PREDICTED BY RF-SCORE:    0.00 PKD
ROOT
HETATM    1  C   UNL     1     -12.077  12.430  63.505  1.00  0.00    -0.558 C  
HETATM    2  N   UNL     1     -11.420  13.050  64.645  1.00  0.00    -0.322 NA 
HETATM    3  C   UNL     1     -11.989  14.348  64.998  1.00  0.00    -0.412 C  
HETATM    4  C   UNL     1     -11.368  14.580  66.366  1.00  0.00    -0.349 C  
HETATM    5  C   UNL     1     -11.506  13.213  67.039  1.00  0.00    -0.379 C  
HETATM    6  C   UNL     1     -11.470  12.224  65.860  1.00  0.00    -0.376 C  
ENDROOT
BRANCH   5   7
HETATM    7  C   UNL     1     -10.453  12.869  68.105  1.00  0.00    -0.237 C  
BRANCH   7   8
HETATM    8  N   UNL     1     -10.894  11.810  69.054  1.00  0.00    -0.213 NA 
HETATM    9  C   UNL     1     -10.300  10.512  68.901  1.00  0.00    -0.208 A  
HETATM   10  C   UNL     1      -9.364  10.211  67.882  1.00  0.00    -0.151 A  
HETATM   11  C   UNL     1      -8.744   8.958  67.760  1.00  0.00    -0.125 A  
HETATM   12  C   UNL     1      -9.045   7.942  68.649  1.00  0.00    -0.136 A  
HETATM   13  C   UNL     1      -9.978   8.186  69.647  1.00  0.00    -0.193 A  
HETATM   14  C   UNL     1     -10.605   9.445  69.772  1.00  0.00    -0.231 A  
HETATM   15  S   UNL     1     -11.795   9.539  71.082  1.00  0.00    -0.384 SA 
HETATM   16  C   UNL     1     -12.272  11.245  71.043  1.00  0.00    -0.311 A  
HETATM   17  C   UNL     1     -13.183  11.613  72.056  1.00  0.00    -0.443 A  
HETATM   18  C   UNL     1     -13.639  12.916  72.175  1.00  0.00    -0.589 A  
HETATM   19  C   UNL     1     -13.175  13.865  71.286  1.00  0.00    -0.352 A  
HETATM   20  C   UNL     1     -12.272  13.502  70.275  1.00  0.00    -0.417 A  
HETATM   21  C   UNL     1     -11.796  12.183  70.100  1.00  0.00    -0.287 A  
ENDBRANCH   7   8
ENDBRANCH   5   7
TORSDOF 2
ENDMDL
MODEL       23
REMARK 921   NORMALIZED FREE ENERGY PREDICTED BY IDOCK:   -5.85 KCAL/MOL
REMARK 922        TOTAL FREE ENERGY PREDICTED BY IDOCK:   -6.93 KCAL/MOL
REMARK 923 INTER-LIGAND FREE ENERGY PREDICTED BY IDOCK:   -6.48 KCAL/MOL
REMARK 924 INTRA-LIGAND FREE ENERGY PREDICTED BY IDOCK:   -0.45 KCAL/MOL
REMARK 927      BINDING AFFINITY PREDICTED BY RF-SCORE:    0.00 PKD
ROOT
HETATM    1  C   UNL     1     -10.253  11.449  63.661  1.00  0.00    -0.397 C  
HETATM    2  N   UNL     1     -10.339  11.872  65.050  1.00  0.00    -0.277 NA 
HETATM    3  C   UNL     1     -11.582  12.574  65.359  1.00  0.00    -0.375 C  
HETATM    4  C   UNL     1     -11.546  12.582  66.879  1.00  0.00    -0.436 C  
HETATM    5  C   UNL     1     -11.092  11.161  67.216  1.00  0.00    -0.366 C  
HETATM    6  C   UNL     1     -10.239  10.755  66.000  1.00  0.00    -0.251 C  
ENDROOT
BRANCH   5   7
HETATM    7  C   UNL     1     -10.324  10.987  68.537  1.00  0.00    -0.190 C  
BRANCH   7   8
HETATM    8  N   UNL     1     -11.106  10.279  69.587  1.00  0.00    -0.257 NA 
HETATM    9  C   UNL     1     -10.908   8.861  69.702  1.00  0.00    -0.178 A  
HETATM   10  C   UNL     1     -10.045   8.136  68.846  1.00  0.00    -0.211 A  
HETATM   11  C   UNL     1      -9.809   6.759  68.986  1.00  0.00    -0.152 A  
HETATM   12  C   UNL     1     -10.442   6.043  69.986  1.00  0.00    -0.313 A  
HETATM   13  C   UNL     1     -11.317   6.710  70.831  1.00  0.00    -0.377 A  
HETATM   14  C   UNL     1     -11.557   8.095  70.692  1.00  0.00    -0.194 A  
HETATM   15  S   UNL     1     -12.739   8.748  71.840  1.00  0.00    -0.401 SA 
HETATM   16  C   UNL     1     -12.697  10.483  71.485  1.00  0.00    -0.452 A  
HETATM   17  C   UNL     1     -13.517  11.264  72.328  1.00  0.00    -0.026 A  
HETATM   18  C   UNL     1     -13.581  12.642  72.194  1.00  0.00    -0.510 A  
HETATM   19  C   UNL     1     -12.812  13.250  71.221  1.00  0.00    -0.398 A  
HETATM   20  C   UNL     1     -11.999  12.477  70.379  1.00  0.00    -0.335 A  
HETATM   21  C   UNL     1     -11.918  11.068  70.463  1.00  0.00    -0.379 A  
ENDBRANCH   7   8
ENDBRANCH   5   7
TORSDOF 2
ENDMDL
MODEL       24
REMARK 921   NORMALIZED FREE ENERGY PREDICTED BY IDOCK:   -5.79 KCAL/MOL
REMARK 922        TOTAL FREE ENERGY PREDICTED BY IDOCK:   -6.86 KCAL/MOL
REMARK 923 INTER-LIGAND FREE ENERGY PREDICTED BY IDOCK:   -6.64 KCAL/MOL
REMARK 924 INTRA-LIGAND FREE ENERGY PREDICTED BY IDOCK:   -0.23 KCAL/MOL
REMARK 927      BINDING AFFINITY PREDICTED BY RF-SCORE:    0.00 PKD
ROOT
HETATM    1  C   UNL     1     -13.630  13.366  71.867  1.00  0.00    -0.409 C  
HETATM    2  N   UNL     1     -12.460  12.919  71.127  1.00  0.00    -0.322 NA 
HETATM    3  C   UNL     1     -12.529  11.512  70.743  1.00  0.00    -0.349 C  
HETATM    4  C   UNL     1     -11.395  11.426  69.735  1.00  0.00    -0.332 C  
HETATM    5  C   UNL     1     -11.579  12.698  68.905  1.00  0.00    -0.363 C  
HETATM    6  C   UNL     1     -12.231  13.683  69.893  1.00  0.00    -0.304 C  
ENDROOT
BRANCH   5   7
HETATM    7  C   UNL     1     -10.308  13.285  68.268  1.00  0.00    -0.249 C  
BRANCH   7   8
HETATM    8  N   UNL     1     -10.587  14.202  67.129  1.00  0.00    -0.277 NA 
HETATM    9  C   UNL     1     -11.100  13.608  65.926  1.00  0.00    -0.284 A  
HETATM   10  C   UNL     1     -11.306  12.214  65.786  1.00  0.00    -0.402 A  
HETATM   11  C   UNL     1     -11.854  11.635  64.631  1.00  0.00    -0.101 A  
HETATM   12  C   UNL     1     -12.209  12.429  63.555  1.00  0.00    -0.661 A  
HETATM   13  C   UNL     1     -11.999  13.798  63.640  1.00  0.00    -0.298 A  
HETATM   14  C   UNL     1     -11.447  14.384  64.800  1.00  0.00    -0.402 A  
HETATM   15  S   UNL     1     -11.219  16.138  64.693  1.00  0.00    -0.127 SA 
HETATM   16  C   UNL     1     -10.655  16.551  66.321  1.00  0.00    -0.223 A  
HETATM   17  C   UNL     1     -10.460  17.933  66.531  1.00  0.00    -0.315 A  
HETATM   18  C   UNL     1     -10.039  18.421  67.759  1.00  0.00    -0.377 A  
HETATM   19  C   UNL     1      -9.823  17.528  68.789  1.00  0.00    -0.326 A  
HETATM   20  C   UNL     1     -10.012  16.154  68.583  1.00  0.00    -0.228 A  
HETATM   21  C   UNL     1     -10.418  15.606  67.344  1.00  0.00    -0.291 A  
ENDBRANCH   7   8
ENDBRANCH   5   7
TORSDOF 2
ENDMDL
MODEL       25
REMARK 921   NORMALIZED FREE ENERGY PREDICTED BY IDOCK:   -5.75 KCAL/MOL
REMARK 922        TOTAL FREE ENERGY PREDICTED BY IDOCK:   -6.82 KCAL/MOL
REMARK 923 INTER-LIGAND FREE ENERGY PREDICTED BY IDOCK:   -6.68 KCAL/MOL
REMARK 924 INTRA-LIGAND FREE ENERGY PREDICTED BY IDOCK:   -0.14 KCAL/MOL
REMARK 927      BINDING AFFINITY PREDICTED BY RF-SCORE:    0.00 PKD
ROOT
HETATM    1  C   UNL     1      -5.973  17.314  69.619  1.00  0.00    -0.244 C  
HETATM    2  N   UNL     1      -7.256  17.832  69.169  1.00  0.00    -0.200 NA 
HETATM    3  C   UNL     1      -7.160  18.603  67.932  1.00  0.00    -0.233 C  
HETATM    4  C   UNL     1      -8.624  18.712  67.539  1.00  0.00    -0.284 C  
HETATM    5  C   UNL     1      -9.152  17.300  67.797  1.00  0.00    -0.235 C  
HETATM    6  C   UNL     1      -8.253  16.779  68.934  1.00  0.00    -0.224 C  
ENDROOT
BRANCH   5   7
HETATM    7  C   UNL     1     -10.645  17.185  68.151  1.00  0.00    -0.380 C  
BRANCH   7   8
HETATM    8  N   UNL     1     -11.093  15.784  68.379  1.00  0.00    -0.323 NA 
HETATM    9  C   UNL     1     -11.026  14.889  67.258  1.00  0.00    -0.323 A  
HETATM   10  C   UNL     1     -10.595  15.298  65.974  1.00  0.00    -0.327 A  
HETATM   11  C   UNL     1     -10.480  14.416  64.888  1.00  0.00    -0.448 A  
HETATM   12  C   UNL     1     -10.807  13.080  65.039  1.00  0.00    -0.328 A  
HETATM   13  C   UNL     1     -11.260  12.642  66.275  1.00  0.00    -0.354 A  
HETATM   14  C   UNL     1     -11.377  13.527  67.369  1.00  0.00    -0.311 A  
HETATM   15  S   UNL     1     -12.014  12.781  68.845  1.00  0.00    -0.170 SA 
HETATM   16  C   UNL     1     -11.904  14.103  70.019  1.00  0.00    -0.323 A  
HETATM   17  C   UNL     1     -12.293  13.746  71.328  1.00  0.00    -0.394 A  
HETATM   18  C   UNL     1     -12.245  14.661  72.368  1.00  0.00    -0.312 A  
HETATM   19  C   UNL     1     -11.794  15.940  72.106  1.00  0.00    -0.615 A  
HETATM   20  C   UNL     1     -11.410  16.299  70.806  1.00  0.00    -0.327 A  
HETATM   21  C   UNL     1     -11.462  15.408  69.709  1.00  0.00    -0.324 A  
ENDBRANCH   7   8
ENDBRANCH   5   7
TORSDOF 2
ENDMDL
MODEL       26
REMARK 921   NORMALIZED FREE ENERGY PREDICTED BY IDOCK:   -5.75 KCAL/MOL
REMARK 922        TOTAL FREE ENERGY PREDICTED BY IDOCK:   -6.82 KCAL/MOL
REMARK 923 INTER-LIGAND FREE ENERGY PREDICTED BY IDOCK:   -6.65 KCAL/MOL
REMARK 924 INTRA-LIGAND FREE ENERGY PREDICTED BY IDOCK:   -0.16 KCAL/MOL
REMARK 927      BINDING AFFINITY PREDICTED BY RF-SCORE:    0.00 PKD
ROOT
HETATM    1  C   UNL     1     -11.141  11.296  63.534  1.00  0.00    -0.173 C  
HETATM    2  N   UNL     1     -11.117  12.137  64.720  1.00  0.00    -0.306 NA 
HETATM    3  C   UNL     1     -12.442  12.605  65.117  1.00  0.00    -0.463 C  
HETATM    4  C   UNL     1     -12.160  13.139  66.512  1.00  0.00    -0.423 C  
HETATM    5  C   UNL     1     -11.262  12.059  67.115  1.00  0.00    -0.374 C  
HETATM    6  C   UNL     1     -10.539  11.464  65.892  1.00  0.00    -0.263 C  
ENDROOT
BRANCH   5   7
HETATM    7  C   UNL     1     -10.270  12.522  68.195  1.00  0.00    -0.231 C  
BRANCH   7   8
HETATM    8  N   UNL     1     -10.784  13.641  69.031  1.00  0.00    -0.209 NA 
HETATM    9  C   UNL     1     -10.427  14.972  68.628  1.00  0.00    -0.238 A  
HETATM   10  C   UNL     1      -9.593  15.239  67.515  1.00  0.00    -0.206 A  
HETATM   11  C   UNL     1      -9.282  16.539  67.088  1.00  0.00    -0.226 A  
HETATM   12  C   UNL     1      -9.783  17.635  67.768  1.00  0.00    -0.280 A  
HETATM   13  C   UNL     1     -10.582  17.418  68.882  1.00  0.00    -0.243 A  
HETATM   14  C   UNL     1     -10.897  16.111  69.315  1.00  0.00    -0.310 A  
HETATM   15  S   UNL     1     -11.894  16.049  70.778  1.00  0.00    -0.268 SA 
HETATM   16  C   UNL     1     -12.204  14.314  70.956  1.00  0.00    -0.356 A  
HETATM   17  C   UNL     1     -13.056  13.987  72.033  1.00  0.00    -0.487 A  
HETATM   18  C   UNL     1     -13.413  12.673  72.295  1.00  0.00    -0.541 A  
HETATM   19  C   UNL     1     -12.930  11.677  71.470  1.00  0.00    -0.463 A  
HETATM   20  C   UNL     1     -12.080  11.998  70.401  1.00  0.00    -0.407 A  
HETATM   21  C   UNL     1     -11.670  13.319  70.107  1.00  0.00    -0.184 A  
ENDBRANCH   7   8
ENDBRANCH   5   7
TORSDOF 2
ENDMDL
MODEL       27
REMARK 921   NORMALIZED FREE ENERGY PREDICTED BY IDOCK:   -5.74 KCAL/MOL
REMARK 922        TOTAL FREE ENERGY PREDICTED BY IDOCK:   -6.81 KCAL/MOL
REMARK 923 INTER-LIGAND FREE ENERGY PREDICTED BY IDOCK:   -6.54 KCAL/MOL
REMARK 924 INTRA-LIGAND FREE ENERGY PREDICTED BY IDOCK:   -0.26 KCAL/MOL
REMARK 927      BINDING AFFINITY PREDICTED BY RF-SCORE:    0.00 PKD
ROOT
HETATM    1  C   UNL     1      -9.636  10.288  62.629  1.00  0.00    -0.212 C  
HETATM    2  N   UNL     1      -9.667  11.454  63.498  1.00  0.00    -0.316 NA 
HETATM    3  C   UNL     1     -10.948  12.155  63.470  1.00  0.00    -0.453 C  
HETATM    4  C   UNL     1     -10.808  13.071  64.675  1.00  0.00    -0.373 C  
HETATM    5  C   UNL     1     -10.197  12.152  65.733  1.00  0.00    -0.282 C  
HETATM    6  C   UNL     1      -9.394  11.132  64.906  1.00  0.00    -0.194 C  
ENDROOT
BRANCH   5   7
HETATM    7  C   UNL     1      -9.327  12.831  66.804  1.00  0.00    -0.241 C  
BRANCH   7   8
HETATM    8  N   UNL     1     -10.099  13.709  67.725  1.00  0.00    -0.237 NA 
HETATM    9  C   UNL     1     -10.037  15.123  67.480  1.00  0.00    -0.232 A  
HETATM   10  C   UNL     1      -9.258  15.688  66.442  1.00  0.00    -0.346 A  
HETATM   11  C   UNL     1      -9.234  17.064  66.167  1.00  0.00    -0.244 A  
HETATM   12  C   UNL     1      -9.984  17.940  66.932  1.00  0.00    -0.335 A  
HETATM   13  C   UNL     1     -10.742  17.430  67.976  1.00  0.00    -0.359 A  
HETATM   14  C   UNL     1     -10.767  16.046  68.257  1.00  0.00    -0.298 A  
HETATM   15  S   UNL     1     -11.761  15.605  69.656  1.00  0.00    -0.364 SA 
HETATM   16  C   UNL     1     -11.680  13.835  69.638  1.00  0.00    -0.318 A  
HETATM   17  C   UNL     1     -12.463  13.211  70.633  1.00  0.00    -0.363 A  
HETATM   18  C   UNL     1     -12.524  11.830  70.740  1.00  0.00    -0.405 A  
HETATM   19  C   UNL     1     -11.810  11.063  69.841  1.00  0.00    -0.431 A  
HETATM   20  C   UNL     1     -11.028  11.680  68.853  1.00  0.00    -0.282 A  
HETATM   21  C   UNL     1     -10.916  13.083  68.718  1.00  0.00    -0.258 A  
ENDBRANCH   7   8
ENDBRANCH   5   7
TORSDOF 2
ENDMDL
MODEL       28
REMARK 921   NORMALIZED FREE ENERGY PREDICTED BY IDOCK:   -5.69 KCAL/MOL
REMARK 922        TOTAL FREE ENERGY PREDICTED BY IDOCK:   -6.75 KCAL/MOL
REMARK 923 INTER-LIGAND FREE ENERGY PREDICTED BY IDOCK:   -6.28 KCAL/MOL
REMARK 924 INTRA-LIGAND FREE ENERGY PREDICTED BY IDOCK:   -0.48 KCAL/MOL
REMARK 927      BINDING AFFINITY PREDICTED BY RF-SCORE:    0.00 PKD
ROOT
HETATM    1  C   UNL     1     -12.772  15.750  71.870  1.00  0.00    -0.451 C  
HETATM    2  N   UNL     1     -12.760  15.000  70.624  1.00  0.00    -0.365 NA 
HETATM    3  C   UNL     1     -11.831  15.545  69.637  1.00  0.00    -0.366 C  
HETATM    4  C   UNL     1     -11.779  14.411  68.625  1.00  0.00    -0.367 C  
HETATM    5  C   UNL     1     -11.679  13.168  69.511  1.00  0.00    -0.382 C  
HETATM    6  C   UNL     1     -12.403  13.586  70.804  1.00  0.00    -0.363 C  
ENDROOT
BRANCH   5   7
HETATM    7  C   UNL     1     -12.257  11.868  68.927  1.00  0.00    -0.006 C  
BRANCH   7   8
HETATM    8  N   UNL     1     -11.216  10.931  68.424  1.00  0.00    -0.262 NA 
HETATM    9  C   UNL     1     -10.682   9.987  69.365  1.00  0.00    -0.233 A  
HETATM   10  C   UNL     1     -11.078   9.949  70.724  1.00  0.00    -0.417 A  
HETATM   11  C   UNL     1     -10.596   8.996  71.634  1.00  0.00    -0.434 A  
HETATM   12  C   UNL     1      -9.681   8.043  71.226  1.00  0.00    -0.199 A  
HETATM   13  C   UNL     1      -9.245   8.061  69.908  1.00  0.00    -0.152 A  
HETATM   14  C   UNL     1      -9.727   9.019  68.990  1.00  0.00    -0.167 A  
HETATM   15  S   UNL     1      -9.015   8.898  67.371  1.00  0.00    -0.132 SA 
HETATM   16  C   UNL     1      -9.919  10.123  66.465  1.00  0.00    -0.224 A  
HETATM   17  C   UNL     1      -9.588  10.188  65.094  1.00  0.00    -0.354 A  
HETATM   18  C   UNL     1     -10.220  11.081  64.242  1.00  0.00    -0.414 A  
HETATM   19  C   UNL     1     -11.199  11.908  64.756  1.00  0.00    -0.356 A  
HETATM   20  C   UNL     1     -11.528  11.849  66.119  1.00  0.00    -0.352 A  
HETATM   21  C   UNL     1     -10.896  10.972  67.031  1.00  0.00    -0.279 A  
ENDBRANCH   7   8
ENDBRANCH   5   7
TORSDOF 2
ENDMDL
MODEL       29
REMARK 921   NORMALIZED FREE ENERGY PREDICTED BY IDOCK:   -5.68 KCAL/MOL
REMARK 922        TOTAL FREE ENERGY PREDICTED BY IDOCK:   -6.74 KCAL/MOL
REMARK 923 INTER-LIGAND FREE ENERGY PREDICTED BY IDOCK:   -6.37 KCAL/MOL
REMARK 924 INTRA-LIGAND FREE ENERGY PREDICTED BY IDOCK:   -0.37 KCAL/MOL
REMARK 927      BINDING AFFINITY PREDICTED BY RF-SCORE:    0.00 PKD
ROOT
HETATM    1  C   UNL     1      -9.454  10.289  63.826  1.00  0.00    -0.300 C  
HETATM    2  N   UNL     1      -9.854  11.181  64.902  1.00  0.00    -0.249 NA 
HETATM    3  C   UNL     1     -11.262  11.566  64.833  1.00  0.00    -0.173 C  
HETATM    4  C   UNL     1     -11.466  12.182  66.208  1.00  0.00    -0.433 C  
HETATM    5  C   UNL     1     -10.744  11.200  67.132  1.00  0.00    -0.305 C  
HETATM    6  C   UNL     1      -9.639  10.607  66.238  1.00  0.00    -0.185 C  
ENDROOT
BRANCH   5   7
HETATM    7  C   UNL     1     -10.172  11.786  68.434  1.00  0.00    -0.206 C  
BRANCH   7   8
HETATM    8  N   UNL     1     -11.154  11.812  69.552  1.00  0.00    -0.183 NA 
HETATM    9  C   UNL     1     -11.423  10.565  70.211  1.00  0.00    -0.333 A  
HETATM   10  C   UNL     1     -10.828   9.343  69.815  1.00  0.00    -0.250 A  
HETATM   11  C   UNL     1     -11.050   8.132  70.487  1.00  0.00    -0.257 A  
HETATM   12  C   UNL     1     -11.892   8.087  71.583  1.00  0.00    -0.329 A  
HETATM   13  C   UNL     1     -12.518   9.258  71.989  1.00  0.00    -0.451 A  
HETATM   14  C   UNL     1     -12.298  10.478  71.314  1.00  0.00    -0.397 A  
HETATM   15  S   UNL     1     -13.222  11.845  71.962  1.00  0.00    -0.153 SA 
HETATM   16  C   UNL     1     -12.620  13.204  70.998  1.00  0.00    -0.312 A  
HETATM   17  C   UNL     1     -13.156  14.456  71.367  1.00  0.00    -0.416 A  
HETATM   18  C   UNL     1     -12.771  15.622  70.724  1.00  0.00    -0.483 A  
HETATM   19  C   UNL     1     -11.835  15.543  69.712  1.00  0.00    -0.376 A  
HETATM   20  C   UNL     1     -11.303  14.300  69.339  1.00  0.00    -0.325 A  
HETATM   21  C   UNL     1     -11.680  13.082  69.950  1.00  0.00    -0.256 A  
ENDBRANCH   7   8
ENDBRANCH   5   7
TORSDOF 2
ENDMDL
MODEL       30
REMARK 921   NORMALIZED FREE ENERGY PREDICTED BY IDOCK:   -5.67 KCAL/MOL
REMARK 922        TOTAL FREE ENERGY PREDICTED BY IDOCK:   -6.73 KCAL/MOL
REMARK 923 INTER-LIGAND FREE ENERGY PREDICTED BY IDOCK:   -6.38 KCAL/MOL
REMARK 924 INTRA-LIGAND FREE ENERGY PREDICTED BY IDOCK:   -0.35 KCAL/MOL
REMARK 927      BINDING AFFINITY PREDICTED BY RF-SCORE:    0.00 PKD
ROOT
HETATM    1  C   UNL     1      -7.808   7.538  69.978  1.00  0.00    -0.099 C  
HETATM    2  N   UNL     1      -9.108   8.184  70.073  1.00  0.00    -0.150 NA 
HETATM    3  C   UNL     1      -9.311   8.876  71.343  1.00  0.00    -0.268 C  
HETATM    4  C   UNL     1     -10.546   9.705  71.032  1.00  0.00    -0.362 C  
HETATM    5  C   UNL     1     -10.247  10.251  69.635  1.00  0.00    -0.268 C  
HETATM    6  C   UNL     1      -9.340   9.174  69.012  1.00  0.00    -0.151 C  
ENDROOT
BRANCH   5   7
HETATM    7  C   UNL     1     -11.465  10.555  68.747  1.00  0.00    -0.224 C  
BRANCH   7   8
HETATM    8  N   UNL     1     -11.424  11.909  68.129  1.00  0.00    -0.295 NA 
HETATM    9  C   UNL     1     -11.745  13.022  68.978  1.00  0.00    -0.329 A  
HETATM   10  C   UNL     1     -12.124  12.869  70.333  1.00  0.00    -0.385 A  
HETATM   11  C   UNL     1     -12.389  13.956  71.180  1.00  0.00    -0.440 A  
HETATM   12  C   UNL     1     -12.300  15.250  70.700  1.00  0.00    -0.427 A  
HETATM   13  C   UNL     1     -11.957  15.444  69.369  1.00  0.00    -0.351 A  
HETATM   14  C   UNL     1     -11.691  14.353  68.514  1.00  0.00    -0.335 A  
HETATM   15  S   UNL     1     -11.314  14.811  66.844  1.00  0.00    -0.340 SA 
HETATM   16  C   UNL     1     -10.909  13.253  66.103  1.00  0.00    -0.280 A  
HETATM   17  C   UNL     1     -10.494  13.345  64.757  1.00  0.00    -0.419 A  
HETATM   18  C   UNL     1     -10.123  12.218  64.040  1.00  0.00    -0.351 A  
HETATM   19  C   UNL     1     -10.152  10.990  64.672  1.00  0.00    -0.370 A  
HETATM   20  C   UNL     1     -10.568  10.895  66.008  1.00  0.00    -0.254 A  
HETATM   21  C   UNL     1     -10.977  12.012  66.773  1.00  0.00    -0.285 A  
ENDBRANCH   7   8
ENDBRANCH   5   7
TORSDOF 2
ENDMDL
MODEL       31
REMARK 921   NORMALIZED FREE ENERGY PREDICTED BY IDOCK:   -5.67 KCAL/MOL
REMARK 922        TOTAL FREE ENERGY PREDICTED BY IDOCK:   -6.73 KCAL/MOL
REMARK 923 INTER-LIGAND FREE ENERGY PREDICTED BY IDOCK:   -6.26 KCAL/MOL
REMARK 924 INTRA-LIGAND FREE ENERGY PREDICTED BY IDOCK:   -0.47 KCAL/MOL
REMARK 927      BINDING AFFINITY PREDICTED BY RF-SCORE:    0.00 PKD
ROOT
HETATM    1  C   UNL     1      -7.591   7.384  69.307  1.00  0.00    -0.101 C  
HETATM    2  N   UNL     1      -8.855   8.073  69.513  1.00  0.00    -0.143 NA 
HETATM    3  C   UNL     1      -8.929   8.762  70.799  1.00  0.00    -0.192 C  
HETATM    4  C   UNL     1     -10.156   9.635  70.594  1.00  0.00    -0.324 C  
HETATM    5  C   UNL     1      -9.954  10.181  69.180  1.00  0.00    -0.221 C  
HETATM    6  C   UNL     1      -9.140   9.078  68.479  1.00  0.00    -0.133 C  
ENDROOT
BRANCH   5   7
HETATM    7  C   UNL     1     -11.230  10.534  68.397  1.00  0.00    -0.279 C  
BRANCH   7   8
HETATM    8  N   UNL     1     -11.207  11.902  67.813  1.00  0.00    -0.247 NA 
HETATM    9  C   UNL     1     -10.862  12.011  66.423  1.00  0.00    -0.278 A  
HETATM   10  C   UNL     1     -10.518  10.891  65.628  1.00  0.00    -0.274 A  
HETATM   11  C   UNL     1     -10.229  10.986  64.258  1.00  0.00    -0.414 A  
HETATM   12  C   UNL     1     -10.259  12.215  63.624  1.00  0.00    -0.459 A  
HETATM   13  C   UNL     1     -10.566  13.343  64.372  1.00  0.00    -0.423 A  
HETATM   14  C   UNL     1     -10.856  13.251  65.751  1.00  0.00    -0.274 A  
HETATM   15  S   UNL     1     -11.179  14.808  66.533  1.00  0.00    -0.332 SA 
HETATM   16  C   UNL     1     -11.627  14.325  68.177  1.00  0.00    -0.332 A  
HETATM   17  C   UNL     1     -12.010  15.398  69.010  1.00  0.00    -0.313 A  
HETATM   18  C   UNL     1     -12.408  15.184  70.321  1.00  0.00    -0.398 A  
HETATM   19  C   UNL     1     -12.439  13.891  70.803  1.00  0.00    -0.445 A  
HETATM   20  C   UNL     1     -12.055  12.822  69.979  1.00  0.00    -0.355 A  
HETATM   21  C   UNL     1     -11.620  12.991  68.644  1.00  0.00    -0.318 A  
ENDBRANCH   7   8
ENDBRANCH   5   7
TORSDOF 2
ENDMDL
MODEL       32
REMARK 921   NORMALIZED FREE ENERGY PREDICTED BY IDOCK:   -5.66 KCAL/MOL
REMARK 922        TOTAL FREE ENERGY PREDICTED BY IDOCK:   -6.71 KCAL/MOL
REMARK 923 INTER-LIGAND FREE ENERGY PREDICTED BY IDOCK:   -6.35 KCAL/MOL
REMARK 924 INTRA-LIGAND FREE ENERGY PREDICTED BY IDOCK:   -0.37 KCAL/MOL
REMARK 927      BINDING AFFINITY PREDICTED BY RF-SCORE:    0.00 PKD
ROOT
HETATM    1  C   UNL     1     -13.110  10.675  71.826  1.00  0.00    -0.466 C  
HETATM    2  N   UNL     1     -11.857  10.629  71.089  1.00  0.00    -0.300 NA 
HETATM    3  C   UNL     1     -11.611   9.334  70.459  1.00  0.00    -0.217 C  
HETATM    4  C   UNL     1     -10.466   9.676  69.519  1.00  0.00    -0.240 C  
HETATM    5  C   UNL     1     -10.907  11.011  68.917  1.00  0.00    -0.262 C  
HETATM    6  C   UNL     1     -11.777  11.637  70.023  1.00  0.00    -0.321 C  
ENDROOT
BRANCH   5   7
HETATM    7  C   UNL     1      -9.784  11.960  68.468  1.00  0.00    -0.169 C  
BRANCH   7   8
HETATM    8  N   UNL     1     -10.184  12.868  67.358  1.00  0.00    -0.228 NA 
HETATM    9  C   UNL     1     -10.408  14.246  67.693  1.00  0.00    -0.248 A  
HETATM   10  C   UNL     1     -10.298  14.742  69.014  1.00  0.00    -0.243 A  
HETATM   11  C   UNL     1     -10.466  16.097  69.339  1.00  0.00    -0.283 A  
HETATM   12  C   UNL     1     -10.767  17.017  68.351  1.00  0.00    -0.361 A  
HETATM   13  C   UNL     1     -10.910  16.569  67.045  1.00  0.00    -0.113 A  
HETATM   14  C   UNL     1     -10.742  15.206  66.716  1.00  0.00    -0.311 A  
HETATM   15  S   UNL     1     -11.010  14.833  65.004  1.00  0.00    -0.428 SA 
HETATM   16  C   UNL     1     -10.594  13.113  64.919  1.00  0.00    -0.349 A  
HETATM   17  C   UNL     1     -10.656  12.567  63.619  1.00  0.00    -0.446 A  
HETATM   18  C   UNL     1     -10.341  11.239  63.380  1.00  0.00    -0.449 A  
HETATM   19  C   UNL     1      -9.948  10.449  64.442  1.00  0.00    -0.388 A  
HETATM   20  C   UNL     1      -9.889  10.987  65.737  1.00  0.00    -0.282 A  
HETATM   21  C   UNL     1     -10.222  12.328  66.033  1.00  0.00    -0.243 A  
ENDBRANCH   7   8
ENDBRANCH   5   7
TORSDOF 2
ENDMDL
MODEL       33
REMARK 921   NORMALIZED FREE ENERGY PREDICTED BY IDOCK:   -5.65 KCAL/MOL
REMARK 922        TOTAL FREE ENERGY PREDICTED BY IDOCK:   -6.70 KCAL/MOL
REMARK 923 INTER-LIGAND FREE ENERGY PREDICTED BY IDOCK:   -6.32 KCAL/MOL
REMARK 924 INTRA-LIGAND FREE ENERGY PREDICTED BY IDOCK:   -0.38 KCAL/MOL
REMARK 927      BINDING AFFINITY PREDICTED BY RF-SCORE:    0.00 PKD
ROOT
HETATM    1  C   UNL     1      -8.542   6.416  72.523  1.00  0.00    -0.123 C  
HETATM    2  N   UNL     1      -9.876   6.912  72.224  1.00  0.00    -0.151 NA 
HETATM    3  C   UNL     1     -10.570   7.434  73.399  1.00  0.00    -0.377 C  
HETATM    4  C   UNL     1     -11.736   8.164  72.753  1.00  0.00    -0.334 C  
HETATM    5  C   UNL     1     -11.075   8.889  71.580  1.00  0.00    -0.420 C  
HETATM    6  C   UNL     1      -9.882   7.986  71.221  1.00  0.00    -0.163 C  
ENDROOT
BRANCH   5   7
HETATM    7  C   UNL     1     -11.970   9.167  70.360  1.00  0.00     0.055 C  
BRANCH   7   8
HETATM    8  N   UNL     1     -11.690  10.474  69.706  1.00  0.00    -0.278 NA 
HETATM    9  C   UNL     1     -11.047  10.436  68.423  1.00  0.00    -0.268 A  
HETATM   10  C   UNL     1     -10.649   9.229  67.800  1.00  0.00    -0.307 A  
HETATM   11  C   UNL     1     -10.066   9.183  66.524  1.00  0.00    -0.357 A  
HETATM   12  C   UNL     1      -9.841  10.352  65.819  1.00  0.00    -0.300 A  
HETATM   13  C   UNL     1     -10.191  11.560  66.405  1.00  0.00    -0.261 A  
HETATM   14  C   UNL     1     -10.777  11.610  67.688  1.00  0.00    -0.207 A  
HETATM   15  S   UNL     1     -11.109  13.249  68.275  1.00  0.00    -0.282 SA 
HETATM   16  C   UNL     1     -11.944  12.944  69.807  1.00  0.00    -0.296 A  
HETATM   17  C   UNL     1     -12.391  14.112  70.463  1.00  0.00    -0.434 A  
HETATM   18  C   UNL     1     -13.080  14.044  71.664  1.00  0.00    -0.435 A  
HETATM   19  C   UNL     1     -13.337  12.802  72.211  1.00  0.00    -0.563 A  
HETATM   20  C   UNL     1     -12.890  11.640  71.565  1.00  0.00    -0.469 A  
HETATM   21  C   UNL     1     -12.166  11.660  70.351  1.00  0.00    -0.347 A  
ENDBRANCH   7   8
ENDBRANCH   5   7
TORSDOF 2
ENDMDL
MODEL       34
REMARK 921   NORMALIZED FREE ENERGY PREDICTED BY IDOCK:   -5.65 KCAL/MOL
REMARK 922        TOTAL FREE ENERGY PREDICTED BY IDOCK:   -6.70 KCAL/MOL
REMARK 923 INTER-LIGAND FREE ENERGY PREDICTED BY IDOCK:   -6.22 KCAL/MOL
REMARK 924 INTRA-LIGAND FREE ENERGY PREDICTED BY IDOCK:   -0.48 KCAL/MOL
REMARK 927      BINDING AFFINITY PREDICTED BY RF-SCORE:    0.00 PKD
ROOT
HETATM    1  C   UNL     1     -12.551  12.927  65.083  1.00  0.00    -0.471 C  
HETATM    2  N   UNL     1     -11.641  13.159  66.194  1.00  0.00    -0.338 NA 
HETATM    3  C   UNL     1     -10.303  12.624  65.959  1.00  0.00    -0.270 C  
HETATM    4  C   UNL     1      -9.518  13.289  67.078  1.00  0.00    -0.243 C  
HETATM    5  C   UNL     1     -10.038  14.728  67.049  1.00  0.00    -0.245 C  
HETATM    6  C   UNL     1     -11.475  14.583  66.515  1.00  0.00    -0.362 C  
ENDROOT
BRANCH   5   7
HETATM    7  C   UNL     1      -9.997  15.494  68.382  1.00  0.00    -0.214 C  
BRANCH   7   8
HETATM    8  N   UNL     1      -8.910  16.508  68.449  1.00  0.00    -0.210 NA 
HETATM    9  C   UNL     1      -9.209  17.817  67.941  1.00  0.00    -0.265 A  
HETATM   10  C   UNL     1     -10.458  18.149  67.363  1.00  0.00    -0.414 A  
HETATM   11  C   UNL     1     -10.773  19.440  66.912  1.00  0.00    -0.570 A  
HETATM   12  C   UNL     1      -9.841  20.458  67.008  1.00  0.00    -0.594 A  
HETATM   13  C   UNL     1      -8.594  20.169  67.544  1.00  0.00    -0.404 A  
HETATM   14  C   UNL     1      -8.274  18.871  67.998  1.00  0.00    -0.293 A  
HETATM   15  S   UNL     1      -6.618  18.700  68.607  1.00  0.00    -0.266 SA 
HETATM   16  C   UNL     1      -6.601  17.032  69.203  1.00  0.00    -0.230 A  
HETATM   17  C   UNL     1      -5.389  16.652  69.818  1.00  0.00    -0.164 A  
HETATM   18  C   UNL     1      -5.221  15.385  70.356  1.00  0.00    -0.134 A  
HETATM   19  C   UNL     1      -6.273  14.493  70.291  1.00  0.00    -0.176 A  
HETATM   20  C   UNL     1      -7.478  14.866  69.677  1.00  0.00    -0.126 A  
HETATM   21  C   UNL     1      -7.689  16.138  69.096  1.00  0.00    -0.230 A  
ENDBRANCH   7   8
ENDBRANCH   5   7
TORSDOF 2
ENDMDL
MODEL       35
REMARK 921   NORMALIZED FREE ENERGY PREDICTED BY IDOCK:   -5.63 KCAL/MOL
REMARK 922        TOTAL FREE ENERGY PREDICTED BY IDOCK:   -6.69 KCAL/MOL
REMARK 923 INTER-LIGAND FREE ENERGY PREDICTED BY IDOCK:   -6.33 KCAL/MOL
REMARK 924 INTRA-LIGAND FREE ENERGY PREDICTED BY IDOCK:   -0.36 KCAL/MOL
REMARK 927      BINDING AFFINITY PREDICTED BY RF-SCORE:    0.00 PKD
ROOT
HETATM    1  C   UNL     1     -10.435  17.904  67.928  1.00  0.00    -0.396 C  
HETATM    2  N   UNL     1     -10.372  16.496  67.568  1.00  0.00    -0.288 NA 
HETATM    3  C   UNL     1      -9.173  15.830  68.072  1.00  0.00    -0.188 C  
HETATM    4  C   UNL     1      -9.535  14.370  67.854  1.00  0.00    -0.214 C  
HETATM    5  C   UNL     1     -10.987  14.304  68.328  1.00  0.00    -0.261 C  
HETATM    6  C   UNL     1     -11.521  15.723  68.058  1.00  0.00    -0.264 C  
ENDROOT
BRANCH   5   7
HETATM    7  C   UNL     1     -11.869  13.227  67.674  1.00  0.00    -0.357 C  
BRANCH   7   8
HETATM    8  N   UNL     1     -11.384  11.840  67.912  1.00  0.00    -0.268 NA 
HETATM    9  C   UNL     1     -11.689  11.254  69.186  1.00  0.00    -0.341 A  
HETATM   10  C   UNL     1     -12.383  11.950  70.205  1.00  0.00    -0.287 A  
HETATM   11  C   UNL     1     -12.727  11.364  71.433  1.00  0.00    -0.489 A  
HETATM   12  C   UNL     1     -12.377  10.053  71.702  1.00  0.00    -0.486 A  
HETATM   13  C   UNL     1     -11.672   9.343  70.741  1.00  0.00    -0.349 A  
HETATM   14  C   UNL     1     -11.323   9.929  69.505  1.00  0.00    -0.124 A  
HETATM   15  S   UNL     1     -10.388   8.871  68.434  1.00  0.00    -0.183 SA 
HETATM   16  C   UNL     1     -10.245   9.846  66.963  1.00  0.00    -0.233 A  
HETATM   17  C   UNL     1      -9.586   9.193  65.899  1.00  0.00    -0.343 A  
HETATM   18  C   UNL     1      -9.411   9.813  64.671  1.00  0.00    -0.318 A  
HETATM   19  C   UNL     1      -9.906  11.090  64.497  1.00  0.00    -0.343 A  
HETATM   20  C   UNL     1     -10.558  11.744  65.553  1.00  0.00    -0.323 A  
HETATM   21  C   UNL     1     -10.741  11.162  66.829  1.00  0.00    -0.276 A  
ENDBRANCH   7   8
ENDBRANCH   5   7
TORSDOF 2
ENDMDL
MODEL       36
REMARK 921   NORMALIZED FREE ENERGY PREDICTED BY IDOCK:   -5.62 KCAL/MOL
REMARK 922        TOTAL FREE ENERGY PREDICTED BY IDOCK:   -6.67 KCAL/MOL
REMARK 923 INTER-LIGAND FREE ENERGY PREDICTED BY IDOCK:   -6.48 KCAL/MOL
REMARK 924 INTRA-LIGAND FREE ENERGY PREDICTED BY IDOCK:   -0.19 KCAL/MOL
REMARK 927      BINDING AFFINITY PREDICTED BY RF-SCORE:    0.00 PKD
ROOT
HETATM    1  C   UNL     1     -12.113  15.913  72.102  1.00  0.00    -0.506 C  
HETATM    2  N   UNL     1     -11.531  15.232  70.956  1.00  0.00    -0.329 NA 
HETATM    3  C   UNL     1     -12.475  14.349  70.275  1.00  0.00    -0.354 C  
HETATM    4  C   UNL     1     -11.729  14.062  68.982  1.00  0.00    -0.368 C  
HETATM    5  C   UNL     1     -11.187  15.437  68.589  1.00  0.00    -0.312 C  
HETATM    6  C   UNL     1     -11.010  16.156  69.939  1.00  0.00    -0.362 C  
ENDROOT
BRANCH   5   7
HETATM    7  C   UNL     1      -9.890  15.447  67.762  1.00  0.00    -0.220 C  
BRANCH   7   8
HETATM    8  N   UNL     1      -8.990  16.587  68.086  1.00  0.00    -0.202 NA 
HETATM    9  C   UNL     1      -7.804  16.287  68.837  1.00  0.00    -0.224 A  
HETATM   10  C   UNL     1      -7.495  14.984  69.296  1.00  0.00    -0.188 A  
HETATM   11  C   UNL     1      -6.313  14.676  69.987  1.00  0.00    -0.165 A  
HETATM   12  C   UNL     1      -5.389  15.669  70.262  1.00  0.00    -0.143 A  
HETATM   13  C   UNL     1      -5.665  16.966  69.854  1.00  0.00    -0.223 A  
HETATM   14  C   UNL     1      -6.854  17.278  69.159  1.00  0.00    -0.234 A  
HETATM   15  S   UNL     1      -7.036  18.997  68.765  1.00  0.00    -0.328 SA 
HETATM   16  C   UNL     1      -8.525  19.012  67.805  1.00  0.00    -0.293 A  
HETATM   17  C   UNL     1      -8.869  20.282  67.293  1.00  0.00    -0.454 A  
HETATM   18  C   UNL     1      -9.995  20.459  66.505  1.00  0.00    -0.448 A  
HETATM   19  C   UNL     1     -10.779  19.361  66.212  1.00  0.00    -0.508 A  
HETATM   20  C   UNL     1     -10.443  18.098  66.722  1.00  0.00    -0.363 A  
HETATM   21  C   UNL     1      -9.318  17.871  67.548  1.00  0.00    -0.253 A  
ENDBRANCH   7   8
ENDBRANCH   5   7
TORSDOF 2
ENDMDL
MODEL       37
REMARK 921   NORMALIZED FREE ENERGY PREDICTED BY IDOCK:   -5.61 KCAL/MOL
REMARK 922        TOTAL FREE ENERGY PREDICTED BY IDOCK:   -6.67 KCAL/MOL
REMARK 923 INTER-LIGAND FREE ENERGY PREDICTED BY IDOCK:   -6.28 KCAL/MOL
REMARK 924 INTRA-LIGAND FREE ENERGY PREDICTED BY IDOCK:   -0.39 KCAL/MOL
REMARK 927      BINDING AFFINITY PREDICTED BY RF-SCORE:    0.00 PKD
ROOT
HETATM    1  C   UNL     1     -10.582  11.538  63.677  1.00  0.00    -0.429 C  
HETATM    2  N   UNL     1     -10.501  11.733  65.116  1.00  0.00    -0.271 NA 
HETATM    3  C   UNL     1     -11.702  12.344  65.679  1.00  0.00    -0.414 C  
HETATM    4  C   UNL     1     -11.481  12.112  67.165  1.00  0.00    -0.413 C  
HETATM    5  C   UNL     1     -10.979  10.668  67.214  1.00  0.00    -0.348 C  
HETATM    6  C   UNL     1     -10.278  10.482  65.856  1.00  0.00    -0.245 C  
ENDROOT
BRANCH   5   7
HETATM    7  C   UNL     1     -10.055  10.307  68.388  1.00  0.00    -0.159 C  
BRANCH   7   8
HETATM    8  N   UNL     1     -10.606   9.241  69.269  1.00  0.00    -0.224 NA 
HETATM    9  C   UNL     1     -11.532   9.652  70.287  1.00  0.00    -0.233 A  
HETATM   10  C   UNL     1     -11.895  11.004  70.493  1.00  0.00    -0.464 A  
HETATM   11  C   UNL     1     -12.837  11.405  71.453  1.00  0.00    -0.502 A  
HETATM   12  C   UNL     1     -13.450  10.465  72.262  1.00  0.00    -0.195 A  
HETATM   13  C   UNL     1     -13.103   9.130  72.111  1.00  0.00    -0.516 A  
HETATM   14  C   UNL     1     -12.155   8.724  71.147  1.00  0.00    -0.267 A  
HETATM   15  S   UNL     1     -11.820   6.983  71.144  1.00  0.00    -0.355 SA 
HETATM   16  C   UNL     1     -10.724   6.808  69.763  1.00  0.00    -0.249 A  
HETATM   17  C   UNL     1     -10.349   5.475  69.489  1.00  0.00    -0.357 A  
HETATM   18  C   UNL     1      -9.512   5.167  68.428  1.00  0.00    -0.168 A  
HETATM   19  C   UNL     1      -9.053   6.192  67.626  1.00  0.00    -0.109 A  
HETATM   20  C   UNL     1      -9.419   7.519  67.898  1.00  0.00    -0.153 A  
HETATM   21  C   UNL     1     -10.253   7.885  68.980  1.00  0.00    -0.209 A  
ENDBRANCH   7   8
ENDBRANCH   5   7
TORSDOF 2
ENDMDL
MODEL       38
REMARK 921   NORMALIZED FREE ENERGY PREDICTED BY IDOCK:   -5.58 KCAL/MOL
REMARK 922        TOTAL FREE ENERGY PREDICTED BY IDOCK:   -6.63 KCAL/MOL
REMARK 923 INTER-LIGAND FREE ENERGY PREDICTED BY IDOCK:   -6.27 KCAL/MOL
REMARK 924 INTRA-LIGAND FREE ENERGY PREDICTED BY IDOCK:   -0.36 KCAL/MOL
REMARK 927      BINDING AFFINITY PREDICTED BY RF-SCORE:    0.00 PKD
ROOT
HETATM    1  C   UNL     1     -11.790  12.767  63.571  1.00  0.00    -0.546 C  
HETATM    2  N   UNL     1     -11.413  12.994  64.957  1.00  0.00    -0.305 NA 
HETATM    3  C   UNL     1     -12.474  13.615  65.745  1.00  0.00    -0.477 C  
HETATM    4  C   UNL     1     -11.947  13.417  67.157  1.00  0.00    -0.415 C  
HETATM    5  C   UNL     1     -11.434  11.976  67.130  1.00  0.00    -0.401 C  
HETATM    6  C   UNL     1     -11.030  11.762  65.660  1.00  0.00    -0.295 C  
ENDROOT
BRANCH   5   7
HETATM    7  C   UNL     1     -10.282  11.644  68.094  1.00  0.00    -0.197 C  
BRANCH   7   8
HETATM    8  N   UNL     1     -10.488  10.378  68.849  1.00  0.00    -0.198 NA 
HETATM    9  C   UNL     1     -11.392  10.425  69.963  1.00  0.00    -0.313 A  
HETATM   10  C   UNL     1     -12.044  11.613  70.373  1.00  0.00    -0.462 A  
HETATM   11  C   UNL     1     -12.967  11.653  71.430  1.00  0.00    -0.426 A  
HETATM   12  C   UNL     1     -13.269  10.501  72.135  1.00  0.00    -0.398 A  
HETATM   13  C   UNL     1     -12.632   9.320  71.783  1.00  0.00    -0.461 A  
HETATM   14  C   UNL     1     -11.702   9.276  70.721  1.00  0.00    -0.269 A  
HETATM   15  S   UNL     1     -10.969   7.684  70.460  1.00  0.00    -0.249 SA 
HETATM   16  C   UNL     1      -9.986   7.950  69.010  1.00  0.00    -0.187 A  
HETATM   17  C   UNL     1      -9.334   6.792  68.535  1.00  0.00    -0.126 A  
HETATM   18  C   UNL     1      -8.543   6.827  67.397  1.00  0.00    -0.120 A  
HETATM   19  C   UNL     1      -8.410   8.022  66.718  1.00  0.00    -0.116 A  
HETATM   20  C   UNL     1      -9.054   9.176  67.190  1.00  0.00    -0.146 A  
HETATM   21  C   UNL     1      -9.852   9.195  68.357  1.00  0.00    -0.164 A  
ENDBRANCH   7   8
ENDBRANCH   5   7
TORSDOF 2
ENDMDL
MODEL       39
REMARK 921   NORMALIZED FREE ENERGY PREDICTED BY IDOCK:   -5.58 KCAL/MOL
REMARK 922        TOTAL FREE ENERGY PREDICTED BY IDOCK:   -6.63 KCAL/MOL
REMARK 923 INTER-LIGAND FREE ENERGY PREDICTED BY IDOCK:   -6.65 KCAL/MOL
REMARK 924 INTRA-LIGAND FREE ENERGY PREDICTED BY IDOCK:    0.02 KCAL/MOL
REMARK 927      BINDING AFFINITY PREDICTED BY RF-SCORE:    0.00 PKD
ROOT
HETATM    1  C   UNL     1      -7.956  15.019  68.952  1.00  0.00    -0.169 C  
HETATM    2  N   UNL     1      -9.382  14.769  68.816  1.00  0.00    -0.198 NA 
HETATM    3  C   UNL     1     -10.190  15.981  68.929  1.00  0.00    -0.231 C  
HETATM    4  C   UNL     1     -11.535  15.487  68.422  1.00  0.00    -0.370 C  
HETATM    5  C   UNL     1     -11.152  14.653  67.198  1.00  0.00    -0.328 C  
HETATM    6  C   UNL     1      -9.739  14.143  67.535  1.00  0.00    -0.234 C  
ENDROOT
BRANCH   5   7
HETATM    7  C   UNL     1     -12.104  13.501  66.835  1.00  0.00    -0.368 C  
BRANCH   7   8
HETATM    8  N   UNL     1     -11.464  12.159  66.905  1.00  0.00    -0.373 NA 
HETATM    9  C   UNL     1     -10.811  11.686  65.717  1.00  0.00    -0.281 A  
HETATM   10  C   UNL     1     -10.794  12.420  64.507  1.00  0.00    -0.358 A  
HETATM   11  C   UNL     1     -10.115  11.985  63.358  1.00  0.00    -0.437 A  
HETATM   12  C   UNL     1      -9.433  10.782  63.367  1.00  0.00    -0.345 A  
HETATM   13  C   UNL     1      -9.447  10.017  64.525  1.00  0.00    -0.359 A  
HETATM   14  C   UNL     1     -10.129  10.452  65.682  1.00  0.00    -0.269 A  
HETATM   15  S   UNL     1     -10.063   9.312  67.038  1.00  0.00    -0.265 SA 
HETATM   16  C   UNL     1     -10.879  10.208  68.330  1.00  0.00    -0.252 A  
HETATM   17  C   UNL     1     -10.902   9.538  69.572  1.00  0.00    -0.243 A  
HETATM   18  C   UNL     1     -11.486  10.114  70.690  1.00  0.00    -0.432 A  
HETATM   19  C   UNL     1     -12.040  11.373  70.574  1.00  0.00    -0.487 A  
HETATM   20  C   UNL     1     -12.022  12.041  69.341  1.00  0.00    -0.334 A  
HETATM   21  C   UNL     1     -11.459  11.486  68.168  1.00  0.00    -0.315 A  
ENDBRANCH   7   8
ENDBRANCH   5   7
TORSDOF 2
ENDMDL
MODEL       40
REMARK 921   NORMALIZED FREE ENERGY PREDICTED BY IDOCK:   -5.56 KCAL/MOL
REMARK 922        TOTAL FREE ENERGY PREDICTED BY IDOCK:   -6.61 KCAL/MOL
REMARK 923 INTER-LIGAND FREE ENERGY PREDICTED BY IDOCK:   -6.23 KCAL/MOL
REMARK 924 INTRA-LIGAND FREE ENERGY PREDICTED BY IDOCK:   -0.38 KCAL/MOL
REMARK 927      BINDING AFFINITY PREDICTED BY RF-SCORE:    0.00 PKD
ROOT
HETATM    1  C   UNL     1     -13.899  15.444  72.406  1.00  0.00    -0.562 C  
HETATM    2  N   UNL     1     -13.498  14.851  71.140  1.00  0.00    -0.405 NA 
HETATM    3  C   UNL     1     -12.486  15.634  70.436  1.00  0.00    -0.371 C  
HETATM    4  C   UNL     1     -12.031  14.644  69.377  1.00  0.00    -0.351 C  
HETATM    5  C   UNL     1     -11.913  13.336  70.162  1.00  0.00    -0.388 C  
HETATM    6  C   UNL     1     -12.953  13.493  71.286  1.00  0.00    -0.304 C  
ENDROOT
BRANCH   5   7
HETATM    7  C   UNL     1     -12.127  12.040  69.362  1.00  0.00    -0.202 C  
BRANCH   7   8
HETATM    8  N   UNL     1     -11.069  11.019  69.597  1.00  0.00    -0.261 NA 
HETATM    9  C   UNL     1      -9.841  11.176  68.870  1.00  0.00    -0.162 A  
HETATM   10  C   UNL     1      -9.628  12.220  67.939  1.00  0.00    -0.203 A  
HETATM   11  C   UNL     1      -8.412  12.407  67.264  1.00  0.00    -0.183 A  
HETATM   12  C   UNL     1      -7.354  11.543  67.483  1.00  0.00    -0.112 A  
HETATM   13  C   UNL     1      -7.529  10.489  68.369  1.00  0.00    -0.092 A  
HETATM   14  C   UNL     1      -8.751  10.298  69.048  1.00  0.00    -0.163 A  
HETATM   15  S   UNL     1      -8.785   8.871  70.100  1.00  0.00    -0.177 SA 
HETATM   16  C   UNL     1     -10.370   9.008  70.879  1.00  0.00    -0.256 A  
HETATM   17  C   UNL     1     -10.628   8.009  71.842  1.00  0.00    -0.305 A  
HETATM   18  C   UNL     1     -11.816   7.988  72.556  1.00  0.00    -0.419 A  
HETATM   19  C   UNL     1     -12.751   8.977  72.319  1.00  0.00    -0.457 A  
HETATM   20  C   UNL     1     -12.499   9.969  71.360  1.00  0.00    -0.510 A  
HETATM   21  C   UNL     1     -11.313  10.020  70.591  1.00  0.00    -0.348 A  
ENDBRANCH   7   8
ENDBRANCH   5   7
TORSDOF 2
ENDMDL
MODEL       41
REMARK 921   NORMALIZED FREE ENERGY PREDICTED BY IDOCK:   -5.56 KCAL/MOL
REMARK 922        TOTAL FREE ENERGY PREDICTED BY IDOCK:   -6.61 KCAL/MOL
REMARK 923 INTER-LIGAND FREE ENERGY PREDICTED BY IDOCK:   -6.19 KCAL/MOL
REMARK 924 INTRA-LIGAND FREE ENERGY PREDICTED BY IDOCK:   -0.42 KCAL/MOL
REMARK 927      BINDING AFFINITY PREDICTED BY RF-SCORE:    0.00 PKD
ROOT
HETATM    1  C   UNL     1     -13.833  14.250  72.117  1.00  0.00    -0.494 C  
HETATM    2  N   UNL     1     -12.749  13.514  71.487  1.00  0.00    -0.346 NA 
HETATM    3  C   UNL     1     -13.036  12.090  71.335  1.00  0.00    -0.262 C  
HETATM    4  C   UNL     1     -11.931  11.668  70.380  1.00  0.00    -0.448 C  
HETATM    5  C   UNL     1     -11.918  12.799  69.352  1.00  0.00    -0.321 C  
HETATM    6  C   UNL     1     -12.407  14.021  70.151  1.00  0.00    -0.345 C  
ENDROOT
BRANCH   5   7
HETATM    7  C   UNL     1     -10.574  13.072  68.656  1.00  0.00    -0.236 C  
BRANCH   7   8
HETATM    8  N   UNL     1     -10.331  12.202  67.474  1.00  0.00    -0.204 NA 
HETATM    9  C   UNL     1     -10.931  12.608  66.233  1.00  0.00    -0.283 A  
HETATM   10  C   UNL     1     -11.750  13.756  66.117  1.00  0.00    -0.392 A  
HETATM   11  C   UNL     1     -12.297  14.184  64.897  1.00  0.00    -0.446 A  
HETATM   12  C   UNL     1     -12.057  13.470  63.737  1.00  0.00    -0.482 A  
HETATM   13  C   UNL     1     -11.280  12.322  63.812  1.00  0.00    -0.510 A  
HETATM   14  C   UNL     1     -10.729  11.888  65.037  1.00  0.00    -0.292 A  
HETATM   15  S   UNL     1      -9.805  10.380  64.927  1.00  0.00    -0.345 SA 
HETATM   16  C   UNL     1      -9.161  10.205  66.568  1.00  0.00    -0.153 A  
HETATM   17  C   UNL     1      -8.310   9.092  66.739  1.00  0.00    -0.123 A  
HETATM   18  C   UNL     1      -7.708   8.827  67.959  1.00  0.00    -0.101 A  
HETATM   19  C   UNL     1      -7.945   9.684  69.016  1.00  0.00    -0.088 A  
HETATM   20  C   UNL     1      -8.794  10.789  68.851  1.00  0.00    -0.154 A  
HETATM   21  C   UNL     1      -9.447  11.088  67.633  1.00  0.00    -0.164 A  
ENDBRANCH   7   8
ENDBRANCH   5   7
TORSDOF 2
ENDMDL
MODEL       42
REMARK 921   NORMALIZED FREE ENERGY PREDICTED BY IDOCK:   -5.55 KCAL/MOL
REMARK 922        TOTAL FREE ENERGY PREDICTED BY IDOCK:   -6.60 KCAL/MOL
REMARK 923 INTER-LIGAND FREE ENERGY PREDICTED BY IDOCK:   -6.29 KCAL/MOL
REMARK 924 INTRA-LIGAND FREE ENERGY PREDICTED BY IDOCK:   -0.31 KCAL/MOL
REMARK 927      BINDING AFFINITY PREDICTED BY RF-SCORE:    0.00 PKD
ROOT
HETATM    1  C   UNL     1      -8.208   6.995  72.311  1.00  0.00    -0.099 C  
HETATM    2  N   UNL     1      -9.586   7.351  72.012  1.00  0.00    -0.149 NA 
HETATM    3  C   UNL     1     -10.368   7.666  73.204  1.00  0.00    -0.352 C  
HETATM    4  C   UNL     1     -11.600   8.307  72.587  1.00  0.00    -0.419 C  
HETATM    5  C   UNL     1     -11.007   9.219  71.512  1.00  0.00    -0.446 C  
HETATM    6  C   UNL     1      -9.701   8.509  71.114  1.00  0.00    -0.201 C  
ENDROOT
BRANCH   5   7
HETATM    7  C   UNL     1     -11.899   9.503  70.292  1.00  0.00    -0.057 C  
BRANCH   7   8
HETATM    8  N   UNL     1     -11.710  10.866  69.724  1.00  0.00    -0.307 NA 
HETATM    9  C   UNL     1     -12.283  11.960  70.455  1.00  0.00    -0.336 A  
HETATM   10  C   UNL     1     -13.031  11.781  71.644  1.00  0.00    -0.467 A  
HETATM   11  C   UNL     1     -13.551  12.851  72.389  1.00  0.00    -0.577 A  
HETATM   12  C   UNL     1     -13.354  14.154  71.967  1.00  0.00    -0.502 A  
HETATM   13  C   UNL     1     -12.649  14.373  70.792  1.00  0.00    -0.426 A  
HETATM   14  C   UNL     1     -12.126  13.299  70.040  1.00  0.00    -0.315 A  
HETATM   15  S   UNL     1     -11.296  13.788  68.552  1.00  0.00    -0.308 SA 
HETATM   16  C   UNL     1     -10.665  12.249  67.944  1.00  0.00    -0.215 A  
HETATM   17  C   UNL     1      -9.883  12.367  66.774  1.00  0.00    -0.228 A  
HETATM   18  C   UNL     1      -9.299  11.257  66.183  1.00  0.00    -0.230 A  
HETATM   19  C   UNL     1      -9.483  10.020  66.769  1.00  0.00    -0.209 A  
HETATM   20  C   UNL     1     -10.262   9.898  67.929  1.00  0.00    -0.234 A  
HETATM   21  C   UNL     1     -10.896  10.996  68.555  1.00  0.00    -0.213 A  
ENDBRANCH   7   8
ENDBRANCH   5   7
TORSDOF 2
ENDMDL
MODEL       43
REMARK 921   NORMALIZED FREE ENERGY PREDICTED BY IDOCK:   -5.55 KCAL/MOL
REMARK 922        TOTAL FREE ENERGY PREDICTED BY IDOCK:   -6.59 KCAL/MOL
REMARK 923 INTER-LIGAND FREE ENERGY PREDICTED BY IDOCK:   -6.56 KCAL/MOL
REMARK 924 INTRA-LIGAND FREE ENERGY PREDICTED BY IDOCK:   -0.04 KCAL/MOL
REMARK 927      BINDING AFFINITY PREDICTED BY RF-SCORE:    0.00 PKD
ROOT
HETATM    1  C   UNL     1      -8.264  18.997  68.507  1.00  0.00    -0.355 C  
HETATM    2  N   UNL     1      -8.943  17.722  68.344  1.00  0.00    -0.277 NA 
HETATM    3  C   UNL     1      -8.240  16.613  68.983  1.00  0.00    -0.190 C  
HETATM    4  C   UNL     1      -9.306  15.530  68.951  1.00  0.00    -0.222 C  
HETATM    5  C   UNL     1     -10.570  16.284  69.368  1.00  0.00    -0.301 C  
HETATM    6  C   UNL     1     -10.309  17.723  68.885  1.00  0.00    -0.300 C  
ENDROOT
BRANCH   5   7
HETATM    7  C   UNL     1     -11.901  15.733  68.829  1.00  0.00    -0.309 C  
BRANCH   7   8
HETATM    8  N   UNL     1     -11.833  14.298  68.439  1.00  0.00    -0.339 NA 
HETATM    9  C   UNL     1     -11.389  14.007  67.105  1.00  0.00    -0.331 A  
HETATM   10  C   UNL     1     -11.059  15.016  66.169  1.00  0.00    -0.329 A  
HETATM   11  C   UNL     1     -10.577  14.735  64.881  1.00  0.00    -0.431 A  
HETATM   12  C   UNL     1     -10.415  13.425  64.468  1.00  0.00    -0.431 A  
HETATM   13  C   UNL     1     -10.751  12.404  65.346  1.00  0.00    -0.317 A  
HETATM   14  C   UNL     1     -11.238  12.683  66.642  1.00  0.00    -0.300 A  
HETATM   15  S   UNL     1     -11.650  11.244  67.590  1.00  0.00    -0.126 SA 
HETATM   16  C   UNL     1     -12.084  11.934  69.163  1.00  0.00    -0.201 A  
HETATM   17  C   UNL     1     -12.395  10.973  70.149  1.00  0.00    -0.389 A  
HETATM   18  C   UNL     1     -12.735  11.350  71.439  1.00  0.00    -0.489 A  
HETATM   19  C   UNL     1     -12.754  12.694  71.754  1.00  0.00    -0.242 A  
HETATM   20  C   UNL     1     -12.450  13.652  70.776  1.00  0.00    -0.432 A  
HETATM   21  C   UNL     1     -12.119  13.318  69.442  1.00  0.00    -0.248 A  
ENDBRANCH   7   8
ENDBRANCH   5   7
TORSDOF 2
ENDMDL
MODEL       44
REMARK 921   NORMALIZED FREE ENERGY PREDICTED BY IDOCK:   -5.55 KCAL/MOL
REMARK 922        TOTAL FREE ENERGY PREDICTED BY IDOCK:   -6.59 KCAL/MOL
REMARK 923 INTER-LIGAND FREE ENERGY PREDICTED BY IDOCK:   -6.24 KCAL/MOL
REMARK 924 INTRA-LIGAND FREE ENERGY PREDICTED BY IDOCK:   -0.35 KCAL/MOL
REMARK 927      BINDING AFFINITY PREDICTED BY RF-SCORE:    0.00 PKD
ROOT
HETATM    1  C   UNL     1     -14.229  14.685  72.061  1.00  0.00    -0.537 C  
HETATM    2  N   UNL     1     -13.290  15.438  71.245  1.00  0.00    -0.498 NA 
HETATM    3  C   UNL     1     -12.128  15.908  71.995  1.00  0.00    -0.506 C  
HETATM    4  C   UNL     1     -11.202  16.334  70.868  1.00  0.00    -0.267 C  
HETATM    5  C   UNL     1     -11.344  15.192  69.860  1.00  0.00    -0.309 C  
HETATM    6  C   UNL     1     -12.772  14.669  70.104  1.00  0.00    -0.220 C  
ENDROOT
BRANCH   5   7
HETATM    7  C   UNL     1     -11.113  15.554  68.383  1.00  0.00    -0.315 C  
BRANCH   7   8
HETATM    8  N   UNL     1      -9.753  16.094  68.112  1.00  0.00    -0.220 NA 
HETATM    9  C   UNL     1      -8.677  15.146  68.047  1.00  0.00    -0.165 A  
HETATM   10  C   UNL     1      -8.862  13.759  68.263  1.00  0.00    -0.185 A  
HETATM   11  C   UNL     1      -7.823  12.822  68.151  1.00  0.00    -0.146 A  
HETATM   12  C   UNL     1      -6.543  13.237  67.828  1.00  0.00    -0.156 A  
HETATM   13  C   UNL     1      -6.312  14.592  67.634  1.00  0.00    -0.128 A  
HETATM   14  C   UNL     1      -7.355  15.537  67.748  1.00  0.00    -0.156 A  
HETATM   15  S   UNL     1      -6.845  17.217  67.506  1.00  0.00    -0.148 SA 
HETATM   16  C   UNL     1      -8.381  18.096  67.579  1.00  0.00    -0.237 A  
HETATM   17  C   UNL     1      -8.264  19.483  67.341  1.00  0.00    -0.321 A  
HETATM   18  C   UNL     1      -9.377  20.310  67.343  1.00  0.00    -0.531 A  
HETATM   19  C   UNL     1     -10.618  19.750  67.572  1.00  0.00    -0.544 A  
HETATM   20  C   UNL     1     -10.738  18.374  67.813  1.00  0.00    -0.371 A  
HETATM   21  C   UNL     1      -9.631  17.494  67.843  1.00  0.00    -0.277 A  
ENDBRANCH   7   8
ENDBRANCH   5   7
TORSDOF 2
ENDMDL
MODEL       45
REMARK 921   NORMALIZED FREE ENERGY PREDICTED BY IDOCK:   -5.54 KCAL/MOL
REMARK 922        TOTAL FREE ENERGY PREDICTED BY IDOCK:   -6.59 KCAL/MOL
REMARK 923 INTER-LIGAND FREE ENERGY PREDICTED BY IDOCK:   -6.21 KCAL/MOL
REMARK 924 INTRA-LIGAND FREE ENERGY PREDICTED BY IDOCK:   -0.37 KCAL/MOL
REMARK 927      BINDING AFFINITY PREDICTED BY RF-SCORE:    0.00 PKD
ROOT
HETATM    1  C   UNL     1      -8.939   7.846  70.602  1.00  0.00    -0.148 C  
HETATM    2  N   UNL     1      -9.436   9.119  70.107  1.00  0.00    -0.192 NA 
HETATM    3  C   UNL     1      -8.371  10.028  69.693  1.00  0.00    -0.176 C  
HETATM    4  C   UNL     1      -9.161  11.082  68.933  1.00  0.00    -0.132 C  
HETATM    5  C   UNL     1     -10.137  10.245  68.105  1.00  0.00    -0.175 C  
HETATM    6  C   UNL     1     -10.340   8.978  68.957  1.00  0.00    -0.219 C  
ENDROOT
BRANCH   5   7
HETATM    7  C   UNL     1     -11.474  10.914  67.747  1.00  0.00    -0.243 C  
BRANCH   7   8
HETATM    8  N   UNL     1     -11.567  12.329  68.197  1.00  0.00    -0.320 NA 
HETATM    9  C   UNL     1     -11.212  13.341  67.241  1.00  0.00    -0.292 A  
HETATM   10  C   UNL     1     -10.755  13.036  65.937  1.00  0.00    -0.292 A  
HETATM   11  C   UNL     1     -10.455  14.021  64.983  1.00  0.00    -0.440 A  
HETATM   12  C   UNL     1     -10.587  15.361  65.300  1.00  0.00    -0.450 A  
HETATM   13  C   UNL     1     -11.007  15.704  66.577  1.00  0.00    -0.206 A  
HETATM   14  C   UNL     1     -11.309  14.716  67.540  1.00  0.00    -0.348 A  
HETATM   15  S   UNL     1     -11.785  15.360  69.120  1.00  0.00    -0.343 SA 
HETATM   16  C   UNL     1     -12.213  13.894  70.017  1.00  0.00    -0.344 A  
HETATM   17  C   UNL     1     -12.705  14.135  71.318  1.00  0.00    -0.434 A  
HETATM   18  C   UNL     1     -13.103  13.094  72.142  1.00  0.00    -0.481 A  
HETATM   19  C   UNL     1     -13.022  11.801  71.663  1.00  0.00    -0.467 A  
HETATM   20  C   UNL     1     -12.530  11.557  70.372  1.00  0.00    -0.324 A  
HETATM   21  C   UNL     1     -12.092  12.583  69.504  1.00  0.00    -0.187 A  
ENDBRANCH   7   8
ENDBRANCH   5   7
TORSDOF 2
ENDMDL
MODEL       46
REMARK 921   NORMALIZED FREE ENERGY PREDICTED BY IDOCK:   -5.53 KCAL/MOL
REMARK 922        TOTAL FREE ENERGY PREDICTED BY IDOCK:   -6.58 KCAL/MOL
REMARK 923 INTER-LIGAND FREE ENERGY PREDICTED BY IDOCK:   -6.24 KCAL/MOL
REMARK 924 INTRA-LIGAND FREE ENERGY PREDICTED BY IDOCK:   -0.34 KCAL/MOL
REMARK 927      BINDING AFFINITY PREDICTED BY RF-SCORE:    0.00 PKD
ROOT
HETATM    1  C   UNL     1      -9.143   9.913  62.469  1.00  0.00    -0.286 C  
HETATM    2  N   UNL     1      -9.380  10.948  63.464  1.00  0.00    -0.247 NA 
HETATM    3  C   UNL     1     -10.779  11.359  63.539  1.00  0.00    -0.381 C  
HETATM    4  C   UNL     1     -10.784  12.153  64.836  1.00  0.00    -0.336 C  
HETATM    5  C   UNL     1      -9.949  11.279  65.772  1.00  0.00    -0.281 C  
HETATM    6  C   UNL     1      -8.986  10.545  64.821  1.00  0.00    -0.205 C  
ENDROOT
BRANCH   5   7
HETATM    7  C   UNL     1      -9.195  12.010  66.896  1.00  0.00    -0.197 C  
BRANCH   7   8
HETATM    8  N   UNL     1     -10.076  12.858  67.745  1.00  0.00    -0.223 NA 
HETATM    9  C   UNL     1     -10.806  12.196  68.789  1.00  0.00    -0.228 A  
HETATM   10  C   UNL     1     -10.742  10.798  69.003  1.00  0.00    -0.265 A  
HETATM   11  C   UNL     1     -11.414  10.154  70.053  1.00  0.00    -0.344 A  
HETATM   12  C   UNL     1     -12.194  10.883  70.932  1.00  0.00    -0.485 A  
HETATM   13  C   UNL     1     -12.306  12.253  70.742  1.00  0.00    -0.383 A  
HETATM   14  C   UNL     1     -11.632  12.905  69.686  1.00  0.00    -0.248 A  
HETATM   15  S   UNL     1     -11.939  14.647  69.591  1.00  0.00    -0.324 SA 
HETATM   16  C   UNL     1     -10.862  15.154  68.279  1.00  0.00    -0.262 A  
HETATM   17  C   UNL     1     -10.860  16.545  68.038  1.00  0.00    -0.337 A  
HETATM   18  C   UNL     1     -10.056  17.104  67.058  1.00  0.00    -0.297 A  
HETATM   19  C   UNL     1      -9.236  16.274  66.319  1.00  0.00    -0.363 A  
HETATM   20  C   UNL     1      -9.239  14.891  66.552  1.00  0.00    -0.314 A  
HETATM   21  C   UNL     1     -10.057  14.272  67.525  1.00  0.00    -0.236 A  
ENDBRANCH   7   8
ENDBRANCH   5   7
TORSDOF 2
ENDMDL
MODEL       47
REMARK 921   NORMALIZED FREE ENERGY PREDICTED BY IDOCK:   -5.51 KCAL/MOL
REMARK 922        TOTAL FREE ENERGY PREDICTED BY IDOCK:   -6.55 KCAL/MOL
REMARK 923 INTER-LIGAND FREE ENERGY PREDICTED BY IDOCK:   -6.07 KCAL/MOL
REMARK 924 INTRA-LIGAND FREE ENERGY PREDICTED BY IDOCK:   -0.48 KCAL/MOL
REMARK 927      BINDING AFFINITY PREDICTED BY RF-SCORE:    0.00 PKD
ROOT
HETATM    1  C   UNL     1     -10.906  12.433  63.508  1.00  0.00    -0.438 C  
HETATM    2  N   UNL     1     -10.834  12.564  64.954  1.00  0.00    -0.283 NA 
HETATM    3  C   UNL     1     -12.113  12.922  65.561  1.00  0.00    -0.458 C  
HETATM    4  C   UNL     1     -11.827  12.657  67.030  1.00  0.00    -0.415 C  
HETATM    5  C   UNL     1     -11.077  11.325  66.996  1.00  0.00    -0.356 C  
HETATM    6  C   UNL     1     -10.379  11.337  65.623  1.00  0.00    -0.256 C  
ENDROOT
BRANCH   5   7
HETATM    7  C   UNL     1     -10.081  11.074  68.141  1.00  0.00    -0.179 C  
BRANCH   7   8
HETATM    8  N   UNL     1     -10.351   9.819  68.895  1.00  0.00    -0.201 NA 
HETATM    9  C   UNL     1      -9.584   8.662  68.528  1.00  0.00    -0.154 A  
HETATM   10  C   UNL     1      -8.637   8.671  67.476  1.00  0.00    -0.135 A  
HETATM   11  C   UNL     1      -7.850   7.557  67.147  1.00  0.00    -0.117 A  
HETATM   12  C   UNL     1      -7.988   6.374  67.851  1.00  0.00    -0.111 A  
HETATM   13  C   UNL     1      -8.925   6.313  68.872  1.00  0.00    -0.126 A  
HETATM   14  C   UNL     1      -9.719   7.432  69.206  1.00  0.00    -0.165 A  
HETATM   15  S   UNL     1     -10.884   7.136  70.509  1.00  0.00    -0.254 SA 
HETATM   16  C   UNL     1     -11.595   8.740  70.755  1.00  0.00    -0.251 A  
HETATM   17  C   UNL     1     -12.529   8.800  71.813  1.00  0.00    -0.407 A  
HETATM   18  C   UNL     1     -13.160   9.988  72.148  1.00  0.00    -0.482 A  
HETATM   19  C   UNL     1     -12.851  11.129  71.433  1.00  0.00    -0.544 A  
HETATM   20  C   UNL     1     -11.927  11.071  70.379  1.00  0.00    -0.459 A  
HETATM   21  C   UNL     1     -11.275   9.880  69.986  1.00  0.00    -0.276 A  
ENDBRANCH   7   8
ENDBRANCH   5   7
TORSDOF 2
ENDMDL
MODEL       48
REMARK 921   NORMALIZED FREE ENERGY PREDICTED BY IDOCK:   -5.51 KCAL/MOL
REMARK 922        TOTAL FREE ENERGY PREDICTED BY IDOCK:   -6.54 KCAL/MOL
REMARK 923 INTER-LIGAND FREE ENERGY PREDICTED BY IDOCK:   -6.27 KCAL/MOL
REMARK 924 INTRA-LIGAND FREE ENERGY PREDICTED BY IDOCK:   -0.27 KCAL/MOL
REMARK 927      BINDING AFFINITY PREDICTED BY RF-SCORE:    0.00 PKD
ROOT
HETATM    1  C   UNL     1     -11.987  12.308  63.692  1.00  0.00    -0.543 C  
HETATM    2  N   UNL     1     -11.596  12.959  64.932  1.00  0.00    -0.314 NA 
HETATM    3  C   UNL     1     -12.626  13.849  65.461  1.00  0.00    -0.526 C  
HETATM    4  C   UNL     1     -12.104  14.100  66.867  1.00  0.00    -0.466 C  
HETATM    5  C   UNL     1     -11.659  12.709  67.319  1.00  0.00    -0.428 C  
HETATM    6  C   UNL     1     -11.269  12.009  66.004  1.00  0.00    -0.335 C  
ENDROOT
BRANCH   5   7
HETATM    7  C   UNL     1     -10.521  12.660  68.352  1.00  0.00    -0.238 C  
BRANCH   7   8
HETATM    8  N   UNL     1     -10.289  11.301  68.913  1.00  0.00    -0.205 NA 
HETATM    9  C   UNL     1      -9.130  10.593  68.445  1.00  0.00    -0.156 A  
HETATM   10  C   UNL     1      -8.252  11.120  67.468  1.00  0.00    -0.119 A  
HETATM   11  C   UNL     1      -7.091  10.453  67.045  1.00  0.00    -0.092 A  
HETATM   12  C   UNL     1      -6.766   9.217  67.574  1.00  0.00    -0.069 A  
HETATM   13  C   UNL     1      -7.614   8.652  68.515  1.00  0.00    -0.095 A  
HETATM   14  C   UNL     1      -8.783   9.319  68.943  1.00  0.00    -0.131 A  
HETATM   15  S   UNL     1      -9.752   8.411  70.116  1.00  0.00    -0.174 SA 
HETATM   16  C   UNL     1     -11.032   9.565  70.528  1.00  0.00    -0.288 A  
HETATM   17  C   UNL     1     -11.925   9.106  71.521  1.00  0.00    -0.422 A  
HETATM   18  C   UNL     1     -12.970   9.898  71.970  1.00  0.00    -0.518 A  
HETATM   19  C   UNL     1     -13.122  11.162  71.436  1.00  0.00    -0.422 A  
HETATM   20  C   UNL     1     -12.239  11.620  70.445  1.00  0.00    -0.434 A  
HETATM   21  C   UNL     1     -11.173  10.841  69.940  1.00  0.00    -0.300 A  
ENDBRANCH   7   8
ENDBRANCH   5   7
TORSDOF 2
ENDMDL
MODEL       49
REMARK 921   NORMALIZED FREE ENERGY PREDICTED BY IDOCK:   -5.47 KCAL/MOL
REMARK 922        TOTAL FREE ENERGY PREDICTED BY IDOCK:   -6.50 KCAL/MOL
REMARK 923 INTER-LIGAND FREE ENERGY PREDICTED BY IDOCK:   -6.13 KCAL/MOL
REMARK 924 INTRA-LIGAND FREE ENERGY PREDICTED BY IDOCK:   -0.38 KCAL/MOL
REMARK 927      BINDING AFFINITY PREDICTED BY RF-SCORE:    0.00 PKD
ROOT
HETATM    1  C   UNL     1     -13.782  13.212  72.271  1.00  0.00    -0.551 C  
HETATM    2  N   UNL     1     -12.707  12.562  71.538  1.00  0.00    -0.282 NA 
HETATM    3  C   UNL     1     -12.981  11.158  71.245  1.00  0.00    -0.357 C  
HETATM    4  C   UNL     1     -11.898  10.854  70.222  1.00  0.00    -0.450 C  
HETATM    5  C   UNL     1     -11.928  12.087  69.318  1.00  0.00    -0.329 C  
HETATM    6  C   UNL     1     -12.409  13.211  70.254  1.00  0.00    -0.249 C  
ENDROOT
BRANCH   5   7
HETATM    7  C   UNL     1     -10.607  12.451  68.620  1.00  0.00    -0.218 C  
BRANCH   7   8
HETATM    8  N   UNL     1     -10.515  11.942  67.224  1.00  0.00    -0.218 NA 
HETATM    9  C   UNL     1      -9.823  10.699  67.029  1.00  0.00    -0.185 A  
HETATM   10  C   UNL     1      -9.213   9.986  68.089  1.00  0.00    -0.130 A  
HETATM   11  C   UNL     1      -8.580   8.746  67.912  1.00  0.00    -0.130 A  
HETATM   12  C   UNL     1      -8.517   8.170  66.656  1.00  0.00    -0.129 A  
HETATM   13  C   UNL     1      -9.079   8.848  65.584  1.00  0.00    -0.269 A  
HETATM   14  C   UNL     1      -9.716  10.096  65.759  1.00  0.00    -0.245 A  
HETATM   15  S   UNL     1     -10.330  10.816  64.260  1.00  0.00    -0.240 SA 
HETATM   16  C   UNL     1     -11.165  12.264  64.847  1.00  0.00    -0.319 A  
HETATM   17  C   UNL     1     -11.819  13.002  63.838  1.00  0.00    -0.542 A  
HETATM   18  C   UNL     1     -12.536  14.152  64.135  1.00  0.00    -0.267 A  
HETATM   19  C   UNL     1     -12.612  14.563  65.451  1.00  0.00    -0.239 A  
HETATM   20  C   UNL     1     -11.959  13.834  66.457  1.00  0.00    -0.470 A  
HETATM   21  C   UNL     1     -11.200  12.670  66.200  1.00  0.00    -0.309 A  
ENDBRANCH   7   8
ENDBRANCH   5   7
TORSDOF 2
ENDMDL
MODEL       50
REMARK 921   NORMALIZED FREE ENERGY PREDICTED BY IDOCK:   -5.46 KCAL/MOL
REMARK 922        TOTAL FREE ENERGY PREDICTED BY IDOCK:   -6.49 KCAL/MOL
REMARK 923 INTER-LIGAND FREE ENERGY PREDICTED BY IDOCK:   -6.05 KCAL/MOL
REMARK 924 INTRA-LIGAND FREE ENERGY PREDICTED BY IDOCK:   -0.45 KCAL/MOL
REMARK 927      BINDING AFFINITY PREDICTED BY RF-SCORE:    0.00 PKD
ROOT
HETATM    1  C   UNL     1     -13.371   9.998  71.848  1.00  0.00    -0.415 C  
HETATM    2  N   UNL     1     -12.057  10.123  71.238  1.00  0.00    -0.377 NA 
HETATM    3  C   UNL     1     -11.364   8.843  71.104  1.00  0.00    -0.291 C  
HETATM    4  C   UNL     1     -10.230   9.220  70.165  1.00  0.00    -0.251 C  
HETATM    5  C   UNL     1     -10.927  10.092  69.120  1.00  0.00    -0.270 C  
HETATM    6  C   UNL     1     -12.097  10.723  69.897  1.00  0.00    -0.337 C  
ENDROOT
BRANCH   5   7
HETATM    7  C   UNL     1     -10.058  11.158  68.432  1.00  0.00    -0.184 C  
BRANCH   7   8
HETATM    8  N   UNL     1     -10.144  11.124  66.947  1.00  0.00    -0.208 NA 
HETATM    9  C   UNL     1     -10.947  12.136  66.319  1.00  0.00    -0.295 A  
HETATM   10  C   UNL     1     -11.666  13.110  67.052  1.00  0.00    -0.431 A  
HETATM   11  C   UNL     1     -12.411  14.131  66.442  1.00  0.00    -0.431 A  
HETATM   12  C   UNL     1     -12.481  14.212  65.062  1.00  0.00    -0.434 A  
HETATM   13  C   UNL     1     -11.813  13.260  64.305  1.00  0.00    -0.469 A  
HETATM   14  C   UNL     1     -11.063  12.232  64.916  1.00  0.00    -0.311 A  
HETATM   15  S   UNL     1     -10.323  11.094  63.776  1.00  0.00    -0.389 SA 
HETATM   16  C   UNL     1      -9.373  10.048  64.844  1.00  0.00    -0.266 A  
HETATM   17  C   UNL     1      -8.609   9.073  64.167  1.00  0.00    -0.165 A  
HETATM   18  C   UNL     1      -7.795   8.188  64.858  1.00  0.00    -0.128 A  
HETATM   19  C   UNL     1      -7.731   8.283  66.234  1.00  0.00    -0.097 A  
HETATM   20  C   UNL     1      -8.491   9.248  66.911  1.00  0.00    -0.128 A  
HETATM   21  C   UNL     1      -9.351  10.156  66.252  1.00  0.00    -0.172 A  
ENDBRANCH   7   8
ENDBRANCH   5   7
TORSDOF 2
ENDMDL
MODEL       51
REMARK 921   NORMALIZED FREE ENERGY PREDICTED BY IDOCK:   -5.45 KCAL/MOL
REMARK 922        TOTAL FREE ENERGY PREDICTED BY IDOCK:   -6.48 KCAL/MOL
REMARK 923 INTER-LIGAND FREE ENERGY PREDICTED BY IDOCK:   -6.17 KCAL/MOL
REMARK 924 INTRA-LIGAND FREE ENERGY PREDICTED BY IDOCK:   -0.32 KCAL/MOL
REMARK 927      BINDING AFFINITY PREDICTED BY RF-SCORE:    0.00 PKD
ROOT
HETATM    1  C   UNL     1     -13.791  13.469  72.170  1.00  0.00    -0.533 C  
HETATM    2  N   UNL     1     -13.192  14.508  71.347  1.00  0.00    -0.339 NA 
HETATM    3  C   UNL     1     -12.289  15.379  72.095  1.00  0.00    -0.379 C  
HETATM    4  C   UNL     1     -11.580  16.107  70.964  1.00  0.00    -0.434 C  
HETATM    5  C   UNL     1     -11.287  14.985  69.967  1.00  0.00    -0.305 C  
HETATM    6  C   UNL     1     -12.422  13.975  70.215  1.00  0.00    -0.338 C  
ENDROOT
BRANCH   5   7
HETATM    7  C   UNL     1     -11.198  15.394  68.488  1.00  0.00    -0.318 C  
BRANCH   7   8
HETATM    8  N   UNL     1      -9.826  15.785  68.063  1.00  0.00    -0.216 NA 
HETATM    9  C   UNL     1      -9.580  17.187  67.871  1.00  0.00    -0.266 A  
HETATM   10  C   UNL     1     -10.583  18.172  68.032  1.00  0.00    -0.359 A  
HETATM   11  C   UNL     1     -10.335  19.546  67.895  1.00  0.00    -0.567 A  
HETATM   12  C   UNL     1      -9.067  19.996  67.574  1.00  0.00    -0.457 A  
HETATM   13  C   UNL     1      -8.059  19.062  67.380  1.00  0.00    -0.287 A  
HETATM   14  C   UNL     1      -8.306  17.678  67.516  1.00  0.00    -0.218 A  
HETATM   15  S   UNL     1      -6.900  16.652  67.185  1.00  0.00    -0.207 SA 
HETATM   16  C   UNL     1      -7.509  15.034  67.573  1.00  0.00    -0.201 A  
HETATM   17  C   UNL     1      -6.543  14.011  67.458  1.00  0.00    -0.101 A  
HETATM   18  C   UNL     1      -6.855  12.691  67.746  1.00  0.00    -0.128 A  
HETATM   19  C   UNL     1      -8.136  12.388  68.164  1.00  0.00    -0.163 A  
HETATM   20  C   UNL     1      -9.099  13.402  68.275  1.00  0.00    -0.181 A  
HETATM   21  C   UNL     1      -8.835  14.757  67.972  1.00  0.00    -0.169 A  
ENDBRANCH   7   8
ENDBRANCH   5   7
TORSDOF 2
ENDMDL
MODEL       52
REMARK 921   NORMALIZED FREE ENERGY PREDICTED BY IDOCK:   -5.43 KCAL/MOL
REMARK 922        TOTAL FREE ENERGY PREDICTED BY IDOCK:   -6.46 KCAL/MOL
REMARK 923 INTER-LIGAND FREE ENERGY PREDICTED BY IDOCK:   -6.13 KCAL/MOL
REMARK 924 INTRA-LIGAND FREE ENERGY PREDICTED BY IDOCK:   -0.33 KCAL/MOL
REMARK 927      BINDING AFFINITY PREDICTED BY RF-SCORE:    0.00 PKD
ROOT
HETATM    1  C   UNL     1     -10.894  16.835  65.026  1.00  0.00    -0.117 C  
HETATM    2  N   UNL     1     -10.631  15.427  65.276  1.00  0.00    -0.399 NA 
HETATM    3  C   UNL     1      -9.531  15.208  66.212  1.00  0.00    -0.309 C  
HETATM    4  C   UNL     1      -9.708  13.733  66.535  1.00  0.00    -0.301 C  
HETATM    5  C   UNL     1     -11.221  13.605  66.724  1.00  0.00    -0.327 C  
HETATM    6  C   UNL     1     -11.794  14.710  65.818  1.00  0.00    -0.274 C  
ENDROOT
BRANCH   5   7
HETATM    7  C   UNL     1     -11.833  12.231  66.407  1.00  0.00    -0.311 C  
BRANCH   7   8
HETATM    8  N   UNL     1     -11.006  11.089  66.885  1.00  0.00    -0.272 NA 
HETATM    9  C   UNL     1     -11.165  10.701  68.258  1.00  0.00    -0.301 A  
HETATM   10  C   UNL     1     -12.031  11.375  69.151  1.00  0.00    -0.395 A  
HETATM   11  C   UNL     1     -12.228  10.968  70.480  1.00  0.00    -0.472 A  
HETATM   12  C   UNL     1     -11.551   9.870  70.979  1.00  0.00    -0.470 A  
HETATM   13  C   UNL     1     -10.671   9.195  70.144  1.00  0.00    -0.263 A  
HETATM   14  C   UNL     1     -10.470   9.603  68.807  1.00  0.00    -0.215 A  
HETATM   15  S   UNL     1      -9.275   8.638  67.923  1.00  0.00    -0.139 SA 
HETATM   16  C   UNL     1      -9.371   9.315  66.289  1.00  0.00    -0.200 A  
HETATM   17  C   UNL     1      -8.549   8.663  65.345  1.00  0.00    -0.206 A  
HETATM   18  C   UNL     1      -8.525   9.059  64.017  1.00  0.00    -0.175 A  
HETATM   19  C   UNL     1      -9.334  10.106  63.622  1.00  0.00    -0.336 A  
HETATM   20  C   UNL     1     -10.149  10.759  64.558  1.00  0.00    -0.415 A  
HETATM   21  C   UNL     1     -10.192  10.406  65.927  1.00  0.00    -0.234 A  
ENDBRANCH   7   8
ENDBRANCH   5   7
TORSDOF 2
ENDMDL
MODEL       53
REMARK 921   NORMALIZED FREE ENERGY PREDICTED BY IDOCK:   -5.39 KCAL/MOL
REMARK 922        TOTAL FREE ENERGY PREDICTED BY IDOCK:   -6.41 KCAL/MOL
REMARK 923 INTER-LIGAND FREE ENERGY PREDICTED BY IDOCK:   -6.51 KCAL/MOL
REMARK 924 INTRA-LIGAND FREE ENERGY PREDICTED BY IDOCK:    0.10 KCAL/MOL
REMARK 927      BINDING AFFINITY PREDICTED BY RF-SCORE:    0.00 PKD
ROOT
HETATM    1  C   UNL     1     -12.746  12.412  63.966  1.00  0.00    -0.349 C  
HETATM    2  N   UNL     1     -11.809  13.211  64.739  1.00  0.00    -0.351 NA 
HETATM    3  C   UNL     1     -11.794  14.618  64.345  1.00  0.00    -0.390 C  
HETATM    4  C   UNL     1     -11.023  15.238  65.499  1.00  0.00    -0.365 C  
HETATM    5  C   UNL     1     -11.629  14.550  66.723  1.00  0.00    -0.388 C  
HETATM    6  C   UNL     1     -12.079  13.180  66.183  1.00  0.00    -0.417 C  
ENDROOT
BRANCH   5   7
HETATM    7  C   UNL     1     -10.711  14.408  67.949  1.00  0.00    -0.244 C  
BRANCH   7   8
HETATM    8  N   UNL     1     -10.910  13.134  68.693  1.00  0.00    -0.255 NA 
HETATM    9  C   UNL     1     -10.112  12.012  68.286  1.00  0.00    -0.201 A  
HETATM   10  C   UNL     1      -9.198  12.071  67.208  1.00  0.00    -0.182 A  
HETATM   11  C   UNL     1      -8.380  10.992  66.839  1.00  0.00    -0.138 A  
HETATM   12  C   UNL     1      -8.452   9.795  67.529  1.00  0.00    -0.122 A  
HETATM   13  C   UNL     1      -9.355   9.686  68.577  1.00  0.00    -0.138 A  
HETATM   14  C   UNL     1     -10.180  10.769  68.950  1.00  0.00    -0.203 A  
HETATM   15  S   UNL     1     -11.293  10.412  70.283  1.00  0.00    -0.340 SA 
HETATM   16  C   UNL     1     -12.057  11.984  70.574  1.00  0.00    -0.311 A  
HETATM   17  C   UNL     1     -12.959  11.995  71.659  1.00  0.00    -0.439 A  
HETATM   18  C   UNL     1     -13.624  13.154  72.030  1.00  0.00    -0.554 A  
HETATM   19  C   UNL     1     -13.380  14.314  71.323  1.00  0.00    -0.388 A  
HETATM   20  C   UNL     1     -12.487  14.306  70.241  1.00  0.00    -0.422 A  
HETATM   21  C   UNL     1     -11.802  13.146  69.811  1.00  0.00    -0.316 A  
ENDBRANCH   7   8
ENDBRANCH   5   7
TORSDOF 2
ENDMDL
MODEL       54
REMARK 921   NORMALIZED FREE ENERGY PREDICTED BY IDOCK:   -5.35 KCAL/MOL
REMARK 922        TOTAL FREE ENERGY PREDICTED BY IDOCK:   -6.37 KCAL/MOL
REMARK 923 INTER-LIGAND FREE ENERGY PREDICTED BY IDOCK:   -6.02 KCAL/MOL
REMARK 924 INTRA-LIGAND FREE ENERGY PREDICTED BY IDOCK:   -0.36 KCAL/MOL
REMARK 927      BINDING AFFINITY PREDICTED BY RF-SCORE:    0.00 PKD
ROOT
HETATM    1  C   UNL     1      -6.929   9.165  66.181  1.00  0.00    -0.086 C  
HETATM    2  N   UNL     1      -8.342   9.290  66.503  1.00  0.00    -0.124 NA 
HETATM    3  C   UNL     1      -8.717   8.576  67.721  1.00  0.00    -0.137 C  
HETATM    4  C   UNL     1     -10.101   9.148  67.983  1.00  0.00    -0.238 C  
HETATM    5  C   UNL     1      -9.907  10.642  67.722  1.00  0.00    -0.187 C  
HETATM    6  C   UNL     1      -8.771  10.684  66.683  1.00  0.00    -0.140 C  
ENDROOT
BRANCH   5   7
HETATM    7  C   UNL     1     -11.147  11.417  67.245  1.00  0.00    -0.303 C  
BRANCH   7   8
HETATM    8  N   UNL     1     -11.387  12.674  68.004  1.00  0.00    -0.269 NA 
HETATM    9  C   UNL     1     -11.970  12.545  69.310  1.00  0.00    -0.250 A  
HETATM   10  C   UNL     1     -12.345  11.297  69.863  1.00  0.00    -0.301 A  
HETATM   11  C   UNL     1     -12.869  11.161  71.158  1.00  0.00    -0.473 A  
HETATM   12  C   UNL     1     -13.053  12.276  71.955  1.00  0.00    -0.469 A  
HETATM   13  C   UNL     1     -12.724  13.522  71.442  1.00  0.00    -0.423 A  
HETATM   14  C   UNL     1     -12.198  13.663  70.139  1.00  0.00    -0.342 A  
HETATM   15  S   UNL     1     -11.883  15.340  69.658  1.00  0.00    -0.351 SA 
HETATM   16  C   UNL     1     -11.124  15.145  68.069  1.00  0.00    -0.308 A  
HETATM   17  C   UNL     1     -10.700  16.355  67.479  1.00  0.00    -0.298 A  
HETATM   18  C   UNL     1     -10.069  16.372  66.245  1.00  0.00    -0.346 A  
HETATM   19  C   UNL     1      -9.845  15.173  65.598  1.00  0.00    -0.378 A  
HETATM   20  C   UNL     1     -10.268  13.968  66.179  1.00  0.00    -0.308 A  
HETATM   21  C   UNL     1     -10.935  13.902  67.424  1.00  0.00    -0.288 A  
ENDBRANCH   7   8
ENDBRANCH   5   7
TORSDOF 2
ENDMDL
MODEL       55
REMARK 921   NORMALIZED FREE ENERGY PREDICTED BY IDOCK:   -5.31 KCAL/MOL
REMARK 922        TOTAL FREE ENERGY PREDICTED BY IDOCK:   -6.32 KCAL/MOL
REMARK 923 INTER-LIGAND FREE ENERGY PREDICTED BY IDOCK:   -6.07 KCAL/MOL
REMARK 924 INTRA-LIGAND FREE ENERGY PREDICTED BY IDOCK:   -0.26 KCAL/MOL
REMARK 927      BINDING AFFINITY PREDICTED BY RF-SCORE:    0.00 PKD
ROOT
HETATM    1  C   UNL     1     -12.691  12.587  64.652  1.00  0.00    -0.349 C  
HETATM    2  N   UNL     1     -11.629  13.218  65.420  1.00  0.00    -0.312 NA 
HETATM    3  C   UNL     1     -10.666  13.933  64.585  1.00  0.00    -0.407 C  
HETATM    4  C   UNL     1      -9.913  14.740  65.629  1.00  0.00    -0.390 C  
HETATM    5  C   UNL     1     -11.033  15.261  66.530  1.00  0.00    -0.295 C  
HETATM    6  C   UNL     1     -12.126  14.183  66.410  1.00  0.00    -0.451 C  
ENDROOT
BRANCH   5   7
HETATM    7  C   UNL     1     -10.658  15.532  67.997  1.00  0.00    -0.270 C  
BRANCH   7   8
HETATM    8  N   UNL     1      -9.457  16.398  68.150  1.00  0.00    -0.210 NA 
HETATM    9  C   UNL     1      -8.235  15.752  68.543  1.00  0.00    -0.166 A  
HETATM   10  C   UNL     1      -8.154  14.366  68.816  1.00  0.00    -0.127 A  
HETATM   11  C   UNL     1      -6.953  13.722  69.151  1.00  0.00    -0.082 A  
HETATM   12  C   UNL     1      -5.777  14.445  69.241  1.00  0.00    -0.089 A  
HETATM   13  C   UNL     1      -5.817  15.812  69.007  1.00  0.00    -0.106 A  
HETATM   14  C   UNL     1      -7.024  16.463  68.671  1.00  0.00    -0.159 A  
HETATM   15  S   UNL     1      -6.871  18.216  68.455  1.00  0.00    -0.246 SA 
HETATM   16  C   UNL     1      -8.496  18.678  67.922  1.00  0.00    -0.276 A  
HETATM   17  C   UNL     1      -8.632  20.047  67.605  1.00  0.00    -0.385 A  
HETATM   18  C   UNL     1      -9.835  20.565  67.153  1.00  0.00    -0.567 A  
HETATM   19  C   UNL     1     -10.910  19.711  67.001  1.00  0.00    -0.518 A  
HETATM   20  C   UNL     1     -10.780  18.351  67.319  1.00  0.00    -0.389 A  
HETATM   21  C   UNL     1      -9.580  17.780  67.804  1.00  0.00    -0.272 A  
ENDBRANCH   7   8
ENDBRANCH   5   7
TORSDOF 2
ENDMDL
MODEL       56
REMARK 921   NORMALIZED FREE ENERGY PREDICTED BY IDOCK:   -5.29 KCAL/MOL
REMARK 922        TOTAL FREE ENERGY PREDICTED BY IDOCK:   -6.31 KCAL/MOL
REMARK 923 INTER-LIGAND FREE ENERGY PREDICTED BY IDOCK:   -5.86 KCAL/MOL
REMARK 924 INTRA-LIGAND FREE ENERGY PREDICTED BY IDOCK:   -0.45 KCAL/MOL
REMARK 927      BINDING AFFINITY PREDICTED BY RF-SCORE:    0.00 PKD
ROOT
HETATM    1  C   UNL     1     -12.726  15.747  71.448  1.00  0.00    -0.447 C  
HETATM    2  N   UNL     1     -12.644  14.922  70.254  1.00  0.00    -0.333 NA 
HETATM    3  C   UNL     1     -11.735  15.463  69.246  1.00  0.00    -0.349 C  
HETATM    4  C   UNL     1     -11.591  14.274  68.311  1.00  0.00    -0.358 C  
HETATM    5  C   UNL     1     -11.426  13.099  69.276  1.00  0.00    -0.348 C  
HETATM    6  C   UNL     1     -12.197  13.549  70.530  1.00  0.00    -0.361 C  
ENDROOT
BRANCH   5   7
HETATM    7  C   UNL     1     -11.907  11.729  68.770  1.00  0.00    -0.320 C  
BRANCH   7   8
HETATM    8  N   UNL     1     -10.926  10.634  69.004  1.00  0.00    -0.229 NA 
HETATM    9  C   UNL     1     -11.156   9.787  70.141  1.00  0.00    -0.285 A  
HETATM   10  C   UNL     1     -12.233   9.982  71.038  1.00  0.00    -0.462 A  
HETATM   11  C   UNL     1     -12.490   9.127  72.121  1.00  0.00    -0.436 A  
HETATM   12  C   UNL     1     -11.667   8.042  72.362  1.00  0.00    -0.444 A  
HETATM   13  C   UNL     1     -10.583   7.829  71.522  1.00  0.00    -0.247 A  
HETATM   14  C   UNL     1     -10.321   8.688  70.433  1.00  0.00    -0.200 A  
HETATM   15  S   UNL     1      -8.867   8.270  69.510  1.00  0.00    -0.150 SA 
HETATM   16  C   UNL     1      -8.914   9.434  68.175  1.00  0.00    -0.128 A  
HETATM   17  C   UNL     1      -7.879   9.270  67.229  1.00  0.00    -0.099 A  
HETATM   18  C   UNL     1      -7.787  10.088  66.114  1.00  0.00    -0.114 A  
HETATM   19  C   UNL     1      -8.741  11.070  65.931  1.00  0.00    -0.182 A  
HETATM   20  C   UNL     1      -9.768  11.239  66.871  1.00  0.00    -0.215 A  
HETATM   21  C   UNL     1      -9.891  10.444  68.034  1.00  0.00    -0.150 A  
ENDBRANCH   7   8
ENDBRANCH   5   7
TORSDOF 2
ENDMDL
MODEL       57
REMARK 921   NORMALIZED FREE ENERGY PREDICTED BY IDOCK:   -5.28 KCAL/MOL
REMARK 922        TOTAL FREE ENERGY PREDICTED BY IDOCK:   -6.29 KCAL/MOL
REMARK 923 INTER-LIGAND FREE ENERGY PREDICTED BY IDOCK:   -5.83 KCAL/MOL
REMARK 924 INTRA-LIGAND FREE ENERGY PREDICTED BY IDOCK:   -0.46 KCAL/MOL
REMARK 927      BINDING AFFINITY PREDICTED BY RF-SCORE:    0.00 PKD
ROOT
HETATM    1  C   UNL     1      -9.776  20.832  67.225  1.00  0.00    -0.347 C  
HETATM    2  N   UNL     1      -9.003  19.602  67.308  1.00  0.00    -0.307 NA 
HETATM    3  C   UNL     1      -8.811  19.138  68.680  1.00  0.00    -0.365 C  
HETATM    4  C   UNL     1      -8.301  17.726  68.444  1.00  0.00    -0.295 C  
HETATM    5  C   UNL     1      -9.221  17.212  67.336  1.00  0.00    -0.232 C  
HETATM    6  C   UNL     1      -9.611  18.488  66.567  1.00  0.00    -0.329 C  
ENDROOT
BRANCH   5   7
HETATM    7  C   UNL     1      -8.631  16.141  66.403  1.00  0.00    -0.330 C  
BRANCH   7   8
HETATM    8  N   UNL     1      -9.046  14.756  66.755  1.00  0.00    -0.253 NA 
HETATM    9  C   UNL     1     -10.259  14.269  66.160  1.00  0.00    -0.307 A  
HETATM   10  C   UNL     1     -11.065  15.059  65.305  1.00  0.00    -0.391 A  
HETATM   11  C   UNL     1     -12.224  14.572  64.682  1.00  0.00    -0.474 A  
HETATM   12  C   UNL     1     -12.637  13.270  64.900  1.00  0.00    -0.444 A  
HETATM   13  C   UNL     1     -11.891  12.469  65.752  1.00  0.00    -0.494 A  
HETATM   14  C   UNL     1     -10.724  12.956  66.382  1.00  0.00    -0.270 A  
HETATM   15  S   UNL     1      -9.940  11.792  67.464  1.00  0.00    -0.194 SA 
HETATM   16  C   UNL     1      -8.478  12.659  67.962  1.00  0.00    -0.177 A  
HETATM   17  C   UNL     1      -7.618  11.910  68.794  1.00  0.00    -0.090 A  
HETATM   18  C   UNL     1      -6.421  12.438  69.254  1.00  0.00    -0.107 A  
HETATM   19  C   UNL     1      -6.072  13.719  68.873  1.00  0.00    -0.088 A  
HETATM   20  C   UNL     1      -6.926  14.468  68.050  1.00  0.00    -0.149 A  
HETATM   21  C   UNL     1      -8.165  13.981  67.574  1.00  0.00    -0.186 A  
ENDBRANCH   7   8
ENDBRANCH   5   7
TORSDOF 2
ENDMDL
MODEL       58
REMARK 921   NORMALIZED FREE ENERGY PREDICTED BY IDOCK:   -5.25 KCAL/MOL
REMARK 922        TOTAL FREE ENERGY PREDICTED BY IDOCK:   -6.25 KCAL/MOL
REMARK 923 INTER-LIGAND FREE ENERGY PREDICTED BY IDOCK:   -6.18 KCAL/MOL
REMARK 924 INTRA-LIGAND FREE ENERGY PREDICTED BY IDOCK:   -0.07 KCAL/MOL
REMARK 927      BINDING AFFINITY PREDICTED BY RF-SCORE:    0.00 PKD
ROOT
HETATM    1  C   UNL     1      -8.210  16.123  69.191  1.00  0.00    -0.230 C  
HETATM    2  N   UNL     1      -9.483  15.463  69.435  1.00  0.00    -0.262 NA 
HETATM    3  C   UNL     1     -10.619  16.381  69.404  1.00  0.00    -0.317 C  
HETATM    4  C   UNL     1     -11.784  15.407  69.344  1.00  0.00    -0.369 C  
HETATM    5  C   UNL     1     -11.309  14.371  68.324  1.00  0.00    -0.311 C  
HETATM    6  C   UNL     1      -9.776  14.397  68.467  1.00  0.00    -0.225 C  
ENDROOT
BRANCH   5   7
HETATM    7  C   UNL     1     -11.873  12.949  68.484  1.00  0.00    -0.313 C  
BRANCH   7   8
HETATM    8  N   UNL     1     -11.259  11.960  67.556  1.00  0.00    -0.275 NA 
HETATM    9  C   UNL     1     -11.430  12.193  66.150  1.00  0.00    -0.371 A  
HETATM   10  C   UNL     1     -12.176  13.282  65.638  1.00  0.00    -0.514 A  
HETATM   11  C   UNL     1     -12.305  13.542  64.265  1.00  0.00    -0.392 A  
HETATM   12  C   UNL     1     -11.700  12.711  63.339  1.00  0.00    -0.571 A  
HETATM   13  C   UNL     1     -10.982  11.616  63.797  1.00  0.00    -0.495 A  
HETATM   14  C   UNL     1     -10.851  11.351  65.178  1.00  0.00    -0.238 A  
HETATM   15  S   UNL     1      -9.931   9.883  65.554  1.00  0.00    -0.226 SA 
HETATM   16  C   UNL     1      -9.848   9.928  67.323  1.00  0.00    -0.182 A  
HETATM   17  C   UNL     1      -9.090   8.882  67.892  1.00  0.00    -0.145 A  
HETATM   18  C   UNL     1      -8.910   8.786  69.263  1.00  0.00    -0.140 A  
HETATM   19  C   UNL     1      -9.479   9.747  70.075  1.00  0.00    -0.278 A  
HETATM   20  C   UNL     1     -10.236  10.786  69.514  1.00  0.00    -0.146 A  
HETATM   21  C   UNL     1     -10.466  10.913  68.124  1.00  0.00    -0.182 A  
ENDBRANCH   7   8
ENDBRANCH   5   7
TORSDOF 2
ENDMDL
MODEL       59
REMARK 921   NORMALIZED FREE ENERGY PREDICTED BY IDOCK:   -5.24 KCAL/MOL
REMARK 922        TOTAL FREE ENERGY PREDICTED BY IDOCK:   -6.25 KCAL/MOL
REMARK 923 INTER-LIGAND FREE ENERGY PREDICTED BY IDOCK:   -5.96 KCAL/MOL
REMARK 924 INTRA-LIGAND FREE ENERGY PREDICTED BY IDOCK:   -0.29 KCAL/MOL
REMARK 927      BINDING AFFINITY PREDICTED BY RF-SCORE:    0.00 PKD
ROOT
HETATM    1  C   UNL     1      -9.827  17.344  66.112  1.00  0.00    -0.245 C  
HETATM    2  N   UNL     1      -9.929  15.894  66.168  1.00  0.00    -0.291 NA 
HETATM    3  C   UNL     1      -8.712  15.253  66.659  1.00  0.00    -0.291 C  
HETATM    4  C   UNL     1      -9.210  13.842  66.928  1.00  0.00    -0.269 C  
HETATM    5  C   UNL     1     -10.558  14.081  67.610  1.00  0.00    -0.249 C  
HETATM    6  C   UNL     1     -11.028  15.425  67.024  1.00  0.00    -0.306 C  
ENDROOT
BRANCH   5   7
HETATM    7  C   UNL     1     -11.617  12.979  67.432  1.00  0.00    -0.356 C  
BRANCH   7   8
HETATM    8  N   UNL     1     -11.749  12.088  68.617  1.00  0.00    -0.309 NA 
HETATM    9  C   UNL     1     -11.191  10.770  68.505  1.00  0.00    -0.279 A  
HETATM   10  C   UNL     1     -10.572  10.296  67.323  1.00  0.00    -0.324 A  
HETATM   11  C   UNL     1      -9.981   9.027  67.225  1.00  0.00    -0.275 A  
HETATM   12  C   UNL     1      -9.997   8.166  68.308  1.00  0.00    -0.212 A  
HETATM   13  C   UNL     1     -10.617   8.581  69.478  1.00  0.00    -0.215 A  
HETATM   14  C   UNL     1     -11.213   9.857  69.580  1.00  0.00    -0.177 A  
HETATM   15  S   UNL     1     -11.989  10.176  71.141  1.00  0.00    -0.388 SA 
HETATM   16  C   UNL     1     -12.499  11.865  70.976  1.00  0.00    -0.290 A  
HETATM   17  C   UNL     1     -13.097  12.403  72.135  1.00  0.00    -0.419 A  
HETATM   18  C   UNL     1     -13.532  13.719  72.175  1.00  0.00    -0.596 A  
HETATM   19  C   UNL     1     -13.359  14.510  71.057  1.00  0.00    -0.384 A  
HETATM   20  C   UNL     1     -12.768  13.977  69.901  1.00  0.00    -0.059 A  
HETATM   21  C   UNL     1     -12.329  12.636  69.804  1.00  0.00    -0.025 A  
ENDBRANCH   7   8
ENDBRANCH   5   7
TORSDOF 2
ENDMDL
MODEL       60
REMARK 921   NORMALIZED FREE ENERGY PREDICTED BY IDOCK:   -5.21 KCAL/MOL
REMARK 922        TOTAL FREE ENERGY PREDICTED BY IDOCK:   -6.21 KCAL/MOL
REMARK 923 INTER-LIGAND FREE ENERGY PREDICTED BY IDOCK:   -5.77 KCAL/MOL
REMARK 924 INTRA-LIGAND FREE ENERGY PREDICTED BY IDOCK:   -0.44 KCAL/MOL
REMARK 927      BINDING AFFINITY PREDICTED BY RF-SCORE:    0.00 PKD
ROOT
HETATM    1  C   UNL     1      -9.073  19.813  65.965  1.00  0.00    -0.265 C  
HETATM    2  N   UNL     1      -9.113  19.223  67.294  1.00  0.00    -0.292 NA 
HETATM    3  C   UNL     1     -10.198  19.748  68.120  1.00  0.00    -0.452 C  
HETATM    4  C   UNL     1     -10.206  18.748  69.265  1.00  0.00     0.043 C  
HETATM    5  C   UNL     1     -10.057  17.406  68.546  1.00  0.00    -0.352 C  
HETATM    6  C   UNL     1      -9.268  17.762  67.273  1.00  0.00    -0.253 C  
ENDROOT
BRANCH   5   7
HETATM    7  C   UNL     1      -9.379  16.278  69.342  1.00  0.00    -0.138 C  
BRANCH   7   8
HETATM    8  N   UNL     1     -10.201  15.041  69.433  1.00  0.00    -0.236 NA 
HETATM    9  C   UNL     1      -9.833  13.950  68.574  1.00  0.00    -0.214 A  
HETATM   10  C   UNL     1      -8.767  14.031  67.646  1.00  0.00    -0.189 A  
HETATM   11  C   UNL     1      -8.372  12.951  66.840  1.00  0.00    -0.047 A  
HETATM   12  C   UNL     1      -9.040  11.742  66.920  1.00  0.00    -0.192 A  
HETATM   13  C   UNL     1     -10.108  11.629  67.798  1.00  0.00    -0.200 A  
HETATM   14  C   UNL     1     -10.509  12.713  68.609  1.00  0.00    -0.205 A  
HETATM   15  S   UNL     1     -11.919  12.377  69.629  1.00  0.00    -0.230 SA 
HETATM   16  C   UNL     1     -12.059  13.861  70.586  1.00  0.00    -0.347 A  
HETATM   17  C   UNL     1     -13.088  13.829  71.552  1.00  0.00    -0.435 A  
HETATM   18  C   UNL     1     -13.315  14.905  72.397  1.00  0.00    -0.502 A  
HETATM   19  C   UNL     1     -12.504  16.017  72.288  1.00  0.00    -0.536 A  
HETATM   20  C   UNL     1     -11.483  16.053  71.327  1.00  0.00    -0.475 A  
HETATM   21  C   UNL     1     -11.227  14.991  70.429  1.00  0.00    -0.254 A  
ENDBRANCH   7   8
ENDBRANCH   5   7
TORSDOF 2
ENDMDL
MODEL       61
REMARK 921   NORMALIZED FREE ENERGY PREDICTED BY IDOCK:   -5.20 KCAL/MOL
REMARK 922        TOTAL FREE ENERGY PREDICTED BY IDOCK:   -6.20 KCAL/MOL
REMARK 923 INTER-LIGAND FREE ENERGY PREDICTED BY IDOCK:   -5.87 KCAL/MOL
REMARK 924 INTRA-LIGAND FREE ENERGY PREDICTED BY IDOCK:   -0.33 KCAL/MOL
REMARK 927      BINDING AFFINITY PREDICTED BY RF-SCORE:    0.00 PKD
ROOT
HETATM    1  C   UNL     1     -13.198  15.353  71.761  1.00  0.00    -0.457 C  
HETATM    2  N   UNL     1     -13.020  14.531  70.575  1.00  0.00    -0.316 NA 
HETATM    3  C   UNL     1     -11.994  15.044  69.671  1.00  0.00    -0.321 C  
HETATM    4  C   UNL     1     -11.794  13.854  68.746  1.00  0.00    -0.396 C  
HETATM    5  C   UNL     1     -11.771  12.671  69.714  1.00  0.00    -0.354 C  
HETATM    6  C   UNL     1     -12.652  13.142  70.885  1.00  0.00    -0.295 C  
ENDROOT
BRANCH   5   7
HETATM    7  C   UNL     1     -12.244  11.320  69.150  1.00  0.00    -0.183 C  
BRANCH   7   8
HETATM    8  N   UNL     1     -11.127  10.422  68.748  1.00  0.00    -0.244 NA 
HETATM    9  C   UNL     1     -10.661  10.528  67.394  1.00  0.00    -0.281 A  
HETATM   10  C   UNL     1     -11.242  11.409  66.450  1.00  0.00    -0.250 A  
HETATM   11  C   UNL     1     -10.758  11.553  65.140  1.00  0.00    -0.348 A  
HETATM   12  C   UNL     1      -9.675  10.807  64.712  1.00  0.00    -0.338 A  
HETATM   13  C   UNL     1      -9.092   9.911  65.598  1.00  0.00    -0.220 A  
HETATM   14  C   UNL     1      -9.577   9.763  66.916  1.00  0.00    -0.180 A  
HETATM   15  S   UNL     1      -8.724   8.539  67.872  1.00  0.00    -0.138 SA 
HETATM   16  C   UNL     1      -9.477   8.709  69.467  1.00  0.00    -0.162 A  
HETATM   17  C   UNL     1      -8.918   7.876  70.460  1.00  0.00    -0.145 A  
HETATM   18  C   UNL     1      -9.382   7.903  71.767  1.00  0.00    -0.196 A  
HETATM   19  C   UNL     1     -10.401   8.776  72.091  1.00  0.00    -0.378 A  
HETATM   20  C   UNL     1     -10.961   9.603  71.105  1.00  0.00    -0.430 A  
HETATM   21  C   UNL     1     -10.538   9.595  69.756  1.00  0.00    -0.242 A  
ENDBRANCH   7   8
ENDBRANCH   5   7
TORSDOF 2
ENDMDL
MODEL       62
REMARK 921   NORMALIZED FREE ENERGY PREDICTED BY IDOCK:   -5.19 KCAL/MOL
REMARK 922        TOTAL FREE ENERGY PREDICTED BY IDOCK:   -6.20 KCAL/MOL
REMARK 923 INTER-LIGAND FREE ENERGY PREDICTED BY IDOCK:   -5.78 KCAL/MOL
REMARK 924 INTRA-LIGAND FREE ENERGY PREDICTED BY IDOCK:   -0.41 KCAL/MOL
REMARK 927      BINDING AFFINITY PREDICTED BY RF-SCORE:    0.00 PKD
ROOT
HETATM    1  C   UNL     1     -12.253   9.254  71.770  1.00  0.00    -0.385 C  
HETATM    2  N   UNL     1     -11.151   9.236  70.821  1.00  0.00    -0.262 NA 
HETATM    3  C   UNL     1     -11.023   7.962  70.117  1.00  0.00    -0.233 C  
HETATM    4  C   UNL     1     -10.063   8.338  69.001  1.00  0.00    -0.208 C  
HETATM    5  C   UNL     1     -10.601   9.690  68.529  1.00  0.00    -0.253 C  
HETATM    6  C   UNL     1     -11.259  10.278  69.791  1.00  0.00    -0.282 C  
ENDROOT
BRANCH   5   7
HETATM    7  C   UNL     1      -9.573  10.657  67.918  1.00  0.00    -0.162 C  
BRANCH   7   8
HETATM    8  N   UNL     1      -9.789  10.911  66.467  1.00  0.00    -0.198 NA 
HETATM    9  C   UNL     1      -9.131  10.027  65.546  1.00  0.00    -0.186 A  
HETATM   10  C   UNL     1      -8.279   8.977  65.967  1.00  0.00    -0.113 A  
HETATM   11  C   UNL     1      -7.673   8.080  65.073  1.00  0.00    -0.112 A  
HETATM   12  C   UNL     1      -7.884   8.204  63.712  1.00  0.00    -0.147 A  
HETATM   13  C   UNL     1      -8.692   9.236  63.255  1.00  0.00    -0.190 A  
HETATM   14  C   UNL     1      -9.302  10.141  64.151  1.00  0.00    -0.287 A  
HETATM   15  S   UNL     1     -10.257  11.411  63.366  1.00  0.00    -0.418 SA 
HETATM   16  C   UNL     1     -10.971  12.260  64.747  1.00  0.00    -0.303 A  
HETATM   17  C   UNL     1     -11.855  13.301  64.390  1.00  0.00    -0.448 A  
HETATM   18  C   UNL     1     -12.512  14.050  65.355  1.00  0.00    -0.520 A  
HETATM   19  C   UNL     1     -12.296  13.752  66.686  1.00  0.00    -0.403 A  
HETATM   20  C   UNL     1     -11.415  12.722  67.044  1.00  0.00    -0.397 A  
HETATM   21  C   UNL     1     -10.706  11.946  66.098  1.00  0.00    -0.278 A  
ENDBRANCH   7   8
ENDBRANCH   5   7
TORSDOF 2
ENDMDL
MODEL       63
REMARK 921   NORMALIZED FREE ENERGY PREDICTED BY IDOCK:   -5.16 KCAL/MOL
REMARK 922        TOTAL FREE ENERGY PREDICTED BY IDOCK:   -6.16 KCAL/MOL
REMARK 923 INTER-LIGAND FREE ENERGY PREDICTED BY IDOCK:   -5.75 KCAL/MOL
REMARK 924 INTRA-LIGAND FREE ENERGY PREDICTED BY IDOCK:   -0.41 KCAL/MOL
REMARK 927      BINDING AFFINITY PREDICTED BY RF-SCORE:    0.00 PKD
ROOT
HETATM    1  C   UNL     1     -13.475  16.074  73.323  1.00  0.00    -0.484 C  
HETATM    2  N   UNL     1     -12.914  14.953  72.586  1.00  0.00    -0.378 NA 
HETATM    3  C   UNL     1     -13.932  14.080  72.007  1.00  0.00    -0.506 C  
HETATM    4  C   UNL     1     -13.095  13.244  71.053  1.00  0.00    -0.153 C  
HETATM    5  C   UNL     1     -12.181  14.283  70.400  1.00  0.00    -0.411 C  
HETATM    6  C   UNL     1     -12.037  15.369  71.482  1.00  0.00    -0.371 C  
ENDROOT
BRANCH   5   7
HETATM    7  C   UNL     1     -10.813  13.776  69.913  1.00  0.00     0.327 C  
BRANCH   7   8
HETATM    8  N   UNL     1     -10.851  13.194  68.543  1.00  0.00    -0.255 NA 
HETATM    9  C   UNL     1     -10.832  14.117  67.443  1.00  0.00    -0.287 A  
HETATM   10  C   UNL     1     -10.816  15.521  67.620  1.00  0.00    -0.306 A  
HETATM   11  C   UNL     1     -10.747  16.426  66.549  1.00  0.00    -0.163 A  
HETATM   12  C   UNL     1     -10.704  15.961  65.247  1.00  0.00    -0.442 A  
HETATM   13  C   UNL     1     -10.744  14.592  65.028  1.00  0.00    -0.444 A  
HETATM   14  C   UNL     1     -10.815  13.679  66.103  1.00  0.00    -0.279 A  
HETATM   15  S   UNL     1     -10.901  11.979  65.610  1.00  0.00    -0.291 SA 
HETATM   16  C   UNL     1     -10.842  11.128  67.163  1.00  0.00    -0.273 A  
HETATM   17  C   UNL     1     -10.825   9.721  67.050  1.00  0.00    -0.165 A  
HETATM   18  C   UNL     1     -10.759   8.910  68.172  1.00  0.00    -0.148 A  
HETATM   19  C   UNL     1     -10.696   9.504  69.417  1.00  0.00    -0.244 A  
HETATM   20  C   UNL     1     -10.717  10.901  69.534  1.00  0.00    -0.251 A  
HETATM   21  C   UNL     1     -10.806  11.769  68.421  1.00  0.00    -0.223 A  
ENDBRANCH   7   8
ENDBRANCH   5   7
TORSDOF 2
ENDMDL
MODEL       64
REMARK 921   NORMALIZED FREE ENERGY PREDICTED BY IDOCK:   -5.16 KCAL/MOL
REMARK 922        TOTAL FREE ENERGY PREDICTED BY IDOCK:   -6.15 KCAL/MOL
REMARK 923 INTER-LIGAND FREE ENERGY PREDICTED BY IDOCK:   -6.11 KCAL/MOL
REMARK 924 INTRA-LIGAND FREE ENERGY PREDICTED BY IDOCK:   -0.05 KCAL/MOL
REMARK 927      BINDING AFFINITY PREDICTED BY RF-SCORE:    0.00 PKD
ROOT
HETATM    1  C   UNL     1     -12.083  15.438  72.539  1.00  0.00    -0.423 C  
HETATM    2  N   UNL     1     -11.672  14.854  71.272  1.00  0.00    -0.331 NA 
HETATM    3  C   UNL     1     -12.795  14.361  70.478  1.00  0.00    -0.294 C  
HETATM    4  C   UNL     1     -12.127  14.140  69.130  1.00  0.00    -0.362 C  
HETATM    5  C   UNL     1     -11.264  15.392  68.969  1.00  0.00    -0.295 C  
HETATM    6  C   UNL     1     -10.932  15.793  70.417  1.00  0.00    -0.355 C  
ENDROOT
BRANCH   5   7
HETATM    7  C   UNL     1      -9.995  15.238  68.113  1.00  0.00    -0.221 C  
BRANCH   7   8
HETATM    8  N   UNL     1      -8.981  16.299  68.362  1.00  0.00    -0.196 NA 
HETATM    9  C   UNL     1      -9.319  17.632  67.948  1.00  0.00    -0.268 A  
HETATM   10  C   UNL     1     -10.535  17.948  67.296  1.00  0.00    -0.373 A  
HETATM   11  C   UNL     1     -10.891  19.256  66.934  1.00  0.00    -0.479 A  
HETATM   12  C   UNL     1     -10.033  20.309  67.198  1.00  0.00    -0.593 A  
HETATM   13  C   UNL     1      -8.819  20.040  67.812  1.00  0.00    -0.379 A  
HETATM   14  C   UNL     1      -8.457  18.725  68.177  1.00  0.00    -0.306 A  
HETATM   15  S   UNL     1      -6.849  18.588  68.909  1.00  0.00    -0.277 SA 
HETATM   16  C   UNL     1      -6.777  16.875  69.356  1.00  0.00    -0.220 A  
HETATM   17  C   UNL     1      -5.598  16.505  70.038  1.00  0.00    -0.207 A  
HETATM   18  C   UNL     1      -5.397  15.205  70.474  1.00  0.00    -0.133 A  
HETATM   19  C   UNL     1      -6.384  14.267  70.242  1.00  0.00    -0.140 A  
HETATM   20  C   UNL     1      -7.555  14.630  69.561  1.00  0.00    -0.042 A  
HETATM   21  C   UNL     1      -7.796  15.937  69.077  1.00  0.00    -0.216 A  
ENDBRANCH   7   8
ENDBRANCH   5   7
TORSDOF 2
ENDMDL
MODEL       65
REMARK 921   NORMALIZED FREE ENERGY PREDICTED BY IDOCK:   -5.15 KCAL/MOL
REMARK 922        TOTAL FREE ENERGY PREDICTED BY IDOCK:   -6.15 KCAL/MOL
REMARK 923 INTER-LIGAND FREE ENERGY PREDICTED BY IDOCK:   -5.95 KCAL/MOL
REMARK 924 INTRA-LIGAND FREE ENERGY PREDICTED BY IDOCK:   -0.20 KCAL/MOL
REMARK 927      BINDING AFFINITY PREDICTED BY RF-SCORE:    0.00 PKD
ROOT
HETATM    1  C   UNL     1     -11.728  15.695  64.240  1.00  0.00    -0.169 C  
HETATM    2  N   UNL     1     -11.758  14.890  65.451  1.00  0.00    -0.289 NA 
HETATM    3  C   UNL     1     -12.561  13.677  65.312  1.00  0.00    -0.469 C  
HETATM    4  C   UNL     1     -12.142  12.904  66.552  1.00  0.00    -0.375 C  
HETATM    5  C   UNL     1     -10.626  13.100  66.579  1.00  0.00    -0.290 C  
HETATM    6  C   UNL     1     -10.424  14.464  65.895  1.00  0.00    -0.308 C  
ENDROOT
BRANCH   5   7
HETATM    7  C   UNL     1      -9.957  13.051  67.964  1.00  0.00    -0.233 C  
BRANCH   7   8
HETATM    8  N   UNL     1     -10.627  12.120  68.912  1.00  0.00    -0.187 NA 
HETATM    9  C   UNL     1     -11.575  12.692  69.827  1.00  0.00    -0.214 A  
HETATM   10  C   UNL     1     -11.852  14.080  69.875  1.00  0.00    -0.393 A  
HETATM   11  C   UNL     1     -12.813  14.637  70.732  1.00  0.00    -0.418 A  
HETATM   12  C   UNL     1     -13.532  13.828  71.593  1.00  0.00    -0.409 A  
HETATM   13  C   UNL     1     -13.273  12.465  71.597  1.00  0.00    -0.367 A  
HETATM   14  C   UNL     1     -12.305  11.900  70.737  1.00  0.00    -0.320 A  
HETATM   15  S   UNL     1     -12.094  10.151  70.927  1.00  0.00    -0.386 SA 
HETATM   16  C   UNL     1     -10.941   9.764  69.638  1.00  0.00    -0.241 A  
HETATM   17  C   UNL     1     -10.647   8.388  69.521  1.00  0.00    -0.217 A  
HETATM   18  C   UNL     1      -9.778   7.918  68.548  1.00  0.00    -0.167 A  
HETATM   19  C   UNL     1      -9.207   8.824  67.676  1.00  0.00    -0.148 A  
HETATM   20  C   UNL     1      -9.494  10.192  67.792  1.00  0.00    -0.160 A  
HETATM   21  C   UNL     1     -10.355  10.721  68.781  1.00  0.00    -0.192 A  
ENDBRANCH   7   8
ENDBRANCH   5   7
TORSDOF 2
ENDMDL
MODEL       66
REMARK 921   NORMALIZED FREE ENERGY PREDICTED BY IDOCK:   -5.14 KCAL/MOL
REMARK 922        TOTAL FREE ENERGY PREDICTED BY IDOCK:   -6.14 KCAL/MOL
REMARK 923 INTER-LIGAND FREE ENERGY PREDICTED BY IDOCK:   -5.83 KCAL/MOL
REMARK 924 INTRA-LIGAND FREE ENERGY PREDICTED BY IDOCK:   -0.30 KCAL/MOL
REMARK 927      BINDING AFFINITY PREDICTED BY RF-SCORE:    0.00 PKD
ROOT
HETATM    1  C   UNL     1     -12.709  15.729  71.958  1.00  0.00    -0.449 C  
HETATM    2  N   UNL     1     -11.914  15.037  70.956  1.00  0.00    -0.298 NA 
HETATM    3  C   UNL     1     -12.287  13.634  70.798  1.00  0.00    -0.371 C  
HETATM    4  C   UNL     1     -11.567  13.281  69.507  1.00  0.00    -0.349 C  
HETATM    5  C   UNL     1     -11.846  14.494  68.618  1.00  0.00    -0.355 C  
HETATM    6  C   UNL     1     -12.006  15.650  69.623  1.00  0.00    -0.349 C  
ENDROOT
BRANCH   5   7
HETATM    7  C   UNL     1     -10.791  14.810  67.546  1.00  0.00    -0.287 C  
BRANCH   7   8
HETATM    8  N   UNL     1     -10.144  13.597  66.975  1.00  0.00    -0.245 NA 
HETATM    9  C   UNL     1     -10.802  12.970  65.864  1.00  0.00    -0.272 A  
HETATM   10  C   UNL     1     -12.030  13.437  65.337  1.00  0.00    -0.419 A  
HETATM   11  C   UNL     1     -12.652  12.858  64.220  1.00  0.00    -0.363 A  
HETATM   12  C   UNL     1     -12.075  11.771  63.587  1.00  0.00    -0.486 A  
HETATM   13  C   UNL     1     -10.884  11.265  64.088  1.00  0.00    -0.407 A  
HETATM   14  C   UNL     1     -10.257  11.844  65.212  1.00  0.00    -0.272 A  
HETATM   15  S   UNL     1      -8.770  11.024  65.720  1.00  0.00    -0.142 SA 
HETATM   16  C   UNL     1      -8.189  12.064  67.031  1.00  0.00    -0.169 A  
HETATM   17  C   UNL     1      -6.950  11.666  67.578  1.00  0.00    -0.104 A  
HETATM   18  C   UNL     1      -6.349  12.386  68.599  1.00  0.00    -0.073 A  
HETATM   19  C   UNL     1      -6.980  13.520  69.071  1.00  0.00    -0.091 A  
HETATM   20  C   UNL     1      -8.213  13.917  68.532  1.00  0.00    -0.131 A  
HETATM   21  C   UNL     1      -8.875  13.204  67.507  1.00  0.00    -0.199 A  
ENDBRANCH   7   8
ENDBRANCH   5   7
TORSDOF 2
ENDMDL
MODEL       67
REMARK 921   NORMALIZED FREE ENERGY PREDICTED BY IDOCK:   -5.09 KCAL/MOL
REMARK 922        TOTAL FREE ENERGY PREDICTED BY IDOCK:   -6.09 KCAL/MOL
REMARK 923 INTER-LIGAND FREE ENERGY PREDICTED BY IDOCK:   -5.87 KCAL/MOL
REMARK 924 INTRA-LIGAND FREE ENERGY PREDICTED BY IDOCK:   -0.21 KCAL/MOL
REMARK 927      BINDING AFFINITY PREDICTED BY RF-SCORE:    0.00 PKD
ROOT
HETATM    1  C   UNL     1     -11.623  15.841  71.767  1.00  0.00    -0.456 C  
HETATM    2  N   UNL     1     -11.183  14.851  70.797  1.00  0.00    -0.221 NA 
HETATM    3  C   UNL     1     -12.281  14.057  70.251  1.00  0.00    -0.361 C  
HETATM    4  C   UNL     1     -11.599  13.385  69.071  1.00  0.00    -0.358 C  
HETATM    5  C   UNL     1     -10.787  14.524  68.452  1.00  0.00    -0.250 C  
HETATM    6  C   UNL     1     -10.478  15.440  69.650  1.00  0.00    -0.280 C  
ENDROOT
BRANCH   5   7
HETATM    7  C   UNL     1      -9.509  14.119  67.699  1.00  0.00    -0.213 C  
BRANCH   7   8
HETATM    8  N   UNL     1      -9.669  12.884  66.884  1.00  0.00    -0.233 NA 
HETATM    9  C   UNL     1      -9.065  11.685  67.394  1.00  0.00    -0.169 A  
HETATM   10  C   UNL     1      -8.313  11.655  68.593  1.00  0.00    -0.100 A  
HETATM   11  C   UNL     1      -7.763  10.477  69.121  1.00  0.00    -0.131 A  
HETATM   12  C   UNL     1      -7.931   9.273  68.460  1.00  0.00    -0.101 A  
HETATM   13  C   UNL     1      -8.639   9.262  67.267  1.00  0.00    -0.125 A  
HETATM   14  C   UNL     1      -9.192  10.446  66.732  1.00  0.00    -0.155 A  
HETATM   15  S   UNL     1     -10.020  10.226  65.181  1.00  0.00    -0.294 SA 
HETATM   16  C   UNL     1     -10.693  11.836  64.876  1.00  0.00    -0.295 A  
HETATM   17  C   UNL     1     -11.480  11.922  63.707  1.00  0.00    -0.542 A  
HETATM   18  C   UNL     1     -12.095  13.108  63.338  1.00  0.00    -0.558 A  
HETATM   19  C   UNL     1     -11.936  14.217  64.146  1.00  0.00    -0.421 A  
HETATM   20  C   UNL     1     -11.152  14.137  65.307  1.00  0.00    -0.331 A  
HETATM   21  C   UNL     1     -10.488  12.956  65.712  1.00  0.00    -0.278 A  
ENDBRANCH   7   8
ENDBRANCH   5   7
TORSDOF 2
ENDMDL
MODEL       68
REMARK 921   NORMALIZED FREE ENERGY PREDICTED BY IDOCK:   -5.09 KCAL/MOL
REMARK 922        TOTAL FREE ENERGY PREDICTED BY IDOCK:   -6.08 KCAL/MOL
REMARK 923 INTER-LIGAND FREE ENERGY PREDICTED BY IDOCK:   -5.70 KCAL/MOL
REMARK 924 INTRA-LIGAND FREE ENERGY PREDICTED BY IDOCK:   -0.38 KCAL/MOL
REMARK 927      BINDING AFFINITY PREDICTED BY RF-SCORE:    0.00 PKD
ROOT
HETATM    1  C   UNL     1      -9.421  10.168  62.916  1.00  0.00    -0.253 C  
HETATM    2  N   UNL     1      -9.465  10.736  64.254  1.00  0.00    -0.242 NA 
HETATM    3  C   UNL     1     -10.632  11.587  64.477  1.00  0.00    -0.329 C  
HETATM    4  C   UNL     1     -10.596  11.746  65.988  1.00  0.00    -0.302 C  
HETATM    5  C   UNL     1     -10.286  10.329  66.473  1.00  0.00    -0.276 C  
HETATM    6  C   UNL     1      -9.478   9.718  65.314  1.00  0.00    -0.279 C  
ENDROOT
BRANCH   5   7
HETATM    7  C   UNL     1      -9.540  10.216  67.813  1.00  0.00    -0.148 C  
BRANCH   7   8
HETATM    8  N   UNL     1     -10.275   9.420  68.834  1.00  0.00    -0.194 NA 
HETATM    9  C   UNL     1     -11.165  10.138  69.702  1.00  0.00    -0.261 A  
HETATM   10  C   UNL     1     -11.329  11.543  69.640  1.00  0.00    -0.329 A  
HETATM   11  C   UNL     1     -12.234  12.243  70.452  1.00  0.00    -0.371 A  
HETATM   12  C   UNL     1     -13.009  11.565  71.376  1.00  0.00    -0.450 A  
HETATM   13  C   UNL     1     -12.860  10.190  71.488  1.00  0.00    -0.548 A  
HETATM   14  C   UNL     1     -11.949   9.483  70.674  1.00  0.00    -0.197 A  
HETATM   15  S   UNL     1     -11.878   7.743  71.002  1.00  0.00    -0.240 SA 
HETATM   16  C   UNL     1     -10.771   7.162  69.746  1.00  0.00    -0.239 A  
HETATM   17  C   UNL     1     -10.590   5.762  69.738  1.00  0.00    -0.388 A  
HETATM   18  C   UNL     1      -9.771   5.148  68.804  1.00  0.00    -0.215 A  
HETATM   19  C   UNL     1      -9.136   5.932  67.861  1.00  0.00    -0.109 A  
HETATM   20  C   UNL     1      -9.310   7.324  67.868  1.00  0.00    -0.131 A  
HETATM   21  C   UNL     1     -10.117   7.998  68.814  1.00  0.00    -0.195 A  
ENDBRANCH   7   8
ENDBRANCH   5   7
TORSDOF 2
ENDMDL
MODEL       69
REMARK 921   NORMALIZED FREE ENERGY PREDICTED BY IDOCK:   -5.08 KCAL/MOL
REMARK 922        TOTAL FREE ENERGY PREDICTED BY IDOCK:   -6.07 KCAL/MOL
REMARK 923 INTER-LIGAND FREE ENERGY PREDICTED BY IDOCK:   -5.95 KCAL/MOL
REMARK 924 INTRA-LIGAND FREE ENERGY PREDICTED BY IDOCK:   -0.12 KCAL/MOL
REMARK 927      BINDING AFFINITY PREDICTED BY RF-SCORE:    0.00 PKD
ROOT
HETATM    1  C   UNL     1     -12.803  10.437  71.029  1.00  0.00    -0.401 C  
HETATM    2  N   UNL     1     -11.419  10.615  70.620  1.00  0.00    -0.326 NA 
HETATM    3  C   UNL     1     -10.705   9.351  70.454  1.00  0.00    -0.263 C  
HETATM    4  C   UNL     1      -9.455   9.814  69.722  1.00  0.00    -0.253 C  
HETATM    5  C   UNL     1     -10.010  10.792  68.685  1.00  0.00    -0.189 C  
HETATM    6  C   UNL     1     -11.281  11.347  69.354  1.00  0.00    -0.268 C  
ENDROOT
BRANCH   5   7
HETATM    7  C   UNL     1      -9.064  11.917  68.233  1.00  0.00    -0.183 C  
BRANCH   7   8
HETATM    8  N   UNL     1      -9.655  12.809  67.199  1.00  0.00    -0.213 NA 
HETATM    9  C   UNL     1      -9.809  12.264  65.880  1.00  0.00    -0.251 A  
HETATM   10  C   UNL     1      -9.393  10.955  65.537  1.00  0.00    -0.237 A  
HETATM   11  C   UNL     1      -9.586  10.400  64.263  1.00  0.00    -0.377 A  
HETATM   12  C   UNL     1     -10.197  11.140  63.267  1.00  0.00    -0.403 A  
HETATM   13  C   UNL     1     -10.597  12.438  63.552  1.00  0.00    -0.451 A  
HETATM   14  C   UNL     1     -10.402  13.000  64.833  1.00  0.00    -0.324 A  
HETATM   15  S   UNL     1     -10.943  14.681  64.981  1.00  0.00    -0.421 SA 
HETATM   16  C   UNL     1     -10.684  15.016  66.701  1.00  0.00    -0.312 A  
HETATM   17  C   UNL     1     -11.109  16.298  67.110  1.00  0.00    -0.014 A  
HETATM   18  C   UNL     1     -10.995  16.707  68.430  1.00  0.00    -0.345 A  
HETATM   19  C   UNL     1     -10.465  15.828  69.353  1.00  0.00    -0.257 A  
HETATM   20  C   UNL     1     -10.038  14.554  68.950  1.00  0.00    -0.224 A  
HETATM   21  C   UNL     1     -10.113  14.100  67.613  1.00  0.00    -0.236 A  
ENDBRANCH   7   8
ENDBRANCH   5   7
TORSDOF 2
ENDMDL
MODEL       70
REMARK 921   NORMALIZED FREE ENERGY PREDICTED BY IDOCK:   -5.08 KCAL/MOL
REMARK 922        TOTAL FREE ENERGY PREDICTED BY IDOCK:   -6.07 KCAL/MOL
REMARK 923 INTER-LIGAND FREE ENERGY PREDICTED BY IDOCK:   -5.61 KCAL/MOL
REMARK 924 INTRA-LIGAND FREE ENERGY PREDICTED BY IDOCK:   -0.45 KCAL/MOL
REMARK 927      BINDING AFFINITY PREDICTED BY RF-SCORE:    0.00 PKD
ROOT
HETATM    1  C   UNL     1     -11.497   7.597  71.330  1.00  0.00    -0.269 C  
HETATM    2  N   UNL     1     -10.683   7.718  70.131  1.00  0.00    -0.238 NA 
HETATM    3  C   UNL     1     -11.054   6.765  69.088  1.00  0.00    -0.218 C  
HETATM    4  C   UNL     1     -10.308   7.332  67.891  1.00  0.00    -0.253 C  
HETATM    5  C   UNL     1     -10.569   8.835  68.009  1.00  0.00    -0.218 C  
HETATM    6  C   UNL     1     -10.748   9.054  69.522  1.00  0.00    -0.206 C  
ENDROOT
BRANCH   5   7
HETATM    7  C   UNL     1      -9.492   9.761  67.420  1.00  0.00    -0.152 C  
BRANCH   7   8
HETATM    8  N   UNL     1      -9.870  10.348  66.106  1.00  0.00    -0.212 NA 
HETATM    9  C   UNL     1     -10.702  11.518  66.131  1.00  0.00    -0.274 A  
HETATM   10  C   UNL     1     -11.188  12.089  67.332  1.00  0.00    -0.368 A  
HETATM   11  C   UNL     1     -11.959  13.261  67.364  1.00  0.00    -0.383 A  
HETATM   12  C   UNL     1     -12.291  13.909  66.188  1.00  0.00    -0.504 A  
HETATM   13  C   UNL     1     -11.858  13.368  64.985  1.00  0.00    -0.381 A  
HETATM   14  C   UNL     1     -11.082  12.188  64.949  1.00  0.00    -0.319 A  
HETATM   15  S   UNL     1     -10.667  11.639  63.316  1.00  0.00    -0.274 SA 
HETATM   16  C   UNL     1      -9.608  10.256  63.636  1.00  0.00    -0.277 A  
HETATM   17  C   UNL     1      -9.068   9.662  62.475  1.00  0.00    -0.283 A  
HETATM   18  C   UNL     1      -8.203   8.581  62.556  1.00  0.00    -0.189 A  
HETATM   19  C   UNL     1      -7.863   8.095  63.803  1.00  0.00    -0.147 A  
HETATM   20  C   UNL     1      -8.402   8.680  64.958  1.00  0.00    -0.181 A  
HETATM   21  C   UNL     1      -9.304   9.768  64.927  1.00  0.00    -0.265 A  
ENDBRANCH   7   8
ENDBRANCH   5   7
TORSDOF 2
ENDMDL
MODEL       71
REMARK 921   NORMALIZED FREE ENERGY PREDICTED BY IDOCK:   -5.06 KCAL/MOL
REMARK 922        TOTAL FREE ENERGY PREDICTED BY IDOCK:   -6.04 KCAL/MOL
REMARK 923 INTER-LIGAND FREE ENERGY PREDICTED BY IDOCK:   -5.63 KCAL/MOL
REMARK 924 INTRA-LIGAND FREE ENERGY PREDICTED BY IDOCK:   -0.41 KCAL/MOL
REMARK 927      BINDING AFFINITY PREDICTED BY RF-SCORE:    0.00 PKD
ROOT
HETATM    1  C   UNL     1     -11.776   6.518  71.587  1.00  0.00    -0.324 C  
HETATM    2  N   UNL     1     -10.929   6.962  70.491  1.00  0.00    -0.259 NA 
HETATM    3  C   UNL     1     -11.271   6.338  69.215  1.00  0.00    -0.389 C  
HETATM    4  C   UNL     1     -10.493   7.211  68.244  1.00  0.00    -0.235 C  
HETATM    5  C   UNL     1     -10.758   8.623  68.767  1.00  0.00    -0.098 C  
HETATM    6  C   UNL     1     -10.978   8.415  70.276  1.00  0.00    -0.232 C  
ENDROOT
BRANCH   5   7
HETATM    7  C   UNL     1      -9.666   9.669  68.487  1.00  0.00    -0.150 C  
BRANCH   7   8
HETATM    8  N   UNL     1     -10.107  10.756  67.571  1.00  0.00    -0.181 NA 
HETATM    9  C   UNL     1      -9.847  10.573  66.171  1.00  0.00    -0.217 A  
HETATM   10  C   UNL     1      -9.171   9.440  65.658  1.00  0.00    -0.285 A  
HETATM   11  C   UNL     1      -8.959   9.232  64.287  1.00  0.00    -0.142 A  
HETATM   12  C   UNL     1      -9.405  10.162  63.365  1.00  0.00    -0.334 A  
HETATM   13  C   UNL     1     -10.050  11.300  63.826  1.00  0.00    -0.412 A  
HETATM   14  C   UNL     1     -10.264  11.513  65.206  1.00  0.00    -0.267 A  
HETATM   15  S   UNL     1     -11.066  13.046  65.591  1.00  0.00    -0.281 SA 
HETATM   16  C   UNL     1     -11.294  12.928  67.344  1.00  0.00    -0.309 A  
HETATM   17  C   UNL     1     -11.991  14.017  67.910  1.00  0.00    -0.387 A  
HETATM   18  C   UNL     1     -12.269  14.066  69.267  1.00  0.00    -0.319 A  
HETATM   19  C   UNL     1     -11.861  13.016  70.066  1.00  0.00    -0.355 A  
HETATM   20  C   UNL     1     -11.165  11.934  69.508  1.00  0.00    -0.237 A  
HETATM   21  C   UNL     1     -10.839  11.849  68.135  1.00  0.00    -0.221 A  
ENDBRANCH   7   8
ENDBRANCH   5   7
TORSDOF 2
ENDMDL
MODEL       72
REMARK 921   NORMALIZED FREE ENERGY PREDICTED BY IDOCK:   -5.03 KCAL/MOL
REMARK 922        TOTAL FREE ENERGY PREDICTED BY IDOCK:   -6.02 KCAL/MOL
REMARK 923 INTER-LIGAND FREE ENERGY PREDICTED BY IDOCK:   -5.79 KCAL/MOL
REMARK 924 INTRA-LIGAND FREE ENERGY PREDICTED BY IDOCK:   -0.22 KCAL/MOL
REMARK 927      BINDING AFFINITY PREDICTED BY RF-SCORE:    0.00 PKD
ROOT
HETATM    1  C   UNL     1     -10.097  11.392  62.874  1.00  0.00    -0.206 C  
HETATM    2  N   UNL     1     -10.639  12.374  63.800  1.00  0.00    -0.433 NA 
HETATM    3  C   UNL     1     -11.937  12.898  63.383  1.00  0.00    -0.537 C  
HETATM    4  C   UNL     1     -12.394  13.599  64.652  1.00  0.00    -0.413 C  
HETATM    5  C   UNL     1     -12.028  12.595  65.746  1.00  0.00    -0.503 C  
HETATM    6  C   UNL     1     -10.816  11.848  65.161  1.00  0.00    -0.300 C  
ENDROOT
BRANCH   5   7
HETATM    7  C   UNL     1     -11.722  13.182  67.134  1.00  0.00    -0.377 C  
BRANCH   7   8
HETATM    8  N   UNL     1     -10.322  12.946  67.581  1.00  0.00    -0.216 NA 
HETATM    9  C   UNL     1      -9.363  13.974  67.286  1.00  0.00    -0.230 A  
HETATM   10  C   UNL     1      -9.694  15.150  66.572  1.00  0.00    -0.290 A  
HETATM   11  C   UNL     1      -8.773  16.180  66.325  1.00  0.00    -0.373 A  
HETATM   12  C   UNL     1      -7.469  16.069  66.773  1.00  0.00    -0.218 A  
HETATM   13  C   UNL     1      -7.095  14.920  67.454  1.00  0.00    -0.194 A  
HETATM   14  C   UNL     1      -8.019  13.882  67.703  1.00  0.00    -0.175 A  
HETATM   15  S   UNL     1      -7.333  12.484  68.549  1.00  0.00    -0.110 SA 
HETATM   16  C   UNL     1      -8.755  11.461  68.813  1.00  0.00    -0.076 A  
HETATM   17  C   UNL     1      -8.493  10.285  69.548  1.00  0.00    -0.156 A  
HETATM   18  C   UNL     1      -9.504   9.389  69.857  1.00  0.00    -0.235 A  
HETATM   19  C   UNL     1     -10.790   9.671  69.442  1.00  0.00    -0.239 A  
HETATM   20  C   UNL     1     -11.055  10.837  68.708  1.00  0.00    -0.312 A  
HETATM   21  C   UNL     1     -10.054  11.770  68.350  1.00  0.00    -0.201 A  
ENDBRANCH   7   8
ENDBRANCH   5   7
TORSDOF 2
ENDMDL
MODEL       73
REMARK 921   NORMALIZED FREE ENERGY PREDICTED BY IDOCK:   -4.98 KCAL/MOL
REMARK 922        TOTAL FREE ENERGY PREDICTED BY IDOCK:   -5.96 KCAL/MOL
REMARK 923 INTER-LIGAND FREE ENERGY PREDICTED BY IDOCK:   -5.76 KCAL/MOL
REMARK 924 INTRA-LIGAND FREE ENERGY PREDICTED BY IDOCK:   -0.20 KCAL/MOL
REMARK 927      BINDING AFFINITY PREDICTED BY RF-SCORE:    0.00 PKD
ROOT
HETATM    1  C   UNL     1      -6.445   9.216  67.030  1.00  0.00    -0.064 C  
HETATM    2  N   UNL     1      -7.481  10.125  67.495  1.00  0.00    -0.090 NA 
HETATM    3  C   UNL     1      -6.945  11.333  68.117  1.00  0.00    -0.069 C  
HETATM    4  C   UNL     1      -8.187  12.206  68.183  1.00  0.00    -0.164 C  
HETATM    5  C   UNL     1      -8.828  11.990  66.811  1.00  0.00    -0.198 C  
HETATM    6  C   UNL     1      -8.384  10.568  66.424  1.00  0.00    -0.145 C  
ENDROOT
BRANCH   5   7
HETATM    7  C   UNL     1     -10.356  12.150  66.740  1.00  0.00    -0.213 C  
BRANCH   7   8
HETATM    8  N   UNL     1     -10.890  13.164  67.690  1.00  0.00    -0.250 NA 
HETATM    9  C   UNL     1     -11.527  12.670  68.879  1.00  0.00    -0.306 A  
HETATM   10  C   UNL     1     -11.690  11.289  69.145  1.00  0.00    -0.410 A  
HETATM   11  C   UNL     1     -12.267  10.802  70.328  1.00  0.00    -0.431 A  
HETATM   12  C   UNL     1     -12.721  11.681  71.295  1.00  0.00    -0.444 A  
HETATM   13  C   UNL     1     -12.605  13.044  71.062  1.00  0.00    -0.386 A  
HETATM   14  C   UNL     1     -12.026  13.538  69.873  1.00  0.00    -0.348 A  
HETATM   15  S   UNL     1     -12.011  15.306  69.750  1.00  0.00    -0.348 SA 
HETATM   16  C   UNL     1     -11.118  15.576  68.244  1.00  0.00    -0.322 A  
HETATM   17  C   UNL     1     -10.897  16.936  67.940  1.00  0.00    -0.310 A  
HETATM   18  C   UNL     1     -10.196  17.316  66.806  1.00  0.00    -0.318 A  
HETATM   19  C   UNL     1      -9.698  16.333  65.974  1.00  0.00    -0.370 A  
HETATM   20  C   UNL     1      -9.918  14.980  66.271  1.00  0.00    -0.300 A  
HETATM   21  C   UNL     1     -10.646  14.544  67.402  1.00  0.00    -0.271 A  
ENDBRANCH   7   8
ENDBRANCH   5   7
TORSDOF 2
ENDMDL
MODEL       74
REMARK 921   NORMALIZED FREE ENERGY PREDICTED BY IDOCK:   -4.97 KCAL/MOL
REMARK 922        TOTAL FREE ENERGY PREDICTED BY IDOCK:   -5.95 KCAL/MOL
REMARK 923 INTER-LIGAND FREE ENERGY PREDICTED BY IDOCK:   -5.60 KCAL/MOL
REMARK 924 INTRA-LIGAND FREE ENERGY PREDICTED BY IDOCK:   -0.35 KCAL/MOL
REMARK 927      BINDING AFFINITY PREDICTED BY RF-SCORE:    0.00 PKD
ROOT
HETATM    1  C   UNL     1     -10.168   8.466  70.877  1.00  0.00    -0.194 C  
HETATM    2  N   UNL     1     -10.358   9.338  69.729  1.00  0.00    -0.207 NA 
HETATM    3  C   UNL     1     -11.420  10.322  69.927  1.00  0.00    -0.273 C  
HETATM    4  C   UNL     1     -11.165  11.268  68.765  1.00  0.00    -0.311 C  
HETATM    5  C   UNL     1      -9.643  11.424  68.780  1.00  0.00    -0.139 C  
HETATM    6  C   UNL     1      -9.148  10.091  69.369  1.00  0.00    -0.215 C  
ENDROOT
BRANCH   5   7
HETATM    7  C   UNL     1      -8.977  11.735  67.429  1.00  0.00    -0.173 C  
BRANCH   7   8
HETATM    8  N   UNL     1      -9.470  12.991  66.801  1.00  0.00    -0.245 NA 
HETATM    9  C   UNL     1      -8.987  14.227  67.350  1.00  0.00    -0.201 A  
HETATM   10  C   UNL     1      -8.112  14.282  68.461  1.00  0.00    -0.147 A  
HETATM   11  C   UNL     1      -7.598  15.485  68.970  1.00  0.00    -0.180 A  
HETATM   12  C   UNL     1      -7.950  16.692  68.393  1.00  0.00    -0.205 A  
HETATM   13  C   UNL     1      -8.827  16.685  67.318  1.00  0.00    -0.206 A  
HETATM   14  C   UNL     1      -9.347  15.476  66.804  1.00  0.00    -0.245 A  
HETATM   15  S   UNL     1     -10.482  15.685  65.460  1.00  0.00    -0.425 SA 
HETATM   16  C   UNL     1     -10.823  14.013  64.984  1.00  0.00    -0.392 A  
HETATM   17  C   UNL     1     -11.668  13.893  63.860  1.00  0.00    -0.241 A  
HETATM   18  C   UNL     1     -12.015  12.652  63.349  1.00  0.00    -0.613 A  
HETATM   19  C   UNL     1     -11.505  11.520  63.954  1.00  0.00    -0.358 A  
HETATM   20  C   UNL     1     -10.668  11.635  65.074  1.00  0.00    -0.351 A  
HETATM   21  C   UNL     1     -10.305  12.877  65.644  1.00  0.00    -0.282 A  
ENDBRANCH   7   8
ENDBRANCH   5   7
TORSDOF 2
ENDMDL
MODEL       75
REMARK 921   NORMALIZED FREE ENERGY PREDICTED BY IDOCK:   -4.96 KCAL/MOL
REMARK 922        TOTAL FREE ENERGY PREDICTED BY IDOCK:   -5.94 KCAL/MOL
REMARK 923 INTER-LIGAND FREE ENERGY PREDICTED BY IDOCK:   -5.62 KCAL/MOL
REMARK 924 INTRA-LIGAND FREE ENERGY PREDICTED BY IDOCK:   -0.32 KCAL/MOL
REMARK 927      BINDING AFFINITY PREDICTED BY RF-SCORE:    0.00 PKD
ROOT
HETATM    1  C   UNL     1      -9.110   8.361  70.638  1.00  0.00    -0.156 C  
HETATM    2  N   UNL     1      -9.489   9.045  69.412  1.00  0.00    -0.156 NA 
HETATM    3  C   UNL     1     -10.885   9.476  69.406  1.00  0.00    -0.206 C  
HETATM    4  C   UNL     1     -10.896  10.419  68.213  1.00  0.00    -0.299 C  
HETATM    5  C   UNL     1      -9.605  11.218  68.398  1.00  0.00    -0.195 C  
HETATM    6  C   UNL     1      -8.678  10.240  69.142  1.00  0.00    -0.172 C  
ENDROOT
BRANCH   5   7
HETATM    7  C   UNL     1      -8.951  11.762  67.117  1.00  0.00    -0.177 C  
BRANCH   7   8
HETATM    8  N   UNL     1      -9.563  13.030  66.633  1.00  0.00    -0.254 NA 
HETATM    9  C   UNL     1     -10.457  12.935  65.513  1.00  0.00    -0.289 A  
HETATM   10  C   UNL     1     -10.735  11.714  64.854  1.00  0.00    -0.352 A  
HETATM   11  C   UNL     1     -11.646  11.608  63.792  1.00  0.00    -0.430 A  
HETATM   12  C   UNL     1     -12.312  12.730  63.331  1.00  0.00    -0.531 A  
HETATM   13  C   UNL     1     -12.049  13.953  63.932  1.00  0.00    -0.387 A  
HETATM   14  C   UNL     1     -11.132  14.063  65.000  1.00  0.00    -0.363 A  
HETATM   15  S   UNL     1     -10.905  15.716  65.599  1.00  0.00    -0.301 SA 
HETATM   16  C   UNL     1      -9.829  15.476  66.985  1.00  0.00    -0.232 A  
HETATM   17  C   UNL     1      -9.539  16.656  67.701  1.00  0.00    -0.239 A  
HETATM   18  C   UNL     1      -8.727  16.635  68.825  1.00  0.00    -0.260 A  
HETATM   19  C   UNL     1      -8.209  15.427  69.247  1.00  0.00    -0.252 A  
HETATM   20  C   UNL     1      -8.492  14.252  68.534  1.00  0.00    -0.164 A  
HETATM   21  C   UNL     1      -9.295  14.226  67.371  1.00  0.00    -0.203 A  
ENDBRANCH   7   8
ENDBRANCH   5   7
TORSDOF 2
ENDMDL
MODEL       76
REMARK 921   NORMALIZED FREE ENERGY PREDICTED BY IDOCK:   -4.96 KCAL/MOL
REMARK 922        TOTAL FREE ENERGY PREDICTED BY IDOCK:   -5.94 KCAL/MOL
REMARK 923 INTER-LIGAND FREE ENERGY PREDICTED BY IDOCK:   -5.49 KCAL/MOL
REMARK 924 INTRA-LIGAND FREE ENERGY PREDICTED BY IDOCK:   -0.45 KCAL/MOL
REMARK 927      BINDING AFFINITY PREDICTED BY RF-SCORE:    0.00 PKD
ROOT
HETATM    1  C   UNL     1     -10.390  14.711  65.338  1.00  0.00    -0.383 C  
HETATM    2  N   UNL     1     -10.485  13.844  66.502  1.00  0.00    -0.279 NA 
HETATM    3  C   UNL     1     -11.857  13.454  66.815  1.00  0.00    -0.403 C  
HETATM    4  C   UNL     1     -11.623  12.327  67.809  1.00  0.00    -0.416 C  
HETATM    5  C   UNL     1     -10.483  11.537  67.165  1.00  0.00    -0.259 C  
HETATM    6  C   UNL     1      -9.715  12.600  66.359  1.00  0.00    -0.258 C  
ENDROOT
BRANCH   5   7
HETATM    7  C   UNL     1      -9.558  10.771  68.126  1.00  0.00    -0.160 C  
BRANCH   7   8
HETATM    8  N   UNL     1      -9.930   9.339  68.290  1.00  0.00    -0.166 NA 
HETATM    9  C   UNL     1      -9.461   8.426  67.286  1.00  0.00    -0.154 A  
HETATM   10  C   UNL     1      -8.710   8.843  66.160  1.00  0.00    -0.177 A  
HETATM   11  C   UNL     1      -8.207   7.948  65.203  1.00  0.00    -0.143 A  
HETATM   12  C   UNL     1      -8.447   6.591  65.325  1.00  0.00    -0.091 A  
HETATM   13  C   UNL     1      -9.202   6.142  66.399  1.00  0.00    -0.166 A  
HETATM   14  C   UNL     1      -9.710   7.040  67.363  1.00  0.00    -0.141 A  
HETATM   15  S   UNL     1     -10.683   6.273  68.631  1.00  0.00    -0.328 SA 
HETATM   16  C   UNL     1     -11.036   7.629  69.714  1.00  0.00    -0.170 A  
HETATM   17  C   UNL     1     -11.758   7.270  70.873  1.00  0.00    -0.348 A  
HETATM   18  C   UNL     1     -12.096   8.212  71.832  1.00  0.00    -0.368 A  
HETATM   19  C   UNL     1     -11.700   9.522  71.643  1.00  0.00    -0.460 A  
HETATM   20  C   UNL     1     -10.986   9.883  70.491  1.00  0.00    -0.391 A  
HETATM   21  C   UNL     1     -10.638   8.963  69.475  1.00  0.00    -0.228 A  
ENDBRANCH   7   8
ENDBRANCH   5   7
TORSDOF 2
ENDMDL
MODEL       77
REMARK 921   NORMALIZED FREE ENERGY PREDICTED BY IDOCK:   -4.93 KCAL/MOL
REMARK 922        TOTAL FREE ENERGY PREDICTED BY IDOCK:   -5.90 KCAL/MOL
REMARK 923 INTER-LIGAND FREE ENERGY PREDICTED BY IDOCK:   -5.41 KCAL/MOL
REMARK 924 INTRA-LIGAND FREE ENERGY PREDICTED BY IDOCK:   -0.49 KCAL/MOL
REMARK 927      BINDING AFFINITY PREDICTED BY RF-SCORE:    0.00 PKD
ROOT
HETATM    1  C   UNL     1      -5.669   6.532  65.594  1.00  0.00    -0.025 C  
HETATM    2  N   UNL     1      -6.848   6.809  66.400  1.00  0.00    -0.059 NA 
HETATM    3  C   UNL     1      -6.525   7.287  67.742  1.00  0.00    -0.052 C  
HETATM    4  C   UNL     1      -7.878   7.801  68.205  1.00  0.00    -0.121 C  
HETATM    5  C   UNL     1      -8.397   8.550  66.976  1.00  0.00    -0.110 C  
HETATM    6  C   UNL     1      -7.736   7.813  65.797  1.00  0.00    -0.099 C  
ENDROOT
BRANCH   5   7
HETATM    7  C   UNL     1      -9.925   8.624  66.818  1.00  0.00    -0.273 C  
BRANCH   7   8
HETATM    8  N   UNL     1     -10.482   9.979  67.082  1.00  0.00    -0.241 NA 
HETATM    9  C   UNL     1     -10.542  10.885  65.970  1.00  0.00    -0.189 A  
HETATM   10  C   UNL     1     -10.068  10.549  64.679  1.00  0.00    -0.408 A  
HETATM   11  C   UNL     1     -10.171  11.412  63.578  1.00  0.00    -0.461 A  
HETATM   12  C   UNL     1     -10.744  12.663  63.724  1.00  0.00    -0.454 A  
HETATM   13  C   UNL     1     -11.198  13.043  64.979  1.00  0.00    -0.324 A  
HETATM   14  C   UNL     1     -11.095  12.177  66.089  1.00  0.00    -0.312 A  
HETATM   15  S   UNL     1     -11.693  12.867  67.609  1.00  0.00    -0.359 SA 
HETATM   16  C   UNL     1     -11.545  11.504  68.731  1.00  0.00    -0.316 A  
HETATM   17  C   UNL     1     -12.031  11.770  70.029  1.00  0.00    -0.421 A  
HETATM   18  C   UNL     1     -12.006  10.801  71.020  1.00  0.00    -0.409 A  
HETATM   19  C   UNL     1     -11.505   9.551  70.712  1.00  0.00    -0.378 A  
HETATM   20  C   UNL     1     -11.017   9.284  69.424  1.00  0.00    -0.138 A  
HETATM   21  C   UNL     1     -11.002  10.246  68.388  1.00  0.00    -0.260 A  
ENDBRANCH   7   8
ENDBRANCH   5   7
TORSDOF 2
ENDMDL
MODEL       78
REMARK 921   NORMALIZED FREE ENERGY PREDICTED BY IDOCK:   -4.93 KCAL/MOL
REMARK 922        TOTAL FREE ENERGY PREDICTED BY IDOCK:   -5.90 KCAL/MOL
REMARK 923 INTER-LIGAND FREE ENERGY PREDICTED BY IDOCK:   -5.99 KCAL/MOL
REMARK 924 INTRA-LIGAND FREE ENERGY PREDICTED BY IDOCK:    0.09 KCAL/MOL
REMARK 927      BINDING AFFINITY PREDICTED BY RF-SCORE:    0.00 PKD
ROOT
HETATM    1  C   UNL     1      -7.510   7.720  72.670  1.00  0.00    -0.088 C  
HETATM    2  N   UNL     1      -8.929   7.504  72.433  1.00  0.00    -0.130 NA 
HETATM    3  C   UNL     1      -9.656   7.107  73.635  1.00  0.00    -0.246 C  
HETATM    4  C   UNL     1     -11.096   7.287  73.182  1.00  0.00    -0.336 C  
HETATM    5  C   UNL     1     -11.054   8.621  72.435  1.00  0.00    -0.328 C  
HETATM    6  C   UNL     1      -9.612   8.691  71.899  1.00  0.00    -0.307 C  
ENDROOT
BRANCH   5   7
HETATM    7  C   UNL     1     -12.090   8.807  71.314  1.00  0.00    -0.296 C  
BRANCH   7   8
HETATM    8  N   UNL     1     -11.733   9.885  70.351  1.00  0.00    -0.267 NA 
HETATM    9  C   UNL     1     -11.028   9.490  69.164  1.00  0.00    -0.125 A  
HETATM   10  C   UNL     1     -10.642   8.151  68.910  1.00  0.00    -0.161 A  
HETATM   11  C   UNL     1      -9.997   7.753  67.729  1.00  0.00    -0.220 A  
HETATM   12  C   UNL     1      -9.697   8.684  66.751  1.00  0.00    -0.298 A  
HETATM   13  C   UNL     1     -10.034  10.012  66.971  1.00  0.00    -0.257 A  
HETATM   14  C   UNL     1     -10.681  10.417  68.159  1.00  0.00    -0.236 A  
HETATM   15  S   UNL     1     -10.985  12.159  68.265  1.00  0.00    -0.252 SA 
HETATM   16  C   UNL     1     -11.905  12.295  69.773  1.00  0.00    -0.318 A  
HETATM   17  C   UNL     1     -12.344  13.605  70.065  1.00  0.00    -0.342 A  
HETATM   18  C   UNL     1     -13.094  13.876  71.199  1.00  0.00    -0.351 A  
HETATM   19  C   UNL     1     -13.421  12.833  72.043  1.00  0.00    -0.540 A  
HETATM   20  C   UNL     1     -12.983  11.531  71.758  1.00  0.00    -0.500 A  
HETATM   21  C   UNL     1     -12.198  11.209  70.627  1.00  0.00    -0.397 A  
ENDBRANCH   7   8
ENDBRANCH   5   7
TORSDOF 2
ENDMDL
MODEL       79
REMARK 921   NORMALIZED FREE ENERGY PREDICTED BY IDOCK:   -4.91 KCAL/MOL
REMARK 922        TOTAL FREE ENERGY PREDICTED BY IDOCK:   -5.88 KCAL/MOL
REMARK 923 INTER-LIGAND FREE ENERGY PREDICTED BY IDOCK:   -5.48 KCAL/MOL
REMARK 924 INTRA-LIGAND FREE ENERGY PREDICTED BY IDOCK:   -0.39 KCAL/MOL
REMARK 927      BINDING AFFINITY PREDICTED BY RF-SCORE:    0.00 PKD
ROOT
HETATM    1  C   UNL     1     -10.443  20.276  67.161  1.00  0.00    -0.181 C  
HETATM    2  N   UNL     1      -9.513  19.166  67.302  1.00  0.00    -0.307 NA 
HETATM    3  C   UNL     1      -9.371  18.710  68.682  1.00  0.00    -0.341 C  
HETATM    4  C   UNL     1      -8.647  17.388  68.482  1.00  0.00    -0.270 C  
HETATM    5  C   UNL     1      -9.390  16.769  67.297  1.00  0.00    -0.234 C  
HETATM    6  C   UNL     1      -9.892  17.991  66.506  1.00  0.00    -0.353 C  
ENDROOT
BRANCH   5   7
HETATM    7  C   UNL     1      -8.579  15.809  66.411  1.00  0.00    -0.311 C  
BRANCH   7   8
HETATM    8  N   UNL     1      -9.021  14.391  66.515  1.00  0.00    -0.208 NA 
HETATM    9  C   UNL     1      -8.297  13.549  67.424  1.00  0.00    -0.194 A  
HETATM   10  C   UNL     1      -7.186  14.005  68.174  1.00  0.00    -0.129 A  
HETATM   11  C   UNL     1      -6.507  13.200  69.101  1.00  0.00    -0.107 A  
HETATM   12  C   UNL     1      -6.904  11.891  69.310  1.00  0.00    -0.080 A  
HETATM   13  C   UNL     1      -7.973  11.395  68.576  1.00  0.00    -0.143 A  
HETATM   14  C   UNL     1      -8.657  12.202  67.641  1.00  0.00    -0.166 A  
HETATM   15  S   UNL     1      -9.962  11.370  66.778  1.00  0.00    -0.214 SA 
HETATM   16  C   UNL     1     -10.676  12.674  65.815  1.00  0.00    -0.268 A  
HETATM   17  C   UNL     1     -11.809  12.287  65.068  1.00  0.00    -0.412 A  
HETATM   18  C   UNL     1     -12.495  13.196  64.277  1.00  0.00    -0.358 A  
HETATM   19  C   UNL     1     -12.058  14.505  64.241  1.00  0.00    -0.448 A  
HETATM   20  C   UNL     1     -10.930  14.893  64.979  1.00  0.00    -0.432 A  
HETATM   21  C   UNL     1     -10.185  13.999  65.781  1.00  0.00    -0.328 A  
ENDBRANCH   7   8
ENDBRANCH   5   7
TORSDOF 2
ENDMDL
MODEL       80
REMARK 921   NORMALIZED FREE ENERGY PREDICTED BY IDOCK:   -4.91 KCAL/MOL
REMARK 922        TOTAL FREE ENERGY PREDICTED BY IDOCK:   -5.88 KCAL/MOL
REMARK 923 INTER-LIGAND FREE ENERGY PREDICTED BY IDOCK:   -5.64 KCAL/MOL
REMARK 924 INTRA-LIGAND FREE ENERGY PREDICTED BY IDOCK:   -0.23 KCAL/MOL
REMARK 927      BINDING AFFINITY PREDICTED BY RF-SCORE:    0.00 PKD
ROOT
HETATM    1  C   UNL     1     -14.287  14.552  71.812  1.00  0.00    -0.526 C  
HETATM    2  N   UNL     1     -13.301  15.365  71.118  1.00  0.00    -0.503 NA 
HETATM    3  C   UNL     1     -12.319  15.966  72.018  1.00  0.00    -0.475 C  
HETATM    4  C   UNL     1     -11.267  16.443  71.030  1.00  0.00    -0.129 C  
HETATM    5  C   UNL     1     -11.146  15.263  70.065  1.00  0.00    -0.303 C  
HETATM    6  C   UNL     1     -12.542  14.615  70.108  1.00  0.00    -0.283 C  
ENDROOT
BRANCH   5   7
HETATM    7  C   UNL     1     -10.716  15.599  68.627  1.00  0.00    -0.256 C  
BRANCH   7   8
HETATM    8  N   UNL     1     -10.027  14.476  67.937  1.00  0.00    -0.224 NA 
HETATM    9  C   UNL     1      -8.738  14.093  68.443  1.00  0.00    -0.178 A  
HETATM   10  C   UNL     1      -8.109  14.760  69.522  1.00  0.00     0.014 A  
HETATM   11  C   UNL     1      -6.874  14.358  70.053  1.00  0.00    -0.028 A  
HETATM   12  C   UNL     1      -6.203  13.275  69.513  1.00  0.00    -0.115 A  
HETATM   13  C   UNL     1      -6.772  12.610  68.437  1.00  0.00    -0.082 A  
HETATM   14  C   UNL     1      -8.015  13.011  67.900  1.00  0.00    -0.157 A  
HETATM   15  S   UNL     1      -8.546  12.060  66.502  1.00  0.00    -0.036 SA 
HETATM   16  C   UNL     1     -10.156  12.725  66.178  1.00  0.00    -0.266 A  
HETATM   17  C   UNL     1     -10.846  12.080  65.129  1.00  0.00    -0.347 A  
HETATM   18  C   UNL     1     -12.126  12.468  64.764  1.00  0.00    -0.497 A  
HETATM   19  C   UNL     1     -12.730  13.498  65.458  1.00  0.00    -0.493 A  
HETATM   20  C   UNL     1     -12.045  14.144  66.498  1.00  0.00    -0.481 A  
HETATM   21  C   UNL     1     -10.732  13.799  66.891  1.00  0.00    -0.280 A  
ENDBRANCH   7   8
ENDBRANCH   5   7
TORSDOF 2
ENDMDL
MODEL       81
REMARK 921   NORMALIZED FREE ENERGY PREDICTED BY IDOCK:   -4.84 KCAL/MOL
REMARK 922        TOTAL FREE ENERGY PREDICTED BY IDOCK:   -5.81 KCAL/MOL
REMARK 923 INTER-LIGAND FREE ENERGY PREDICTED BY IDOCK:   -5.55 KCAL/MOL
REMARK 924 INTRA-LIGAND FREE ENERGY PREDICTED BY IDOCK:   -0.26 KCAL/MOL
REMARK 927      BINDING AFFINITY PREDICTED BY RF-SCORE:    0.00 PKD
ROOT
HETATM    1  C   UNL     1      -9.527   4.060  67.569  1.00  0.00    -0.188 C  
HETATM    2  N   UNL     1      -9.525   5.512  67.480  1.00  0.00    -0.115 NA 
HETATM    3  C   UNL     1     -10.685   6.044  66.771  1.00  0.00    -0.302 C  
HETATM    4  C   UNL     1     -10.595   7.520  67.124  1.00  0.00    -0.415 C  
HETATM    5  C   UNL     1     -10.264   7.493  68.617  1.00  0.00    -0.210 C  
HETATM    6  C   UNL     1      -9.496   6.170  68.794  1.00  0.00    -0.121 C  
ENDROOT
BRANCH   5   7
HETATM    7  C   UNL     1      -9.470   8.692  69.161  1.00  0.00    -0.157 C  
BRANCH   7   8
HETATM    8  N   UNL     1     -10.302   9.909  69.367  1.00  0.00    -0.206 NA 
HETATM    9  C   UNL     1     -10.092  11.002  68.460  1.00  0.00    -0.190 A  
HETATM   10  C   UNL     1      -9.120  10.969  67.431  1.00  0.00    -0.143 A  
HETATM   11  C   UNL     1      -8.946  12.014  66.510  1.00  0.00    -0.193 A  
HETATM   12  C   UNL     1      -9.732  13.150  66.589  1.00  0.00    -0.261 A  
HETATM   13  C   UNL     1     -10.679  13.235  67.600  1.00  0.00    -0.250 A  
HETATM   14  C   UNL     1     -10.856  12.185  68.528  1.00  0.00    -0.236 A  
HETATM   15  S   UNL     1     -12.085  12.507  69.765  1.00  0.00    -0.167 SA 
HETATM   16  C   UNL     1     -12.142  10.975  70.652  1.00  0.00    -0.373 A  
HETATM   17  C   UNL     1     -13.115  10.936  71.674  1.00  0.00    -0.538 A  
HETATM   18  C   UNL     1     -13.302   9.801  72.448  1.00  0.00    -0.374 A  
HETATM   19  C   UNL     1     -12.521   8.690  72.195  1.00  0.00    -0.453 A  
HETATM   20  C   UNL     1     -11.550   8.726  71.183  1.00  0.00    -0.344 A  
HETATM   21  C   UNL     1     -11.309   9.867  70.383  1.00  0.00    -0.307 A  
ENDBRANCH   7   8
ENDBRANCH   5   7
TORSDOF 2
ENDMDL
MODEL       82
REMARK 921   NORMALIZED FREE ENERGY PREDICTED BY IDOCK:   -4.84 KCAL/MOL
REMARK 922        TOTAL FREE ENERGY PREDICTED BY IDOCK:   -5.80 KCAL/MOL
REMARK 923 INTER-LIGAND FREE ENERGY PREDICTED BY IDOCK:   -5.39 KCAL/MOL
REMARK 924 INTRA-LIGAND FREE ENERGY PREDICTED BY IDOCK:   -0.42 KCAL/MOL
REMARK 927      BINDING AFFINITY PREDICTED BY RF-SCORE:    0.00 PKD
ROOT
HETATM    1  C   UNL     1      -8.579   6.728  65.611  1.00  0.00    -0.117 C  
HETATM    2  N   UNL     1      -8.385   8.146  65.867  1.00  0.00    -0.124 NA 
HETATM    3  C   UNL     1      -8.916   8.998  64.806  1.00  0.00    -0.095 C  
HETATM    4  C   UNL     1      -8.885  10.360  65.479  1.00  0.00    -0.193 C  
HETATM    5  C   UNL     1      -9.420  10.060  66.880  1.00  0.00    -0.203 C  
HETATM    6  C   UNL     1      -9.006   8.597  67.120  1.00  0.00    -0.132 C  
ENDROOT
BRANCH   5   7
HETATM    7  C   UNL     1      -8.931  10.985  68.008  1.00  0.00    -0.145 C  
BRANCH   7   8
HETATM    8  N   UNL     1      -9.996  11.873  68.548  1.00  0.00    -0.208 NA 
HETATM    9  C   UNL     1     -10.106  13.183  67.970  1.00  0.00    -0.232 A  
HETATM   10  C   UNL     1      -9.233  13.651  66.958  1.00  0.00    -0.254 A  
HETATM   11  C   UNL     1      -9.367  14.911  66.355  1.00  0.00    -0.327 A  
HETATM   12  C   UNL     1     -10.379  15.768  66.750  1.00  0.00    -0.293 A  
HETATM   13  C   UNL     1     -11.241  15.359  67.758  1.00  0.00    -0.321 A  
HETATM   14  C   UNL     1     -11.108  14.093  68.367  1.00  0.00    -0.252 A  
HETATM   15  S   UNL     1     -12.279  13.780  69.660  1.00  0.00    -0.252 SA 
HETATM   16  C   UNL     1     -11.925  12.100  70.098  1.00  0.00    -0.314 A  
HETATM   17  C   UNL     1     -12.784  11.567  71.083  1.00  0.00    -0.458 A  
HETATM   18  C   UNL     1     -12.652  10.258  71.521  1.00  0.00    -0.544 A  
HETATM   19  C   UNL     1     -11.665   9.469  70.965  1.00  0.00    -0.419 A  
HETATM   20  C   UNL     1     -10.807   9.997  69.989  1.00  0.00    -0.352 A  
HETATM   21  C   UNL     1     -10.888  11.331  69.526  1.00  0.00    -0.151 A  
ENDBRANCH   7   8
ENDBRANCH   5   7
TORSDOF 2
ENDMDL
MODEL       83
REMARK 921   NORMALIZED FREE ENERGY PREDICTED BY IDOCK:   -4.81 KCAL/MOL
REMARK 922        TOTAL FREE ENERGY PREDICTED BY IDOCK:   -5.77 KCAL/MOL
REMARK 923 INTER-LIGAND FREE ENERGY PREDICTED BY IDOCK:   -5.36 KCAL/MOL
REMARK 924 INTRA-LIGAND FREE ENERGY PREDICTED BY IDOCK:   -0.41 KCAL/MOL
REMARK 927      BINDING AFFINITY PREDICTED BY RF-SCORE:    0.00 PKD
ROOT
HETATM    1  C   UNL     1      -8.312   8.997  64.258  1.00  0.00    -0.173 C  
HETATM    2  N   UNL     1      -8.617   9.572  65.558  1.00  0.00    -0.139 NA 
HETATM    3  C   UNL     1      -9.889  10.291  65.582  1.00  0.00    -0.268 C  
HETATM    4  C   UNL     1     -10.097  10.471  67.077  1.00  0.00    -0.259 C  
HETATM    5  C   UNL     1      -9.713   9.102  67.642  1.00  0.00    -0.198 C  
HETATM    6  C   UNL     1      -8.679   8.571  66.632  1.00  0.00    -0.125 C  
ENDROOT
BRANCH   5   7
HETATM    7  C   UNL     1      -9.168   9.087  69.080  1.00  0.00    -0.140 C  
BRANCH   7   8
HETATM    8  N   UNL     1     -10.002   8.289  70.020  1.00  0.00    -0.186 NA 
HETATM    9  C   UNL     1     -11.079   8.976  70.677  1.00  0.00    -0.265 A  
HETATM   10  C   UNL     1     -11.337  10.355  70.490  1.00  0.00    -0.424 A  
HETATM   11  C   UNL     1     -12.418  11.018  71.091  1.00  0.00    -0.502 A  
HETATM   12  C   UNL     1     -13.284  10.329  71.921  1.00  0.00    -0.550 A  
HETATM   13  C   UNL     1     -13.051   8.981  72.153  1.00  0.00    -0.496 A  
HETATM   14  C   UNL     1     -11.964   8.310  71.551  1.00  0.00    -0.296 A  
HETATM   15  S   UNL     1     -11.816   6.605  72.009  1.00  0.00    -0.313 SA 
HETATM   16  C   UNL     1     -10.472   6.053  70.996  1.00  0.00    -0.229 A  
HETATM   17  C   UNL     1     -10.185   4.676  71.117  1.00  0.00    -0.199 A  
HETATM   18  C   UNL     1      -9.174   4.083  70.376  1.00  0.00    -0.204 A  
HETATM   19  C   UNL     1      -8.451   4.864  69.497  1.00  0.00    -0.090 A  
HETATM   20  C   UNL     1      -8.730   6.234  69.377  1.00  0.00    -0.128 A  
HETATM   21  C   UNL     1      -9.735   6.888  70.127  1.00  0.00    -0.171 A  
ENDBRANCH   7   8
ENDBRANCH   5   7
TORSDOF 2
ENDMDL
MODEL       84
REMARK 921   NORMALIZED FREE ENERGY PREDICTED BY IDOCK:   -4.81 KCAL/MOL
REMARK 922        TOTAL FREE ENERGY PREDICTED BY IDOCK:   -5.77 KCAL/MOL
REMARK 923 INTER-LIGAND FREE ENERGY PREDICTED BY IDOCK:   -5.35 KCAL/MOL
REMARK 924 INTRA-LIGAND FREE ENERGY PREDICTED BY IDOCK:   -0.42 KCAL/MOL
REMARK 927      BINDING AFFINITY PREDICTED BY RF-SCORE:    0.00 PKD
ROOT
HETATM    1  C   UNL     1     -14.138  13.816  72.301  1.00  0.00    -0.531 C  
HETATM    2  N   UNL     1     -13.415  14.658  71.361  1.00  0.00    -0.374 NA 
HETATM    3  C   UNL     1     -12.650  15.718  72.014  1.00  0.00    -0.455 C  
HETATM    4  C   UNL     1     -11.768  16.191  70.870  1.00  0.00    -0.370 C  
HETATM    5  C   UNL     1     -11.310  14.880  70.228  1.00  0.00    -0.296 C  
HETATM    6  C   UNL     1     -12.467  13.909  70.525  1.00  0.00    -0.352 C  
ENDROOT
BRANCH   5   7
HETATM    7  C   UNL     1     -10.981  14.936  68.727  1.00  0.00    -0.253 C  
BRANCH   7   8
HETATM    8  N   UNL     1      -9.648  14.364  68.392  1.00  0.00    -0.214 NA 
HETATM    9  C   UNL     1      -9.607  12.972  68.042  1.00  0.00    -0.224 A  
HETATM   10  C   UNL     1     -10.757  12.146  68.043  1.00  0.00    -0.242 A  
HETATM   11  C   UNL     1     -10.730  10.798  67.654  1.00  0.00    -0.305 A  
HETATM   12  C   UNL     1      -9.542  10.211  67.257  1.00  0.00    -0.189 A  
HETATM   13  C   UNL     1      -8.385  10.978  67.266  1.00  0.00    -0.125 A  
HETATM   14  C   UNL     1      -8.409  12.334  67.659  1.00  0.00    -0.166 A  
HETATM   15  S   UNL     1      -6.822  13.124  67.643  1.00  0.00    -0.151 SA 
HETATM   16  C   UNL     1      -7.227  14.801  68.043  1.00  0.00    -0.137 A  
HETATM   17  C   UNL     1      -6.123  15.681  68.029  1.00  0.00    -0.150 A  
HETATM   18  C   UNL     1      -6.275  17.032  68.301  1.00  0.00    -0.135 A  
HETATM   19  C   UNL     1      -7.539  17.514  68.577  1.00  0.00    -0.266 A  
HETATM   20  C   UNL     1      -8.638  16.643  68.597  1.00  0.00    -0.253 A  
HETATM   21  C   UNL     1      -8.530  15.255  68.348  1.00  0.00    -0.158 A  
ENDBRANCH   7   8
ENDBRANCH   5   7
TORSDOF 2
ENDMDL
MODEL       85
REMARK 921   NORMALIZED FREE ENERGY PREDICTED BY IDOCK:   -4.79 KCAL/MOL
REMARK 922        TOTAL FREE ENERGY PREDICTED BY IDOCK:   -5.75 KCAL/MOL
REMARK 923 INTER-LIGAND FREE ENERGY PREDICTED BY IDOCK:   -5.26 KCAL/MOL
REMARK 924 INTRA-LIGAND FREE ENERGY PREDICTED BY IDOCK:   -0.49 KCAL/MOL
REMARK 927      BINDING AFFINITY PREDICTED BY RF-SCORE:    0.00 PKD
ROOT
HETATM    1  C   UNL     1      -8.689   6.823  65.513  1.00  0.00    -0.032 C  
HETATM    2  N   UNL     1      -8.452   8.226  65.809  1.00  0.00    -0.143 NA 
HETATM    3  C   UNL     1      -8.890   9.119  64.739  1.00  0.00    -0.158 C  
HETATM    4  C   UNL     1      -8.842  10.466  65.442  1.00  0.00    -0.197 C  
HETATM    5  C   UNL     1      -9.464  10.162  66.805  1.00  0.00    -0.205 C  
HETATM    6  C   UNL     1      -9.123   8.679  67.036  1.00  0.00    -0.138 C  
ENDROOT
BRANCH   5   7
HETATM    7  C   UNL     1      -9.002  11.044  67.977  1.00  0.00    -0.145 C  
BRANCH   7   8
HETATM    8  N   UNL     1     -10.049  11.987  68.457  1.00  0.00    -0.211 NA 
HETATM    9  C   UNL     1     -10.944  11.505  69.471  1.00  0.00    -0.125 A  
HETATM   10  C   UNL     1     -10.884  10.188  69.984  1.00  0.00    -0.361 A  
HETATM   11  C   UNL     1     -11.724   9.728  71.010  1.00  0.00    -0.453 A  
HETATM   12  C   UNL     1     -12.675  10.568  71.560  1.00  0.00    -0.558 A  
HETATM   13  C   UNL     1     -12.785  11.861  71.068  1.00  0.00    -0.354 A  
HETATM   14  C   UNL     1     -11.943  12.326  70.035  1.00  0.00    -0.304 A  
HETATM   15  S   UNL     1     -12.273  13.989  69.520  1.00  0.00    -0.242 SA 
HETATM   16  C   UNL     1     -10.983  14.288  68.343  1.00  0.00    -0.253 A  
HETATM   17  C   UNL     1     -10.972  15.598  67.817  1.00  0.00    -0.316 A  
HETATM   18  C   UNL     1     -10.013  15.997  66.900  1.00  0.00    -0.255 A  
HETATM   19  C   UNL     1      -9.048  15.089  66.511  1.00  0.00    -0.319 A  
HETATM   20  C   UNL     1      -9.057  13.785  67.028  1.00  0.00    -0.253 A  
HETATM   21  C   UNL     1     -10.027  13.325  67.949  1.00  0.00    -0.233 A  
ENDBRANCH   7   8
ENDBRANCH   5   7
TORSDOF 2
ENDMDL
MODEL       86
REMARK 921   NORMALIZED FREE ENERGY PREDICTED BY IDOCK:   -4.75 KCAL/MOL
REMARK 922        TOTAL FREE ENERGY PREDICTED BY IDOCK:   -5.70 KCAL/MOL
REMARK 923 INTER-LIGAND FREE ENERGY PREDICTED BY IDOCK:   -5.32 KCAL/MOL
REMARK 924 INTRA-LIGAND FREE ENERGY PREDICTED BY IDOCK:   -0.38 KCAL/MOL
REMARK 927      BINDING AFFINITY PREDICTED BY RF-SCORE:    0.00 PKD
ROOT
HETATM    1  C   UNL     1     -14.278  13.955  72.190  1.00  0.00    -0.501 C  
HETATM    2  N   UNL     1     -13.452  14.703  71.255  1.00  0.00    -0.376 NA 
HETATM    3  C   UNL     1     -12.556  15.650  71.914  1.00  0.00    -0.438 C  
HETATM    4  C   UNL     1     -11.619  16.012  70.774  1.00  0.00    -0.431 C  
HETATM    5  C   UNL     1     -11.336  14.658  70.123  1.00  0.00    -0.273 C  
HETATM    6  C   UNL     1     -12.609  13.842  70.413  1.00  0.00    -0.282 C  
ENDROOT
BRANCH   5   7
HETATM    7  C   UNL     1     -11.001  14.680  68.622  1.00  0.00    -0.256 C  
BRANCH   7   8
HETATM    8  N   UNL     1      -9.737  13.969  68.286  1.00  0.00    -0.221 NA 
HETATM    9  C   UNL     1      -8.521  14.728  68.373  1.00  0.00    -0.157 A  
HETATM   10  C   UNL     1      -8.496  16.099  68.722  1.00  0.00    -0.236 A  
HETATM   11  C   UNL     1      -7.307  16.832  68.858  1.00  0.00    -0.235 A  
HETATM   12  C   UNL     1      -6.085  16.223  68.635  1.00  0.00    -0.117 A  
HETATM   13  C   UNL     1      -6.066  14.886  68.265  1.00  0.00    -0.123 A  
HETATM   14  C   UNL     1      -7.260  14.146  68.126  1.00  0.00    -0.128 A  
HETATM   15  S   UNL     1      -7.022  12.469  67.605  1.00  0.00    -0.154 SA 
HETATM   16  C   UNL     1      -8.667  11.814  67.665  1.00  0.00    -0.159 A  
HETATM   17  C   UNL     1      -8.752  10.439  67.355  1.00  0.00    -0.125 A  
HETATM   18  C   UNL     1      -9.966   9.770  67.378  1.00  0.00    -0.239 A  
HETATM   19  C   UNL     1     -11.104  10.472  67.724  1.00  0.00    -0.382 A  
HETATM   20  C   UNL     1     -11.024  11.839  68.029  1.00  0.00    -0.274 A  
HETATM   21  C   UNL     1      -9.813  12.569  67.998  1.00  0.00    -0.214 A  
ENDBRANCH   7   8
ENDBRANCH   5   7
TORSDOF 2
ENDMDL
MODEL       87
REMARK 921   NORMALIZED FREE ENERGY PREDICTED BY IDOCK:   -4.73 KCAL/MOL
REMARK 922        TOTAL FREE ENERGY PREDICTED BY IDOCK:   -5.67 KCAL/MOL
REMARK 923 INTER-LIGAND FREE ENERGY PREDICTED BY IDOCK:   -5.96 KCAL/MOL
REMARK 924 INTRA-LIGAND FREE ENERGY PREDICTED BY IDOCK:    0.29 KCAL/MOL
REMARK 927      BINDING AFFINITY PREDICTED BY RF-SCORE:    0.00 PKD
ROOT
HETATM    1  C   UNL     1     -12.378  14.929  63.975  1.00  0.00    -0.059 C  
HETATM    2  N   UNL     1     -11.973  14.090  65.091  1.00  0.00    -0.368 NA 
HETATM    3  C   UNL     1     -12.279  12.677  64.885  1.00  0.00    -0.471 C  
HETATM    4  C   UNL     1     -11.467  12.034  65.998  1.00  0.00    -0.399 C  
HETATM    5  C   UNL     1     -10.138  12.788  65.929  1.00  0.00    -0.286 C  
HETATM    6  C   UNL     1     -10.534  14.171  65.382  1.00  0.00    -0.357 C  
ENDROOT
BRANCH   5   7
HETATM    7  C   UNL     1      -9.349  12.899  67.245  1.00  0.00    -0.212 C  
BRANCH   7   8
HETATM    8  N   UNL     1      -9.819  14.002  68.126  1.00  0.00    -0.228 NA 
HETATM    9  C   UNL     1     -10.805  13.669  69.115  1.00  0.00    -0.152 A  
HETATM   10  C   UNL     1     -11.352  12.371  69.247  1.00  0.00    -0.315 A  
HETATM   11  C   UNL     1     -12.279  12.029  70.244  1.00  0.00    -0.348 A  
HETATM   12  C   UNL     1     -12.710  12.981  71.150  1.00  0.00    -0.372 A  
HETATM   13  C   UNL     1     -12.218  14.274  71.040  1.00  0.00    -0.428 A  
HETATM   14  C   UNL     1     -11.287  14.622  70.037  1.00  0.00    -0.242 A  
HETATM   15  S   UNL     1     -10.817  16.331  70.040  1.00  0.00    -0.287 SA 
HETATM   16  C   UNL     1      -9.573  16.387  68.781  1.00  0.00    -0.249 A  
HETATM   17  C   UNL     1      -8.967  17.652  68.623  1.00  0.00    -0.261 A  
HETATM   18  C   UNL     1      -7.960  17.857  67.693  1.00  0.00    -0.219 A  
HETATM   19  C   UNL     1      -7.543  16.791  66.921  1.00  0.00    -0.252 A  
HETATM   20  C   UNL     1      -8.145  15.533  67.072  1.00  0.00    -0.272 A  
HETATM   21  C   UNL     1      -9.190  15.280  67.991  1.00  0.00    -0.188 A  
ENDBRANCH   7   8
ENDBRANCH   5   7
TORSDOF 2
ENDMDL
MODEL       88
REMARK 921   NORMALIZED FREE ENERGY PREDICTED BY IDOCK:   -4.72 KCAL/MOL
REMARK 922        TOTAL FREE ENERGY PREDICTED BY IDOCK:   -5.67 KCAL/MOL
REMARK 923 INTER-LIGAND FREE ENERGY PREDICTED BY IDOCK:   -5.39 KCAL/MOL
REMARK 924 INTRA-LIGAND FREE ENERGY PREDICTED BY IDOCK:   -0.28 KCAL/MOL
REMARK 927      BINDING AFFINITY PREDICTED BY RF-SCORE:    0.00 PKD
ROOT
HETATM    1  C   UNL     1      -9.617   3.826  67.653  1.00  0.00    -0.147 C  
HETATM    2  N   UNL     1      -9.453   5.267  67.546  1.00  0.00    -0.120 NA 
HETATM    3  C   UNL     1     -10.366   5.877  66.582  1.00  0.00    -0.226 C  
HETATM    4  C   UNL     1     -10.215   7.350  66.925  1.00  0.00    -0.346 C  
HETATM    5  C   UNL     1     -10.235   7.347  68.454  1.00  0.00    -0.207 C  
HETATM    6  C   UNL     1      -9.659   5.968  68.822  1.00  0.00    -0.129 C  
ENDROOT
BRANCH   5   7
HETATM    7  C   UNL     1      -9.471   8.488  69.148  1.00  0.00    -0.154 C  
BRANCH   7   8
HETATM    8  N   UNL     1     -10.301   9.703  69.376  1.00  0.00    -0.201 NA 
HETATM    9  C   UNL     1     -11.322   9.613  70.381  1.00  0.00    -0.277 A  
HETATM   10  C   UNL     1     -11.579   8.428  71.111  1.00  0.00    -0.317 A  
HETATM   11  C   UNL     1     -12.542   8.350  72.128  1.00  0.00    -0.412 A  
HETATM   12  C   UNL     1     -13.305   9.459  72.452  1.00  0.00    -0.503 A  
HETATM   13  C   UNL     1     -13.104  10.634  71.742  1.00  0.00    -0.571 A  
HETATM   14  C   UNL     1     -12.136  10.715  70.717  1.00  0.00    -0.374 A  
HETATM   15  S   UNL     1     -12.066  12.289  69.905  1.00  0.00    -0.194 SA 
HETATM   16  C   UNL     1     -10.694  12.089  68.803  1.00  0.00    -0.220 A  
HETATM   17  C   UNL     1     -10.370  13.249  68.067  1.00  0.00    -0.243 A  
HETATM   18  C   UNL     1      -9.308  13.264  67.176  1.00  0.00    -0.240 A  
HETATM   19  C   UNL     1      -8.554  12.117  67.025  1.00  0.00    -0.191 A  
HETATM   20  C   UNL     1      -8.875  10.961  67.751  1.00  0.00    -0.135 A  
HETATM   21  C   UNL     1      -9.961  10.891  68.654  1.00  0.00    -0.189 A  
ENDBRANCH   7   8
ENDBRANCH   5   7
TORSDOF 2
ENDMDL
MODEL       89
REMARK 921   NORMALIZED FREE ENERGY PREDICTED BY IDOCK:   -4.72 KCAL/MOL
REMARK 922        TOTAL FREE ENERGY PREDICTED BY IDOCK:   -5.67 KCAL/MOL
REMARK 923 INTER-LIGAND FREE ENERGY PREDICTED BY IDOCK:   -5.85 KCAL/MOL
REMARK 924 INTRA-LIGAND FREE ENERGY PREDICTED BY IDOCK:    0.18 KCAL/MOL
REMARK 927      BINDING AFFINITY PREDICTED BY RF-SCORE:    0.00 PKD
ROOT
HETATM    1  C   UNL     1     -10.104  11.643  63.082  1.00  0.00    -0.376 C  
HETATM    2  N   UNL     1     -10.651  12.632  63.997  1.00  0.00    -0.408 NA 
HETATM    3  C   UNL     1     -11.963  13.127  63.587  1.00  0.00    -0.514 C  
HETATM    4  C   UNL     1     -12.415  13.844  64.849  1.00  0.00    -0.420 C  
HETATM    5  C   UNL     1     -12.017  12.867  65.957  1.00  0.00    -0.505 C  
HETATM    6  C   UNL     1     -10.801  12.129  65.370  1.00  0.00    -0.294 C  
ENDROOT
BRANCH   5   7
HETATM    7  C   UNL     1     -11.703  13.485  67.330  1.00  0.00    -0.383 C  
BRANCH   7   8
HETATM    8  N   UNL     1     -10.249  13.523  67.643  1.00  0.00    -0.236 NA 
HETATM    9  C   UNL     1      -9.686  12.356  68.264  1.00  0.00    -0.218 A  
HETATM   10  C   UNL     1     -10.460  11.222  68.609  1.00  0.00    -0.226 A  
HETATM   11  C   UNL     1      -9.907  10.061  69.169  1.00  0.00    -0.213 A  
HETATM   12  C   UNL     1      -8.548   9.989  69.422  1.00  0.00    -0.182 A  
HETATM   13  C   UNL     1      -7.757  11.089  69.124  1.00  0.00    -0.102 A  
HETATM   14  C   UNL     1      -8.311  12.259  68.561  1.00  0.00    -0.084 A  
HETATM   15  S   UNL     1      -7.141  13.564  68.295  1.00  0.00    -0.127 SA 
HETATM   16  C   UNL     1      -8.119  14.793  67.476  1.00  0.00    -0.181 A  
HETATM   17  C   UNL     1      -7.394  15.937  67.080  1.00  0.00    -0.258 A  
HETATM   18  C   UNL     1      -8.010  16.983  66.409  1.00  0.00    -0.342 A  
HETATM   19  C   UNL     1      -9.357  16.883  66.119  1.00  0.00    -0.268 A  
HETATM   20  C   UNL     1     -10.081  15.748  66.514  1.00  0.00    -0.292 A  
HETATM   21  C   UNL     1      -9.502  14.668  67.219  1.00  0.00    -0.219 A  
ENDBRANCH   7   8
ENDBRANCH   5   7
TORSDOF 2
ENDMDL
MODEL       90
REMARK 921   NORMALIZED FREE ENERGY PREDICTED BY IDOCK:   -4.70 KCAL/MOL
REMARK 922        TOTAL FREE ENERGY PREDICTED BY IDOCK:   -5.65 KCAL/MOL
REMARK 923 INTER-LIGAND FREE ENERGY PREDICTED BY IDOCK:   -5.26 KCAL/MOL
REMARK 924 INTRA-LIGAND FREE ENERGY PREDICTED BY IDOCK:   -0.39 KCAL/MOL
REMARK 927      BINDING AFFINITY PREDICTED BY RF-SCORE:    0.00 PKD
ROOT
HETATM    1  C   UNL     1     -10.403  18.462  67.345  1.00  0.00    -0.391 C  
HETATM    2  N   UNL     1     -10.152  17.044  67.142  1.00  0.00    -0.285 NA 
HETATM    3  C   UNL     1      -8.741  16.739  66.916  1.00  0.00    -0.216 C  
HETATM    4  C   UNL     1      -8.737  15.227  67.080  1.00  0.00    -0.260 C  
HETATM    5  C   UNL     1      -9.620  15.016  68.311  1.00  0.00    -0.210 C  
HETATM    6  C   UNL     1     -10.586  16.213  68.274  1.00  0.00    -0.288 C  
ENDROOT
BRANCH   5   7
HETATM    7  C   UNL     1     -10.372  13.677  68.388  1.00  0.00    -0.248 C  
BRANCH   7   8
HETATM    8  N   UNL     1      -9.992  12.721  67.312  1.00  0.00    -0.217 NA 
HETATM    9  C   UNL     1      -8.899  11.831  67.587  1.00  0.00    -0.162 A  
HETATM   10  C   UNL     1      -8.172  11.862  68.801  1.00  0.00     0.000 A  
HETATM   11  C   UNL     1      -7.137  10.961  69.095  1.00  0.00    -0.109 A  
HETATM   12  C   UNL     1      -6.773   9.994  68.175  1.00  0.00    -0.059 A  
HETATM   13  C   UNL     1      -7.442   9.946  66.960  1.00  0.00    -0.091 A  
HETATM   14  C   UNL     1      -8.484  10.852  66.661  1.00  0.00    -0.151 A  
HETATM   15  S   UNL     1      -9.180  10.652  65.044  1.00  0.00    -0.224 SA 
HETATM   16  C   UNL     1     -10.510  11.822  65.054  1.00  0.00    -0.285 A  
HETATM   17  C   UNL     1     -11.291  11.818  63.878  1.00  0.00    -0.494 A  
HETATM   18  C   UNL     1     -12.383  12.661  63.736  1.00  0.00    -0.568 A  
HETATM   19  C   UNL     1     -12.708  13.506  64.779  1.00  0.00    -0.284 A  
HETATM   20  C   UNL     1     -11.931  13.516  65.947  1.00  0.00    -0.444 A  
HETATM   21  C   UNL     1     -10.797  12.692  66.129  1.00  0.00    -0.273 A  
ENDBRANCH   7   8
ENDBRANCH   5   7
TORSDOF 2
ENDMDL
MODEL       91
REMARK 921   NORMALIZED FREE ENERGY PREDICTED BY IDOCK:   -4.69 KCAL/MOL
REMARK 922        TOTAL FREE ENERGY PREDICTED BY IDOCK:   -5.63 KCAL/MOL
REMARK 923 INTER-LIGAND FREE ENERGY PREDICTED BY IDOCK:   -5.31 KCAL/MOL
REMARK 924 INTRA-LIGAND FREE ENERGY PREDICTED BY IDOCK:   -0.33 KCAL/MOL
REMARK 927      BINDING AFFINITY PREDICTED BY RF-SCORE:    0.00 PKD
ROOT
HETATM    1  C   UNL     1     -11.006  14.057  66.605  1.00  0.00    -0.300 C  
HETATM    2  N   UNL     1     -11.083  12.817  67.361  1.00  0.00    -0.263 NA 
HETATM    3  C   UNL     1     -11.313  11.646  66.517  1.00  0.00    -0.263 C  
HETATM    4  C   UNL     1     -11.010  10.518  67.491  1.00  0.00    -0.365 C  
HETATM    5  C   UNL     1      -9.745  11.007  68.196  1.00  0.00    -0.180 C  
HETATM    6  C   UNL     1      -9.870  12.541  68.143  1.00  0.00    -0.221 C  
ENDROOT
BRANCH   5   7
HETATM    7  C   UNL     1      -9.527  10.502  69.632  1.00  0.00     0.005 C  
BRANCH   7   8
HETATM    8  N   UNL     1     -10.077   9.139  69.870  1.00  0.00    -0.192 NA 
HETATM    9  C   UNL     1      -9.289   8.030  69.410  1.00  0.00    -0.155 A  
HETATM   10  C   UNL     1      -8.061   8.193  68.724  1.00  0.00    -0.120 A  
HETATM   11  C   UNL     1      -7.264   7.113  68.317  1.00  0.00    -0.091 A  
HETATM   12  C   UNL     1      -7.670   5.814  68.567  1.00  0.00    -0.093 A  
HETATM   13  C   UNL     1      -8.881   5.609  69.213  1.00  0.00    -0.112 A  
HETATM   14  C   UNL     1      -9.686   6.694  69.623  1.00  0.00    -0.154 A  
HETATM   15  S   UNL     1     -11.211   6.219  70.391  1.00  0.00    -0.370 SA 
HETATM   16  C   UNL     1     -11.889   7.778  70.890  1.00  0.00    -0.239 A  
HETATM   17  C   UNL     1     -13.101   7.678  71.606  1.00  0.00    -0.392 A  
HETATM   18  C   UNL     1     -13.750   8.806  72.085  1.00  0.00    -0.498 A  
HETATM   19  C   UNL     1     -13.180  10.044  71.860  1.00  0.00    -0.557 A  
HETATM   20  C   UNL     1     -11.977  10.147  71.146  1.00  0.00    -0.480 A  
HETATM   21  C   UNL     1     -11.291   9.029  70.619  1.00  0.00    -0.265 A  
ENDBRANCH   7   8
ENDBRANCH   5   7
TORSDOF 2
ENDMDL
MODEL       92
REMARK 921   NORMALIZED FREE ENERGY PREDICTED BY IDOCK:   -4.65 KCAL/MOL
REMARK 922        TOTAL FREE ENERGY PREDICTED BY IDOCK:   -5.59 KCAL/MOL
REMARK 923 INTER-LIGAND FREE ENERGY PREDICTED BY IDOCK:   -5.21 KCAL/MOL
REMARK 924 INTRA-LIGAND FREE ENERGY PREDICTED BY IDOCK:   -0.38 KCAL/MOL
REMARK 927      BINDING AFFINITY PREDICTED BY RF-SCORE:    0.00 PKD
ROOT
HETATM    1  C   UNL     1      -6.215   6.934  66.083  1.00  0.00    -0.042 C  
HETATM    2  N   UNL     1      -7.386   7.280  66.873  1.00  0.00    -0.090 NA 
HETATM    3  C   UNL     1      -7.050   7.829  68.184  1.00  0.00    -0.085 C  
HETATM    4  C   UNL     1      -8.392   8.395  68.619  1.00  0.00    -0.120 C  
HETATM    5  C   UNL     1      -8.900   9.081  67.350  1.00  0.00    -0.125 C  
HETATM    6  C   UNL     1      -8.256   8.265  66.215  1.00  0.00    -0.112 C  
ENDROOT
BRANCH   5   7
HETATM    7  C   UNL     1     -10.426   9.176  67.192  1.00  0.00    -0.255 C  
BRANCH   7   8
HETATM    8  N   UNL     1     -10.937  10.574  67.200  1.00  0.00    -0.265 NA 
HETATM    9  C   UNL     1     -11.399  11.091  68.457  1.00  0.00    -0.287 A  
HETATM   10  C   UNL     1     -11.417  10.319  69.644  1.00  0.00    -0.297 A  
HETATM   11  C   UNL     1     -11.820  10.835  70.885  1.00  0.00    -0.400 A  
HETATM   12  C   UNL     1     -12.239  12.149  70.990  1.00  0.00    -0.227 A  
HETATM   13  C   UNL     1     -12.262  12.934  69.845  1.00  0.00    -0.258 A  
HETATM   14  C   UNL     1     -11.858  12.417  68.595  1.00  0.00    -0.302 A  
HETATM   15  S   UNL     1     -12.003  13.565  67.252  1.00  0.00    -0.337 SA 
HETATM   16  C   UNL     1     -11.303  12.660  65.899  1.00  0.00    -0.334 A  
HETATM   17  C   UNL     1     -11.230  13.389  64.693  1.00  0.00    -0.377 A  
HETATM   18  C   UNL     1     -10.689  12.830  63.545  1.00  0.00    -0.232 A  
HETATM   19  C   UNL     1     -10.204  11.539  63.602  1.00  0.00    -0.450 A  
HETATM   20  C   UNL     1     -10.278  10.809  64.798  1.00  0.00    -0.403 A  
HETATM   21  C   UNL     1     -10.841  11.328  65.987  1.00  0.00    -0.213 A  
ENDBRANCH   7   8
ENDBRANCH   5   7
TORSDOF 2
ENDMDL
MODEL       93
REMARK 921   NORMALIZED FREE ENERGY PREDICTED BY IDOCK:   -4.63 KCAL/MOL
REMARK 922        TOTAL FREE ENERGY PREDICTED BY IDOCK:   -5.56 KCAL/MOL
REMARK 923 INTER-LIGAND FREE ENERGY PREDICTED BY IDOCK:   -5.26 KCAL/MOL
REMARK 924 INTRA-LIGAND FREE ENERGY PREDICTED BY IDOCK:   -0.31 KCAL/MOL
REMARK 927      BINDING AFFINITY PREDICTED BY RF-SCORE:    0.00 PKD
ROOT
HETATM    1  C   UNL     1      -9.299   3.088  67.651  1.00  0.00    -0.195 C  
HETATM    2  N   UNL     1      -9.304   4.475  67.215  1.00  0.00    -0.137 NA 
HETATM    3  C   UNL     1     -10.484   4.824  66.428  1.00  0.00    -0.239 C  
HETATM    4  C   UNL     1     -10.389   6.341  66.412  1.00  0.00    -0.072 C  
HETATM    5  C   UNL     1     -10.019   6.674  67.858  1.00  0.00    -0.152 C  
HETATM    6  C   UNL     1      -9.242   5.431  68.329  1.00  0.00    -0.111 C  
ENDROOT
BRANCH   5   7
HETATM    7  C   UNL     1      -9.215   7.967  68.074  1.00  0.00    -0.131 C  
BRANCH   7   8
HETATM    8  N   UNL     1     -10.056   9.194  68.077  1.00  0.00    -0.185 NA 
HETATM    9  C   UNL     1     -10.095   9.960  66.862  1.00  0.00    -0.225 A  
HETATM   10  C   UNL     1      -9.348   9.611  65.711  1.00  0.00    -0.286 A  
HETATM   11  C   UNL     1      -9.421  10.327  64.507  1.00  0.00    -0.356 A  
HETATM   12  C   UNL     1     -10.239  11.438  64.405  1.00  0.00    -0.361 A  
HETATM   13  C   UNL     1     -10.968  11.831  65.519  1.00  0.00    -0.344 A  
HETATM   14  C   UNL     1     -10.896  11.114  66.733  1.00  0.00    -0.268 A  
HETATM   15  S   UNL     1     -11.868  11.802  68.044  1.00  0.00    -0.137 SA 
HETATM   16  C   UNL     1     -11.660  10.612  69.340  1.00  0.00    -0.280 A  
HETATM   17  C   UNL     1     -12.405  10.891  70.505  1.00  0.00    -0.463 A  
HETATM   18  C   UNL     1     -12.368  10.045  71.603  1.00  0.00    -0.486 A  
HETATM   19  C   UNL     1     -11.593   8.904  71.536  1.00  0.00    -0.388 A  
HETATM   20  C   UNL     1     -10.848   8.626  70.380  1.00  0.00    -0.250 A  
HETATM   21  C   UNL     1     -10.836   9.469  69.245  1.00  0.00    -0.191 A  
ENDBRANCH   7   8
ENDBRANCH   5   7
TORSDOF 2
ENDMDL
MODEL       94
REMARK 921   NORMALIZED FREE ENERGY PREDICTED BY IDOCK:   -4.61 KCAL/MOL
REMARK 922        TOTAL FREE ENERGY PREDICTED BY IDOCK:   -5.54 KCAL/MOL
REMARK 923 INTER-LIGAND FREE ENERGY PREDICTED BY IDOCK:   -6.86 KCAL/MOL
REMARK 924 INTRA-LIGAND FREE ENERGY PREDICTED BY IDOCK:    1.32 KCAL/MOL
REMARK 927      BINDING AFFINITY PREDICTED BY RF-SCORE:    0.00 PKD
ROOT
HETATM    1  C   UNL     1      -9.368  11.119  63.200  1.00  0.00    -0.328 C  
HETATM    2  N   UNL     1     -10.314  12.197  63.438  1.00  0.00    -0.439 NA 
HETATM    3  C   UNL     1     -11.670  11.720  63.701  1.00  0.00    -0.415 C  
HETATM    4  C   UNL     1     -12.328  12.983  64.232  1.00  0.00    -0.436 C  
HETATM    5  C   UNL     1     -11.267  13.548  65.178  1.00  0.00    -0.320 C  
HETATM    6  C   UNL     1      -9.941  13.053  64.572  1.00  0.00    -0.124 C  
ENDROOT
BRANCH   5   7
HETATM    7  C   UNL     1     -11.271  15.074  65.373  1.00  0.00    -0.356 C  
BRANCH   7   8
HETATM    8  N   UNL     1     -11.140  15.489  66.797  1.00  0.00    -0.261 NA 
HETATM    9  C   UNL     1     -11.443  14.500  67.793  1.00  0.00    -0.340 A  
HETATM   10  C   UNL     1     -11.885  13.195  67.470  1.00  0.00    -0.409 A  
HETATM   11  C   UNL     1     -12.134  12.210  68.438  1.00  0.00    -0.096 A  
HETATM   12  C   UNL     1     -11.963  12.496  69.781  1.00  0.00    -0.359 A  
HETATM   13  C   UNL     1     -11.556  13.772  70.144  1.00  0.00    -0.230 A  
HETATM   14  C   UNL     1     -11.306  14.765  69.172  1.00  0.00    -0.282 A  
HETATM   15  S   UNL     1     -10.838  16.338  69.842  1.00  0.00    -0.324 SA 
HETATM   16  C   UNL     1     -10.477  17.281  68.386  1.00  0.00    -0.381 A  
HETATM   17  C   UNL     1     -10.002  18.584  68.646  1.00  0.00    -0.419 A  
HETATM   18  C   UNL     1      -9.655  19.443  67.614  1.00  0.00    -0.414 A  
HETATM   19  C   UNL     1      -9.769  18.996  66.313  1.00  0.00    -0.392 A  
HETATM   20  C   UNL     1     -10.245  17.702  66.051  1.00  0.00    -0.301 A  
HETATM   21  C   UNL     1     -10.632  16.799  67.067  1.00  0.00    -0.234 A  
ENDBRANCH   7   8
ENDBRANCH   5   7
TORSDOF 2
ENDMDL
MODEL       95
REMARK 921   NORMALIZED FREE ENERGY PREDICTED BY IDOCK:   -4.60 KCAL/MOL
REMARK 922        TOTAL FREE ENERGY PREDICTED BY IDOCK:   -5.53 KCAL/MOL
REMARK 923 INTER-LIGAND FREE ENERGY PREDICTED BY IDOCK:   -5.37 KCAL/MOL
REMARK 924 INTRA-LIGAND FREE ENERGY PREDICTED BY IDOCK:   -0.17 KCAL/MOL
REMARK 927      BINDING AFFINITY PREDICTED BY RF-SCORE:    0.00 PKD
ROOT
HETATM    1  C   UNL     1     -10.645  17.806  67.001  1.00  0.00    -0.262 C  
HETATM    2  N   UNL     1     -10.295  16.398  66.902  1.00  0.00    -0.297 NA 
HETATM    3  C   UNL     1      -8.874  16.178  66.642  1.00  0.00    -0.264 C  
HETATM    4  C   UNL     1      -8.750  14.690  66.926  1.00  0.00    -0.251 C  
HETATM    5  C   UNL     1      -9.570  14.518  68.205  1.00  0.00    -0.212 C  
HETATM    6  C   UNL     1     -10.625  15.635  68.113  1.00  0.00    -0.274 C  
ENDROOT
BRANCH   5   7
HETATM    7  C   UNL     1     -10.215  13.138  68.421  1.00  0.00    -0.247 C  
BRANCH   7   8
HETATM    8  N   UNL     1      -9.870  12.152  67.361  1.00  0.00    -0.188 NA 
HETATM    9  C   UNL     1     -10.683  12.158  66.177  1.00  0.00    -0.272 A  
HETATM   10  C   UNL     1     -11.791  13.023  66.012  1.00  0.00    -0.471 A  
HETATM   11  C   UNL     1     -12.558  13.067  64.837  1.00  0.00    -0.490 A  
HETATM   12  C   UNL     1     -12.255  12.232  63.776  1.00  0.00    -0.642 A  
HETATM   13  C   UNL     1     -11.193  11.349  63.906  1.00  0.00    -0.364 A  
HETATM   14  C   UNL     1     -10.420  11.302  65.088  1.00  0.00    -0.291 A  
HETATM   15  S   UNL     1      -9.139  10.077  65.070  1.00  0.00    -0.232 SA 
HETATM   16  C   UNL     1      -8.304  10.377  66.604  1.00  0.00    -0.127 A  
HETATM   17  C   UNL     1      -7.170   9.563  66.812  1.00  0.00    -0.086 A  
HETATM   18  C   UNL     1      -6.395   9.688  67.955  1.00  0.00    -0.056 A  
HETATM   19  C   UNL     1      -6.744  10.640  68.893  1.00  0.00    -0.062 A  
HETATM   20  C   UNL     1      -7.873  11.448  68.691  1.00  0.00    -0.139 A  
HETATM   21  C   UNL     1      -8.706  11.343  67.553  1.00  0.00    -0.140 A  
ENDBRANCH   7   8
ENDBRANCH   5   7
TORSDOF 2
ENDMDL
MODEL       96
REMARK 921   NORMALIZED FREE ENERGY PREDICTED BY IDOCK:   -4.60 KCAL/MOL
REMARK 922        TOTAL FREE ENERGY PREDICTED BY IDOCK:   -5.53 KCAL/MOL
REMARK 923 INTER-LIGAND FREE ENERGY PREDICTED BY IDOCK:   -5.10 KCAL/MOL
REMARK 924 INTRA-LIGAND FREE ENERGY PREDICTED BY IDOCK:   -0.43 KCAL/MOL
REMARK 927      BINDING AFFINITY PREDICTED BY RF-SCORE:    0.00 PKD
ROOT
HETATM    1  C   UNL     1      -7.815   7.759  64.771  1.00  0.00    -0.129 C  
HETATM    2  N   UNL     1      -8.331   8.596  65.842  1.00  0.00    -0.128 NA 
HETATM    3  C   UNL     1      -9.649   9.155  65.548  1.00  0.00    -0.169 C  
HETATM    4  C   UNL     1     -10.063   9.669  66.917  1.00  0.00    -0.290 C  
HETATM    5  C   UNL     1      -9.648   8.529  67.848  1.00  0.00    -0.177 C  
HETATM    6  C   UNL     1      -8.452   7.886  67.123  1.00  0.00    -0.117 C  
ENDROOT
BRANCH   5   7
HETATM    7  C   UNL     1      -9.295   8.924  69.292  1.00  0.00    -0.149 C  
BRANCH   7   8
HETATM    8  N   UNL     1     -10.413   8.718  70.253  1.00  0.00    -0.201 NA 
HETATM    9  C   UNL     1     -10.481   7.442  70.908  1.00  0.00    -0.217 A  
HETATM   10  C   UNL     1      -9.564   6.395  70.647  1.00  0.00    -0.186 A  
HETATM   11  C   UNL     1      -9.596   5.165  71.321  1.00  0.00    -0.218 A  
HETATM   12  C   UNL     1     -10.560   4.923  72.282  1.00  0.00    -0.251 A  
HETATM   13  C   UNL     1     -11.495   5.912  72.551  1.00  0.00    -0.347 A  
HETATM   14  C   UNL     1     -11.467   7.150  71.873  1.00  0.00    -0.270 A  
HETATM   15  S   UNL     1     -12.772   8.260  72.329  1.00  0.00    -0.259 SA 
HETATM   16  C   UNL     1     -12.364   9.723  71.417  1.00  0.00    -0.388 A  
HETATM   17  C   UNL     1     -13.227  10.814  71.660  1.00  0.00    -0.487 A  
HETATM   18  C   UNL     1     -13.032  12.038  71.039  1.00  0.00    -0.175 A  
HETATM   19  C   UNL     1     -11.962  12.182  70.179  1.00  0.00    -0.394 A  
HETATM   20  C   UNL     1     -11.104  11.100  69.933  1.00  0.00    -0.234 A  
HETATM   21  C   UNL     1     -11.275   9.827  70.524  1.00  0.00    -0.315 A  
ENDBRANCH   7   8
ENDBRANCH   5   7
TORSDOF 2
ENDMDL
MODEL       97
REMARK 921   NORMALIZED FREE ENERGY PREDICTED BY IDOCK:   -4.59 KCAL/MOL
REMARK 922        TOTAL FREE ENERGY PREDICTED BY IDOCK:   -5.52 KCAL/MOL
REMARK 923 INTER-LIGAND FREE ENERGY PREDICTED BY IDOCK:   -5.23 KCAL/MOL
REMARK 924 INTRA-LIGAND FREE ENERGY PREDICTED BY IDOCK:   -0.30 KCAL/MOL
REMARK 927      BINDING AFFINITY PREDICTED BY RF-SCORE:    0.00 PKD
ROOT
HETATM    1  C   UNL     1     -13.249  13.224  70.939  1.00  0.00     0.100 C  
HETATM    2  N   UNL     1     -12.590  12.023  71.427  1.00  0.00    -0.285 NA 
HETATM    3  C   UNL     1     -13.528  10.969  71.806  1.00  0.00    -0.160 C  
HETATM    4  C   UNL     1     -12.594   9.777  71.936  1.00  0.00    -0.479 C  
HETATM    5  C   UNL     1     -11.691   9.916  70.710  1.00  0.00    -0.424 C  
HETATM    6  C   UNL     1     -11.666  11.433  70.448  1.00  0.00    -0.268 C  
ENDROOT
BRANCH   5   7
HETATM    7  C   UNL     1     -10.272   9.335  70.839  1.00  0.00    -0.301 C  
BRANCH   7   8
HETATM    8  N   UNL     1     -10.209   7.869  70.593  1.00  0.00    -0.195 NA 
HETATM    9  C   UNL     1     -10.214   7.014  71.748  1.00  0.00    -0.192 A  
HETATM   10  C   UNL     1     -10.239   7.514  73.072  1.00  0.00    -0.360 A  
HETATM   11  C   UNL     1     -10.295   6.683  74.201  1.00  0.00    -0.347 A  
HETATM   12  C   UNL     1     -10.314   5.308  74.054  1.00  0.00    -0.301 A  
HETATM   13  C   UNL     1     -10.263   4.775  72.774  1.00  0.00    -0.232 A  
HETATM   14  C   UNL     1     -10.206   5.608  71.635  1.00  0.00    -0.208 A  
HETATM   15  S   UNL     1     -10.104   4.734  70.097  1.00  0.00    -0.192 SA 
HETATM   16  C   UNL     1     -10.185   6.043  68.907  1.00  0.00    -0.196 A  
HETATM   17  C   UNL     1     -10.193   5.604  67.565  1.00  0.00    -0.246 A  
HETATM   18  C   UNL     1     -10.274   6.505  66.514  1.00  0.00    -0.134 A  
HETATM   19  C   UNL     1     -10.360   7.853  66.800  1.00  0.00    -0.357 A  
HETATM   20  C   UNL     1     -10.348   8.293  68.132  1.00  0.00    -0.253 A  
HETATM   21  C   UNL     1     -10.245   7.416  69.237  1.00  0.00    -0.199 A  
ENDBRANCH   7   8
ENDBRANCH   5   7
TORSDOF 2
ENDMDL
MODEL       98
REMARK 921   NORMALIZED FREE ENERGY PREDICTED BY IDOCK:   -4.59 KCAL/MOL
REMARK 922        TOTAL FREE ENERGY PREDICTED BY IDOCK:   -5.52 KCAL/MOL
REMARK 923 INTER-LIGAND FREE ENERGY PREDICTED BY IDOCK:   -5.13 KCAL/MOL
REMARK 924 INTRA-LIGAND FREE ENERGY PREDICTED BY IDOCK:   -0.39 KCAL/MOL
REMARK 927      BINDING AFFINITY PREDICTED BY RF-SCORE:    0.00 PKD
ROOT
HETATM    1  C   UNL     1      -5.943  10.051  64.950  1.00  0.00    -0.114 C  
HETATM    2  N   UNL     1      -7.051  10.280  65.864  1.00  0.00    -0.124 NA 
HETATM    3  C   UNL     1      -6.772  11.320  66.852  1.00  0.00    -0.135 C  
HETATM    4  C   UNL     1      -8.161  11.572  67.414  1.00  0.00    -0.149 C  
HETATM    5  C   UNL     1      -9.037  11.595  66.160  1.00  0.00    -0.209 C  
HETATM    6  C   UNL     1      -8.292  10.671  65.181  1.00  0.00    -0.117 C  
ENDROOT
BRANCH   5   7
HETATM    7  C   UNL     1     -10.503  11.169  66.345  1.00  0.00    -0.260 C  
BRANCH   7   8
HETATM    8  N   UNL     1     -10.848  10.829  67.753  1.00  0.00    -0.247 NA 
HETATM    9  C   UNL     1     -11.367  11.889  68.570  1.00  0.00    -0.276 A  
HETATM   10  C   UNL     1     -11.520  13.216  68.100  1.00  0.00    -0.349 A  
HETATM   11  C   UNL     1     -12.073  14.244  68.878  1.00  0.00    -0.314 A  
HETATM   12  C   UNL     1     -12.487  13.990  70.174  1.00  0.00    -0.380 A  
HETATM   13  C   UNL     1     -12.331  12.709  70.684  1.00  0.00    -0.375 A  
HETATM   14  C   UNL     1     -11.773  11.673  69.903  1.00  0.00    -0.337 A  
HETATM   15  S   UNL     1     -11.620  10.124  70.751  1.00  0.00    -0.373 SA 
HETATM   16  C   UNL     1     -11.031   9.047  69.475  1.00  0.00    -0.106 A  
HETATM   17  C   UNL     1     -10.887   7.701  69.876  1.00  0.00    -0.241 A  
HETATM   18  C   UNL     1     -10.456   6.727  68.989  1.00  0.00    -0.229 A  
HETATM   19  C   UNL     1     -10.177   7.093  67.686  1.00  0.00    -0.253 A  
HETATM   20  C   UNL     1     -10.315   8.430  67.285  1.00  0.00    -0.369 A  
HETATM   21  C   UNL     1     -10.731   9.462  68.158  1.00  0.00    -0.178 A  
ENDBRANCH   7   8
ENDBRANCH   5   7
TORSDOF 2
ENDMDL
MODEL       99
REMARK 921   NORMALIZED FREE ENERGY PREDICTED BY IDOCK:   -4.59 KCAL/MOL
REMARK 922        TOTAL FREE ENERGY PREDICTED BY IDOCK:   -5.52 KCAL/MOL
REMARK 923 INTER-LIGAND FREE ENERGY PREDICTED BY IDOCK:   -5.34 KCAL/MOL
REMARK 924 INTRA-LIGAND FREE ENERGY PREDICTED BY IDOCK:   -0.18 KCAL/MOL
REMARK 927      BINDING AFFINITY PREDICTED BY RF-SCORE:    0.00 PKD
ROOT
HETATM    1  C   UNL     1      -6.930   9.005  71.016  1.00  0.00    -0.097 C  
HETATM    2  N   UNL     1      -7.577  10.188  70.471  1.00  0.00    -0.216 NA 
HETATM    3  C   UNL     1      -6.711  10.954  69.579  1.00  0.00    -0.117 C  
HETATM    4  C   UNL     1      -7.716  11.887  68.922  1.00  0.00    -0.016 C  
HETATM    5  C   UNL     1      -8.893  10.958  68.617  1.00  0.00    -0.158 C  
HETATM    6  C   UNL     1      -8.798   9.881  69.712  1.00  0.00    -0.211 C  
ENDROOT
BRANCH   5   7
HETATM    7  C   UNL     1     -10.284  11.612  68.578  1.00  0.00    -0.210 C  
BRANCH   7   8
HETATM    8  N   UNL     1     -10.452  12.580  67.460  1.00  0.00    -0.218 NA 
HETATM    9  C   UNL     1     -10.617  13.962  67.814  1.00  0.00    -0.246 A  
HETATM   10  C   UNL     1     -10.660  14.410  69.157  1.00  0.00    -0.229 A  
HETATM   11  C   UNL     1     -10.771  15.764  69.507  1.00  0.00    -0.278 A  
HETATM   12  C   UNL     1     -10.857  16.733  68.524  1.00  0.00    -0.345 A  
HETATM   13  C   UNL     1     -10.845  16.335  67.195  1.00  0.00    -0.190 A  
HETATM   14  C   UNL     1     -10.736  14.973  66.839  1.00  0.00    -0.308 A  
HETATM   15  S   UNL     1     -10.783  14.672  65.093  1.00  0.00    -0.443 SA 
HETATM   16  C   UNL     1     -10.490  12.927  64.999  1.00  0.00    -0.318 A  
HETATM   17  C   UNL     1     -10.407  12.425  63.682  1.00  0.00    -0.434 A  
HETATM   18  C   UNL     1     -10.162  11.083  63.438  1.00  0.00    -0.404 A  
HETATM   19  C   UNL     1      -9.985  10.234  64.512  1.00  0.00    -0.359 A  
HETATM   20  C   UNL     1     -10.071  10.728  65.823  1.00  0.00    -0.320 A  
HETATM   21  C   UNL     1     -10.341  12.084  66.123  1.00  0.00    -0.224 A  
ENDBRANCH   7   8
ENDBRANCH   5   7
TORSDOF 2
ENDMDL
MODEL      100
REMARK 921   NORMALIZED FREE ENERGY PREDICTED BY IDOCK:   -4.57 KCAL/MOL
REMARK 922        TOTAL FREE ENERGY PREDICTED BY IDOCK:   -5.50 KCAL/MOL
REMARK 923 INTER-LIGAND FREE ENERGY PREDICTED BY IDOCK:   -5.05 KCAL/MOL
REMARK 924 INTRA-LIGAND FREE ENERGY PREDICTED BY IDOCK:   -0.45 KCAL/MOL
REMARK 927      BINDING AFFINITY PREDICTED BY RF-SCORE:    0.00 PKD
ROOT
HETATM    1  C   UNL     1     -12.471  16.104  73.649  1.00  0.00    -0.576 C  
HETATM    2  N   UNL     1     -12.440  15.200  72.511  1.00  0.00    -0.336 NA 
HETATM    3  C   UNL     1     -13.660  15.247  71.709  1.00  0.00    -0.483 C  
HETATM    4  C   UNL     1     -13.221  14.500  70.460  1.00  0.00    -0.136 C  
HETATM    5  C   UNL     1     -11.828  15.073  70.193  1.00  0.00    -0.357 C  
HETATM    6  C   UNL     1     -11.323  15.465  71.593  1.00  0.00    -0.385 C  
ENDROOT
BRANCH   5   7
HETATM    7  C   UNL     1     -10.839  14.147  69.467  1.00  0.00    -0.075 C  
BRANCH   7   8
HETATM    8  N   UNL     1     -10.179  14.786  68.296  1.00  0.00    -0.223 NA 
HETATM    9  C   UNL     1      -8.882  15.362  68.514  1.00  0.00    -0.183 A  
HETATM   10  C   UNL     1      -8.249  15.370  69.781  1.00  0.00    -0.018 A  
HETATM   11  C   UNL     1      -6.961  15.887  69.988  1.00  0.00     0.170 A  
HETATM   12  C   UNL     1      -6.251  16.432  68.934  1.00  0.00    -0.145 A  
HETATM   13  C   UNL     1      -6.845  16.468  67.680  1.00  0.00    -0.161 A  
HETATM   14  C   UNL     1      -8.141  15.951  67.468  1.00  0.00    -0.151 A  
HETATM   15  S   UNL     1      -8.735  16.132  65.808  1.00  0.00     0.451 SA 
HETATM   16  C   UNL     1     -10.286  15.278  65.862  1.00  0.00    -0.329 A  
HETATM   17  C   UNL     1     -10.952  15.210  64.620  1.00  0.00    -0.321 A  
HETATM   18  C   UNL     1     -12.168  14.558  64.489  1.00  0.00    -0.483 A  
HETATM   19  C   UNL     1     -12.721  13.957  65.602  1.00  0.00    -0.534 A  
HETATM   20  C   UNL     1     -12.065  14.025  66.840  1.00  0.00    -0.465 A  
HETATM   21  C   UNL     1     -10.835  14.697  67.027  1.00  0.00    -0.304 A  
ENDBRANCH   7   8
ENDBRANCH   5   7
TORSDOF 2
ENDMDL
MODEL      101
REMARK 921   NORMALIZED FREE ENERGY PREDICTED BY IDOCK:   -4.56 KCAL/MOL
REMARK 922        TOTAL FREE ENERGY PREDICTED BY IDOCK:   -5.49 KCAL/MOL
REMARK 923 INTER-LIGAND FREE ENERGY PREDICTED BY IDOCK:   -5.12 KCAL/MOL
REMARK 924 INTRA-LIGAND FREE ENERGY PREDICTED BY IDOCK:   -0.37 KCAL/MOL
REMARK 927      BINDING AFFINITY PREDICTED BY RF-SCORE:    0.00 PKD
ROOT
HETATM    1  C   UNL     1      -7.988   7.354  64.500  1.00  0.00    -0.122 C  
HETATM    2  N   UNL     1      -8.180   8.580  65.258  1.00  0.00    -0.140 NA 
HETATM    3  C   UNL     1      -9.180   9.467  64.670  1.00  0.00    -0.122 C  
HETATM    4  C   UNL     1      -9.408  10.450  65.807  1.00  0.00    -0.230 C  
HETATM    5  C   UNL     1      -9.478   9.540  67.035  1.00  0.00    -0.197 C  
HETATM    6  C   UNL     1      -8.594   8.341  66.648  1.00  0.00    -0.129 C  
ENDROOT
BRANCH   5   7
HETATM    7  C   UNL     1      -9.042  10.164  68.371  1.00  0.00    -0.133 C  
BRANCH   7   8
HETATM    8  N   UNL     1     -10.183  10.605  69.219  1.00  0.00    -0.220 NA 
HETATM    9  C   UNL     1     -10.645   9.683  70.218  1.00  0.00    -0.278 A  
HETATM   10  C   UNL     1     -10.088   8.393  70.388  1.00  0.00    -0.202 A  
HETATM   11  C   UNL     1     -10.503   7.507  71.395  1.00  0.00    -0.226 A  
HETATM   12  C   UNL     1     -11.509   7.872  72.272  1.00  0.00    -0.403 A  
HETATM   13  C   UNL     1     -12.101   9.118  72.124  1.00  0.00    -0.389 A  
HETATM   14  C   UNL     1     -11.687  10.011  71.111  1.00  0.00    -0.387 A  
HETATM   15  S   UNL     1     -12.597  11.531  71.063  1.00  0.00    -0.293 SA 
HETATM   16  C   UNL     1     -11.750  12.443  69.802  1.00  0.00    -0.291 A  
HETATM   17  C   UNL     1     -12.243  13.751  69.607  1.00  0.00    -0.359 A  
HETATM   18  C   UNL     1     -11.675  14.602  68.671  1.00  0.00    -0.362 A  
HETATM   19  C   UNL     1     -10.600  14.151  67.931  1.00  0.00    -0.244 A  
HETATM   20  C   UNL     1     -10.110  12.850  68.120  1.00  0.00    -0.240 A  
HETATM   21  C   UNL     1     -10.669  11.939  69.046  1.00  0.00    -0.156 A  
ENDBRANCH   7   8
ENDBRANCH   5   7
TORSDOF 2
ENDMDL
MODEL      102
REMARK 921   NORMALIZED FREE ENERGY PREDICTED BY IDOCK:   -4.56 KCAL/MOL
REMARK 922        TOTAL FREE ENERGY PREDICTED BY IDOCK:   -5.49 KCAL/MOL
REMARK 923 INTER-LIGAND FREE ENERGY PREDICTED BY IDOCK:   -5.27 KCAL/MOL
REMARK 924 INTRA-LIGAND FREE ENERGY PREDICTED BY IDOCK:   -0.22 KCAL/MOL
REMARK 927      BINDING AFFINITY PREDICTED BY RF-SCORE:    0.00 PKD
ROOT
HETATM    1  C   UNL     1      -6.262  11.699  69.810  1.00  0.00    -0.139 C  
HETATM    2  N   UNL     1      -7.389  11.695  68.892  1.00  0.00    -0.117 NA 
HETATM    3  C   UNL     1      -6.985  11.660  67.489  1.00  0.00    -0.104 C  
HETATM    4  C   UNL     1      -8.303  11.325  66.810  1.00  0.00    -0.156 C  
HETATM    5  C   UNL     1      -8.881  10.232  67.710  1.00  0.00    -0.125 C  
HETATM    6  C   UNL     1      -8.297  10.558  69.097  1.00  0.00    -0.151 C  
ENDROOT
BRANCH   5   7
HETATM    7  C   UNL     1     -10.414  10.120  67.748  1.00  0.00    -0.232 C  
BRANCH   7   8
HETATM    8  N   UNL     1     -10.944   9.687  69.069  1.00  0.00    -0.178 NA 
HETATM    9  C   UNL     1     -11.547  10.697  69.892  1.00  0.00    -0.316 A  
HETATM   10  C   UNL     1     -11.616  12.058  69.509  1.00  0.00    -0.389 A  
HETATM   11  C   UNL     1     -12.248  13.040  70.287  1.00  0.00    -0.368 A  
HETATM   12  C   UNL     1     -12.831  12.703  71.495  1.00  0.00    -0.368 A  
HETATM   13  C   UNL     1     -12.763  11.384  71.922  1.00  0.00    -0.266 A  
HETATM   14  C   UNL     1     -12.127  10.394  71.142  1.00  0.00    -0.386 A  
HETATM   15  S   UNL     1     -12.110   8.784  71.882  1.00  0.00    -0.388 SA 
HETATM   16  C   UNL     1     -11.379   7.788  70.613  1.00  0.00    -0.264 A  
HETATM   17  C   UNL     1     -11.311   6.413  70.925  1.00  0.00    -0.398 A  
HETATM   18  C   UNL     1     -10.784   5.496  70.028  1.00  0.00    -0.356 A  
HETATM   19  C   UNL     1     -10.333   5.950  68.804  1.00  0.00    -0.279 A  
HETATM   20  C   UNL     1     -10.396   7.316  68.492  1.00  0.00    -0.210 A  
HETATM   21  C   UNL     1     -10.903   8.291  69.381  1.00  0.00    -0.084 A  
ENDBRANCH   7   8
ENDBRANCH   5   7
TORSDOF 2
ENDMDL
MODEL      103
REMARK 921   NORMALIZED FREE ENERGY PREDICTED BY IDOCK:   -4.55 KCAL/MOL
REMARK 922        TOTAL FREE ENERGY PREDICTED BY IDOCK:   -5.48 KCAL/MOL
REMARK 923 INTER-LIGAND FREE ENERGY PREDICTED BY IDOCK:   -5.15 KCAL/MOL
REMARK 924 INTRA-LIGAND FREE ENERGY PREDICTED BY IDOCK:   -0.33 KCAL/MOL
REMARK 927      BINDING AFFINITY PREDICTED BY RF-SCORE:    0.00 PKD
ROOT
HETATM    1  C   UNL     1     -13.502  12.246  71.888  1.00  0.00    -0.240 C  
HETATM    2  N   UNL     1     -13.119  11.077  71.112  1.00  0.00    -0.307 NA 
HETATM    3  C   UNL     1     -11.911  11.287  70.318  1.00  0.00    -0.379 C  
HETATM    4  C   UNL     1     -11.574   9.862  69.911  1.00  0.00    -0.184 C  
HETATM    5  C   UNL     1     -11.794   9.077  71.205  1.00  0.00    -0.362 C  
HETATM    6  C   UNL     1     -12.876   9.888  71.941  1.00  0.00    -0.429 C  
ENDROOT
BRANCH   5   7
HETATM    7  C   UNL     1     -12.195   7.601  71.047  1.00  0.00    -0.236 C  
BRANCH   7   8
HETATM    8  N   UNL     1     -11.031   6.684  70.903  1.00  0.00    -0.254 NA 
HETATM    9  C   UNL     1     -10.678   6.285  69.570  1.00  0.00    -0.303 A  
HETATM   10  C   UNL     1     -11.405   6.697  68.427  1.00  0.00    -0.110 A  
HETATM   11  C   UNL     1     -11.034   6.351  67.119  1.00  0.00    -0.476 A  
HETATM   12  C   UNL     1      -9.920   5.562  66.897  1.00  0.00    -0.204 A  
HETATM   13  C   UNL     1      -9.193   5.113  67.991  1.00  0.00    -0.132 A  
HETATM   14  C   UNL     1      -9.565   5.459  69.308  1.00  0.00    -0.145 A  
HETATM   15  S   UNL     1      -8.534   4.751  70.565  1.00  0.00    -0.097 SA 
HETATM   16  C   UNL     1      -9.180   5.480  72.044  1.00  0.00    -0.140 A  
HETATM   17  C   UNL     1      -8.476   5.130  73.216  1.00  0.00    -0.113 A  
HETATM   18  C   UNL     1      -8.843   5.633  74.454  1.00  0.00    -0.121 A  
HETATM   19  C   UNL     1      -9.913   6.503  74.526  1.00  0.00    -0.358 A  
HETATM   20  C   UNL     1     -10.618   6.851  73.364  1.00  0.00    -0.372 A  
HETATM   21  C   UNL     1     -10.296   6.346  72.083  1.00  0.00    -0.189 A  
ENDBRANCH   7   8
ENDBRANCH   5   7
TORSDOF 2
ENDMDL
MODEL      104
REMARK 921   NORMALIZED FREE ENERGY PREDICTED BY IDOCK:   -4.55 KCAL/MOL
REMARK 922        TOTAL FREE ENERGY PREDICTED BY IDOCK:   -5.48 KCAL/MOL
REMARK 923 INTER-LIGAND FREE ENERGY PREDICTED BY IDOCK:   -5.02 KCAL/MOL
REMARK 924 INTRA-LIGAND FREE ENERGY PREDICTED BY IDOCK:   -0.46 KCAL/MOL
REMARK 927      BINDING AFFINITY PREDICTED BY RF-SCORE:    0.00 PKD
ROOT
HETATM    1  C   UNL     1      -8.313   2.597  65.665  1.00  0.00    -0.094 C  
HETATM    2  N   UNL     1      -9.126   3.259  66.673  1.00  0.00    -0.156 NA 
HETATM    3  C   UNL     1      -8.480   3.315  67.982  1.00  0.00    -0.086 C  
HETATM    4  C   UNL     1      -9.364   4.318  68.704  1.00  0.00    -0.213 C  
HETATM    5  C   UNL     1      -9.578   5.405  67.649  1.00  0.00    -0.142 C  
HETATM    6  C   UNL     1      -9.476   4.641  66.316  1.00  0.00    -0.167 C  
ENDROOT
BRANCH   5   7
HETATM    7  C   UNL     1     -10.889   6.204  67.750  1.00  0.00    -0.325 C  
BRANCH   7   8
HETATM    8  N   UNL     1     -10.730   7.517  68.432  1.00  0.00    -0.123 NA 
HETATM    9  C   UNL     1     -10.377   8.639  67.609  1.00  0.00    -0.254 A  
HETATM   10  C   UNL     1     -10.146   8.527  66.217  1.00  0.00    -0.174 A  
HETATM   11  C   UNL     1      -9.850   9.629  65.400  1.00  0.00    -0.322 A  
HETATM   12  C   UNL     1      -9.759  10.897  65.946  1.00  0.00    -0.269 A  
HETATM   13  C   UNL     1      -9.951  11.048  67.312  1.00  0.00    -0.210 A  
HETATM   14  C   UNL     1     -10.248   9.941  68.137  1.00  0.00    -0.179 A  
HETATM   15  S   UNL     1     -10.415  10.338  69.856  1.00  0.00    -0.226 SA 
HETATM   16  C   UNL     1     -10.907   8.789  70.560  1.00  0.00    -0.233 A  
HETATM   17  C   UNL     1     -11.181   8.844  71.944  1.00  0.00    -0.447 A  
HETATM   18  C   UNL     1     -11.598   7.720  72.640  1.00  0.00    -0.398 A  
HETATM   19  C   UNL     1     -11.756   6.534  71.952  1.00  0.00    -0.371 A  
HETATM   20  C   UNL     1     -11.481   6.474  70.577  1.00  0.00    -0.448 A  
HETATM   21  C   UNL     1     -11.033   7.586  69.829  1.00  0.00    -0.184 A  
ENDBRANCH   7   8
ENDBRANCH   5   7
TORSDOF 2
ENDMDL
MODEL      105
REMARK 921   NORMALIZED FREE ENERGY PREDICTED BY IDOCK:   -4.55 KCAL/MOL
REMARK 922        TOTAL FREE ENERGY PREDICTED BY IDOCK:   -5.47 KCAL/MOL
REMARK 923 INTER-LIGAND FREE ENERGY PREDICTED BY IDOCK:   -5.01 KCAL/MOL
REMARK 924 INTRA-LIGAND FREE ENERGY PREDICTED BY IDOCK:   -0.47 KCAL/MOL
REMARK 927      BINDING AFFINITY PREDICTED BY RF-SCORE:    0.00 PKD
ROOT
HETATM    1  C   UNL     1      -7.530   6.694  63.021  1.00  0.00    -0.081 C  
HETATM    2  N   UNL     1      -7.651   8.109  63.333  1.00  0.00    -0.124 NA 
HETATM    3  C   UNL     1      -8.571   8.814  62.444  1.00  0.00    -0.188 C  
HETATM    4  C   UNL     1      -8.755  10.125  63.190  1.00  0.00    -0.211 C  
HETATM    5  C   UNL     1      -8.920   9.671  64.641  1.00  0.00    -0.274 C  
HETATM    6  C   UNL     1      -8.115   8.360  64.704  1.00  0.00    -0.156 C  
ENDROOT
BRANCH   5   7
HETATM    7  C   UNL     1      -8.473  10.669  65.723  1.00  0.00    -0.178 C  
BRANCH   7   8
HETATM    8  N   UNL     1      -9.576  11.097  66.626  1.00  0.00    -0.187 NA 
HETATM    9  C   UNL     1      -9.675  10.429  67.893  1.00  0.00    -0.149 A  
HETATM   10  C   UNL     1      -8.803   9.383  68.280  1.00  0.00    -0.128 A  
HETATM   11  C   UNL     1      -8.864   8.763  69.537  1.00  0.00    -0.144 A  
HETATM   12  C   UNL     1      -9.815   9.155  70.462  1.00  0.00    -0.285 A  
HETATM   13  C   UNL     1     -10.708  10.159  70.114  1.00  0.00    -0.355 A  
HETATM   14  C   UNL     1     -10.650  10.785  68.849  1.00  0.00    -0.216 A  
HETATM   15  S   UNL     1     -11.902  12.010  68.585  1.00  0.00    -0.256 SA 
HETATM   16  C   UNL     1     -11.463  12.670  67.001  1.00  0.00    -0.346 A  
HETATM   17  C   UNL     1     -12.280  13.739  66.574  1.00  0.00    -0.475 A  
HETATM   18  C   UNL     1     -12.055  14.378  65.364  1.00  0.00    -0.364 A  
HETATM   19  C   UNL     1     -10.999  13.959  64.579  1.00  0.00    -0.379 A  
HETATM   20  C   UNL     1     -10.188  12.895  64.998  1.00  0.00    -0.289 A  
HETATM   21  C   UNL     1     -10.391  12.197  66.211  1.00  0.00    -0.221 A  
ENDBRANCH   7   8
ENDBRANCH   5   7
TORSDOF 2
ENDMDL
MODEL      106
REMARK 921   NORMALIZED FREE ENERGY PREDICTED BY IDOCK:   -4.54 KCAL/MOL
REMARK 922        TOTAL FREE ENERGY PREDICTED BY IDOCK:   -5.47 KCAL/MOL
REMARK 923 INTER-LIGAND FREE ENERGY PREDICTED BY IDOCK:   -5.19 KCAL/MOL
REMARK 924 INTRA-LIGAND FREE ENERGY PREDICTED BY IDOCK:   -0.27 KCAL/MOL
REMARK 927      BINDING AFFINITY PREDICTED BY RF-SCORE:    0.00 PKD
ROOT
HETATM    1  C   UNL     1      -7.536   9.673  70.418  1.00  0.00    -0.163 C  
HETATM    2  N   UNL     1      -8.144  10.209  69.211  1.00  0.00    -0.136 NA 
HETATM    3  C   UNL     1      -9.593  10.365  69.320  1.00  0.00    -0.209 C  
HETATM    4  C   UNL     1      -9.889  11.227  68.104  1.00  0.00    -0.190 C  
HETATM    5  C   UNL     1      -8.767  12.266  68.141  1.00  0.00    -0.186 C  
HETATM    6  C   UNL     1      -7.607  11.522  68.828  1.00  0.00    -0.129 C  
ENDROOT
BRANCH   5   7
HETATM    7  C   UNL     1      -8.343  12.861  66.788  1.00  0.00     0.045 C  
BRANCH   7   8
HETATM    8  N   UNL     1      -9.369  13.757  66.187  1.00  0.00    -0.149 NA 
HETATM    9  C   UNL     1      -9.330  15.140  66.572  1.00  0.00    -0.280 A  
HETATM   10  C   UNL     1      -8.396  15.651  67.505  1.00  0.00    -0.186 A  
HETATM   11  C   UNL     1      -8.322  17.010  67.845  1.00  0.00    -0.201 A  
HETATM   12  C   UNL     1      -9.193  17.920  67.274  1.00  0.00    -0.254 A  
HETATM   13  C   UNL     1     -10.143  17.457  66.374  1.00  0.00    -0.330 A  
HETATM   14  C   UNL     1     -10.221  16.090  66.030  1.00  0.00    -0.341 A  
HETATM   15  S   UNL     1     -11.527  15.697  64.898  1.00  0.00    -0.171 SA 
HETATM   16  C   UNL     1     -11.257  13.974  64.586  1.00  0.00    -0.374 A  
HETATM   17  C   UNL     1     -12.141  13.414  63.639  1.00  0.00    -0.513 A  
HETATM   18  C   UNL     1     -12.048  12.081  63.268  1.00  0.00    -0.509 A  
HETATM   19  C   UNL     1     -11.058  11.302  63.835  1.00  0.00    -0.317 A  
HETATM   20  C   UNL     1     -10.181  11.855  64.780  1.00  0.00    -0.314 A  
HETATM   21  C   UNL     1     -10.250  13.202  65.206  1.00  0.00    -0.286 A  
ENDBRANCH   7   8
ENDBRANCH   5   7
TORSDOF 2
ENDMDL
MODEL      107
REMARK 921   NORMALIZED FREE ENERGY PREDICTED BY IDOCK:   -4.54 KCAL/MOL
REMARK 922        TOTAL FREE ENERGY PREDICTED BY IDOCK:   -5.46 KCAL/MOL
REMARK 923 INTER-LIGAND FREE ENERGY PREDICTED BY IDOCK:   -4.98 KCAL/MOL
REMARK 924 INTRA-LIGAND FREE ENERGY PREDICTED BY IDOCK:   -0.48 KCAL/MOL
REMARK 927      BINDING AFFINITY PREDICTED BY RF-SCORE:    0.00 PKD
ROOT
HETATM    1  C   UNL     1      -7.309   8.005  64.546  1.00  0.00    -0.089 C  
HETATM    2  N   UNL     1      -7.895   8.721  65.668  1.00  0.00    -0.094 NA 
HETATM    3  C   UNL     1      -9.241   9.215  65.393  1.00  0.00    -0.202 C  
HETATM    4  C   UNL     1      -9.708   9.592  66.789  1.00  0.00    -0.254 C  
HETATM    5  C   UNL     1      -9.232   8.412  67.638  1.00  0.00    -0.147 C  
HETATM    6  C   UNL     1      -7.986   7.906  66.888  1.00  0.00    -0.108 C  
ENDROOT
BRANCH   5   7
HETATM    7  C   UNL     1      -8.926   8.714  69.114  1.00  0.00    -0.142 C  
BRANCH   7   8
HETATM    8  N   UNL     1      -9.974   8.220  70.049  1.00  0.00    -0.186 NA 
HETATM    9  C   UNL     1      -9.833   6.876  70.533  1.00  0.00    -0.179 A  
HETATM   10  C   UNL     1      -8.778   6.022  70.129  1.00  0.00    -0.139 A  
HETATM   11  C   UNL     1      -8.608   4.725  70.638  1.00  0.00    -0.118 A  
HETATM   12  C   UNL     1      -9.498   4.219  71.567  1.00  0.00    -0.220 A  
HETATM   13  C   UNL     1     -10.562   5.013  71.970  1.00  0.00    -0.243 A  
HETATM   14  C   UNL     1     -10.737   6.318  71.460  1.00  0.00    -0.245 A  
HETATM   15  S   UNL     1     -12.179   7.150  72.068  1.00  0.00    -0.245 SA 
HETATM   16  C   UNL     1     -12.020   8.762  71.352  1.00  0.00    -0.310 A  
HETATM   17  C   UNL     1     -13.028   9.670  71.742  1.00  0.00    -0.514 A  
HETATM   18  C   UNL     1     -13.035  10.978  71.285  1.00  0.00    -0.472 A  
HETATM   19  C   UNL     1     -12.023  11.392  70.442  1.00  0.00    -0.465 A  
HETATM   20  C   UNL     1     -11.021  10.492  70.049  1.00  0.00    -0.351 A  
HETATM   21  C   UNL     1     -10.984   9.143  70.470  1.00  0.00    -0.258 A  
ENDBRANCH   7   8
ENDBRANCH   5   7
TORSDOF 2
ENDMDL
MODEL      108
REMARK 921   NORMALIZED FREE ENERGY PREDICTED BY IDOCK:   -4.51 KCAL/MOL
REMARK 922        TOTAL FREE ENERGY PREDICTED BY IDOCK:   -5.43 KCAL/MOL
REMARK 923 INTER-LIGAND FREE ENERGY PREDICTED BY IDOCK:   -5.34 KCAL/MOL
REMARK 924 INTRA-LIGAND FREE ENERGY PREDICTED BY IDOCK:   -0.09 KCAL/MOL
REMARK 927      BINDING AFFINITY PREDICTED BY RF-SCORE:    0.00 PKD
ROOT
HETATM    1  C   UNL     1      -6.164  11.591  70.006  1.00  0.00    -0.142 C  
HETATM    2  N   UNL     1      -7.211  11.340  69.028  1.00  0.00    -0.112 NA 
HETATM    3  C   UNL     1      -6.736  10.607  67.857  1.00  0.00    -0.064 C  
HETATM    4  C   UNL     1      -8.051  10.205  67.209  1.00  0.00    -0.114 C  
HETATM    5  C   UNL     1      -8.891   9.744  68.401  1.00  0.00    -0.120 C  
HETATM    6  C   UNL     1      -8.340  10.574  69.575  1.00  0.00    -0.061 C  
ENDROOT
BRANCH   5   7
HETATM    7  C   UNL     1     -10.415   9.897  68.260  1.00  0.00    -0.210 C  
BRANCH   7   8
HETATM    8  N   UNL     1     -11.150   9.708  69.540  1.00  0.00    -0.207 NA 
HETATM    9  C   UNL     1     -11.128   8.393  70.115  1.00  0.00    -0.182 A  
HETATM   10  C   UNL     1     -10.480   7.296  69.498  1.00  0.00    -0.238 A  
HETATM   11  C   UNL     1     -10.413   6.021  70.081  1.00  0.00    -0.309 A  
HETATM   12  C   UNL     1     -11.009   5.784  71.307  1.00  0.00    -0.299 A  
HETATM   13  C   UNL     1     -11.678   6.825  71.934  1.00  0.00    -0.349 A  
HETATM   14  C   UNL     1     -11.748   8.108  71.350  1.00  0.00    -0.285 A  
HETATM   15  S   UNL     1     -12.685   9.285  72.288  1.00  0.00    -0.328 SA 
HETATM   16  C   UNL     1     -12.457  10.778  71.363  1.00  0.00    -0.373 A  
HETATM   17  C   UNL     1     -13.057  11.915  71.945  1.00  0.00    -0.474 A  
HETATM   18  C   UNL     1     -12.954  13.166  71.355  1.00  0.00    -0.386 A  
HETATM   19  C   UNL     1     -12.235  13.289  70.182  1.00  0.00    -0.376 A  
HETATM   20  C   UNL     1     -11.641  12.160  69.599  1.00  0.00    -0.361 A  
HETATM   21  C   UNL     1     -11.737  10.862  70.150  1.00  0.00    -0.347 A  
ENDBRANCH   7   8
ENDBRANCH   5   7
TORSDOF 2
ENDMDL
MODEL      109
REMARK 921   NORMALIZED FREE ENERGY PREDICTED BY IDOCK:   -4.50 KCAL/MOL
REMARK 922        TOTAL FREE ENERGY PREDICTED BY IDOCK:   -5.42 KCAL/MOL
REMARK 923 INTER-LIGAND FREE ENERGY PREDICTED BY IDOCK:   -5.42 KCAL/MOL
REMARK 924 INTRA-LIGAND FREE ENERGY PREDICTED BY IDOCK:    0.01 KCAL/MOL
REMARK 927      BINDING AFFINITY PREDICTED BY RF-SCORE:    0.00 PKD
ROOT
HETATM    1  C   UNL     1      -7.423   7.893  72.977  1.00  0.00    -0.117 C  
HETATM    2  N   UNL     1      -8.702   7.292  72.635  1.00  0.00    -0.120 NA 
HETATM    3  C   UNL     1      -9.243   6.453  73.701  1.00  0.00    -0.131 C  
HETATM    4  C   UNL     1     -10.673   6.255  73.223  1.00  0.00    -0.284 C  
HETATM    5  C   UNL     1     -11.072   7.655  72.756  1.00  0.00    -0.437 C  
HETATM    6  C   UNL     1      -9.738   8.284  72.313  1.00  0.00    -0.292 C  
ENDROOT
BRANCH   5   7
HETATM    7  C   UNL     1     -12.133   7.725  71.645  1.00  0.00    -0.304 C  
BRANCH   7   8
HETATM    8  N   UNL     1     -11.700   8.518  70.462  1.00  0.00    -0.147 NA 
HETATM    9  C   UNL     1     -11.922   9.936  70.511  1.00  0.00    -0.239 A  
HETATM   10  C   UNL     1     -12.555  10.575  71.604  1.00  0.00    -0.498 A  
HETATM   11  C   UNL     1     -12.728  11.966  71.680  1.00  0.00    -0.340 A  
HETATM   12  C   UNL     1     -12.285  12.780  70.652  1.00  0.00    -0.374 A  
HETATM   13  C   UNL     1     -11.683  12.191  69.550  1.00  0.00    -0.402 A  
HETATM   14  C   UNL     1     -11.508  10.792  69.470  1.00  0.00    -0.294 A  
HETATM   15  S   UNL     1     -10.758  10.237  67.963  1.00  0.00    -0.274 SA 
HETATM   16  C   UNL     1     -10.569   8.499  68.249  1.00  0.00    -0.119 A  
HETATM   17  C   UNL     1      -9.916   7.810  67.204  1.00  0.00    -0.298 A  
HETATM   18  C   UNL     1      -9.672   6.447  67.283  1.00  0.00    -0.155 A  
HETATM   19  C   UNL     1     -10.069   5.767  68.417  1.00  0.00    -0.216 A  
HETATM   20  C   UNL     1     -10.722   6.447  69.455  1.00  0.00    -0.347 A  
HETATM   21  C   UNL     1     -11.013   7.830  69.412  1.00  0.00    -0.035 A  
ENDBRANCH   7   8
ENDBRANCH   5   7
TORSDOF 2
ENDMDL
MODEL      110
REMARK 921   NORMALIZED FREE ENERGY PREDICTED BY IDOCK:   -4.46 KCAL/MOL
REMARK 922        TOTAL FREE ENERGY PREDICTED BY IDOCK:   -5.37 KCAL/MOL
REMARK 923 INTER-LIGAND FREE ENERGY PREDICTED BY IDOCK:   -5.00 KCAL/MOL
REMARK 924 INTRA-LIGAND FREE ENERGY PREDICTED BY IDOCK:   -0.38 KCAL/MOL
REMARK 927      BINDING AFFINITY PREDICTED BY RF-SCORE:    0.00 PKD
ROOT
HETATM    1  C   UNL     1     -10.815  15.669  65.573  1.00  0.00    -0.346 C  
HETATM    2  N   UNL     1     -10.848  14.714  66.669  1.00  0.00    -0.306 NA 
HETATM    3  C   UNL     1     -12.127  14.017  66.784  1.00  0.00    -0.447 C  
HETATM    4  C   UNL     1     -11.766  12.893  67.740  1.00  0.00    -0.412 C  
HETATM    5  C   UNL     1     -10.413  12.415  67.209  1.00  0.00    -0.237 C  
HETATM    6  C   UNL     1      -9.812  13.677  66.563  1.00  0.00    -0.293 C  
ENDROOT
BRANCH   5   7
HETATM    7  C   UNL     1      -9.458  11.791  68.241  1.00  0.00    -0.193 C  
BRANCH   7   8
HETATM    8  N   UNL     1      -9.514  10.305  68.276  1.00  0.00    -0.140 NA 
HETATM    9  C   UNL     1     -10.345   9.709  69.285  1.00  0.00    -0.209 A  
HETATM   10  C   UNL     1     -11.059  10.471  70.240  1.00  0.00    -0.359 A  
HETATM   11  C   UNL     1     -11.911   9.896  71.195  1.00  0.00    -0.472 A  
HETATM   12  C   UNL     1     -12.075   8.523  71.245  1.00  0.00    -0.323 A  
HETATM   13  C   UNL     1     -11.372   7.736  70.344  1.00  0.00    -0.219 A  
HETATM   14  C   UNL     1     -10.514   8.312  69.382  1.00  0.00    -0.220 A  
HETATM   15  S   UNL     1      -9.677   7.134  68.355  1.00  0.00    -0.144 SA 
HETATM   16  C   UNL     1      -8.816   8.172  67.207  1.00  0.00    -0.130 A  
HETATM   17  C   UNL     1      -8.107   7.468  66.210  1.00  0.00    -0.113 A  
HETATM   18  C   UNL     1      -7.398   8.135  65.224  1.00  0.00    -0.073 A  
HETATM   19  C   UNL     1      -7.403   9.516  65.222  1.00  0.00    -0.104 A  
HETATM   20  C   UNL     1      -8.102  10.220  66.213  1.00  0.00    -0.129 A  
HETATM   21  C   UNL     1      -8.822   9.584  67.252  1.00  0.00    -0.128 A  
ENDBRANCH   7   8
ENDBRANCH   5   7
TORSDOF 2
ENDMDL
MODEL      111
REMARK 921   NORMALIZED FREE ENERGY PREDICTED BY IDOCK:   -4.45 KCAL/MOL
REMARK 922        TOTAL FREE ENERGY PREDICTED BY IDOCK:   -5.36 KCAL/MOL
REMARK 923 INTER-LIGAND FREE ENERGY PREDICTED BY IDOCK:   -5.43 KCAL/MOL
REMARK 924 INTRA-LIGAND FREE ENERGY PREDICTED BY IDOCK:    0.06 KCAL/MOL
REMARK 927      BINDING AFFINITY PREDICTED BY RF-SCORE:    0.00 PKD
ROOT
HETATM    1  C   UNL     1      -7.595  11.726  67.683  1.00  0.00    -0.132 C  
HETATM    2  N   UNL     1      -9.048  11.737  67.737  1.00  0.00    -0.171 NA 
HETATM    3  C   UNL     1      -9.595  10.707  68.618  1.00  0.00    -0.179 C  
HETATM    4  C   UNL     1     -11.040  11.164  68.742  1.00  0.00    -0.291 C  
HETATM    5  C   UNL     1     -10.904  12.674  68.936  1.00  0.00    -0.238 C  
HETATM    6  C   UNL     1      -9.599  13.019  68.196  1.00  0.00    -0.227 C  
ENDROOT
BRANCH   5   7
HETATM    7  C   UNL     1     -12.083  13.533  68.447  1.00  0.00    -0.258 C  
BRANCH   7   8
HETATM    8  N   UNL     1     -11.734  14.422  67.306  1.00  0.00    -0.389 NA 
HETATM    9  C   UNL     1     -11.160  15.698  67.627  1.00  0.00    -0.305 A  
HETATM   10  C   UNL     1     -10.957  16.135  68.958  1.00  0.00    -0.312 A  
HETATM   11  C   UNL     1     -10.351  17.360  69.277  1.00  0.00    -0.212 A  
HETATM   12  C   UNL     1      -9.930  18.211  68.271  1.00  0.00    -0.380 A  
HETATM   13  C   UNL     1     -10.134  17.834  66.952  1.00  0.00    -0.342 A  
HETATM   14  C   UNL     1     -10.745  16.603  66.628  1.00  0.00    -0.124 A  
HETATM   15  S   UNL     1     -10.952  16.328  64.889  1.00  0.00    -0.167 SA 
HETATM   16  C   UNL     1     -11.603  14.681  64.838  1.00  0.00    -0.405 A  
HETATM   17  C   UNL     1     -11.799  14.178  63.533  1.00  0.00     0.278 A  
HETATM   18  C   UNL     1     -12.283  12.897  63.321  1.00  0.00    -0.481 A  
HETATM   19  C   UNL     1     -12.563  12.104  64.417  1.00  0.00    -0.377 A  
HETATM   20  C   UNL     1     -12.374  12.602  65.715  1.00  0.00    -0.323 A  
HETATM   21  C   UNL     1     -11.904  13.908  65.981  1.00  0.00    -0.393 A  
ENDBRANCH   7   8
ENDBRANCH   5   7
TORSDOF 2
ENDMDL
MODEL      112
REMARK 921   NORMALIZED FREE ENERGY PREDICTED BY IDOCK:   -4.45 KCAL/MOL
REMARK 922        TOTAL FREE ENERGY PREDICTED BY IDOCK:   -5.36 KCAL/MOL
REMARK 923 INTER-LIGAND FREE ENERGY PREDICTED BY IDOCK:   -5.08 KCAL/MOL
REMARK 924 INTRA-LIGAND FREE ENERGY PREDICTED BY IDOCK:   -0.28 KCAL/MOL
REMARK 927      BINDING AFFINITY PREDICTED BY RF-SCORE:    0.00 PKD
ROOT
HETATM    1  C   UNL     1      -7.961   8.658  70.863  1.00  0.00    -0.122 C  
HETATM    2  N   UNL     1      -8.403   9.287  69.629  1.00  0.00    -0.129 NA 
HETATM    3  C   UNL     1      -9.857   9.329  69.496  1.00  0.00    -0.181 C  
HETATM    4  C   UNL     1     -10.020  10.304  68.341  1.00  0.00    -0.173 C  
HETATM    5  C   UNL     1      -9.017  11.407  68.683  1.00  0.00    -0.133 C  
HETATM    6  C   UNL     1      -7.928  10.670  69.483  1.00  0.00    -0.069 C  
ENDROOT
BRANCH   5   7
HETATM    7  C   UNL     1      -8.427  12.182  67.494  1.00  0.00    -0.169 C  
BRANCH   7   8
HETATM    8  N   UNL     1      -9.398  13.108  66.850  1.00  0.00    -0.240 NA 
HETATM    9  C   UNL     1      -9.999  12.670  65.622  1.00  0.00    -0.242 A  
HETATM   10  C   UNL     1      -9.676  11.436  65.006  1.00  0.00    -0.286 A  
HETATM   11  C   UNL     1     -10.297  10.981  63.833  1.00  0.00    -0.436 A  
HETATM   12  C   UNL     1     -11.265  11.751  63.214  1.00  0.00    -0.357 A  
HETATM   13  C   UNL     1     -11.594  12.980  63.769  1.00  0.00    -0.517 A  
HETATM   14  C   UNL     1     -10.970  13.441  64.949  1.00  0.00    -0.342 A  
HETATM   15  S   UNL     1     -11.498  15.051  65.470  1.00  0.00    -0.208 SA 
HETATM   16  C   UNL     1     -10.642  15.254  67.008  1.00  0.00    -0.306 A  
HETATM   17  C   UNL     1     -10.948  16.454  67.684  1.00  0.00    -0.225 A  
HETATM   18  C   UNL     1     -10.377  16.755  68.911  1.00  0.00    -0.317 A  
HETATM   19  C   UNL     1      -9.504  15.846  69.477  1.00  0.00    -0.219 A  
HETATM   20  C   UNL     1      -9.195  14.654  68.805  1.00  0.00    -0.184 A  
HETATM   21  C   UNL     1      -9.734  14.314  67.543  1.00  0.00    -0.223 A  
ENDBRANCH   7   8
ENDBRANCH   5   7
TORSDOF 2
ENDMDL
MODEL      113
REMARK 921   NORMALIZED FREE ENERGY PREDICTED BY IDOCK:   -4.43 KCAL/MOL
REMARK 922        TOTAL FREE ENERGY PREDICTED BY IDOCK:   -5.34 KCAL/MOL
REMARK 923 INTER-LIGAND FREE ENERGY PREDICTED BY IDOCK:   -5.00 KCAL/MOL
REMARK 924 INTRA-LIGAND FREE ENERGY PREDICTED BY IDOCK:   -0.35 KCAL/MOL
REMARK 927      BINDING AFFINITY PREDICTED BY RF-SCORE:    0.00 PKD
ROOT
HETATM    1  C   UNL     1      -9.451   7.774  71.070  1.00  0.00    -0.155 C  
HETATM    2  N   UNL     1      -9.358   8.365  69.745  1.00  0.00    -0.157 NA 
HETATM    3  C   UNL     1     -10.336   7.821  68.806  1.00  0.00    -0.204 C  
HETATM    4  C   UNL     1     -10.240   8.823  67.667  1.00  0.00    -0.298 C  
HETATM    5  C   UNL     1     -10.197  10.166  68.398  1.00  0.00    -0.192 C  
HETATM    6  C   UNL     1      -9.543   9.823  69.749  1.00  0.00    -0.230 C  
ENDROOT
BRANCH   5   7
HETATM    7  C   UNL     1      -9.459  11.309  67.680  1.00  0.00    -0.167 C  
BRANCH   7   8
HETATM    8  N   UNL     1      -9.361  11.117  66.207  1.00  0.00    -0.189 NA 
HETATM    9  C   UNL     1     -10.452  11.608  65.413  1.00  0.00    -0.275 A  
HETATM   10  C   UNL     1     -11.599  12.216  65.977  1.00  0.00    -0.420 A  
HETATM   11  C   UNL     1     -12.644  12.742  65.202  1.00  0.00    -0.513 A  
HETATM   12  C   UNL     1     -12.593  12.670  63.822  1.00  0.00    -0.436 A  
HETATM   13  C   UNL     1     -11.498  12.057  63.228  1.00  0.00    -0.398 A  
HETATM   14  C   UNL     1     -10.445  11.526  64.005  1.00  0.00    -0.370 A  
HETATM   15  S   UNL     1      -9.164  10.748  63.059  1.00  0.00    -0.349 SA 
HETATM   16  C   UNL     1      -7.974  10.328  64.302  1.00  0.00    -0.132 A  
HETATM   17  C   UNL     1      -6.792   9.744  63.797  1.00  0.00    -0.119 A  
HETATM   18  C   UNL     1      -5.754   9.376  64.638  1.00  0.00    -0.069 A  
HETATM   19  C   UNL     1      -5.887   9.603  65.994  1.00  0.00    -0.061 A  
HETATM   20  C   UNL     1      -7.061  10.180  66.500  1.00  0.00    -0.103 A  
HETATM   21  C   UNL     1      -8.155  10.551  65.685  1.00  0.00    -0.161 A  
ENDBRANCH   7   8
ENDBRANCH   5   7
TORSDOF 2
ENDMDL
MODEL      114
REMARK 921   NORMALIZED FREE ENERGY PREDICTED BY IDOCK:   -4.43 KCAL/MOL
REMARK 922        TOTAL FREE ENERGY PREDICTED BY IDOCK:   -5.34 KCAL/MOL
REMARK 923 INTER-LIGAND FREE ENERGY PREDICTED BY IDOCK:   -4.95 KCAL/MOL
REMARK 924 INTRA-LIGAND FREE ENERGY PREDICTED BY IDOCK:   -0.39 KCAL/MOL
REMARK 927      BINDING AFFINITY PREDICTED BY RF-SCORE:    0.00 PKD
ROOT
HETATM    1  C   UNL     1      -7.562   3.560  64.970  1.00  0.00    -0.077 C  
HETATM    2  N   UNL     1      -8.440   3.905  66.077  1.00  0.00    -0.109 NA 
HETATM    3  C   UNL     1      -7.758   3.909  67.369  1.00  0.00    -0.079 C  
HETATM    4  C   UNL     1      -8.786   4.610  68.242  1.00  0.00    -0.122 C  
HETATM    5  C   UNL     1      -9.254   5.766  67.357  1.00  0.00    -0.109 C  
HETATM    6  C   UNL     1      -9.067   5.226  65.927  1.00  0.00    -0.155 C  
ENDROOT
BRANCH   5   7
HETATM    7  C   UNL     1     -10.688   6.268  67.594  1.00  0.00    -0.313 C  
BRANCH   7   8
HETATM    8  N   UNL     1     -10.748   7.561  68.330  1.00  0.00    -0.127 NA 
HETATM    9  C   UNL     1     -10.991   7.494  69.743  1.00  0.00    -0.184 A  
HETATM   10  C   UNL     1     -11.205   6.274  70.429  1.00  0.00    -0.439 A  
HETATM   11  C   UNL     1     -11.393   6.200  71.817  1.00  0.00    -0.346 A  
HETATM   12  C   UNL     1     -11.388   7.352  72.583  1.00  0.00    -0.360 A  
HETATM   13  C   UNL     1     -11.208   8.573  71.948  1.00  0.00    -0.397 A  
HETATM   14  C   UNL     1     -11.020   8.651  70.550  1.00  0.00    -0.238 A  
HETATM   15  S   UNL     1     -10.852  10.302  69.929  1.00  0.00    -0.311 SA 
HETATM   16  C   UNL     1     -10.503  10.031  68.214  1.00  0.00    -0.213 A  
HETATM   17  C   UNL     1     -10.251  11.212  67.482  1.00  0.00    -0.216 A  
HETATM   18  C   UNL     1      -9.942  11.170  66.132  1.00  0.00    -0.273 A  
HETATM   19  C   UNL     1      -9.871   9.941  65.505  1.00  0.00    -0.381 A  
HETATM   20  C   UNL     1     -10.126   8.766  66.228  1.00  0.00    -0.254 A  
HETATM   21  C   UNL     1     -10.466   8.759  67.601  1.00  0.00    -0.244 A  
ENDBRANCH   7   8
ENDBRANCH   5   7
TORSDOF 2
ENDMDL
MODEL      115
REMARK 921   NORMALIZED FREE ENERGY PREDICTED BY IDOCK:   -4.43 KCAL/MOL
REMARK 922        TOTAL FREE ENERGY PREDICTED BY IDOCK:   -5.34 KCAL/MOL
REMARK 923 INTER-LIGAND FREE ENERGY PREDICTED BY IDOCK:   -4.94 KCAL/MOL
REMARK 924 INTRA-LIGAND FREE ENERGY PREDICTED BY IDOCK:   -0.40 KCAL/MOL
REMARK 927      BINDING AFFINITY PREDICTED BY RF-SCORE:    0.00 PKD
ROOT
HETATM    1  C   UNL     1      -9.350   3.647  66.289  1.00  0.00    -0.178 C  
HETATM    2  N   UNL     1      -8.730   4.963  66.275  1.00  0.00    -0.114 NA 
HETATM    3  C   UNL     1      -8.736   5.584  64.953  1.00  0.00    -0.065 C  
HETATM    4  C   UNL     1      -8.362   7.016  65.299  1.00  0.00    -0.100 C  
HETATM    5  C   UNL     1      -9.211   7.299  66.539  1.00  0.00    -0.195 C  
HETATM    6  C   UNL     1      -9.375   5.914  67.191  1.00  0.00    -0.116 C  
ENDROOT
BRANCH   5   7
HETATM    7  C   UNL     1      -8.648   8.333  67.529  1.00  0.00    -0.129 C  
BRANCH   7   8
HETATM    8  N   UNL     1      -9.692   9.206  68.131  1.00  0.00    -0.151 NA 
HETATM    9  C   UNL     1     -10.024   8.969  69.508  1.00  0.00    -0.191 A  
HETATM   10  C   UNL     1      -9.430   7.937  70.273  1.00  0.00    -0.163 A  
HETATM   11  C   UNL     1      -9.714   7.734  71.633  1.00  0.00    -0.200 A  
HETATM   12  C   UNL     1     -10.619   8.551  72.285  1.00  0.00    -0.408 A  
HETATM   13  C   UNL     1     -11.244   9.559  71.565  1.00  0.00    -0.437 A  
HETATM   14  C   UNL     1     -10.962   9.766  70.197  1.00  0.00    -0.291 A  
HETATM   15  S   UNL     1     -11.895  11.074  69.450  1.00  0.00    -0.344 SA 
HETATM   16  C   UNL     1     -11.212  11.147  67.818  1.00  0.00    -0.294 A  
HETATM   17  C   UNL     1     -11.744  12.179  67.015  1.00  0.00    -0.373 A  
HETATM   18  C   UNL     1     -11.300  12.383  65.717  1.00  0.00    -0.393 A  
HETATM   19  C   UNL     1     -10.309  11.562  65.219  1.00  0.00    -0.322 A  
HETATM   20  C   UNL     1      -9.780  10.533  66.012  1.00  0.00    -0.257 A  
HETATM   21  C   UNL     1     -10.216  10.272  67.332  1.00  0.00    -0.218 A  
ENDBRANCH   7   8
ENDBRANCH   5   7
TORSDOF 2
ENDMDL
MODEL      116
REMARK 921   NORMALIZED FREE ENERGY PREDICTED BY IDOCK:   -4.39 KCAL/MOL
REMARK 922        TOTAL FREE ENERGY PREDICTED BY IDOCK:   -5.30 KCAL/MOL
REMARK 923 INTER-LIGAND FREE ENERGY PREDICTED BY IDOCK:   -4.90 KCAL/MOL
REMARK 924 INTRA-LIGAND FREE ENERGY PREDICTED BY IDOCK:   -0.40 KCAL/MOL
REMARK 927      BINDING AFFINITY PREDICTED BY RF-SCORE:    0.00 PKD
ROOT
HETATM    1  C   UNL     1      -7.817   6.490  63.961  1.00  0.00    -0.108 C  
HETATM    2  N   UNL     1      -7.809   7.936  64.118  1.00  0.00    -0.132 NA 
HETATM    3  C   UNL     1      -8.565   8.629  63.078  1.00  0.00    -0.042 C  
HETATM    4  C   UNL     1      -8.668  10.025  63.669  1.00  0.00    -0.227 C  
HETATM    5  C   UNL     1      -9.007   9.751  65.135  1.00  0.00    -0.237 C  
HETATM    6  C   UNL     1      -8.360   8.380  65.406  1.00  0.00    -0.157 C  
ENDROOT
BRANCH   5   7
HETATM    7  C   UNL     1      -8.549  10.810  66.151  1.00  0.00    -0.168 C  
BRANCH   7   8
HETATM    8  N   UNL     1      -9.648  11.311  67.021  1.00  0.00    -0.177 NA 
HETATM    9  C   UNL     1     -10.471  12.361  66.489  1.00  0.00    -0.230 A  
HETATM   10  C   UNL     1     -10.250  12.939  65.216  1.00  0.00    -0.294 A  
HETATM   11  C   UNL     1     -11.082  13.929  64.671  1.00  0.00    -0.389 A  
HETATM   12  C   UNL     1     -12.170  14.396  65.387  1.00  0.00    -0.362 A  
HETATM   13  C   UNL     1     -12.408  13.875  66.651  1.00  0.00    -0.411 A  
HETATM   14  C   UNL     1     -11.572  12.879  67.203  1.00  0.00    -0.363 A  
HETATM   15  S   UNL     1     -12.019  12.379  68.843  1.00  0.00    -0.162 SA 
HETATM   16  C   UNL     1     -10.880  11.061  69.164  1.00  0.00    -0.237 A  
HETATM   17  C   UNL     1     -11.070  10.424  70.409  1.00  0.00    -0.371 A  
HETATM   18  C   UNL     1     -10.274   9.360  70.803  1.00  0.00    -0.368 A  
HETATM   19  C   UNL     1      -9.287   8.917  69.944  1.00  0.00    -0.172 A  
HETATM   20  C   UNL     1      -9.092   9.550  68.707  1.00  0.00    -0.133 A  
HETATM   21  C   UNL     1      -9.864  10.652  68.272  1.00  0.00    -0.163 A  
ENDBRANCH   7   8
ENDBRANCH   5   7
TORSDOF 2
ENDMDL
MODEL      117
REMARK 921   NORMALIZED FREE ENERGY PREDICTED BY IDOCK:   -4.35 KCAL/MOL
REMARK 922        TOTAL FREE ENERGY PREDICTED BY IDOCK:   -5.26 KCAL/MOL
REMARK 923 INTER-LIGAND FREE ENERGY PREDICTED BY IDOCK:   -4.77 KCAL/MOL
REMARK 924 INTRA-LIGAND FREE ENERGY PREDICTED BY IDOCK:   -0.49 KCAL/MOL
REMARK 927      BINDING AFFINITY PREDICTED BY RF-SCORE:    0.00 PKD
ROOT
HETATM    1  C   UNL     1      -9.894  11.680  63.013  1.00  0.00    -0.305 C  
HETATM    2  N   UNL     1      -9.694  11.456  64.435  1.00  0.00    -0.241 NA 
HETATM    3  C   UNL     1     -10.864  11.799  65.239  1.00  0.00    -0.290 C  
HETATM    4  C   UNL     1     -10.503  11.163  66.572  1.00  0.00    -0.305 C  
HETATM    5  C   UNL     1      -9.940   9.802  66.158  1.00  0.00    -0.338 C  
HETATM    6  C   UNL     1      -9.355  10.063  64.758  1.00  0.00    -0.271 C  
ENDROOT
BRANCH   5   7
HETATM    7  C   UNL     1      -8.901   9.178  67.105  1.00  0.00    -0.119 C  
BRANCH   7   8
HETATM    8  N   UNL     1      -9.417   8.002  67.857  1.00  0.00    -0.144 NA 
HETATM    9  C   UNL     1      -9.244   6.713  67.249  1.00  0.00    -0.125 A  
HETATM   10  C   UNL     1      -8.650   6.540  65.976  1.00  0.00    -0.150 A  
HETATM   11  C   UNL     1      -8.433   5.279  65.399  1.00  0.00    -0.145 A  
HETATM   12  C   UNL     1      -8.817   4.131  66.069  1.00  0.00    -0.121 A  
HETATM   13  C   UNL     1      -9.429   4.258  67.308  1.00  0.00    -0.209 A  
HETATM   14  C   UNL     1      -9.649   5.525  67.891  1.00  0.00    -0.124 A  
HETATM   15  S   UNL     1     -10.481   5.472  69.455  1.00  0.00    -0.273 SA 
HETATM   16  C   UNL     1     -10.471   7.173  69.950  1.00  0.00    -0.223 A  
HETATM   17  C   UNL     1     -11.025   7.406  71.227  1.00  0.00    -0.263 A  
HETATM   18  C   UNL     1     -11.073   8.681  71.769  1.00  0.00    -0.396 A  
HETATM   19  C   UNL     1     -10.554   9.733  71.039  1.00  0.00    -0.295 A  
HETATM   20  C   UNL     1     -10.006   9.505  69.768  1.00  0.00    -0.234 A  
HETATM   21  C   UNL     1      -9.955   8.228  69.164  1.00  0.00    -0.196 A  
ENDBRANCH   7   8
ENDBRANCH   5   7
TORSDOF 2
ENDMDL
MODEL      118
REMARK 921   NORMALIZED FREE ENERGY PREDICTED BY IDOCK:   -4.35 KCAL/MOL
REMARK 922        TOTAL FREE ENERGY PREDICTED BY IDOCK:   -5.25 KCAL/MOL
REMARK 923 INTER-LIGAND FREE ENERGY PREDICTED BY IDOCK:   -4.92 KCAL/MOL
REMARK 924 INTRA-LIGAND FREE ENERGY PREDICTED BY IDOCK:   -0.33 KCAL/MOL
REMARK 927      BINDING AFFINITY PREDICTED BY RF-SCORE:    0.00 PKD
ROOT
HETATM    1  C   UNL     1      -6.835   4.703  71.527  1.00  0.00    -0.038 C  
HETATM    2  N   UNL     1      -7.696   5.754  71.010  1.00  0.00    -0.099 NA 
HETATM    3  C   UNL     1      -6.971   6.982  70.689  1.00  0.00    -0.062 C  
HETATM    4  C   UNL     1      -8.015   7.738  69.883  1.00  0.00    -0.110 C  
HETATM    5  C   UNL     1      -8.594   6.653  68.973  1.00  0.00    -0.130 C  
HETATM    6  C   UNL     1      -8.419   5.361  69.792  1.00  0.00    -0.100 C  
ENDROOT
BRANCH   5   7
HETATM    7  C   UNL     1     -10.051   6.850  68.520  1.00  0.00    -0.161 C  
BRANCH   7   8
HETATM    8  N   UNL     1     -10.560   8.230  68.747  1.00  0.00    -0.171 NA 
HETATM    9  C   UNL     1     -10.436   9.157  67.658  1.00  0.00    -0.261 A  
HETATM   10  C   UNL     1      -9.828   8.816  66.426  1.00  0.00    -0.352 A  
HETATM   11  C   UNL     1      -9.749   9.703  65.341  1.00  0.00    -0.365 A  
HETATM   12  C   UNL     1     -10.266  10.981  65.448  1.00  0.00    -0.333 A  
HETATM   13  C   UNL     1     -10.848  11.366  66.647  1.00  0.00    -0.339 A  
HETATM   14  C   UNL     1     -10.927  10.476  67.741  1.00  0.00    -0.313 A  
HETATM   15  S   UNL     1     -11.666  11.173  69.194  1.00  0.00    -0.363 SA 
HETATM   16  C   UNL     1     -11.730   9.785  70.293  1.00  0.00    -0.190 A  
HETATM   17  C   UNL     1     -12.354  10.056  71.530  1.00  0.00    -0.513 A  
HETATM   18  C   UNL     1     -12.502   9.070  72.493  1.00  0.00    -0.309 A  
HETATM   19  C   UNL     1     -12.037   7.799  72.218  1.00  0.00    -0.332 A  
HETATM   20  C   UNL     1     -11.412   7.527  70.991  1.00  0.00    -0.299 A  
HETATM   21  C   UNL     1     -11.218   8.504  69.988  1.00  0.00    -0.086 A  
ENDBRANCH   7   8
ENDBRANCH   5   7
TORSDOF 2
ENDMDL
MODEL      119
REMARK 921   NORMALIZED FREE ENERGY PREDICTED BY IDOCK:   -4.34 KCAL/MOL
REMARK 922        TOTAL FREE ENERGY PREDICTED BY IDOCK:   -5.24 KCAL/MOL
REMARK 923 INTER-LIGAND FREE ENERGY PREDICTED BY IDOCK:   -5.09 KCAL/MOL
REMARK 924 INTRA-LIGAND FREE ENERGY PREDICTED BY IDOCK:   -0.15 KCAL/MOL
REMARK 927      BINDING AFFINITY PREDICTED BY RF-SCORE:    0.00 PKD
ROOT
HETATM    1  C   UNL     1      -7.694   8.642  71.642  1.00  0.00    -0.108 C  
HETATM    2  N   UNL     1      -8.320   9.498  70.647  1.00  0.00    -0.244 NA 
HETATM    3  C   UNL     1      -7.380  10.419  70.013  1.00  0.00    -0.111 C  
HETATM    4  C   UNL     1      -8.202  10.913  68.834  1.00  0.00    -0.141 C  
HETATM    5  C   UNL     1      -8.850   9.631  68.309  1.00  0.00    -0.120 C  
HETATM    6  C   UNL     1      -8.967   8.745  69.563  1.00  0.00    -0.145 C  
ENDROOT
BRANCH   5   7
HETATM    7  C   UNL     1     -10.203   9.793  67.596  1.00  0.00    -0.213 C  
BRANCH   7   8
HETATM    8  N   UNL     1     -10.089  10.405  66.244  1.00  0.00    -0.224 NA 
HETATM    9  C   UNL     1      -9.370   9.658  65.250  1.00  0.00    -0.260 A  
HETATM   10  C   UNL     1      -8.753   8.414  65.523  1.00  0.00    -0.196 A  
HETATM   11  C   UNL     1      -8.093   7.657  64.543  1.00  0.00    -0.098 A  
HETATM   12  C   UNL     1      -8.008   8.123  63.243  1.00  0.00    -0.149 A  
HETATM   13  C   UNL     1      -8.576   9.352  62.938  1.00  0.00    -0.222 A  
HETATM   14  C   UNL     1      -9.241  10.116  63.922  1.00  0.00    -0.280 A  
HETATM   15  S   UNL     1      -9.858  11.673  63.342  1.00  0.00    -0.383 SA 
HETATM   16  C   UNL     1     -10.728  12.290  64.756  1.00  0.00    -0.300 A  
HETATM   17  C   UNL     1     -11.390  13.517  64.536  1.00  0.00    -0.386 A  
HETATM   18  C   UNL     1     -12.133  14.124  65.537  1.00  0.00    -0.421 A  
HETATM   19  C   UNL     1     -12.228  13.498  66.764  1.00  0.00    -0.392 A  
HETATM   20  C   UNL     1     -11.568  12.280  66.988  1.00  0.00    -0.418 A  
HETATM   21  C   UNL     1     -10.781  11.634  66.006  1.00  0.00    -0.280 A  
ENDBRANCH   7   8
ENDBRANCH   5   7
TORSDOF 2
ENDMDL
MODEL      120
REMARK 921   NORMALIZED FREE ENERGY PREDICTED BY IDOCK:   -4.33 KCAL/MOL
REMARK 922        TOTAL FREE ENERGY PREDICTED BY IDOCK:   -5.23 KCAL/MOL
REMARK 923 INTER-LIGAND FREE ENERGY PREDICTED BY IDOCK:   -5.06 KCAL/MOL
REMARK 924 INTRA-LIGAND FREE ENERGY PREDICTED BY IDOCK:   -0.16 KCAL/MOL
REMARK 927      BINDING AFFINITY PREDICTED BY RF-SCORE:    0.00 PKD
ROOT
HETATM    1  C   UNL     1      -5.788   9.332  68.360  1.00  0.00    -0.041 C  
HETATM    2  N   UNL     1      -7.018   9.221  67.592  1.00  0.00    -0.077 NA 
HETATM    3  C   UNL     1      -6.791   8.838  66.201  1.00  0.00    -0.073 C  
HETATM    4  C   UNL     1      -8.200   8.476  65.762  1.00  0.00    -0.125 C  
HETATM    5  C   UNL     1      -8.729   7.666  66.947  1.00  0.00    -0.132 C  
HETATM    6  C   UNL     1      -7.961   8.242  68.150  1.00  0.00    -0.123 C  
ENDROOT
BRANCH   5   7
HETATM    7  C   UNL     1     -10.250   7.700  67.171  1.00  0.00    -0.290 C  
BRANCH   7   8
HETATM    8  N   UNL     1     -10.652   8.444  68.395  1.00  0.00    -0.155 NA 
HETATM    9  C   UNL     1     -10.982   9.832  68.234  1.00  0.00    -0.164 A  
HETATM   10  C   UNL     1     -10.902  10.500  66.989  1.00  0.00    -0.288 A  
HETATM   11  C   UNL     1     -11.271  11.843  66.817  1.00  0.00    -0.384 A  
HETATM   12  C   UNL     1     -11.726  12.584  67.893  1.00  0.00    -0.416 A  
HETATM   13  C   UNL     1     -11.795  11.975  69.138  1.00  0.00    -0.369 A  
HETATM   14  C   UNL     1     -11.423  10.624  69.315  1.00  0.00    -0.281 A  
HETATM   15  S   UNL     1     -11.542  10.049  70.987  1.00  0.00    -0.391 SA 
HETATM   16  C   UNL     1     -11.145   8.330  70.828  1.00  0.00    -0.258 A  
HETATM   17  C   UNL     1     -11.237   7.603  72.034  1.00  0.00    -0.317 A  
HETATM   18  C   UNL     1     -10.978   6.241  72.076  1.00  0.00    -0.299 A  
HETATM   19  C   UNL     1     -10.637   5.595  70.904  1.00  0.00    -0.328 A  
HETATM   20  C   UNL     1     -10.541   6.315  69.704  1.00  0.00    -0.323 A  
HETATM   21  C   UNL     1     -10.774   7.707  69.616  1.00  0.00    -0.228 A  
ENDBRANCH   7   8
ENDBRANCH   5   7
TORSDOF 2
ENDMDL
MODEL      121
REMARK 921   NORMALIZED FREE ENERGY PREDICTED BY IDOCK:   -4.32 KCAL/MOL
REMARK 922        TOTAL FREE ENERGY PREDICTED BY IDOCK:   -5.22 KCAL/MOL
REMARK 923 INTER-LIGAND FREE ENERGY PREDICTED BY IDOCK:   -4.79 KCAL/MOL
REMARK 924 INTRA-LIGAND FREE ENERGY PREDICTED BY IDOCK:   -0.43 KCAL/MOL
REMARK 927      BINDING AFFINITY PREDICTED BY RF-SCORE:    0.00 PKD
ROOT
HETATM    1  C   UNL     1      -9.742   3.725  70.623  1.00  0.00    -0.165 C  
HETATM    2  N   UNL     1      -9.240   4.645  69.615  1.00  0.00    -0.113 NA 
HETATM    3  C   UNL     1      -9.697   4.319  68.266  1.00  0.00    -0.096 C  
HETATM    4  C   UNL     1      -9.323   5.587  67.515  1.00  0.00    -0.114 C  
HETATM    5  C   UNL     1      -9.759   6.694  68.476  1.00  0.00    -0.131 C  
HETATM    6  C   UNL     1      -9.625   6.041  69.864  1.00  0.00    -0.158 C  
ENDROOT
BRANCH   5   7
HETATM    7  C   UNL     1      -8.980   8.017  68.389  1.00  0.00    -0.133 C  
BRANCH   7   8
HETATM    8  N   UNL     1      -9.797   9.152  67.880  1.00  0.00    -0.162 NA 
HETATM    9  C   UNL     1     -10.610   9.849  68.837  1.00  0.00    -0.218 A  
HETATM   10  C   UNL     1     -10.683   9.474  70.200  1.00  0.00    -0.299 A  
HETATM   11  C   UNL     1     -11.436  10.182  71.148  1.00  0.00    -0.387 A  
HETATM   12  C   UNL     1     -12.166  11.295  70.769  1.00  0.00    -0.479 A  
HETATM   13  C   UNL     1     -12.144  11.681  69.436  1.00  0.00    -0.328 A  
HETATM   14  C   UNL     1     -11.387  10.970  68.479  1.00  0.00    -0.287 A  
HETATM   15  S   UNL     1     -11.527  11.598  66.828  1.00  0.00    -0.126 SA 
HETATM   16  C   UNL     1     -10.377  10.588  65.936  1.00  0.00    -0.206 A  
HETATM   17  C   UNL     1     -10.239  10.934  64.575  1.00  0.00    -0.422 A  
HETATM   18  C   UNL     1      -9.362  10.253  63.744  1.00  0.00    -0.339 A  
HETATM   19  C   UNL     1      -8.607   9.226  64.276  1.00  0.00    -0.214 A  
HETATM   20  C   UNL     1      -8.745   8.876  65.628  1.00  0.00    -0.213 A  
HETATM   21  C   UNL     1      -9.641   9.526  66.508  1.00  0.00    -0.201 A  
ENDBRANCH   7   8
ENDBRANCH   5   7
TORSDOF 2
ENDMDL
MODEL      122
REMARK 921   NORMALIZED FREE ENERGY PREDICTED BY IDOCK:   -4.32 KCAL/MOL
REMARK 922        TOTAL FREE ENERGY PREDICTED BY IDOCK:   -5.22 KCAL/MOL
REMARK 923 INTER-LIGAND FREE ENERGY PREDICTED BY IDOCK:   -5.17 KCAL/MOL
REMARK 924 INTRA-LIGAND FREE ENERGY PREDICTED BY IDOCK:   -0.05 KCAL/MOL
REMARK 927      BINDING AFFINITY PREDICTED BY RF-SCORE:    0.00 PKD
ROOT
HETATM    1  C   UNL     1     -10.143  11.527  63.119  1.00  0.00    -0.359 C  
HETATM    2  N   UNL     1     -10.321  12.104  64.441  1.00  0.00    -0.301 NA 
HETATM    3  C   UNL     1     -11.550  12.885  64.564  1.00  0.00    -0.350 C  
HETATM    4  C   UNL     1     -11.637  13.061  66.072  1.00  0.00    -0.409 C  
HETATM    5  C   UNL     1     -11.282  11.670  66.598  1.00  0.00    -0.362 C  
HETATM    6  C   UNL     1     -10.353  11.097  65.511  1.00  0.00    -0.268 C  
ENDROOT
BRANCH   5   7
HETATM    7  C   UNL     1     -10.633  11.613  67.991  1.00  0.00    -0.202 C  
BRANCH   7   8
HETATM    8  N   UNL     1      -9.913  12.863  68.360  1.00  0.00    -0.228 NA 
HETATM    9  C   UNL     1     -10.658  13.853  69.086  1.00  0.00    -0.100 A  
HETATM   10  C   UNL     1     -12.025  13.695  69.417  1.00  0.00    -0.394 A  
HETATM   11  C   UNL     1     -12.743  14.637  70.170  1.00  0.00    -0.268 A  
HETATM   12  C   UNL     1     -12.124  15.792  70.614  1.00  0.00    -0.424 A  
HETATM   13  C   UNL     1     -10.791  15.999  70.288  1.00  0.00    -0.327 A  
HETATM   14  C   UNL     1     -10.066  15.054  69.530  1.00  0.00    -0.166 A  
HETATM   15  S   UNL     1      -8.393  15.526  69.185  1.00  0.00    -0.265 SA 
HETATM   16  C   UNL     1      -7.754  14.093  68.361  1.00  0.00    -0.140 A  
HETATM   17  C   UNL     1      -6.384  14.180  68.031  1.00  0.00    -0.154 A  
HETATM   18  C   UNL     1      -5.728  13.134  67.401  1.00  0.00     0.029 A  
HETATM   19  C   UNL     1      -6.438  11.986  67.108  1.00  0.00    -0.142 A  
HETATM   20  C   UNL     1      -7.801  11.898  67.431  1.00  0.00    -0.158 A  
HETATM   21  C   UNL     1      -8.518  12.946  68.053  1.00  0.00    -0.178 A  
ENDBRANCH   7   8
ENDBRANCH   5   7
TORSDOF 2
ENDMDL
MODEL      123
REMARK 921   NORMALIZED FREE ENERGY PREDICTED BY IDOCK:   -4.30 KCAL/MOL
REMARK 922        TOTAL FREE ENERGY PREDICTED BY IDOCK:   -5.20 KCAL/MOL
REMARK 923 INTER-LIGAND FREE ENERGY PREDICTED BY IDOCK:   -5.01 KCAL/MOL
REMARK 924 INTRA-LIGAND FREE ENERGY PREDICTED BY IDOCK:   -0.19 KCAL/MOL
REMARK 927      BINDING AFFINITY PREDICTED BY RF-SCORE:    0.00 PKD
ROOT
HETATM    1  C   UNL     1      -6.179  10.285  64.827  1.00  0.00    -0.124 C  
HETATM    2  N   UNL     1      -7.228  10.227  65.833  1.00  0.00    -0.125 NA 
HETATM    3  C   UNL     1      -6.949  11.060  67.000  1.00  0.00    -0.117 C  
HETATM    4  C   UNL     1      -8.306  11.072  67.684  1.00  0.00    -0.117 C  
HETATM    5  C   UNL     1      -9.273  11.280  66.518  1.00  0.00    -0.200 C  
HETATM    6  C   UNL     1      -8.541  10.644  65.322  1.00  0.00    -0.169 C  
ENDROOT
BRANCH   5   7
HETATM    7  C   UNL     1     -10.688  10.703  66.694  1.00  0.00    -0.181 C  
BRANCH   7   8
HETATM    8  N   UNL     1     -11.042  10.428  68.113  1.00  0.00    -0.285 NA 
HETATM    9  C   UNL     1     -10.752   9.113  68.614  1.00  0.00    -0.118 A  
HETATM   10  C   UNL     1     -10.190   8.093  67.809  1.00  0.00    -0.288 A  
HETATM   11  C   UNL     1      -9.859   6.823  68.306  1.00  0.00    -0.144 A  
HETATM   12  C   UNL     1     -10.089   6.513  69.634  1.00  0.00    -0.209 A  
HETATM   13  C   UNL     1     -10.662   7.476  70.452  1.00  0.00    -0.248 A  
HETATM   14  C   UNL     1     -10.998   8.754  69.955  1.00  0.00    -0.209 A  
HETATM   15  S   UNL     1     -11.759   9.822  71.147  1.00  0.00    -0.407 SA 
HETATM   16  C   UNL     1     -11.918  11.343  70.252  1.00  0.00    -0.373 A  
HETATM   17  C   UNL     1     -12.445  12.408  71.012  1.00  0.00    -0.353 A  
HETATM   18  C   UNL     1     -12.613  13.670  70.463  1.00  0.00    -0.337 A  
HETATM   19  C   UNL     1     -12.241  13.877  69.149  1.00  0.00    -0.305 A  
HETATM   20  C   UNL     1     -11.720  12.819  68.389  1.00  0.00    -0.380 A  
HETATM   21  C   UNL     1     -11.551  11.511  68.898  1.00  0.00    -0.320 A  
ENDBRANCH   7   8
ENDBRANCH   5   7
TORSDOF 2
ENDMDL
MODEL      124
REMARK 921   NORMALIZED FREE ENERGY PREDICTED BY IDOCK:   -4.30 KCAL/MOL
REMARK 922        TOTAL FREE ENERGY PREDICTED BY IDOCK:   -5.19 KCAL/MOL
REMARK 923 INTER-LIGAND FREE ENERGY PREDICTED BY IDOCK:   -4.94 KCAL/MOL
REMARK 924 INTRA-LIGAND FREE ENERGY PREDICTED BY IDOCK:   -0.25 KCAL/MOL
REMARK 927      BINDING AFFINITY PREDICTED BY RF-SCORE:    0.00 PKD
ROOT
HETATM    1  C   UNL     1      -6.060   8.821  67.139  1.00  0.00    -0.055 C  
HETATM    2  N   UNL     1      -7.273   9.146  67.873  1.00  0.00    -0.079 NA 
HETATM    3  C   UNL     1      -7.023   9.954  69.064  1.00  0.00    -0.059 C  
HETATM    4  C   UNL     1      -8.431  10.409  69.412  1.00  0.00    -0.145 C  
HETATM    5  C   UNL     1      -9.012  10.791  68.050  1.00  0.00    -0.139 C  
HETATM    6  C   UNL     1      -8.258   9.879  67.066  1.00  0.00    -0.117 C  
ENDROOT
BRANCH   5   7
HETATM    7  C   UNL     1     -10.537  10.659  67.899  1.00  0.00    -0.228 C  
BRANCH   7   8
HETATM    8  N   UNL     1     -11.301  11.391  68.945  1.00  0.00    -0.242 NA 
HETATM    9  C   UNL     1     -11.853  10.608  70.015  1.00  0.00    -0.322 A  
HETATM   10  C   UNL     1     -11.726   9.200  70.080  1.00  0.00     0.037 A  
HETATM   11  C   UNL     1     -12.221   8.436  71.149  1.00  0.00    -0.248 A  
HETATM   12  C   UNL     1     -12.879   9.052  72.198  1.00  0.00    -0.478 A  
HETATM   13  C   UNL     1     -13.049  10.429  72.161  1.00  0.00    -0.427 A  
HETATM   14  C   UNL     1     -12.554  11.200  71.087  1.00  0.00    -0.409 A  
HETATM   15  S   UNL     1     -12.912  12.931  71.207  1.00  0.00    -0.139 SA 
HETATM   16  C   UNL     1     -12.053  13.597  69.808  1.00  0.00    -0.334 A  
HETATM   17  C   UNL     1     -12.119  15.003  69.706  1.00  0.00    -0.354 A  
HETATM   18  C   UNL     1     -11.481  15.680  68.678  1.00  0.00    -0.381 A  
HETATM   19  C   UNL     1     -10.761  14.953  67.751  1.00  0.00    -0.271 A  
HETATM   20  C   UNL     1     -10.698  13.555  67.847  1.00  0.00    -0.258 A  
HETATM   21  C   UNL     1     -11.348  12.819  68.863  1.00  0.00    -0.296 A  
ENDBRANCH   7   8
ENDBRANCH   5   7
TORSDOF 2
ENDMDL
MODEL      125
REMARK 921   NORMALIZED FREE ENERGY PREDICTED BY IDOCK:   -4.28 KCAL/MOL
REMARK 922        TOTAL FREE ENERGY PREDICTED BY IDOCK:   -5.17 KCAL/MOL
REMARK 923 INTER-LIGAND FREE ENERGY PREDICTED BY IDOCK:   -4.97 KCAL/MOL
REMARK 924 INTRA-LIGAND FREE ENERGY PREDICTED BY IDOCK:   -0.20 KCAL/MOL
REMARK 927      BINDING AFFINITY PREDICTED BY RF-SCORE:    0.00 PKD
ROOT
HETATM    1  C   UNL     1      -7.719   8.174  64.439  1.00  0.00    -0.126 C  
HETATM    2  N   UNL     1      -8.416   8.642  65.626  1.00  0.00    -0.147 NA 
HETATM    3  C   UNL     1      -9.447   7.715  66.087  1.00  0.00    -0.049 C  
HETATM    4  C   UNL     1      -9.746   8.272  67.470  1.00  0.00    -0.212 C  
HETATM    5  C   UNL     1      -8.353   8.572  68.025  1.00  0.00    -0.127 C  
HETATM    6  C   UNL     1      -7.519   8.875  66.767  1.00  0.00    -0.083 C  
ENDROOT
BRANCH   5   7
HETATM    7  C   UNL     1      -8.262   9.707  69.059  1.00  0.00    -0.113 C  
BRANCH   7   8
HETATM    8  N   UNL     1      -9.581  10.305  69.400  1.00  0.00    -0.223 NA 
HETATM    9  C   UNL     1     -10.027  11.402  68.588  1.00  0.00    -0.202 A  
HETATM   10  C   UNL     1      -9.254  11.938  67.530  1.00  0.00    -0.177 A  
HETATM   11  C   UNL     1      -9.707  12.977  66.703  1.00  0.00    -0.256 A  
HETATM   12  C   UNL     1     -10.955  13.537  66.908  1.00  0.00    -0.296 A  
HETATM   13  C   UNL     1     -11.735  13.060  67.952  1.00  0.00    -0.402 A  
HETATM   14  C   UNL     1     -11.282  12.015  68.787  1.00  0.00    -0.263 A  
HETATM   15  S   UNL     1     -12.407  11.581  70.086  1.00  0.00    -0.208 SA 
HETATM   16  C   UNL     1     -11.608  10.188  70.834  1.00  0.00    -0.372 A  
HETATM   17  C   UNL     1     -12.346   9.591  71.878  1.00  0.00    -0.450 A  
HETATM   18  C   UNL     1     -11.868   8.478  72.553  1.00  0.00    -0.398 A  
HETATM   19  C   UNL     1     -10.650   7.947  72.176  1.00  0.00    -0.312 A  
HETATM   20  C   UNL     1      -9.912   8.540  71.141  1.00  0.00    -0.265 A  
HETATM   21  C   UNL     1     -10.347   9.688  70.439  1.00  0.00    -0.291 A  
ENDBRANCH   7   8
ENDBRANCH   5   7
TORSDOF 2
ENDMDL
MODEL      126
REMARK 921   NORMALIZED FREE ENERGY PREDICTED BY IDOCK:   -4.28 KCAL/MOL
REMARK 922        TOTAL FREE ENERGY PREDICTED BY IDOCK:   -5.17 KCAL/MOL
REMARK 923 INTER-LIGAND FREE ENERGY PREDICTED BY IDOCK:   -5.00 KCAL/MOL
REMARK 924 INTRA-LIGAND FREE ENERGY PREDICTED BY IDOCK:   -0.17 KCAL/MOL
REMARK 927      BINDING AFFINITY PREDICTED BY RF-SCORE:    0.00 PKD
ROOT
HETATM    1  C   UNL     1     -12.410  13.728  64.833  1.00  0.00    -0.405 C  
HETATM    2  N   UNL     1     -11.347  14.347  65.609  1.00  0.00    -0.323 NA 
HETATM    3  C   UNL     1     -10.820  15.561  64.991  1.00  0.00    -0.450 C  
HETATM    4  C   UNL     1     -10.013  16.148  66.138  1.00  0.00    -0.357 C  
HETATM    5  C   UNL     1     -10.942  15.961  67.338  1.00  0.00    -0.257 C  
HETATM    6  C   UNL     1     -11.765  14.713  66.969  1.00  0.00    -0.362 C  
ENDROOT
BRANCH   5   7
HETATM    7  C   UNL     1     -10.261  15.812  68.709  1.00  0.00    -0.217 C  
BRANCH   7   8
HETATM    8  N   UNL     1      -8.775  15.847  68.639  1.00  0.00    -0.187 NA 
HETATM    9  C   UNL     1      -8.104  14.597  68.420  1.00  0.00    -0.147 A  
HETATM   10  C   UNL     1      -8.793  13.366  68.310  1.00  0.00    -0.172 A  
HETATM   11  C   UNL     1      -8.147  12.148  68.045  1.00  0.00    -0.155 A  
HETATM   12  C   UNL     1      -6.772  12.109  67.893  1.00  0.00    -0.085 A  
HETATM   13  C   UNL     1      -6.055  13.290  68.020  1.00  0.00    -0.122 A  
HETATM   14  C   UNL     1      -6.702  14.516  68.287  1.00  0.00    -0.116 A  
HETATM   15  S   UNL     1      -5.605  15.897  68.456  1.00  0.00    -0.105 SA 
HETATM   16  C   UNL     1      -6.727  17.255  68.643  1.00  0.00    -0.192 A  
HETATM   17  C   UNL     1      -6.098  18.516  68.729  1.00  0.00    -0.222 A  
HETATM   18  C   UNL     1      -6.838  19.682  68.857  1.00  0.00    -0.377 A  
HETATM   19  C   UNL     1      -8.215  19.594  68.888  1.00  0.00    -0.249 A  
HETATM   20  C   UNL     1      -8.844  18.342  68.807  1.00  0.00    -0.235 A  
HETATM   21  C   UNL     1      -8.133  17.125  68.698  1.00  0.00    -0.264 A  
ENDBRANCH   7   8
ENDBRANCH   5   7
TORSDOF 2
ENDMDL
MODEL      127
REMARK 921   NORMALIZED FREE ENERGY PREDICTED BY IDOCK:   -4.26 KCAL/MOL
REMARK 922        TOTAL FREE ENERGY PREDICTED BY IDOCK:   -5.15 KCAL/MOL
REMARK 923 INTER-LIGAND FREE ENERGY PREDICTED BY IDOCK:   -4.66 KCAL/MOL
REMARK 924 INTRA-LIGAND FREE ENERGY PREDICTED BY IDOCK:   -0.49 KCAL/MOL
REMARK 927      BINDING AFFINITY PREDICTED BY RF-SCORE:    0.00 PKD
ROOT
HETATM    1  C   UNL     1     -11.854  13.303  67.804  1.00  0.00    -0.353 C  
HETATM    2  N   UNL     1     -11.355  12.455  68.875  1.00  0.00    -0.273 NA 
HETATM    3  C   UNL     1     -12.393  12.064  69.826  1.00  0.00    -0.047 C  
HETATM    4  C   UNL     1     -11.689  10.955  70.591  1.00  0.00    -0.418 C  
HETATM    5  C   UNL     1     -11.002  10.159  69.481  1.00  0.00    -0.295 C  
HETATM    6  C   UNL     1     -10.741  11.212  68.388  1.00  0.00    -0.198 C  
ENDROOT
BRANCH   5   7
HETATM    7  C   UNL     1      -9.716   9.413  69.874  1.00  0.00    -0.212 C  
BRANCH   7   8
HETATM    8  N   UNL     1      -9.860   7.932  69.850  1.00  0.00    -0.180 NA 
HETATM    9  C   UNL     1      -9.588   7.271  68.605  1.00  0.00    -0.141 A  
HETATM   10  C   UNL     1      -9.233   7.971  67.427  1.00  0.00    -0.155 A  
HETATM   11  C   UNL     1      -8.918   7.327  66.220  1.00  0.00    -0.185 A  
HETATM   12  C   UNL     1      -8.956   5.946  66.137  1.00  0.00    -0.157 A  
HETATM   13  C   UNL     1      -9.325   5.222  67.262  1.00  0.00    -0.123 A  
HETATM   14  C   UNL     1      -9.644   5.868  68.477  1.00  0.00    -0.123 A  
HETATM   15  S   UNL     1     -10.131   4.768  69.779  1.00  0.00    -0.144 SA 
HETATM   16  C   UNL     1     -10.321   5.868  71.155  1.00  0.00    -0.221 A  
HETATM   17  C   UNL     1     -10.646   5.223  72.369  1.00  0.00    -0.280 A  
HETATM   18  C   UNL     1     -10.809   5.941  73.544  1.00  0.00    -0.246 A  
HETATM   19  C   UNL     1     -10.635   7.310  73.514  1.00  0.00    -0.408 A  
HETATM   20  C   UNL     1     -10.316   7.955  72.309  1.00  0.00    -0.314 A  
HETATM   21  C   UNL     1     -10.162   7.269  71.082  1.00  0.00    -0.190 A  
ENDBRANCH   7   8
ENDBRANCH   5   7
TORSDOF 2
ENDMDL
MODEL      128
REMARK 921   NORMALIZED FREE ENERGY PREDICTED BY IDOCK:   -4.25 KCAL/MOL
REMARK 922        TOTAL FREE ENERGY PREDICTED BY IDOCK:   -5.14 KCAL/MOL
REMARK 923 INTER-LIGAND FREE ENERGY PREDICTED BY IDOCK:   -4.68 KCAL/MOL
REMARK 924 INTRA-LIGAND FREE ENERGY PREDICTED BY IDOCK:   -0.46 KCAL/MOL
REMARK 927      BINDING AFFINITY PREDICTED BY RF-SCORE:    0.00 PKD
ROOT
HETATM    1  C   UNL     1     -12.184  15.381  69.814  1.00  0.00    -0.306 C  
HETATM    2  N   UNL     1     -11.768  14.077  70.306  1.00  0.00    -0.265 NA 
HETATM    3  C   UNL     1     -12.885  13.254  70.761  1.00  0.00    -0.121 C  
HETATM    4  C   UNL     1     -12.218  11.893  70.882  1.00  0.00    -0.351 C  
HETATM    5  C   UNL     1     -11.373  11.814  69.609  1.00  0.00    -0.287 C  
HETATM    6  C   UNL     1     -11.043  13.286  69.301  1.00  0.00    -0.153 C  
ENDROOT
BRANCH   5   7
HETATM    7  C   UNL     1     -10.105  10.948  69.687  1.00  0.00     0.081 C  
BRANCH   7   8
HETATM    8  N   UNL     1     -10.159   9.740  68.819  1.00  0.00    -0.167 NA 
HETATM    9  C   UNL     1      -9.751   9.902  67.452  1.00  0.00    -0.162 A  
HETATM   10  C   UNL     1      -9.348  11.148  66.914  1.00  0.00    -0.189 A  
HETATM   11  C   UNL     1      -8.901  11.302  65.592  1.00  0.00    -0.124 A  
HETATM   12  C   UNL     1      -8.851  10.211  64.743  1.00  0.00    -0.219 A  
HETATM   13  C   UNL     1      -9.263   8.976  65.222  1.00  0.00    -0.205 A  
HETATM   14  C   UNL     1      -9.714   8.818  66.550  1.00  0.00    -0.259 A  
HETATM   15  S   UNL     1     -10.235   7.172  66.952  1.00  0.00    -0.250 SA 
HETATM   16  C   UNL     1     -10.598   7.298  68.681  1.00  0.00    -0.168 A  
HETATM   17  C   UNL     1     -10.978   6.078  69.282  1.00  0.00    -0.436 A  
HETATM   18  C   UNL     1     -11.274   6.003  70.634  1.00  0.00    -0.347 A  
HETATM   19  C   UNL     1     -11.180   7.149  71.398  1.00  0.00    -0.278 A  
HETATM   20  C   UNL     1     -10.807   8.364  70.804  1.00  0.00    -0.255 A  
HETATM   21  C   UNL     1     -10.516   8.495  69.427  1.00  0.00    -0.218 A  
ENDBRANCH   7   8
ENDBRANCH   5   7
TORSDOF 2
ENDMDL
MODEL      129
REMARK 921   NORMALIZED FREE ENERGY PREDICTED BY IDOCK:   -4.21 KCAL/MOL
REMARK 922        TOTAL FREE ENERGY PREDICTED BY IDOCK:   -5.10 KCAL/MOL
REMARK 923 INTER-LIGAND FREE ENERGY PREDICTED BY IDOCK:   -4.69 KCAL/MOL
REMARK 924 INTRA-LIGAND FREE ENERGY PREDICTED BY IDOCK:   -0.40 KCAL/MOL
REMARK 927      BINDING AFFINITY PREDICTED BY RF-SCORE:    0.00 PKD
ROOT
HETATM    1  C   UNL     1     -13.094  11.157  71.582  1.00  0.00    -0.424 C  
HETATM    2  N   UNL     1     -12.343   9.953  71.899  1.00  0.00    -0.359 NA 
HETATM    3  C   UNL     1     -13.194   8.782  72.096  1.00  0.00    -0.414 C  
HETATM    4  C   UNL     1     -12.167   7.662  72.066  1.00  0.00    -0.328 C  
HETATM    5  C   UNL     1     -11.267   8.057  70.893  1.00  0.00    -0.282 C  
HETATM    6  C   UNL     1     -11.365   9.593  70.863  1.00  0.00    -0.360 C  
ENDROOT
BRANCH   5   7
HETATM    7  C   UNL     1      -9.807   7.578  70.964  1.00  0.00    -0.179 C  
BRANCH   7   8
HETATM    8  N   UNL     1      -9.487   6.509  69.979  1.00  0.00    -0.156 NA 
HETATM    9  C   UNL     1      -9.554   5.153  70.447  1.00  0.00    -0.187 A  
HETATM   10  C   UNL     1      -9.870   4.817  71.785  1.00  0.00    -0.242 A  
HETATM   11  C   UNL     1      -9.986   3.493  72.234  1.00  0.00    -0.236 A  
HETATM   12  C   UNL     1      -9.776   2.441  71.360  1.00  0.00    -0.217 A  
HETATM   13  C   UNL     1      -9.437   2.725  70.045  1.00  0.00    -0.168 A  
HETATM   14  C   UNL     1      -9.319   4.057  69.591  1.00  0.00    -0.173 A  
HETATM   15  S   UNL     1      -8.836   4.206  67.892  1.00  0.00    -0.120 SA 
HETATM   16  C   UNL     1      -8.915   5.956  67.625  1.00  0.00    -0.107 A  
HETATM   17  C   UNL     1      -8.638   6.351  66.299  1.00  0.00    -0.140 A  
HETATM   18  C   UNL     1      -8.678   7.684  65.921  1.00  0.00    -0.176 A  
HETATM   19  C   UNL     1      -9.009   8.632  66.869  1.00  0.00    -0.161 A  
HETATM   20  C   UNL     1      -9.282   8.244  68.189  1.00  0.00    -0.137 A  
HETATM   21  C   UNL     1      -9.232   6.900  68.627  1.00  0.00    -0.130 A  
ENDBRANCH   7   8
ENDBRANCH   5   7
TORSDOF 2
ENDMDL
MODEL      130
REMARK 921   NORMALIZED FREE ENERGY PREDICTED BY IDOCK:   -4.21 KCAL/MOL
REMARK 922        TOTAL FREE ENERGY PREDICTED BY IDOCK:   -5.10 KCAL/MOL
REMARK 923 INTER-LIGAND FREE ENERGY PREDICTED BY IDOCK:   -5.00 KCAL/MOL
REMARK 924 INTRA-LIGAND FREE ENERGY PREDICTED BY IDOCK:   -0.10 KCAL/MOL
REMARK 927      BINDING AFFINITY PREDICTED BY RF-SCORE:    0.00 PKD
ROOT
HETATM    1  C   UNL     1     -11.597  15.156  73.480  1.00  0.00     0.071 C  
HETATM    2  N   UNL     1     -12.111  14.889  72.146  1.00  0.00    -0.355 NA 
HETATM    3  C   UNL     1     -13.507  15.286  71.980  1.00  0.00    -0.448 C  
HETATM    4  C   UNL     1     -13.656  15.215  70.469  1.00  0.00    -0.026 C  
HETATM    5  C   UNL     1     -12.366  15.867  69.969  1.00  0.00    -0.148 C  
HETATM    6  C   UNL     1     -11.351  15.568  71.087  1.00  0.00    -0.390 C  
ENDROOT
BRANCH   5   7
HETATM    7  C   UNL     1     -11.856  15.402  68.595  1.00  0.00    -0.296 C  
BRANCH   7   8
HETATM    8  N   UNL     1     -10.382  15.538  68.434  1.00  0.00    -0.227 NA 
HETATM    9  C   UNL     1      -9.630  14.324  68.282  1.00  0.00    -0.221 A  
HETATM   10  C   UNL     1     -10.228  13.041  68.317  1.00  0.00    -0.246 A  
HETATM   11  C   UNL     1      -9.504  11.855  68.119  1.00  0.00    -0.195 A  
HETATM   12  C   UNL     1      -8.141  11.901  67.888  1.00  0.00    -0.147 A  
HETATM   13  C   UNL     1      -7.510  13.137  67.872  1.00  0.00    -0.136 A  
HETATM   14  C   UNL     1      -8.235  14.332  68.073  1.00  0.00    -0.153 A  
HETATM   15  S   UNL     1      -7.240  15.799  68.058  1.00  0.00    -0.140 SA 
HETATM   16  C   UNL     1      -8.451  17.084  68.196  1.00  0.00    -0.227 A  
HETATM   17  C   UNL     1      -7.917  18.389  68.137  1.00  0.00    -0.303 A  
HETATM   18  C   UNL     1      -8.736  19.506  68.210  1.00  0.00    -0.380 A  
HETATM   19  C   UNL     1     -10.099  19.322  68.330  1.00  0.00    -0.518 A  
HETATM   20  C   UNL     1     -10.633  18.026  68.393  1.00  0.00    -0.249 A  
HETATM   21  C   UNL     1      -9.838  16.858  68.345  1.00  0.00    -0.266 A  
ENDBRANCH   7   8
ENDBRANCH   5   7
TORSDOF 2
ENDMDL
MODEL      131
REMARK 921   NORMALIZED FREE ENERGY PREDICTED BY IDOCK:   -4.20 KCAL/MOL
REMARK 922        TOTAL FREE ENERGY PREDICTED BY IDOCK:   -5.09 KCAL/MOL
REMARK 923 INTER-LIGAND FREE ENERGY PREDICTED BY IDOCK:   -4.73 KCAL/MOL
REMARK 924 INTRA-LIGAND FREE ENERGY PREDICTED BY IDOCK:   -0.36 KCAL/MOL
REMARK 927      BINDING AFFINITY PREDICTED BY RF-SCORE:    0.00 PKD
ROOT
HETATM    1  C   UNL     1     -11.716  14.808  64.844  1.00  0.00    -0.390 C  
HETATM    2  N   UNL     1     -11.056  13.782  65.636  1.00  0.00    -0.294 NA 
HETATM    3  C   UNL     1     -11.896  13.260  66.711  1.00  0.00    -0.394 C  
HETATM    4  C   UNL     1     -11.113  12.024  67.122  1.00  0.00    -0.344 C  
HETATM    5  C   UNL     1     -10.714  11.411  65.779  1.00  0.00    -0.309 C  
HETATM    6  C   UNL     1     -10.625  12.626  64.838  1.00  0.00    -0.307 C  
ENDROOT
BRANCH   5   7
HETATM    7  C   UNL     1      -9.419  10.582  65.767  1.00  0.00    -0.201 C  
BRANCH   7   8
HETATM    8  N   UNL     1      -9.022  10.083  67.112  1.00  0.00    -0.135 NA 
HETATM    9  C   UNL     1      -9.585   8.832  67.534  1.00  0.00    -0.152 A  
HETATM   10  C   UNL     1     -10.507   8.101  66.747  1.00  0.00    -0.316 A  
HETATM   11  C   UNL     1     -11.022   6.854  67.133  1.00  0.00    -0.427 A  
HETATM   12  C   UNL     1     -10.643   6.287  68.337  1.00  0.00    -0.316 A  
HETATM   13  C   UNL     1      -9.762   6.982  69.152  1.00  0.00    -0.156 A  
HETATM   14  C   UNL     1      -9.243   8.238  68.767  1.00  0.00    -0.143 A  
HETATM   15  S   UNL     1      -8.169   8.980  69.965  1.00  0.00    -0.143 SA 
HETATM   16  C   UNL     1      -7.607  10.436  69.125  1.00  0.00    -0.117 A  
HETATM   17  C   UNL     1      -6.661  11.192  69.849  1.00  0.00    -0.129 A  
HETATM   18  C   UNL     1      -6.108  12.349  69.322  1.00  0.00    -0.095 A  
HETATM   19  C   UNL     1      -6.491  12.750  68.057  1.00  0.00    -0.099 A  
HETATM   20  C   UNL     1      -7.434  12.003  67.336  1.00  0.00    -0.152 A  
HETATM   21  C   UNL     1      -8.042  10.830  67.840  1.00  0.00    -0.112 A  
ENDBRANCH   7   8
ENDBRANCH   5   7
TORSDOF 2
ENDMDL
MODEL      132
REMARK 921   NORMALIZED FREE ENERGY PREDICTED BY IDOCK:   -4.20 KCAL/MOL
REMARK 922        TOTAL FREE ENERGY PREDICTED BY IDOCK:   -5.08 KCAL/MOL
REMARK 923 INTER-LIGAND FREE ENERGY PREDICTED BY IDOCK:   -4.67 KCAL/MOL
REMARK 924 INTRA-LIGAND FREE ENERGY PREDICTED BY IDOCK:   -0.41 KCAL/MOL
REMARK 927      BINDING AFFINITY PREDICTED BY RF-SCORE:    0.00 PKD
ROOT
HETATM    1  C   UNL     1      -6.894   8.058  62.695  1.00  0.00    -0.086 C  
HETATM    2  N   UNL     1      -7.340   8.373  64.043  1.00  0.00    -0.100 NA 
HETATM    3  C   UNL     1      -6.243   8.467  65.002  1.00  0.00    -0.052 C  
HETATM    4  C   UNL     1      -6.941   9.119  66.185  1.00  0.00    -0.086 C  
HETATM    5  C   UNL     1      -7.783  10.211  65.523  1.00  0.00    -0.145 C  
HETATM    6  C   UNL     1      -8.079   9.641  64.124  1.00  0.00    -0.151 C  
ENDROOT
BRANCH   5   7
HETATM    7  C   UNL     1      -9.071  10.617  66.259  1.00  0.00    -0.167 C  
BRANCH   7   8
HETATM    8  N   UNL     1      -9.352  12.078  66.198  1.00  0.00    -0.229 NA 
HETATM    9  C   UNL     1     -10.392  12.504  65.305  1.00  0.00    -0.287 A  
HETATM   10  C   UNL     1     -11.109  11.606  64.478  1.00  0.00    -0.365 A  
HETATM   11  C   UNL     1     -12.160  12.011  63.641  1.00  0.00    -0.627 A  
HETATM   12  C   UNL     1     -12.531  13.343  63.584  1.00  0.00    -0.316 A  
HETATM   13  C   UNL     1     -11.836  14.261  64.358  1.00  0.00    -0.444 A  
HETATM   14  C   UNL     1     -10.777  13.857  65.201  1.00  0.00    -0.362 A  
HETATM   15  S   UNL     1      -9.992  15.185  66.072  1.00  0.00    -0.335 SA 
HETATM   16  C   UNL     1      -8.837  14.332  67.109  1.00  0.00    -0.229 A  
HETATM   17  C   UNL     1      -8.111  15.173  67.979  1.00  0.00    -0.138 A  
HETATM   18  C   UNL     1      -7.182  14.658  68.869  1.00  0.00    -0.124 A  
HETATM   19  C   UNL     1      -6.982  13.292  68.903  1.00  0.00    -0.096 A  
HETATM   20  C   UNL     1      -7.699  12.453  68.037  1.00  0.00    -0.135 A  
HETATM   21  C   UNL     1      -8.640  12.933  67.097  1.00  0.00    -0.198 A  
ENDBRANCH   7   8
ENDBRANCH   5   7
TORSDOF 2
ENDMDL
MODEL      133
REMARK 921   NORMALIZED FREE ENERGY PREDICTED BY IDOCK:   -4.15 KCAL/MOL
REMARK 922        TOTAL FREE ENERGY PREDICTED BY IDOCK:   -5.03 KCAL/MOL
REMARK 923 INTER-LIGAND FREE ENERGY PREDICTED BY IDOCK:   -4.64 KCAL/MOL
REMARK 924 INTRA-LIGAND FREE ENERGY PREDICTED BY IDOCK:   -0.40 KCAL/MOL
REMARK 927      BINDING AFFINITY PREDICTED BY RF-SCORE:    0.00 PKD
ROOT
HETATM    1  C   UNL     1      -6.618   8.045  62.419  1.00  0.00    -0.086 C  
HETATM    2  N   UNL     1      -6.904   8.451  63.785  1.00  0.00    -0.079 NA 
HETATM    3  C   UNL     1      -5.733   8.978  64.483  1.00  0.00    -0.064 C  
HETATM    4  C   UNL     1      -6.379   9.614  65.703  1.00  0.00    -0.069 C  
HETATM    5  C   UNL     1      -7.594  10.330  65.111  1.00  0.00    -0.133 C  
HETATM    6  C   UNL     1      -7.947   9.483  63.875  1.00  0.00    -0.141 C  
ENDROOT
BRANCH   5   7
HETATM    7  C   UNL     1      -8.802  10.507  66.046  1.00  0.00    -0.165 C  
BRANCH   7   8
HETATM    8  N   UNL     1      -9.258  11.919  66.163  1.00  0.00    -0.221 NA 
HETATM    9  C   UNL     1      -8.591  12.739  67.136  1.00  0.00    -0.197 A  
HETATM   10  C   UNL     1      -7.571  12.247  67.985  1.00  0.00    -0.126 A  
HETATM   11  C   UNL     1      -6.883  13.056  68.901  1.00  0.00    -0.099 A  
HETATM   12  C   UNL     1      -7.197  14.398  69.018  1.00  0.00    -0.129 A  
HETATM   13  C   UNL     1      -8.209  14.916  68.223  1.00  0.00    -0.145 A  
HETATM   14  C   UNL     1      -8.905  14.104  67.301  1.00  0.00    -0.218 A  
HETATM   15  S   UNL     1     -10.189  14.945  66.414  1.00  0.00    -0.297 SA 
HETATM   16  C   UNL     1     -10.745  13.703  65.280  1.00  0.00    -0.336 A  
HETATM   17  C   UNL     1     -11.744  14.145  64.385  1.00  0.00    -0.409 A  
HETATM   18  C   UNL     1     -12.271  13.299  63.421  1.00  0.00    -0.476 A  
HETATM   19  C   UNL     1     -11.791  12.007  63.338  1.00  0.00    -0.542 A  
HETATM   20  C   UNL     1     -10.802  11.564  64.228  1.00  0.00    -0.421 A  
HETATM   21  C   UNL     1     -10.250  12.381  65.241  1.00  0.00    -0.282 A  
ENDBRANCH   7   8
ENDBRANCH   5   7
TORSDOF 2
ENDMDL
MODEL      134
REMARK 921   NORMALIZED FREE ENERGY PREDICTED BY IDOCK:   -4.13 KCAL/MOL
REMARK 922        TOTAL FREE ENERGY PREDICTED BY IDOCK:   -5.01 KCAL/MOL
REMARK 923 INTER-LIGAND FREE ENERGY PREDICTED BY IDOCK:   -4.66 KCAL/MOL
REMARK 924 INTRA-LIGAND FREE ENERGY PREDICTED BY IDOCK:   -0.36 KCAL/MOL
REMARK 927      BINDING AFFINITY PREDICTED BY RF-SCORE:    0.00 PKD
ROOT
HETATM    1  C   UNL     1      -8.119   7.253  65.677  1.00  0.00    -0.133 C  
HETATM    2  N   UNL     1      -8.492   8.656  65.752  1.00  0.00    -0.142 NA 
HETATM    3  C   UNL     1      -8.596   9.292  64.441  1.00  0.00    -0.195 C  
HETATM    4  C   UNL     1      -9.306  10.588  64.797  1.00  0.00    -0.285 C  
HETATM    5  C   UNL     1     -10.391  10.125  65.771  1.00  0.00    -0.216 C  
HETATM    6  C   UNL     1      -9.778   8.876  66.430  1.00  0.00    -0.262 C  
ENDROOT
BRANCH   5   7
HETATM    7  C   UNL     1     -10.851  11.155  66.817  1.00  0.00    -0.268 C  
BRANCH   7   8
HETATM    8  N   UNL     1     -10.063  12.417  66.792  1.00  0.00    -0.212 NA 
HETATM    9  C   UNL     1     -10.589  13.498  66.006  1.00  0.00    -0.285 A  
HETATM   10  C   UNL     1     -11.779  13.387  65.248  1.00  0.00    -0.346 A  
HETATM   11  C   UNL     1     -12.323  14.455  64.519  1.00  0.00    -0.440 A  
HETATM   12  C   UNL     1     -11.688  15.684  64.506  1.00  0.00    -0.220 A  
HETATM   13  C   UNL     1     -10.504  15.829  65.214  1.00  0.00    -0.427 A  
HETATM   14  C   UNL     1      -9.953  14.755  65.947  1.00  0.00    -0.326 A  
HETATM   15  S   UNL     1      -8.416  15.132  66.745  1.00  0.00    -0.187 SA 
HETATM   16  C   UNL     1      -8.088  13.651  67.660  1.00  0.00    -0.177 A  
HETATM   17  C   UNL     1      -6.927  13.712  68.461  1.00  0.00    -0.104 A  
HETATM   18  C   UNL     1      -6.543  12.642  69.254  1.00  0.00    -0.092 A  
HETATM   19  C   UNL     1      -7.327  11.505  69.261  1.00  0.00    -0.009 A  
HETATM   20  C   UNL     1      -8.480  11.440  68.463  1.00  0.00    -0.152 A  
HETATM   21  C   UNL     1      -8.900  12.496  67.622  1.00  0.00    -0.179 A  
ENDBRANCH   7   8
ENDBRANCH   5   7
TORSDOF 2
ENDMDL
MODEL      135
REMARK 921   NORMALIZED FREE ENERGY PREDICTED BY IDOCK:   -4.13 KCAL/MOL
REMARK 922        TOTAL FREE ENERGY PREDICTED BY IDOCK:   -5.00 KCAL/MOL
REMARK 923 INTER-LIGAND FREE ENERGY PREDICTED BY IDOCK:   -5.14 KCAL/MOL
REMARK 924 INTRA-LIGAND FREE ENERGY PREDICTED BY IDOCK:    0.14 KCAL/MOL
REMARK 927      BINDING AFFINITY PREDICTED BY RF-SCORE:    0.00 PKD
ROOT
HETATM    1  C   UNL     1      -5.654  11.742  67.100  1.00  0.00    -0.121 C  
HETATM    2  N   UNL     1      -6.600  11.020  66.265  1.00  0.00    -0.126 NA 
HETATM    3  C   UNL     1      -5.954  10.225  65.224  1.00  0.00    -0.127 C  
HETATM    4  C   UNL     1      -7.110   9.353  64.760  1.00  0.00    -0.102 C  
HETATM    5  C   UNL     1      -7.768   8.932  66.074  1.00  0.00    -0.098 C  
HETATM    6  C   UNL     1      -7.458  10.101  67.026  1.00  0.00    -0.092 C  
ENDROOT
BRANCH   5   7
HETATM    7  C   UNL     1      -9.275   8.628  66.014  1.00  0.00    -0.216 C  
BRANCH   7   8
HETATM    8  N   UNL     1     -10.120   9.705  66.597  1.00  0.00    -0.230 NA 
HETATM    9  C   UNL     1     -10.462   9.584  67.987  1.00  0.00    -0.230 A  
HETATM   10  C   UNL     1     -10.061   8.484  68.783  1.00  0.00    -0.210 A  
HETATM   11  C   UNL     1     -10.350   8.386  70.152  1.00  0.00    -0.214 A  
HETATM   12  C   UNL     1     -11.068   9.385  70.786  1.00  0.00    -0.365 A  
HETATM   13  C   UNL     1     -11.504  10.468  70.037  1.00  0.00    -0.393 A  
HETATM   14  C   UNL     1     -11.216  10.569  68.658  1.00  0.00    -0.270 A  
HETATM   15  S   UNL     1     -11.897  12.006  67.875  1.00  0.00    -0.147 SA 
HETATM   16  C   UNL     1     -11.247  11.890  66.231  1.00  0.00    -0.337 A  
HETATM   17  C   UNL     1     -11.588  12.976  65.397  1.00  0.00    -0.374 A  
HETATM   18  C   UNL     1     -11.141  13.046  64.087  1.00  0.00    -0.437 A  
HETATM   19  C   UNL     1     -10.335  12.033  63.606  1.00  0.00    -0.482 A  
HETATM   20  C   UNL     1      -9.997  10.949  64.431  1.00  0.00    -0.381 A  
HETATM   21  C   UNL     1     -10.447  10.823  65.766  1.00  0.00    -0.188 A  
ENDBRANCH   7   8
ENDBRANCH   5   7
TORSDOF 2
ENDMDL
MODEL      136
REMARK 921   NORMALIZED FREE ENERGY PREDICTED BY IDOCK:   -4.11 KCAL/MOL
REMARK 922        TOTAL FREE ENERGY PREDICTED BY IDOCK:   -4.98 KCAL/MOL
REMARK 923 INTER-LIGAND FREE ENERGY PREDICTED BY IDOCK:   -4.83 KCAL/MOL
REMARK 924 INTRA-LIGAND FREE ENERGY PREDICTED BY IDOCK:   -0.15 KCAL/MOL
REMARK 927      BINDING AFFINITY PREDICTED BY RF-SCORE:    0.00 PKD
ROOT
HETATM    1  C   UNL     1     -12.871  15.591  71.041  1.00  0.00    -0.482 C  
HETATM    2  N   UNL     1     -12.009  14.931  70.074  1.00  0.00    -0.309 NA 
HETATM    3  C   UNL     1     -12.302  13.507  69.925  1.00  0.00    -0.224 C  
HETATM    4  C   UNL     1     -11.523  13.177  68.662  1.00  0.00    -0.342 C  
HETATM    5  C   UNL     1     -11.837  14.362  67.748  1.00  0.00    -0.402 C  
HETATM    6  C   UNL     1     -12.090  15.521  68.730  1.00  0.00    -0.141 C  
ENDROOT
BRANCH   5   7
HETATM    7  C   UNL     1     -10.765  14.721  66.705  1.00  0.00    -0.309 C  
BRANCH   7   8
HETATM    8  N   UNL     1      -9.543  13.877  66.797  1.00  0.00    -0.273 NA 
HETATM    9  C   UNL     1      -8.493  14.344  67.658  1.00  0.00    -0.185 A  
HETATM   10  C   UNL     1      -8.570  15.566  68.370  1.00  0.00    -0.168 A  
HETATM   11  C   UNL     1      -7.568  16.002  69.250  1.00  0.00    -0.230 A  
HETATM   12  C   UNL     1      -6.433  15.236  69.448  1.00  0.00    -0.141 A  
HETATM   13  C   UNL     1      -6.305  14.044  68.750  1.00  0.00    -0.090 A  
HETATM   14  C   UNL     1      -7.310  13.603  67.862  1.00  0.00    -0.148 A  
HETATM   15  S   UNL     1      -6.936  12.080  67.037  1.00  0.00    -0.042 SA 
HETATM   16  C   UNL     1      -8.425  11.760  66.132  1.00  0.00     0.048 A  
HETATM   17  C   UNL     1      -8.419  10.538  65.425  1.00  0.00    -0.173 A  
HETATM   18  C   UNL     1      -9.518  10.131  64.683  1.00  0.00    -0.357 A  
HETATM   19  C   UNL     1     -10.636  10.940  64.656  1.00  0.00    -0.332 A  
HETATM   20  C   UNL     1     -10.644  12.156  65.354  1.00  0.00    -0.309 A  
HETATM   21  C   UNL     1      -9.541  12.625  66.105  1.00  0.00    -0.222 A  
ENDBRANCH   7   8
ENDBRANCH   5   7
TORSDOF 2
ENDMDL
MODEL      137
REMARK 921   NORMALIZED FREE ENERGY PREDICTED BY IDOCK:   -4.08 KCAL/MOL
REMARK 922        TOTAL FREE ENERGY PREDICTED BY IDOCK:   -4.96 KCAL/MOL
REMARK 923 INTER-LIGAND FREE ENERGY PREDICTED BY IDOCK:   -4.58 KCAL/MOL
REMARK 924 INTRA-LIGAND FREE ENERGY PREDICTED BY IDOCK:   -0.38 KCAL/MOL
REMARK 927      BINDING AFFINITY PREDICTED BY RF-SCORE:    0.00 PKD
ROOT
HETATM    1  C   UNL     1      -8.938   6.400  72.254  1.00  0.00    -0.139 C  
HETATM    2  N   UNL     1      -9.635   7.395  71.454  1.00  0.00    -0.160 NA 
HETATM    3  C   UNL     1      -9.071   8.735  71.588  1.00  0.00    -0.244 C  
HETATM    4  C   UNL     1      -9.744   9.455  70.431  1.00  0.00    -0.315 C  
HETATM    5  C   UNL     1      -9.643   8.439  69.293  1.00  0.00    -0.164 C  
HETATM    6  C   UNL     1      -9.640   7.081  70.018  1.00  0.00    -0.164 C  
ENDROOT
BRANCH   5   7
HETATM    7  C   UNL     1     -10.741   8.510  68.218  1.00  0.00    -0.036 C  
BRANCH   7   8
HETATM    8  N   UNL     1     -10.334   9.272  67.005  1.00  0.00    -0.256 NA 
HETATM    9  C   UNL     1     -10.729  10.651  66.941  1.00  0.00    -0.237 A  
HETATM   10  C   UNL     1     -11.502  11.275  67.949  1.00  0.00    -0.360 A  
HETATM   11  C   UNL     1     -11.848  12.635  67.914  1.00  0.00    -0.388 A  
HETATM   12  C   UNL     1     -11.444  13.430  66.856  1.00  0.00    -0.376 A  
HETATM   13  C   UNL     1     -10.707  12.851  65.833  1.00  0.00    -0.291 A  
HETATM   14  C   UNL     1     -10.358  11.483  65.864  1.00  0.00    -0.247 A  
HETATM   15  S   UNL     1      -9.453  10.930  64.444  1.00  0.00    -0.259 SA 
HETATM   16  C   UNL     1      -9.072   9.252  64.865  1.00  0.00    -0.170 A  
HETATM   17  C   UNL     1      -8.276   8.584  63.909  1.00  0.00    -0.128 A  
HETATM   18  C   UNL     1      -7.873   7.271  64.099  1.00  0.00    -0.118 A  
HETATM   19  C   UNL     1      -8.255   6.621  65.256  1.00  0.00    -0.133 A  
HETATM   20  C   UNL     1      -9.050   7.280  66.206  1.00  0.00    -0.186 A  
HETATM   21  C   UNL     1      -9.504   8.610  66.047  1.00  0.00    -0.208 A  
ENDBRANCH   7   8
ENDBRANCH   5   7
TORSDOF 2
ENDMDL
MODEL      138
REMARK 921   NORMALIZED FREE ENERGY PREDICTED BY IDOCK:   -4.08 KCAL/MOL
REMARK 922        TOTAL FREE ENERGY PREDICTED BY IDOCK:   -4.95 KCAL/MOL
REMARK 923 INTER-LIGAND FREE ENERGY PREDICTED BY IDOCK:   -4.66 KCAL/MOL
REMARK 924 INTRA-LIGAND FREE ENERGY PREDICTED BY IDOCK:   -0.30 KCAL/MOL
REMARK 927      BINDING AFFINITY PREDICTED BY RF-SCORE:    0.00 PKD
ROOT
HETATM    1  C   UNL     1      -6.557  11.053  67.110  1.00  0.00    -0.089 C  
HETATM    2  N   UNL     1      -7.876  10.567  66.734  1.00  0.00    -0.117 NA 
HETATM    3  C   UNL     1      -7.987  10.256  65.311  1.00  0.00    -0.148 C  
HETATM    4  C   UNL     1      -9.294   9.480  65.281  1.00  0.00    -0.317 C  
HETATM    5  C   UNL     1      -9.173   8.561  66.498  1.00  0.00    -0.239 C  
HETATM    6  C   UNL     1      -8.274   9.355  67.463  1.00  0.00    -0.117 C  
ENDROOT
BRANCH   5   7
HETATM    7  C   UNL     1     -10.492   8.136  67.164  1.00  0.00    -0.326 C  
BRANCH   7   8
HETATM    8  N   UNL     1     -10.312   7.121  68.238  1.00  0.00    -0.188 NA 
HETATM    9  C   UNL     1     -10.591   7.541  69.583  1.00  0.00    -0.239 A  
HETATM   10  C   UNL     1     -10.984   8.862  69.909  1.00  0.00    -0.190 A  
HETATM   11  C   UNL     1     -11.306   9.263  71.214  1.00  0.00    -0.423 A  
HETATM   12  C   UNL     1     -11.235   8.359  72.258  1.00  0.00    -0.446 A  
HETATM   13  C   UNL     1     -10.829   7.060  71.987  1.00  0.00    -0.253 A  
HETATM   14  C   UNL     1     -10.503   6.653  70.675  1.00  0.00    -0.217 A  
HETATM   15  S   UNL     1      -9.966   4.969  70.547  1.00  0.00    -0.253 SA 
HETATM   16  C   UNL     1      -9.777   4.760  68.798  1.00  0.00    -0.167 A  
HETATM   17  C   UNL     1      -9.415   3.453  68.409  1.00  0.00    -0.209 A  
HETATM   18  C   UNL     1      -9.248   3.119  67.074  1.00  0.00    -0.198 A  
HETATM   19  C   UNL     1      -9.455   4.093  66.116  1.00  0.00    -0.187 A  
HETATM   20  C   UNL     1      -9.812   5.394  66.500  1.00  0.00    -0.195 A  
HETATM   21  C   UNL     1      -9.972   5.787  67.849  1.00  0.00    -0.137 A  
ENDBRANCH   7   8
ENDBRANCH   5   7
TORSDOF 2
ENDMDL
MODEL      139
REMARK 921   NORMALIZED FREE ENERGY PREDICTED BY IDOCK:   -4.08 KCAL/MOL
REMARK 922        TOTAL FREE ENERGY PREDICTED BY IDOCK:   -4.95 KCAL/MOL
REMARK 923 INTER-LIGAND FREE ENERGY PREDICTED BY IDOCK:   -4.53 KCAL/MOL
REMARK 924 INTRA-LIGAND FREE ENERGY PREDICTED BY IDOCK:   -0.43 KCAL/MOL
REMARK 927      BINDING AFFINITY PREDICTED BY RF-SCORE:    0.00 PKD
ROOT
HETATM    1  C   UNL     1      -7.350   9.204  64.711  1.00  0.00    -0.098 C  
HETATM    2  N   UNL     1      -7.967   9.998  65.762  1.00  0.00    -0.121 NA 
HETATM    3  C   UNL     1      -9.373  10.299  65.501  1.00  0.00    -0.199 C  
HETATM    4  C   UNL     1      -9.821  10.810  66.860  1.00  0.00    -0.224 C  
HETATM    5  C   UNL     1      -9.176   9.817  67.828  1.00  0.00    -0.141 C  
HETATM    6  C   UNL     1      -7.912   9.353  67.081  1.00  0.00    -0.102 C  
ENDROOT
BRANCH   5   7
HETATM    7  C   UNL     1      -8.846  10.351  69.232  1.00  0.00    -0.154 C  
BRANCH   7   8
HETATM    8  N   UNL     1      -9.286   9.445  70.328  1.00  0.00    -0.234 NA 
HETATM    9  C   UNL     1      -8.307   8.534  70.853  1.00  0.00    -0.146 A  
HETATM   10  C   UNL     1      -6.988   8.451  70.347  1.00  0.00    -0.037 A  
HETATM   11  C   UNL     1      -6.014   7.599  70.888  1.00  0.00    -0.034 A  
HETATM   12  C   UNL     1      -6.324   6.778  71.958  1.00  0.00    -0.049 A  
HETATM   13  C   UNL     1      -7.614   6.809  72.468  1.00  0.00    -0.095 A  
HETATM   14  C   UNL     1      -8.597   7.664  71.924  1.00  0.00    -0.109 A  
HETATM   15  S   UNL     1     -10.190   7.521  72.688  1.00  0.00    -0.272 SA 
HETATM   16  C   UNL     1     -11.117   8.795  71.878  1.00  0.00    -0.364 A  
HETATM   17  C   UNL     1     -12.434   8.946  72.362  1.00  0.00    -0.405 A  
HETATM   18  C   UNL     1     -13.284   9.914  71.847  1.00  0.00    -0.558 A  
HETATM   19  C   UNL     1     -12.814  10.747  70.850  1.00  0.00    -0.443 A  
HETATM   20  C   UNL     1     -11.506  10.596  70.365  1.00  0.00    -0.422 A  
HETATM   21  C   UNL     1     -10.611   9.611  70.842  1.00  0.00    -0.316 A  
ENDBRANCH   7   8
ENDBRANCH   5   7
TORSDOF 2
ENDMDL
MODEL      140
REMARK 921   NORMALIZED FREE ENERGY PREDICTED BY IDOCK:   -4.05 KCAL/MOL
REMARK 922        TOTAL FREE ENERGY PREDICTED BY IDOCK:   -4.92 KCAL/MOL
REMARK 923 INTER-LIGAND FREE ENERGY PREDICTED BY IDOCK:   -4.69 KCAL/MOL
REMARK 924 INTRA-LIGAND FREE ENERGY PREDICTED BY IDOCK:   -0.23 KCAL/MOL
REMARK 927      BINDING AFFINITY PREDICTED BY RF-SCORE:    0.00 PKD
ROOT
HETATM    1  C   UNL     1      -8.588   4.789  65.780  1.00  0.00    -0.124 C  
HETATM    2  N   UNL     1      -9.008   6.172  65.942  1.00  0.00    -0.148 NA 
HETATM    3  C   UNL     1     -10.366   6.301  66.463  1.00  0.00    -0.099 C  
HETATM    4  C   UNL     1     -10.399   7.773  66.840  1.00  0.00    -0.396 C  
HETATM    5  C   UNL     1      -9.045   7.980  67.520  1.00  0.00    -0.146 C  
HETATM    6  C   UNL     1      -8.136   6.937  66.844  1.00  0.00    -0.109 C  
ENDROOT
BRANCH   5   7
HETATM    7  C   UNL     1      -8.450   9.396  67.436  1.00  0.00    -0.125 C  
BRANCH   7   8
HETATM    8  N   UNL     1      -9.394  10.403  66.880  1.00  0.00    -0.160 NA 
HETATM    9  C   UNL     1      -9.358  10.614  65.460  1.00  0.00    -0.205 A  
HETATM   10  C   UNL     1      -8.453   9.939  64.607  1.00  0.00    -0.178 A  
HETATM   11  C   UNL     1      -8.448  10.104  63.213  1.00  0.00    -0.184 A  
HETATM   12  C   UNL     1      -9.346  10.967  62.611  1.00  0.00    -0.348 A  
HETATM   13  C   UNL     1     -10.234  11.669  63.413  1.00  0.00    -0.471 A  
HETATM   14  C   UNL     1     -10.240  11.506  64.816  1.00  0.00    -0.281 A  
HETATM   15  S   UNL     1     -11.419  12.524  65.662  1.00  0.00    -0.377 SA 
HETATM   16  C   UNL     1     -11.258  11.981  67.340  1.00  0.00    -0.307 A  
HETATM   17  C   UNL     1     -12.158  12.598  68.236  1.00  0.00    -0.135 A  
HETATM   18  C   UNL     1     -12.173  12.268  69.582  1.00  0.00    -0.175 A  
HETATM   19  C   UNL     1     -11.295  11.306  70.039  1.00  0.00    -0.292 A  
HETATM   20  C   UNL     1     -10.396  10.693  69.153  1.00  0.00    -0.242 A  
HETATM   21  C   UNL     1     -10.328  11.012  67.777  1.00  0.00    -0.188 A  
ENDBRANCH   7   8
ENDBRANCH   5   7
TORSDOF 2
ENDMDL
MODEL      141
REMARK 921   NORMALIZED FREE ENERGY PREDICTED BY IDOCK:   -4.05 KCAL/MOL
REMARK 922        TOTAL FREE ENERGY PREDICTED BY IDOCK:   -4.92 KCAL/MOL
REMARK 923 INTER-LIGAND FREE ENERGY PREDICTED BY IDOCK:   -4.46 KCAL/MOL
REMARK 924 INTRA-LIGAND FREE ENERGY PREDICTED BY IDOCK:   -0.46 KCAL/MOL
REMARK 927      BINDING AFFINITY PREDICTED BY RF-SCORE:    0.00 PKD
ROOT
HETATM    1  C   UNL     1     -13.284  10.822  71.721  1.00  0.00    -0.418 C  
HETATM    2  N   UNL     1     -12.214   9.837  71.721  1.00  0.00    -0.388 NA 
HETATM    3  C   UNL     1     -12.672   8.494  72.071  1.00  0.00    -0.376 C  
HETATM    4  C   UNL     1     -11.469   7.658  71.667  1.00  0.00    -0.295 C  
HETATM    5  C   UNL     1     -11.076   8.258  70.316  1.00  0.00    -0.220 C  
HETATM    6  C   UNL     1     -11.533   9.724  70.424  1.00  0.00    -0.280 C  
ENDROOT
BRANCH   5   7
HETATM    7  C   UNL     1      -9.592   8.149  69.929  1.00  0.00    -0.175 C  
BRANCH   7   8
HETATM    8  N   UNL     1      -9.365   7.415  68.654  1.00  0.00    -0.140 NA 
HETATM    9  C   UNL     1      -9.132   8.207  67.479  1.00  0.00    -0.137 A  
HETATM   10  C   UNL     1      -9.149   9.623  67.493  1.00  0.00    -0.142 A  
HETATM   11  C   UNL     1      -8.872  10.402  66.359  1.00  0.00    -0.159 A  
HETATM   12  C   UNL     1      -8.579   9.794  65.151  1.00  0.00    -0.173 A  
HETATM   13  C   UNL     1      -8.578   8.408  65.087  1.00  0.00    -0.159 A  
HETATM   14  C   UNL     1      -8.857   7.621  66.226  1.00  0.00    -0.156 A  
HETATM   15  S   UNL     1      -8.849   5.875  65.925  1.00  0.00    -0.133 SA 
HETATM   16  C   UNL     1      -9.092   5.206  67.547  1.00  0.00    -0.114 A  
HETATM   17  C   UNL     1      -9.056   3.796  67.603  1.00  0.00    -0.188 A  
HETATM   18  C   UNL     1      -9.209   3.119  68.802  1.00  0.00    -0.227 A  
HETATM   19  C   UNL     1      -9.388   3.851  69.959  1.00  0.00    -0.247 A  
HETATM   20  C   UNL     1      -9.429   5.252  69.908  1.00  0.00    -0.211 A  
HETATM   21  C   UNL     1      -9.299   5.986  68.707  1.00  0.00    -0.122 A  
ENDBRANCH   7   8
ENDBRANCH   5   7
TORSDOF 2
ENDMDL
MODEL      142
REMARK 921   NORMALIZED FREE ENERGY PREDICTED BY IDOCK:   -4.02 KCAL/MOL
REMARK 922        TOTAL FREE ENERGY PREDICTED BY IDOCK:   -4.89 KCAL/MOL
REMARK 923 INTER-LIGAND FREE ENERGY PREDICTED BY IDOCK:   -4.41 KCAL/MOL
REMARK 924 INTRA-LIGAND FREE ENERGY PREDICTED BY IDOCK:   -0.48 KCAL/MOL
REMARK 927      BINDING AFFINITY PREDICTED BY RF-SCORE:    0.00 PKD
ROOT
HETATM    1  C   UNL     1     -12.320  10.793  70.457  1.00  0.00    -0.369 C  
HETATM    2  N   UNL     1     -11.707   9.777  71.297  1.00  0.00    -0.368 NA 
HETATM    3  C   UNL     1     -12.681   8.997  72.056  1.00  0.00    -0.398 C  
HETATM    4  C   UNL     1     -11.818   7.845  72.546  1.00  0.00    -0.390 C  
HETATM    5  C   UNL     1     -10.998   7.484  71.307  1.00  0.00    -0.262 C  
HETATM    6  C   UNL     1     -10.894   8.814  70.540  1.00  0.00    -0.233 C  
ENDROOT
BRANCH   5   7
HETATM    7  C   UNL     1      -9.614   6.863  71.563  1.00  0.00    -0.162 C  
BRANCH   7   8
HETATM    8  N   UNL     1      -9.462   5.497  70.992  1.00  0.00    -0.159 NA 
HETATM    9  C   UNL     1      -8.835   5.397  69.704  1.00  0.00    -0.109 A  
HETATM   10  C   UNL     1      -8.404   6.528  68.970  1.00  0.00    -0.116 A  
HETATM   11  C   UNL     1      -7.745   6.433  67.735  1.00  0.00    -0.103 A  
HETATM   12  C   UNL     1      -7.500   5.194  67.170  1.00  0.00    -0.087 A  
HETATM   13  C   UNL     1      -7.930   4.059  67.844  1.00  0.00    -0.089 A  
HETATM   14  C   UNL     1      -8.594   4.152  69.087  1.00  0.00    -0.082 A  
HETATM   15  S   UNL     1      -9.099   2.593  69.761  1.00  0.00    -0.130 SA 
HETATM   16  C   UNL     1      -9.757   3.054  71.339  1.00  0.00    -0.148 A  
HETATM   17  C   UNL     1     -10.177   1.964  72.131  1.00  0.00    -0.224 A  
HETATM   18  C   UNL     1     -10.697   2.155  73.402  1.00  0.00    -0.253 A  
HETATM   19  C   UNL     1     -10.788   3.442  73.894  1.00  0.00    -0.299 A  
HETATM   20  C   UNL     1     -10.376   4.528  73.109  1.00  0.00    -0.239 A  
HETATM   21  C   UNL     1      -9.860   4.386  71.800  1.00  0.00    -0.185 A  
ENDBRANCH   7   8
ENDBRANCH   5   7
TORSDOF 2
ENDMDL
MODEL      143
REMARK 921   NORMALIZED FREE ENERGY PREDICTED BY IDOCK:   -4.01 KCAL/MOL
REMARK 922        TOTAL FREE ENERGY PREDICTED BY IDOCK:   -4.87 KCAL/MOL
REMARK 923 INTER-LIGAND FREE ENERGY PREDICTED BY IDOCK:   -4.89 KCAL/MOL
REMARK 924 INTRA-LIGAND FREE ENERGY PREDICTED BY IDOCK:    0.02 KCAL/MOL
REMARK 927      BINDING AFFINITY PREDICTED BY RF-SCORE:    0.00 PKD
ROOT
HETATM    1  C   UNL     1      -5.510   9.114  68.199  1.00  0.00    -0.038 C  
HETATM    2  N   UNL     1      -6.631   8.594  67.433  1.00  0.00    -0.058 NA 
HETATM    3  C   UNL     1      -6.267   7.468  66.577  1.00  0.00    -0.045 C  
HETATM    4  C   UNL     1      -7.638   6.939  66.187  1.00  0.00    -0.092 C  
HETATM    5  C   UNL     1      -8.408   6.981  67.508  1.00  0.00    -0.119 C  
HETATM    6  C   UNL     1      -7.745   8.139  68.277  1.00  0.00    -0.114 C  
ENDROOT
BRANCH   5   7
HETATM    7  C   UNL     1      -9.931   7.162  67.404  1.00  0.00    -0.172 C  
BRANCH   7   8
HETATM    8  N   UNL     1     -10.421   8.425  68.021  1.00  0.00    -0.208 NA 
HETATM    9  C   UNL     1     -10.732   8.386  69.423  1.00  0.00    -0.152 A  
HETATM   10  C   UNL     1     -10.625   7.208  70.200  1.00  0.00    -0.247 A  
HETATM   11  C   UNL     1     -10.880   7.176  71.580  1.00  0.00    -0.250 A  
HETATM   12  C   UNL     1     -11.269   8.327  72.242  1.00  0.00    -0.443 A  
HETATM   13  C   UNL     1     -11.412   9.498  71.513  1.00  0.00    -0.466 A  
HETATM   14  C   UNL     1     -11.158   9.533  70.124  1.00  0.00    -0.255 A  
HETATM   15  S   UNL     1     -11.440  11.113  69.372  1.00  0.00    -0.329 SA 
HETATM   16  C   UNL     1     -10.908  10.841  67.704  1.00  0.00    -0.279 A  
HETATM   17  C   UNL     1     -10.963  11.990  66.886  1.00  0.00    -0.328 A  
HETATM   18  C   UNL     1     -10.562  11.950  65.560  1.00  0.00    -0.313 A  
HETATM   19  C   UNL     1     -10.088  10.759  65.046  1.00  0.00    -0.377 A  
HETATM   20  C   UNL     1     -10.035   9.614  65.855  1.00  0.00    -0.351 A  
HETATM   21  C   UNL     1     -10.454   9.600  67.205  1.00  0.00    -0.258 A  
ENDBRANCH   7   8
ENDBRANCH   5   7
TORSDOF 2
ENDMDL
MODEL      144
REMARK 921   NORMALIZED FREE ENERGY PREDICTED BY IDOCK:   -3.99 KCAL/MOL
REMARK 922        TOTAL FREE ENERGY PREDICTED BY IDOCK:   -4.85 KCAL/MOL
REMARK 923 INTER-LIGAND FREE ENERGY PREDICTED BY IDOCK:   -4.48 KCAL/MOL
REMARK 924 INTRA-LIGAND FREE ENERGY PREDICTED BY IDOCK:   -0.37 KCAL/MOL
REMARK 927      BINDING AFFINITY PREDICTED BY RF-SCORE:    0.00 PKD
ROOT
HETATM    1  C   UNL     1     -11.891  14.329  68.463  1.00  0.00    -0.347 C  
HETATM    2  N   UNL     1     -11.477  13.070  69.061  1.00  0.00    -0.285 NA 
HETATM    3  C   UNL     1     -12.180  12.769  70.305  1.00  0.00    -0.277 C  
HETATM    4  C   UNL     1     -11.815  11.306  70.503  1.00  0.00    -0.421 C  
HETATM    5  C   UNL     1     -11.976  10.722  69.099  1.00  0.00    -0.302 C  
HETATM    6  C   UNL     1     -11.678  11.916  68.173  1.00  0.00    -0.320 C  
ENDROOT
BRANCH   5   7
HETATM    7  C   UNL     1     -11.098   9.505  68.762  1.00  0.00    -0.001 C  
BRANCH   7   8
HETATM    8  N   UNL     1     -10.149   9.141  69.850  1.00  0.00    -0.192 NA 
HETATM    9  C   UNL     1     -10.597   8.167  70.805  1.00  0.00    -0.214 A  
HETATM   10  C   UNL     1     -11.889   7.590  70.764  1.00  0.00    -0.254 A  
HETATM   11  C   UNL     1     -12.314   6.601  71.665  1.00  0.00    -0.382 A  
HETATM   12  C   UNL     1     -11.463   6.155  72.661  1.00  0.00    -0.277 A  
HETATM   13  C   UNL     1     -10.196   6.714  72.753  1.00  0.00    -0.208 A  
HETATM   14  C   UNL     1      -9.766   7.709  71.849  1.00  0.00    -0.164 A  
HETATM   15  S   UNL     1      -8.134   8.323  72.164  1.00  0.00    -0.140 SA 
HETATM   16  C   UNL     1      -7.871   9.424  70.801  1.00  0.00    -0.118 A  
HETATM   17  C   UNL     1      -6.586  10.008  70.771  1.00  0.00    -0.040 A  
HETATM   18  C   UNL     1      -6.215  10.878  69.757  1.00  0.00    -0.103 A  
HETATM   19  C   UNL     1      -7.125  11.159  68.758  1.00  0.00    -0.093 A  
HETATM   20  C   UNL     1      -8.404  10.583  68.786  1.00  0.00    -0.136 A  
HETATM   21  C   UNL     1      -8.836   9.708  69.810  1.00  0.00    -0.210 A  
ENDBRANCH   7   8
ENDBRANCH   5   7
TORSDOF 2
ENDMDL
MODEL      145
REMARK 921   NORMALIZED FREE ENERGY PREDICTED BY IDOCK:   -3.98 KCAL/MOL
REMARK 922        TOTAL FREE ENERGY PREDICTED BY IDOCK:   -4.84 KCAL/MOL
REMARK 923 INTER-LIGAND FREE ENERGY PREDICTED BY IDOCK:   -4.50 KCAL/MOL
REMARK 924 INTRA-LIGAND FREE ENERGY PREDICTED BY IDOCK:   -0.34 KCAL/MOL
REMARK 927      BINDING AFFINITY PREDICTED BY RF-SCORE:    0.00 PKD
ROOT
HETATM    1  C   UNL     1     -12.698  10.859  70.864  1.00  0.00    -0.370 C  
HETATM    2  N   UNL     1     -11.965   9.813  71.559  1.00  0.00    -0.395 NA 
HETATM    3  C   UNL     1     -12.829   8.930  72.339  1.00  0.00    -0.380 C  
HETATM    4  C   UNL     1     -11.877   7.787  72.652  1.00  0.00    -0.317 C  
HETATM    5  C   UNL     1     -11.164   7.563  71.317  1.00  0.00    -0.274 C  
HETATM    6  C   UNL     1     -11.189   8.952  70.655  1.00  0.00    -0.266 C  
ENDROOT
BRANCH   5   7
HETATM    7  C   UNL     1      -9.737   6.993  71.394  1.00  0.00    -0.169 C  
BRANCH   7   8
HETATM    8  N   UNL     1      -9.655   5.553  71.028  1.00  0.00    -0.166 NA 
HETATM    9  C   UNL     1      -9.864   4.600  72.081  1.00  0.00    -0.175 A  
HETATM   10  C   UNL     1     -10.101   4.980  73.424  1.00  0.00    -0.194 A  
HETATM   11  C   UNL     1     -10.356   4.054  74.447  1.00  0.00    -0.272 A  
HETATM   12  C   UNL     1     -10.370   2.699  74.172  1.00  0.00    -0.198 A  
HETATM   13  C   UNL     1     -10.115   2.281  72.874  1.00  0.00    -0.206 A  
HETATM   14  C   UNL     1      -9.858   3.210  71.842  1.00  0.00    -0.168 A  
HETATM   15  S   UNL     1      -9.514   2.473  70.267  1.00  0.00    -0.043 SA 
HETATM   16  C   UNL     1      -9.378   3.885  69.206  1.00  0.00    -0.172 A  
HETATM   17  C   UNL     1      -9.170   3.567  67.847  1.00  0.00    -0.230 A  
HETATM   18  C   UNL     1      -9.062   4.559  66.884  1.00  0.00    -0.130 A  
HETATM   19  C   UNL     1      -9.175   5.879  67.276  1.00  0.00    -0.113 A  
HETATM   20  C   UNL     1      -9.378   6.198  68.627  1.00  0.00    -0.121 A  
HETATM   21  C   UNL     1      -9.472   5.223  69.647  1.00  0.00    -0.141 A  
ENDBRANCH   7   8
ENDBRANCH   5   7
TORSDOF 2
ENDMDL
MODEL      146
REMARK 921   NORMALIZED FREE ENERGY PREDICTED BY IDOCK:   -3.97 KCAL/MOL
REMARK 922        TOTAL FREE ENERGY PREDICTED BY IDOCK:   -4.83 KCAL/MOL
REMARK 923 INTER-LIGAND FREE ENERGY PREDICTED BY IDOCK:   -4.88 KCAL/MOL
REMARK 924 INTRA-LIGAND FREE ENERGY PREDICTED BY IDOCK:    0.06 KCAL/MOL
REMARK 927      BINDING AFFINITY PREDICTED BY RF-SCORE:    0.00 PKD
ROOT
HETATM    1  C   UNL     1      -9.019  10.071  63.997  1.00  0.00    -0.240 C  
HETATM    2  N   UNL     1      -9.821  10.429  65.156  1.00  0.00    -0.291 NA 
HETATM    3  C   UNL     1     -10.077   9.299  66.046  1.00  0.00    -0.192 C  
HETATM    4  C   UNL     1     -10.608  10.011  67.280  1.00  0.00    -0.319 C  
HETATM    5  C   UNL     1      -9.656  11.199  67.424  1.00  0.00    -0.183 C  
HETATM    6  C   UNL     1      -9.209  11.482  65.979  1.00  0.00    -0.217 C  
ENDROOT
BRANCH   5   7
HETATM    7  C   UNL     1     -10.231  12.455  68.101  1.00  0.00    -0.225 C  
BRANCH   7   8
HETATM    8  N   UNL     1      -9.787  13.725  67.466  1.00  0.00    -0.226 NA 
HETATM    9  C   UNL     1      -8.509  14.242  67.868  1.00  0.00    -0.168 A  
HETATM   10  C   UNL     1      -7.703  13.617  68.849  1.00  0.00     0.005 A  
HETATM   11  C   UNL     1      -6.432  14.090  69.210  1.00  0.00    -0.114 A  
HETATM   12  C   UNL     1      -5.916  15.225  68.611  1.00  0.00    -0.091 A  
HETATM   13  C   UNL     1      -6.685  15.885  67.663  1.00  0.00    -0.195 A  
HETATM   14  C   UNL     1      -7.965  15.412  67.298  1.00  0.00    -0.202 A  
HETATM   15  S   UNL     1      -8.801  16.420  66.104  1.00  0.00    -0.262 SA 
HETATM   16  C   UNL     1     -10.273  15.488  65.783  1.00  0.00    -0.366 A  
HETATM   17  C   UNL     1     -11.105  16.048  64.789  1.00  0.00    -0.378 A  
HETATM   18  C   UNL     1     -12.285  15.430  64.406  1.00  0.00    -0.161 A  
HETATM   19  C   UNL     1     -12.635  14.237  65.008  1.00  0.00    -0.360 A  
HETATM   20  C   UNL     1     -11.812  13.680  65.999  1.00  0.00    -0.415 A  
HETATM   21  C   UNL     1     -10.612  14.284  66.438  1.00  0.00    -0.286 A  
ENDBRANCH   7   8
ENDBRANCH   5   7
TORSDOF 2
ENDMDL
MODEL      147
REMARK 921   NORMALIZED FREE ENERGY PREDICTED BY IDOCK:   -3.97 KCAL/MOL
REMARK 922        TOTAL FREE ENERGY PREDICTED BY IDOCK:   -4.83 KCAL/MOL
REMARK 923 INTER-LIGAND FREE ENERGY PREDICTED BY IDOCK:   -4.61 KCAL/MOL
REMARK 924 INTRA-LIGAND FREE ENERGY PREDICTED BY IDOCK:   -0.21 KCAL/MOL
REMARK 927      BINDING AFFINITY PREDICTED BY RF-SCORE:    0.00 PKD
ROOT
HETATM    1  C   UNL     1      -9.350   6.813  66.095  1.00  0.00    -0.051 C  
HETATM    2  N   UNL     1      -9.052   8.161  66.553  1.00  0.00    -0.165 NA 
HETATM    3  C   UNL     1      -9.151   9.161  65.493  1.00  0.00    -0.219 C  
HETATM    4  C   UNL     1      -9.132  10.449  66.300  1.00  0.00    -0.180 C  
HETATM    5  C   UNL     1     -10.071  10.134  67.465  1.00  0.00    -0.244 C  
HETATM    6  C   UNL     1      -9.935   8.610  67.639  1.00  0.00    -0.194 C  
ENDROOT
BRANCH   5   7
HETATM    7  C   UNL     1      -9.801  10.885  68.780  1.00  0.00    -0.196 C  
BRANCH   7   8
HETATM    8  N   UNL     1      -9.599   9.984  69.946  1.00  0.00    -0.220 NA 
HETATM    9  C   UNL     1      -8.248   9.601  70.247  1.00  0.00    -0.191 A  
HETATM   10  C   UNL     1      -7.142  10.014  69.466  1.00  0.00    -0.091 A  
HETATM   11  C   UNL     1      -5.815   9.684  69.785  1.00  0.00    -0.036 A  
HETATM   12  C   UNL     1      -5.538   8.910  70.897  1.00  0.00    -0.034 A  
HETATM   13  C   UNL     1      -6.596   8.461  71.675  1.00  0.00    -0.067 A  
HETATM   14  C   UNL     1      -7.932   8.790  71.357  1.00  0.00    -0.133 A  
HETATM   15  S   UNL     1      -9.136   8.084  72.449  1.00  0.00    -0.216 SA 
HETATM   16  C   UNL     1     -10.648   8.792  71.858  1.00  0.00    -0.354 A  
HETATM   17  C   UNL     1     -11.786   8.439  72.616  1.00  0.00    -0.364 A  
HETATM   18  C   UNL     1     -13.043   8.927  72.297  1.00  0.00    -0.491 A  
HETATM   19  C   UNL     1     -13.169   9.784  71.221  1.00  0.00    -0.452 A  
HETATM   20  C   UNL     1     -12.042  10.133  70.463  1.00  0.00    -0.380 A  
HETATM   21  C   UNL     1     -10.743   9.645  70.736  1.00  0.00    -0.331 A  
ENDBRANCH   7   8
ENDBRANCH   5   7
TORSDOF 2
ENDMDL
MODEL      148
REMARK 921   NORMALIZED FREE ENERGY PREDICTED BY IDOCK:   -3.96 KCAL/MOL
REMARK 922        TOTAL FREE ENERGY PREDICTED BY IDOCK:   -4.82 KCAL/MOL
REMARK 923 INTER-LIGAND FREE ENERGY PREDICTED BY IDOCK:   -4.62 KCAL/MOL
REMARK 924 INTRA-LIGAND FREE ENERGY PREDICTED BY IDOCK:   -0.20 KCAL/MOL
REMARK 927      BINDING AFFINITY PREDICTED BY RF-SCORE:    0.00 PKD
ROOT
HETATM    1  C   UNL     1     -11.259  14.808  66.398  1.00  0.00    -0.342 C  
HETATM    2  N   UNL     1     -10.750  13.529  66.866  1.00  0.00    -0.273 NA 
HETATM    3  C   UNL     1     -11.719  12.786  67.668  1.00  0.00    -0.367 C  
HETATM    4  C   UNL     1     -11.069  11.412  67.717  1.00  0.00    -0.323 C  
HETATM    5  C   UNL     1     -10.599  11.206  66.276  1.00  0.00    -0.309 C  
HETATM    6  C   UNL     1     -10.337  12.637  65.772  1.00  0.00    -0.279 C  
ENDROOT
BRANCH   5   7
HETATM    7  C   UNL     1      -9.373  10.299  66.083  1.00  0.00    -0.170 C  
BRANCH   7   8
HETATM    8  N   UNL     1      -8.878   9.695  67.349  1.00  0.00    -0.128 NA 
HETATM    9  C   UNL     1      -7.930  10.461  68.109  1.00  0.00    -0.110 A  
HETATM   10  C   UNL     1      -7.441  11.718  67.681  1.00  0.00    -0.123 A  
HETATM   11  C   UNL     1      -6.554  12.493  68.444  1.00  0.00    -0.070 A  
HETATM   12  C   UNL     1      -6.105  12.034  69.669  1.00  0.00    -0.129 A  
HETATM   13  C   UNL     1      -6.538  10.794  70.114  1.00  0.00    -0.144 A  
HETATM   14  C   UNL     1      -7.430  10.011  69.349  1.00  0.00    -0.113 A  
HETATM   15  S   UNL     1      -7.827   8.442  70.072  1.00  0.00    -0.107 SA 
HETATM   16  C   UNL     1      -9.038   7.800  68.950  1.00  0.00    -0.141 A  
HETATM   17  C   UNL     1      -9.585   6.559  69.339  1.00  0.00    -0.149 A  
HETATM   18  C   UNL     1     -10.560   5.932  68.579  1.00  0.00    -0.317 A  
HETATM   19  C   UNL     1     -11.004   6.551  67.428  1.00  0.00    -0.458 A  
HETATM   20  C   UNL     1     -10.459   7.783  67.035  1.00  0.00    -0.419 A  
HETATM   21  C   UNL     1      -9.448   8.450  67.765  1.00  0.00    -0.149 A  
ENDBRANCH   7   8
ENDBRANCH   5   7
TORSDOF 2
ENDMDL
MODEL      149
REMARK 921   NORMALIZED FREE ENERGY PREDICTED BY IDOCK:   -3.94 KCAL/MOL
REMARK 922        TOTAL FREE ENERGY PREDICTED BY IDOCK:   -4.80 KCAL/MOL
REMARK 923 INTER-LIGAND FREE ENERGY PREDICTED BY IDOCK:   -4.58 KCAL/MOL
REMARK 924 INTRA-LIGAND FREE ENERGY PREDICTED BY IDOCK:   -0.22 KCAL/MOL
REMARK 927      BINDING AFFINITY PREDICTED BY RF-SCORE:    0.00 PKD
ROOT
HETATM    1  C   UNL     1      -6.515   5.537  71.418  1.00  0.00    -0.040 C  
HETATM    2  N   UNL     1      -7.493   6.475  70.888  1.00  0.00    -0.083 NA 
HETATM    3  C   UNL     1      -6.916   7.775  70.554  1.00  0.00    -0.046 C  
HETATM    4  C   UNL     1      -8.040   8.395  69.740  1.00  0.00    -0.117 C  
HETATM    5  C   UNL     1      -8.487   7.240  68.842  1.00  0.00    -0.126 C  
HETATM    6  C   UNL     1      -8.163   5.987  69.675  1.00  0.00    -0.115 C  
ENDROOT
BRANCH   5   7
HETATM    7  C   UNL     1      -9.956   7.261  68.387  1.00  0.00    -0.161 C  
BRANCH   7   8
HETATM    8  N   UNL     1     -10.653   8.540  68.693  1.00  0.00    -0.166 NA 
HETATM    9  C   UNL     1     -11.320   8.629  69.961  1.00  0.00    -0.017 A  
HETATM   10  C   UNL     1     -11.364   7.556  70.883  1.00  0.00    -0.297 A  
HETATM   11  C   UNL     1     -11.972   7.656  72.144  1.00  0.00    -0.344 A  
HETATM   12  C   UNL     1     -12.578   8.837  72.534  1.00  0.00    -0.375 A  
HETATM   13  C   UNL     1     -12.581   9.906  71.649  1.00  0.00    -0.519 A  
HETATM   14  C   UNL     1     -11.971   9.809  70.379  1.00  0.00    -0.148 A  
HETATM   15  S   UNL     1     -12.123  11.268  69.385  1.00  0.00    -0.268 SA 
HETATM   16  C   UNL     1     -11.157  10.859  67.958  1.00  0.00    -0.293 A  
HETATM   17  C   UNL     1     -11.051  11.903  67.014  1.00  0.00    -0.354 A  
HETATM   18  C   UNL     1     -10.312  11.750  65.850  1.00  0.00    -0.280 A  
HETATM   19  C   UNL     1      -9.662  10.552  65.631  1.00  0.00    -0.289 A  
HETATM   20  C   UNL     1      -9.768   9.511  66.565  1.00  0.00    -0.284 A  
HETATM   21  C   UNL     1     -10.527   9.611  67.754  1.00  0.00    -0.256 A  
ENDBRANCH   7   8
ENDBRANCH   5   7
TORSDOF 2
ENDMDL
MODEL      150
REMARK 921   NORMALIZED FREE ENERGY PREDICTED BY IDOCK:   -3.92 KCAL/MOL
REMARK 922        TOTAL FREE ENERGY PREDICTED BY IDOCK:   -4.77 KCAL/MOL
REMARK 923 INTER-LIGAND FREE ENERGY PREDICTED BY IDOCK:   -4.38 KCAL/MOL
REMARK 924 INTRA-LIGAND FREE ENERGY PREDICTED BY IDOCK:   -0.39 KCAL/MOL
REMARK 927      BINDING AFFINITY PREDICTED BY RF-SCORE:    0.00 PKD
ROOT
HETATM    1  C   UNL     1     -13.385  11.183  71.828  1.00  0.00    -0.274 C  
HETATM    2  N   UNL     1     -12.230  10.394  71.429  1.00  0.00    -0.372 NA 
HETATM    3  C   UNL     1     -12.556   8.995  71.166  1.00  0.00    -0.211 C  
HETATM    4  C   UNL     1     -11.291   8.525  70.466  1.00  0.00    -0.235 C  
HETATM    5  C   UNL     1     -10.985   9.676  69.506  1.00  0.00    -0.233 C  
HETATM    6  C   UNL     1     -11.571  10.908  70.219  1.00  0.00    -0.334 C  
ENDROOT
BRANCH   5   7
HETATM    7  C   UNL     1      -9.506   9.879  69.136  1.00  0.00    -0.196 C  
BRANCH   7   8
HETATM    8  N   UNL     1      -9.142   9.303  67.813  1.00  0.00    -0.127 NA 
HETATM    9  C   UNL     1      -8.556   7.992  67.813  1.00  0.00    -0.128 A  
HETATM   10  C   UNL     1      -8.289   7.271  69.001  1.00  0.00    -0.126 A  
HETATM   11  C   UNL     1      -7.762   5.970  69.004  1.00  0.00    -0.092 A  
HETATM   12  C   UNL     1      -7.467   5.336  67.811  1.00  0.00    -0.076 A  
HETATM   13  C   UNL     1      -7.689   6.018  66.622  1.00  0.00    -0.103 A  
HETATM   14  C   UNL     1      -8.217   7.327  66.616  1.00  0.00    -0.118 A  
HETATM   15  S   UNL     1      -8.384   8.037  65.001  1.00  0.00    -0.069 SA 
HETATM   16  C   UNL     1      -9.180   9.582  65.343  1.00  0.00    -0.247 A  
HETATM   17  C   UNL     1      -9.500  10.334  64.193  1.00  0.00    -0.358 A  
HETATM   18  C   UNL     1     -10.143  11.558  64.289  1.00  0.00    -0.338 A  
HETATM   19  C   UNL     1     -10.484  12.032  65.541  1.00  0.00    -0.307 A  
HETATM   20  C   UNL     1     -10.164  11.289  66.687  1.00  0.00    -0.268 A  
HETATM   21  C   UNL     1      -9.489  10.048  66.641  1.00  0.00    -0.171 A  
ENDBRANCH   7   8
ENDBRANCH   5   7
TORSDOF 2
ENDMDL
MODEL      151
REMARK 921   NORMALIZED FREE ENERGY PREDICTED BY IDOCK:   -3.91 KCAL/MOL
REMARK 922        TOTAL FREE ENERGY PREDICTED BY IDOCK:   -4.76 KCAL/MOL
REMARK 923 INTER-LIGAND FREE ENERGY PREDICTED BY IDOCK:   -4.49 KCAL/MOL
REMARK 924 INTRA-LIGAND FREE ENERGY PREDICTED BY IDOCK:   -0.27 KCAL/MOL
REMARK 927      BINDING AFFINITY PREDICTED BY RF-SCORE:    0.00 PKD
ROOT
HETATM    1  C   UNL     1      -5.494  11.218  70.318  1.00  0.00    -0.111 C  
HETATM    2  N   UNL     1      -6.437  10.534  69.449  1.00  0.00    -0.054 NA 
HETATM    3  C   UNL     1      -6.312   9.080  69.500  1.00  0.00    -0.043 C  
HETATM    4  C   UNL     1      -7.589   8.649  68.797  1.00  0.00    -0.096 C  
HETATM    5  C   UNL     1      -8.641   9.582  69.400  1.00  0.00    -0.159 C  
HETATM    6  C   UNL     1      -7.839  10.847  69.759  1.00  0.00     0.252 C  
ENDROOT
BRANCH   5   7
HETATM    7  C   UNL     1      -9.853   9.906  68.512  1.00  0.00    -0.156 C  
BRANCH   7   8
HETATM    8  N   UNL     1     -10.727  10.975  69.070  1.00  0.00    -0.208 NA 
HETATM    9  C   UNL     1     -10.714  12.243  68.397  1.00  0.00    -0.234 A  
HETATM   10  C   UNL     1      -9.891  12.509  67.275  1.00  0.00    -0.204 A  
HETATM   11  C   UNL     1      -9.912  13.730  66.584  1.00  0.00    -0.279 A  
HETATM   12  C   UNL     1     -10.752  14.749  66.996  1.00  0.00    -0.300 A  
HETATM   13  C   UNL     1     -11.556  14.540  68.107  1.00  0.00    -0.359 A  
HETATM   14  C   UNL     1     -11.537  13.313  68.806  1.00  0.00    -0.312 A  
HETATM   15  S   UNL     1     -12.604  13.263  70.220  1.00  0.00    -0.009 SA 
HETATM   16  C   UNL     1     -12.441  11.585  70.763  1.00  0.00    -0.349 A  
HETATM   17  C   UNL     1     -13.261  11.251  71.862  1.00  0.00    -0.491 A  
HETATM   18  C   UNL     1     -13.266   9.971  72.394  1.00  0.00    -0.263 A  
HETATM   19  C   UNL     1     -12.457   9.011  71.819  1.00  0.00    -0.438 A  
HETATM   20  C   UNL     1     -11.637   9.340  70.729  1.00  0.00    -0.345 A  
HETATM   21  C   UNL     1     -11.581  10.636  70.166  1.00  0.00    -0.330 A  
ENDBRANCH   7   8
ENDBRANCH   5   7
TORSDOF 2
ENDMDL
MODEL      152
REMARK 921   NORMALIZED FREE ENERGY PREDICTED BY IDOCK:   -3.91 KCAL/MOL
REMARK 922        TOTAL FREE ENERGY PREDICTED BY IDOCK:   -4.76 KCAL/MOL
REMARK 923 INTER-LIGAND FREE ENERGY PREDICTED BY IDOCK:   -4.45 KCAL/MOL
REMARK 924 INTRA-LIGAND FREE ENERGY PREDICTED BY IDOCK:   -0.31 KCAL/MOL
REMARK 927      BINDING AFFINITY PREDICTED BY RF-SCORE:    0.00 PKD
ROOT
HETATM    1  C   UNL     1     -10.368  13.927  67.668  1.00  0.00    -0.242 C  
HETATM    2  N   UNL     1     -10.353  12.760  68.535  1.00  0.00    -0.236 NA 
HETATM    3  C   UNL     1     -11.638  12.067  68.585  1.00  0.00    -0.319 C  
HETATM    4  C   UNL     1     -11.241  10.760  69.253  1.00  0.00    -0.333 C  
HETATM    5  C   UNL     1      -9.938  10.395  68.541  1.00  0.00    -0.179 C  
HETATM    6  C   UNL     1      -9.350  11.761  68.139  1.00  0.00    -0.190 C  
ENDROOT
BRANCH   5   7
HETATM    7  C   UNL     1      -8.933   9.556  69.349  1.00  0.00    -0.172 C  
BRANCH   7   8
HETATM    8  N   UNL     1      -9.281   8.111  69.408  1.00  0.00    -0.155 NA 
HETATM    9  C   UNL     1      -9.896   7.638  70.616  1.00  0.00    -0.182 A  
HETATM   10  C   UNL     1     -10.137   8.475  71.732  1.00  0.00    -0.351 A  
HETATM   11  C   UNL     1     -10.782   8.030  72.897  1.00  0.00    -0.403 A  
HETATM   12  C   UNL     1     -11.204   6.716  73.000  1.00  0.00    -0.179 A  
HETATM   13  C   UNL     1     -10.963   5.855  71.939  1.00  0.00    -0.321 A  
HETATM   14  C   UNL     1     -10.313   6.299  70.767  1.00  0.00    -0.206 A  
HETATM   15  S   UNL     1     -10.063   5.036  69.549  1.00  0.00    -0.209 SA 
HETATM   16  C   UNL     1      -9.369   5.943  68.195  1.00  0.00    -0.115 A  
HETATM   17  C   UNL     1      -9.133   5.166  67.041  1.00  0.00    -0.112 A  
HETATM   18  C   UNL     1      -8.611   5.731  65.887  1.00  0.00    -0.146 A  
HETATM   19  C   UNL     1      -8.333   7.084  65.878  1.00  0.00    -0.141 A  
HETATM   20  C   UNL     1      -8.562   7.858  67.026  1.00  0.00    -0.128 A  
HETATM   21  C   UNL     1      -9.071   7.323  68.231  1.00  0.00    -0.134 A  
ENDBRANCH   7   8
ENDBRANCH   5   7
TORSDOF 2
ENDMDL
MODEL      153
REMARK 921   NORMALIZED FREE ENERGY PREDICTED BY IDOCK:   -3.90 KCAL/MOL
REMARK 922        TOTAL FREE ENERGY PREDICTED BY IDOCK:   -4.75 KCAL/MOL
REMARK 923 INTER-LIGAND FREE ENERGY PREDICTED BY IDOCK:   -4.35 KCAL/MOL
REMARK 924 INTRA-LIGAND FREE ENERGY PREDICTED BY IDOCK:   -0.40 KCAL/MOL
REMARK 927      BINDING AFFINITY PREDICTED BY RF-SCORE:    0.00 PKD
ROOT
HETATM    1  C   UNL     1      -6.196  11.148  66.541  1.00  0.00    -0.139 C  
HETATM    2  N   UNL     1      -7.177  11.189  67.614  1.00  0.00    -0.091 NA 
HETATM    3  C   UNL     1      -8.544  11.370  67.132  1.00  0.00    -0.151 C  
HETATM    4  C   UNL     1      -9.343  11.038  68.382  1.00  0.00    -0.179 C  
HETATM    5  C   UNL     1      -8.630   9.798  68.923  1.00  0.00    -0.134 C  
HETATM    6  C   UNL     1      -7.179   9.975  68.442  1.00  0.00    -0.073 C  
ENDROOT
BRANCH   5   7
HETATM    7  C   UNL     1      -8.706   9.577  70.443  1.00  0.00    -0.223 C  
BRANCH   7   8
HETATM    8  N   UNL     1      -9.578   8.436  70.833  1.00  0.00    -0.168 NA 
HETATM    9  C   UNL     1     -10.962   8.729  71.080  1.00  0.00    -0.268 A  
HETATM   10  C   UNL     1     -11.494  10.038  71.002  1.00  0.00    -0.463 A  
HETATM   11  C   UNL     1     -12.855  10.323  71.194  1.00  0.00    -0.504 A  
HETATM   12  C   UNL     1     -13.745   9.305  71.487  1.00  0.00    -0.382 A  
HETATM   13  C   UNL     1     -13.260   8.009  71.599  1.00  0.00    -0.358 A  
HETATM   14  C   UNL     1     -11.891   7.720  71.408  1.00  0.00    -0.297 A  
HETATM   15  S   UNL     1     -11.468   6.014  71.638  1.00  0.00    -0.176 SA 
HETATM   16  C   UNL     1      -9.752   5.984  71.200  1.00  0.00    -0.177 A  
HETATM   17  C   UNL     1      -9.171   4.698  71.230  1.00  0.00    -0.191 A  
HETATM   18  C   UNL     1      -7.841   4.501  70.893  1.00  0.00    -0.068 A  
HETATM   19  C   UNL     1      -7.085   5.591  70.511  1.00  0.00    -0.062 A  
HETATM   20  C   UNL     1      -7.658   6.872  70.484  1.00  0.00    -0.091 A  
HETATM   21  C   UNL     1      -9.002   7.126  70.839  1.00  0.00    -0.151 A  
ENDBRANCH   7   8
ENDBRANCH   5   7
TORSDOF 2
ENDMDL
MODEL      154
REMARK 921   NORMALIZED FREE ENERGY PREDICTED BY IDOCK:   -3.86 KCAL/MOL
REMARK 922        TOTAL FREE ENERGY PREDICTED BY IDOCK:   -4.70 KCAL/MOL
REMARK 923 INTER-LIGAND FREE ENERGY PREDICTED BY IDOCK:   -4.66 KCAL/MOL
REMARK 924 INTRA-LIGAND FREE ENERGY PREDICTED BY IDOCK:   -0.05 KCAL/MOL
REMARK 927      BINDING AFFINITY PREDICTED BY RF-SCORE:    0.00 PKD
ROOT
HETATM    1  C   UNL     1      -9.474  15.262  69.159  1.00  0.00    -0.236 C  
HETATM    2  N   UNL     1      -9.309  14.146  68.240  1.00  0.00    -0.199 NA 
HETATM    3  C   UNL     1      -7.919  13.720  68.101  1.00  0.00    -0.150 C  
HETATM    4  C   UNL     1      -8.089  12.387  67.391  1.00  0.00    -0.177 C  
HETATM    5  C   UNL     1      -9.258  11.748  68.142  1.00  0.00    -0.186 C  
HETATM    6  C   UNL     1     -10.077  12.956  68.632  1.00  0.00    -0.128 C  
ENDROOT
BRANCH   5   7
HETATM    7  C   UNL     1     -10.123  10.759  67.342  1.00  0.00    -0.193 C  
BRANCH   7   8
HETATM    8  N   UNL     1     -10.080  10.991  65.872  1.00  0.00    -0.240 NA 
HETATM    9  C   UNL     1      -9.199  10.154  65.106  1.00  0.00    -0.213 A  
HETATM   10  C   UNL     1      -8.369   9.172  65.697  1.00  0.00    -0.131 A  
HETATM   11  C   UNL     1      -7.544   8.318  64.949  1.00  0.00    -0.097 A  
HETATM   12  C   UNL     1      -7.504   8.421  63.569  1.00  0.00    -0.117 A  
HETATM   13  C   UNL     1      -8.283   9.389  62.952  1.00  0.00    -0.165 A  
HETATM   14  C   UNL     1      -9.113  10.250  63.702  1.00  0.00    -0.258 A  
HETATM   15  S   UNL     1      -9.993  11.443  62.730  1.00  0.00     0.033 SA 
HETATM   16  C   UNL     1     -11.011  12.243  63.938  1.00  0.00    -0.406 A  
HETATM   17  C   UNL     1     -11.885  13.215  63.404  1.00  0.00    -0.490 A  
HETATM   18  C   UNL     1     -12.763  13.917  64.215  1.00  0.00    -0.012 A  
HETATM   19  C   UNL     1     -12.780  13.642  65.568  1.00  0.00    -0.514 A  
HETATM   20  C   UNL     1     -11.910  12.680  66.103  1.00  0.00    -0.477 A  
HETATM   21  C   UNL     1     -10.983  11.954  65.320  1.00  0.00    -0.302 A  
ENDBRANCH   7   8
ENDBRANCH   5   7
TORSDOF 2
ENDMDL
MODEL      155
REMARK 921   NORMALIZED FREE ENERGY PREDICTED BY IDOCK:   -3.84 KCAL/MOL
REMARK 922        TOTAL FREE ENERGY PREDICTED BY IDOCK:   -4.69 KCAL/MOL
REMARK 923 INTER-LIGAND FREE ENERGY PREDICTED BY IDOCK:   -4.33 KCAL/MOL
REMARK 924 INTRA-LIGAND FREE ENERGY PREDICTED BY IDOCK:   -0.36 KCAL/MOL
REMARK 927      BINDING AFFINITY PREDICTED BY RF-SCORE:    0.00 PKD
ROOT
HETATM    1  C   UNL     1      -5.910   4.274  66.502  1.00  0.00    -0.023 C  
HETATM    2  N   UNL     1      -7.092   3.932  67.276  1.00  0.00    -0.062 NA 
HETATM    3  C   UNL     1      -6.790   3.128  68.458  1.00  0.00    -0.045 C  
HETATM    4  C   UNL     1      -8.103   3.218  69.218  1.00  0.00    -0.065 C  
HETATM    5  C   UNL     1      -8.474   4.696  69.084  1.00  0.00    -0.089 C  
HETATM    6  C   UNL     1      -7.836   5.109  67.746  1.00  0.00    -0.091 C  
ENDROOT
BRANCH   5   7
HETATM    7  C   UNL     1      -9.975   5.028  69.127  1.00  0.00    -0.196 C  
BRANCH   7   8
HETATM    8  N   UNL     1     -10.298   6.199  69.987  1.00  0.00    -0.193 NA 
HETATM    9  C   UNL     1     -10.319   5.978  71.406  1.00  0.00    -0.220 A  
HETATM   10  C   UNL     1     -10.085   4.710  71.989  1.00  0.00    -0.262 A  
HETATM   11  C   UNL     1     -10.055   4.500  73.376  1.00  0.00    -0.202 A  
HETATM   12  C   UNL     1     -10.272   5.554  74.245  1.00  0.00    -0.292 A  
HETATM   13  C   UNL     1     -10.532   6.810  73.715  1.00  0.00    -0.383 A  
HETATM   14  C   UNL     1     -10.564   7.024  72.320  1.00  0.00    -0.213 A  
HETATM   15  S   UNL     1     -10.954   8.687  71.848  1.00  0.00    -0.363 SA 
HETATM   16  C   UNL     1     -10.779   8.635  70.086  1.00  0.00    -0.234 A  
HETATM   17  C   UNL     1     -10.971   9.880  69.449  1.00  0.00    -0.263 A  
HETATM   18  C   UNL     1     -10.849  10.012  68.074  1.00  0.00    -0.311 A  
HETATM   19  C   UNL     1     -10.519   8.898  67.328  1.00  0.00    -0.348 A  
HETATM   20  C   UNL     1     -10.331   7.658  67.957  1.00  0.00    -0.257 A  
HETATM   21  C   UNL     1     -10.467   7.469  69.351  1.00  0.00    -0.222 A  
ENDBRANCH   7   8
ENDBRANCH   5   7
TORSDOF 2
ENDMDL
MODEL      156
REMARK 921   NORMALIZED FREE ENERGY PREDICTED BY IDOCK:   -3.83 KCAL/MOL
REMARK 922        TOTAL FREE ENERGY PREDICTED BY IDOCK:   -4.68 KCAL/MOL
REMARK 923 INTER-LIGAND FREE ENERGY PREDICTED BY IDOCK:   -4.31 KCAL/MOL
REMARK 924 INTRA-LIGAND FREE ENERGY PREDICTED BY IDOCK:   -0.37 KCAL/MOL
REMARK 927      BINDING AFFINITY PREDICTED BY RF-SCORE:    0.00 PKD
ROOT
HETATM    1  C   UNL     1     -12.083  11.549  69.121  1.00  0.00    -0.263 C  
HETATM    2  N   UNL     1     -11.813  10.927  70.408  1.00  0.00    -0.330 NA 
HETATM    3  C   UNL     1     -13.000  10.332  71.017  1.00  0.00    -0.397 C  
HETATM    4  C   UNL     1     -12.376   9.496  72.122  1.00  0.00    -0.332 C  
HETATM    5  C   UNL     1     -11.180   8.846  71.424  1.00  0.00    -0.382 C  
HETATM    6  C   UNL     1     -10.800   9.864  70.334  1.00  0.00    -0.319 C  
ENDROOT
BRANCH   5   7
HETATM    7  C   UNL     1      -9.980   8.491  72.318  1.00  0.00    -0.315 C  
BRANCH   7   8
HETATM    8  N   UNL     1      -9.249   7.274  71.871  1.00  0.00    -0.134 NA 
HETATM    9  C   UNL     1      -8.036   7.479  71.130  1.00  0.00    -0.095 A  
HETATM   10  C   UNL     1      -7.552   8.766  70.792  1.00  0.00    -0.097 A  
HETATM   11  C   UNL     1      -6.341   8.973  70.113  1.00  0.00    -0.043 A  
HETATM   12  C   UNL     1      -5.565   7.894  69.728  1.00  0.00    -0.023 A  
HETATM   13  C   UNL     1      -6.016   6.614  70.016  1.00  0.00    -0.023 A  
HETATM   14  C   UNL     1      -7.234   6.402  70.698  1.00  0.00    -0.074 A  
HETATM   15  S   UNL     1      -7.652   4.695  70.930  1.00  0.00    -0.069 SA 
HETATM   16  C   UNL     1      -9.124   4.792  71.911  1.00  0.00    -0.135 A  
HETATM   17  C   UNL     1      -9.638   3.538  72.305  1.00  0.00    -0.206 A  
HETATM   18  C   UNL     1     -10.775   3.442  73.093  1.00  0.00    -0.266 A  
HETATM   19  C   UNL     1     -11.397   4.604  73.504  1.00  0.00    -0.353 A  
HETATM   20  C   UNL     1     -10.891   5.852  73.111  1.00  0.00    -0.296 A  
HETATM   21  C   UNL     1      -9.749   6.001  72.290  1.00  0.00    -0.156 A  
ENDBRANCH   7   8
ENDBRANCH   5   7
TORSDOF 2
ENDMDL
MODEL      157
REMARK 921   NORMALIZED FREE ENERGY PREDICTED BY IDOCK:   -3.82 KCAL/MOL
REMARK 922        TOTAL FREE ENERGY PREDICTED BY IDOCK:   -4.66 KCAL/MOL
REMARK 923 INTER-LIGAND FREE ENERGY PREDICTED BY IDOCK:   -4.32 KCAL/MOL
REMARK 924 INTRA-LIGAND FREE ENERGY PREDICTED BY IDOCK:   -0.34 KCAL/MOL
REMARK 927      BINDING AFFINITY PREDICTED BY RF-SCORE:    0.00 PKD
ROOT
HETATM    1  C   UNL     1     -11.183   7.146  72.602  1.00  0.00    -0.293 C  
HETATM    2  N   UNL     1     -10.679   7.274  71.243  1.00  0.00    -0.225 NA 
HETATM    3  C   UNL     1      -9.283   6.867  71.110  1.00  0.00    -0.154 C  
HETATM    4  C   UNL     1      -9.145   6.779  69.598  1.00  0.00    -0.143 C  
HETATM    5  C   UNL     1     -10.435   6.073  69.179  1.00  0.00    -0.321 C  
HETATM    6  C   UNL     1     -11.443   6.484  70.268  1.00  0.00    -0.411 C  
ENDROOT
BRANCH   5   7
HETATM    7  C   UNL     1     -10.957   6.388  67.768  1.00  0.00    -0.332 C  
BRANCH   7   8
HETATM    8  N   UNL     1      -9.907   6.911  66.851  1.00  0.00    -0.172 NA 
HETATM    9  C   UNL     1      -9.154   5.943  66.105  1.00  0.00    -0.150 A  
HETATM   10  C   UNL     1      -9.351   4.547  66.240  1.00  0.00    -0.151 A  
HETATM   11  C   UNL     1      -8.653   3.599  65.476  1.00  0.00    -0.112 A  
HETATM   12  C   UNL     1      -7.712   4.009  64.548  1.00  0.00    -0.081 A  
HETATM   13  C   UNL     1      -7.469   5.367  64.403  1.00  0.00    -0.067 A  
HETATM   14  C   UNL     1      -8.169   6.323  65.170  1.00  0.00    -0.138 A  
HETATM   15  S   UNL     1      -7.681   8.000  64.866  1.00  0.00    -0.125 SA 
HETATM   16  C   UNL     1      -8.821   8.917  65.865  1.00  0.00    -0.179 A  
HETATM   17  C   UNL     1      -8.693  10.318  65.749  1.00  0.00    -0.169 A  
HETATM   18  C   UNL     1      -9.524  11.177  66.450  1.00  0.00    -0.216 A  
HETATM   19  C   UNL     1     -10.501  10.637  67.265  1.00  0.00    -0.293 A  
HETATM   20  C   UNL     1     -10.628   9.246  67.385  1.00  0.00    -0.324 A  
HETATM   21  C   UNL     1      -9.790   8.330  66.708  1.00  0.00    -0.263 A  
ENDBRANCH   7   8
ENDBRANCH   5   7
TORSDOF 2
ENDMDL
MODEL      158
REMARK 921   NORMALIZED FREE ENERGY PREDICTED BY IDOCK:   -3.82 KCAL/MOL
REMARK 922        TOTAL FREE ENERGY PREDICTED BY IDOCK:   -4.66 KCAL/MOL
REMARK 923 INTER-LIGAND FREE ENERGY PREDICTED BY IDOCK:   -4.45 KCAL/MOL
REMARK 924 INTRA-LIGAND FREE ENERGY PREDICTED BY IDOCK:   -0.20 KCAL/MOL
REMARK 927      BINDING AFFINITY PREDICTED BY RF-SCORE:    0.00 PKD
ROOT
HETATM    1  C   UNL     1     -11.919  13.830  67.082  1.00  0.00    -0.405 C  
HETATM    2  N   UNL     1     -11.228  12.741  67.756  1.00  0.00    -0.259 NA 
HETATM    3  C   UNL     1     -11.879  12.332  68.998  1.00  0.00    -0.305 C  
HETATM    4  C   UNL     1     -11.171  11.017  69.281  1.00  0.00    -0.321 C  
HETATM    5  C   UNL     1     -11.132  10.348  67.907  1.00  0.00    -0.363 C  
HETATM    6  C   UNL     1     -11.106  11.534  66.926  1.00  0.00    -0.307 C  
ENDROOT
BRANCH   5   7
HETATM    7  C   UNL     1      -9.969   9.373  67.656  1.00  0.00    -0.190 C  
BRANCH   7   8
HETATM    8  N   UNL     1      -9.177   9.069  68.879  1.00  0.00    -0.139 NA 
HETATM    9  C   UNL     1      -8.081   9.946  69.180  1.00  0.00    -0.118 A  
HETATM   10  C   UNL     1      -7.721  11.036  68.351  1.00  0.00    -0.119 A  
HETATM   11  C   UNL     1      -6.682  11.925  68.667  1.00  0.00    -0.074 A  
HETATM   12  C   UNL     1      -5.947  11.754  69.826  1.00  0.00    -0.126 A  
HETATM   13  C   UNL     1      -6.249  10.682  70.653  1.00  0.00    -0.045 A  
HETATM   14  C   UNL     1      -7.293   9.784  70.338  1.00  0.00    -0.141 A  
HETATM   15  S   UNL     1      -7.490   8.460  71.499  1.00  0.00    -0.105 SA 
HETATM   16  C   UNL     1      -8.930   7.628  70.889  1.00  0.00    -0.148 A  
HETATM   17  C   UNL     1      -9.357   6.548  71.691  1.00  0.00    -0.147 A  
HETATM   18  C   UNL     1     -10.481   5.807  71.362  1.00  0.00    -0.296 A  
HETATM   19  C   UNL     1     -11.195   6.152  70.231  1.00  0.00    -0.439 A  
HETATM   20  C   UNL     1     -10.772   7.222  69.429  1.00  0.00    -0.236 A  
HETATM   21  C   UNL     1      -9.620   7.993  69.711  1.00  0.00    -0.171 A  
ENDBRANCH   7   8
ENDBRANCH   5   7
TORSDOF 2
ENDMDL
MODEL      159
REMARK 921   NORMALIZED FREE ENERGY PREDICTED BY IDOCK:   -3.80 KCAL/MOL
REMARK 922        TOTAL FREE ENERGY PREDICTED BY IDOCK:   -4.64 KCAL/MOL
REMARK 923 INTER-LIGAND FREE ENERGY PREDICTED BY IDOCK:   -4.72 KCAL/MOL
REMARK 924 INTRA-LIGAND FREE ENERGY PREDICTED BY IDOCK:    0.08 KCAL/MOL
REMARK 927      BINDING AFFINITY PREDICTED BY RF-SCORE:    0.00 PKD
ROOT
HETATM    1  C   UNL     1     -13.322  11.844  63.855  1.00  0.00     0.435 C  
HETATM    2  N   UNL     1     -11.929  11.900  64.268  1.00  0.00    -0.297 NA 
HETATM    3  C   UNL     1     -11.036  12.362  63.209  1.00  0.00    -0.267 C  
HETATM    4  C   UNL     1      -9.765  12.640  63.997  1.00  0.00     0.137 C  
HETATM    5  C   UNL     1     -10.287  13.353  65.245  1.00  0.00    -0.330 C  
HETATM    6  C   UNL     1     -11.705  12.781  65.423  1.00  0.00    -0.387 C  
ENDROOT
BRANCH   5   7
HETATM    7  C   UNL     1      -9.443  13.198  66.521  1.00  0.00    -0.243 C  
BRANCH   7   8
HETATM    8  N   UNL     1     -10.145  12.463  67.609  1.00  0.00    -0.196 NA 
HETATM    9  C   UNL     1     -10.881  13.251  68.557  1.00  0.00    -0.265 A  
HETATM   10  C   UNL     1     -10.925  14.665  68.510  1.00  0.00    -0.261 A  
HETATM   11  C   UNL     1     -11.683  15.436  69.404  1.00  0.00    -0.369 A  
HETATM   12  C   UNL     1     -12.423  14.822  70.399  1.00  0.00    -0.405 A  
HETATM   13  C   UNL     1     -12.386  13.439  70.498  1.00  0.00    -0.401 A  
HETATM   14  C   UNL     1     -11.624  12.660  69.600  1.00  0.00    -0.251 A  
HETATM   15  S   UNL     1     -11.675  10.918  69.922  1.00  0.00    -0.370 SA 
HETATM   16  C   UNL     1     -10.750  10.251  68.567  1.00  0.00    -0.227 A  
HETATM   17  C   UNL     1     -10.695   8.841  68.544  1.00  0.00    -0.108 A  
HETATM   18  C   UNL     1     -10.026   8.163  67.536  1.00  0.00    -0.251 A  
HETATM   19  C   UNL     1      -9.417   8.895  66.536  1.00  0.00    -0.272 A  
HETATM   20  C   UNL     1      -9.466  10.297  66.558  1.00  0.00    -0.212 A  
HETATM   21  C   UNL     1     -10.116  11.033  67.575  1.00  0.00    -0.180 A  
ENDBRANCH   7   8
ENDBRANCH   5   7
TORSDOF 2
ENDMDL
MODEL      160
REMARK 921   NORMALIZED FREE ENERGY PREDICTED BY IDOCK:   -3.80 KCAL/MOL
REMARK 922        TOTAL FREE ENERGY PREDICTED BY IDOCK:   -4.64 KCAL/MOL
REMARK 923 INTER-LIGAND FREE ENERGY PREDICTED BY IDOCK:   -4.30 KCAL/MOL
REMARK 924 INTRA-LIGAND FREE ENERGY PREDICTED BY IDOCK:   -0.34 KCAL/MOL
REMARK 927      BINDING AFFINITY PREDICTED BY RF-SCORE:    0.00 PKD
ROOT
HETATM    1  C   UNL     1     -11.981  14.852  68.909  1.00  0.00    -0.260 C  
HETATM    2  N   UNL     1     -11.394  13.525  68.994  1.00  0.00    -0.273 NA 
HETATM    3  C   UNL     1     -12.140  12.623  69.868  1.00  0.00    -0.252 C  
HETATM    4  C   UNL     1     -11.524  11.282  69.503  1.00  0.00    -0.376 C  
HETATM    5  C   UNL     1     -11.439  11.350  67.977  1.00  0.00    -0.377 C  
HETATM    6  C   UNL     1     -11.288  12.855  67.690  1.00  0.00    -0.303 C  
ENDROOT
BRANCH   5   7
HETATM    7  C   UNL     1     -10.319  10.527  67.320  1.00  0.00    -0.228 C  
BRANCH   7   8
HETATM    8  N   UNL     1      -9.437   9.838  68.301  1.00  0.00    -0.139 NA 
HETATM    9  C   UNL     1      -9.738   8.465  68.594  1.00  0.00    -0.164 A  
HETATM   10  C   UNL     1     -10.838   7.782  68.022  1.00  0.00    -0.046 A  
HETATM   11  C   UNL     1     -11.107   6.426  68.266  1.00  0.00    -0.359 A  
HETATM   12  C   UNL     1     -10.289   5.695  69.109  1.00  0.00    -0.328 A  
HETATM   13  C   UNL     1      -9.215   6.333  69.713  1.00  0.00    -0.150 A  
HETATM   14  C   UNL     1      -8.942   7.697  69.470  1.00  0.00    -0.139 A  
HETATM   15  S   UNL     1      -7.553   8.334  70.368  1.00  0.00    -0.078 SA 
HETATM   16  C   UNL     1      -7.416   9.984  69.740  1.00  0.00    -0.151 A  
HETATM   17  C   UNL     1      -6.318  10.708  70.253  1.00  0.00    -0.141 A  
HETATM   18  C   UNL     1      -6.059  12.007  69.846  1.00  0.00    -0.150 A  
HETATM   19  C   UNL     1      -6.893  12.589  68.911  1.00  0.00    -0.098 A  
HETATM   20  C   UNL     1      -7.988  11.874  68.403  1.00  0.00    -0.154 A  
HETATM   21  C   UNL     1      -8.306  10.556  68.803  1.00  0.00    -0.136 A  
ENDBRANCH   7   8
ENDBRANCH   5   7
TORSDOF 2
ENDMDL
MODEL      161
REMARK 921   NORMALIZED FREE ENERGY PREDICTED BY IDOCK:   -3.76 KCAL/MOL
REMARK 922        TOTAL FREE ENERGY PREDICTED BY IDOCK:   -4.59 KCAL/MOL
REMARK 923 INTER-LIGAND FREE ENERGY PREDICTED BY IDOCK:   -4.64 KCAL/MOL
REMARK 924 INTRA-LIGAND FREE ENERGY PREDICTED BY IDOCK:    0.05 KCAL/MOL
REMARK 927      BINDING AFFINITY PREDICTED BY RF-SCORE:    0.00 PKD
ROOT
HETATM    1  C   UNL     1     -10.482   8.854  70.870  1.00  0.00    -0.236 C  
HETATM    2  N   UNL     1     -10.022   8.642  69.507  1.00  0.00    -0.191 NA 
HETATM    3  C   UNL     1     -10.505   7.391  68.928  1.00  0.00    -0.203 C  
HETATM    4  C   UNL     1     -10.173   7.599  67.459  1.00  0.00    -0.294 C  
HETATM    5  C   UNL     1     -10.606   9.045  67.214  1.00  0.00    -0.301 C  
HETATM    6  C   UNL     1     -10.427   9.715  68.588  1.00  0.00    -0.210 C  
ENDROOT
BRANCH   5   7
HETATM    7  C   UNL     1      -9.854   9.802  66.106  1.00  0.00    -0.263 C  
BRANCH   7   8
HETATM    8  N   UNL     1      -9.347  11.133  66.538  1.00  0.00    -0.176 NA 
HETATM    9  C   UNL     1     -10.246  12.246  66.408  1.00  0.00    -0.225 A  
HETATM   10  C   UNL     1     -11.546  12.122  65.862  1.00  0.00    -0.425 A  
HETATM   11  C   UNL     1     -12.446  13.195  65.778  1.00  0.00    -0.441 A  
HETATM   12  C   UNL     1     -12.076  14.450  66.228  1.00  0.00    -0.384 A  
HETATM   13  C   UNL     1     -10.800  14.622  66.746  1.00  0.00    -0.312 A  
HETATM   14  C   UNL     1      -9.892  13.544  66.830  1.00  0.00    -0.257 A  
HETATM   15  S   UNL     1      -8.302  13.980  67.481  1.00  0.00    -0.204 SA 
HETATM   16  C   UNL     1      -7.484  12.411  67.574  1.00  0.00    -0.150 A  
HETATM   17  C   UNL     1      -6.192  12.467  68.139  1.00  0.00    -0.065 A  
HETATM   18  C   UNL     1      -5.428  11.321  68.301  1.00  0.00    -0.042 A  
HETATM   19  C   UNL     1      -5.959  10.108  67.909  1.00  0.00    -0.041 A  
HETATM   20  C   UNL     1      -7.241  10.050  67.343  1.00  0.00    -0.085 A  
HETATM   21  C   UNL     1      -8.049  11.192  67.137  1.00  0.00    -0.138 A  
ENDBRANCH   7   8
ENDBRANCH   5   7
TORSDOF 2
ENDMDL
MODEL      162
REMARK 921   NORMALIZED FREE ENERGY PREDICTED BY IDOCK:   -3.75 KCAL/MOL
REMARK 922        TOTAL FREE ENERGY PREDICTED BY IDOCK:   -4.59 KCAL/MOL
REMARK 923 INTER-LIGAND FREE ENERGY PREDICTED BY IDOCK:   -4.19 KCAL/MOL
REMARK 924 INTRA-LIGAND FREE ENERGY PREDICTED BY IDOCK:   -0.39 KCAL/MOL
REMARK 927      BINDING AFFINITY PREDICTED BY RF-SCORE:    0.00 PKD
ROOT
HETATM    1  C   UNL     1      -6.213   9.176  71.426  1.00  0.00    -0.078 C  
HETATM    2  N   UNL     1      -6.532   9.323  70.015  1.00  0.00    -0.046 NA 
HETATM    3  C   UNL     1      -7.616   8.447  69.579  1.00  0.00    -0.090 C  
HETATM    4  C   UNL     1      -7.948   9.043  68.220  1.00  0.00    -0.104 C  
HETATM    5  C   UNL     1      -7.929  10.548  68.495  1.00  0.00    -0.118 C  
HETATM    6  C   UNL     1      -6.925  10.692  69.653  1.00  0.00    -0.134 C  
ENDROOT
BRANCH   5   7
HETATM    7  C   UNL     1      -7.565  11.453  67.306  1.00  0.00    -0.138 C  
BRANCH   7   8
HETATM    8  N   UNL     1      -8.690  11.663  66.355  1.00  0.00    -0.190 NA 
HETATM    9  C   UNL     1      -9.685  12.629  66.727  1.00  0.00    -0.240 A  
HETATM   10  C   UNL     1      -9.646  13.338  67.952  1.00  0.00    -0.217 A  
HETATM   11  C   UNL     1     -10.588  14.319  68.298  1.00  0.00    -0.247 A  
HETATM   12  C   UNL     1     -11.623  14.625  67.434  1.00  0.00    -0.408 A  
HETATM   13  C   UNL     1     -11.715  13.935  66.234  1.00  0.00    -0.402 A  
HETATM   14  C   UNL     1     -10.769  12.946  65.883  1.00  0.00    -0.271 A  
HETATM   15  S   UNL     1     -11.087  12.153  64.331  1.00  0.00    -0.358 SA 
HETATM   16  C   UNL     1      -9.676  11.099  64.144  1.00  0.00    -0.276 A  
HETATM   17  C   UNL     1      -9.643  10.387  62.926  1.00  0.00    -0.331 A  
HETATM   18  C   UNL     1      -8.594   9.535  62.618  1.00  0.00    -0.212 A  
HETATM   19  C   UNL     1      -7.562   9.400  63.524  1.00  0.00    -0.115 A  
HETATM   20  C   UNL     1      -7.592  10.103  64.738  1.00  0.00    -0.139 A  
HETATM   21  C   UNL     1      -8.650  10.965  65.106  1.00  0.00    -0.078 A  
ENDBRANCH   7   8
ENDBRANCH   5   7
TORSDOF 2
ENDMDL
MODEL      163
REMARK 921   NORMALIZED FREE ENERGY PREDICTED BY IDOCK:   -3.74 KCAL/MOL
REMARK 922        TOTAL FREE ENERGY PREDICTED BY IDOCK:   -4.57 KCAL/MOL
REMARK 923 INTER-LIGAND FREE ENERGY PREDICTED BY IDOCK:   -4.20 KCAL/MOL
REMARK 924 INTRA-LIGAND FREE ENERGY PREDICTED BY IDOCK:   -0.37 KCAL/MOL
REMARK 927      BINDING AFFINITY PREDICTED BY RF-SCORE:    0.00 PKD
ROOT
HETATM    1  C   UNL     1     -12.047  14.404  69.141  1.00  0.00    -0.281 C  
HETATM    2  N   UNL     1     -11.685  13.684  67.931  1.00  0.00    -0.340 NA 
HETATM    3  C   UNL     1     -10.441  14.161  67.332  1.00  0.00    -0.271 C  
HETATM    4  C   UNL     1     -10.149  13.051  66.336  1.00  0.00    -0.279 C  
HETATM    5  C   UNL     1     -10.450  11.784  67.139  1.00  0.00    -0.250 C  
HETATM    6  C   UNL     1     -11.524  12.239  68.144  1.00  0.00    -0.316 C  
ENDROOT
BRANCH   5   7
HETATM    7  C   UNL     1     -10.906  10.558  66.332  1.00  0.00    -0.024 C  
BRANCH   7   8
HETATM    8  N   UNL     1      -9.861   9.504  66.215  1.00  0.00    -0.246 NA 
HETATM    9  C   UNL     1      -9.119   9.457  64.987  1.00  0.00    -0.215 A  
HETATM   10  C   UNL     1      -9.370  10.334  63.904  1.00  0.00    -0.337 A  
HETATM   11  C   UNL     1      -8.614  10.325  62.722  1.00  0.00    -0.199 A  
HETATM   12  C   UNL     1      -7.577   9.424  62.566  1.00  0.00    -0.110 A  
HETATM   13  C   UNL     1      -7.313   8.528  63.592  1.00  0.00    -0.106 A  
HETATM   14  C   UNL     1      -8.072   8.534  64.783  1.00  0.00    -0.151 A  
HETATM   15  S   UNL     1      -7.606   7.285  65.950  1.00  0.00    -0.094 SA 
HETATM   16  C   UNL     1      -8.639   7.656  67.340  1.00  0.00    -0.125 A  
HETATM   17  C   UNL     1      -8.412   6.832  68.464  1.00  0.00    -0.123 A  
HETATM   18  C   UNL     1      -9.125   7.008  69.640  1.00  0.00    -0.144 A  
HETATM   19  C   UNL     1     -10.063   8.020  69.703  1.00  0.00    -0.198 A  
HETATM   20  C   UNL     1     -10.293   8.838  68.587  1.00  0.00    -0.230 A  
HETATM   21  C   UNL     1      -9.608   8.684  67.360  1.00  0.00    -0.159 A  
ENDBRANCH   7   8
ENDBRANCH   5   7
TORSDOF 2
ENDMDL
MODEL      164
REMARK 921   NORMALIZED FREE ENERGY PREDICTED BY IDOCK:   -3.73 KCAL/MOL
REMARK 922        TOTAL FREE ENERGY PREDICTED BY IDOCK:   -4.56 KCAL/MOL
REMARK 923 INTER-LIGAND FREE ENERGY PREDICTED BY IDOCK:   -5.17 KCAL/MOL
REMARK 924 INTRA-LIGAND FREE ENERGY PREDICTED BY IDOCK:    0.61 KCAL/MOL
REMARK 927      BINDING AFFINITY PREDICTED BY RF-SCORE:    0.00 PKD
ROOT
HETATM    1  C   UNL     1      -6.627  11.549  67.052  1.00  0.00    -0.138 C  
HETATM    2  N   UNL     1      -7.981  11.293  66.585  1.00  0.00    -0.158 NA 
HETATM    3  C   UNL     1      -8.061  10.178  65.646  1.00  0.00    -0.149 C  
HETATM    4  C   UNL     1      -9.561   9.934  65.606  1.00  0.00    -0.320 C  
HETATM    5  C   UNL     1      -9.961  10.029  67.080  1.00  0.00    -0.257 C  
HETATM    6  C   UNL     1      -8.920  10.995  67.676  1.00  0.00    -0.142 C  
ENDROOT
BRANCH   5   7
HETATM    7  C   UNL     1     -11.399  10.490  67.367  1.00  0.00    -0.039 C  
BRANCH   7   8
HETATM    8  N   UNL     1     -11.582  11.963  67.254  1.00  0.00    -0.506 NA 
HETATM    9  C   UNL     1     -11.670  12.508  65.928  1.00  0.00    -0.426 A  
HETATM   10  C   UNL     1     -11.553  11.713  64.763  1.00  0.00    -0.170 A  
HETATM   11  C   UNL     1     -11.688  12.233  63.466  1.00  0.00    -0.584 A  
HETATM   12  C   UNL     1     -11.934  13.582  63.279  1.00  0.00    -0.182 A  
HETATM   13  C   UNL     1     -12.029  14.402  64.394  1.00  0.00    -0.471 A  
HETATM   14  C   UNL     1     -11.892  13.882  65.700  1.00  0.00    -0.371 A  
HETATM   15  S   UNL     1     -12.003  15.099  66.983  1.00  0.00     0.283 SA 
HETATM   16  C   UNL     1     -11.929  14.112  68.453  1.00  0.00    -0.331 A  
HETATM   17  C   UNL     1     -12.070  14.847  69.649  1.00  0.00    -0.334 A  
HETATM   18  C   UNL     1     -12.055  14.220  70.886  1.00  0.00    -0.417 A  
HETATM   19  C   UNL     1     -11.911  12.847  70.931  1.00  0.00     0.254 A  
HETATM   20  C   UNL     1     -11.766  12.114  69.744  1.00  0.00    -0.381 A  
HETATM   21  C   UNL     1     -11.753  12.711  68.462  1.00  0.00    -0.330 A  
ENDBRANCH   7   8
ENDBRANCH   5   7
TORSDOF 2
ENDMDL
MODEL      165
REMARK 921   NORMALIZED FREE ENERGY PREDICTED BY IDOCK:   -3.71 KCAL/MOL
REMARK 922        TOTAL FREE ENERGY PREDICTED BY IDOCK:   -4.54 KCAL/MOL
REMARK 923 INTER-LIGAND FREE ENERGY PREDICTED BY IDOCK:   -4.21 KCAL/MOL
REMARK 924 INTRA-LIGAND FREE ENERGY PREDICTED BY IDOCK:   -0.33 KCAL/MOL
REMARK 927      BINDING AFFINITY PREDICTED BY RF-SCORE:    0.00 PKD
ROOT
HETATM    1  C   UNL     1     -11.772   5.983  72.132  1.00  0.00    -0.279 C  
HETATM    2  N   UNL     1     -10.973   6.718  71.164  1.00  0.00    -0.248 NA 
HETATM    3  C   UNL     1     -11.351   6.441  69.781  1.00  0.00    -0.427 C  
HETATM    4  C   UNL     1     -10.623   7.556  69.048  1.00  0.00    -0.190 C  
HETATM    5  C   UNL     1     -10.889   8.776  69.931  1.00  0.00    -0.211 C  
HETATM    6  C   UNL     1     -11.051   8.175  71.339  1.00  0.00    -0.247 C  
ENDROOT
BRANCH   5   7
HETATM    7  C   UNL     1      -9.823   9.884  69.901  1.00  0.00    -0.245 C  
BRANCH   7   8
HETATM    8  N   UNL     1      -9.166  10.038  68.575  1.00  0.00    -0.137 NA 
HETATM    9  C   UNL     1      -9.830  10.869  67.611  1.00  0.00    -0.171 A  
HETATM   10  C   UNL     1     -11.073  11.497  67.867  1.00  0.00    -0.317 A  
HETATM   11  C   UNL     1     -11.702  12.351  66.948  1.00  0.00    -0.432 A  
HETATM   12  C   UNL     1     -11.117  12.604  65.720  1.00  0.00    -0.332 A  
HETATM   13  C   UNL     1      -9.911  11.987  65.418  1.00  0.00    -0.279 A  
HETATM   14  C   UNL     1      -9.277  11.127  66.340  1.00  0.00    -0.183 A  
HETATM   15  S   UNL     1      -7.770  10.407  65.746  1.00  0.00    -0.145 SA 
HETATM   16  C   UNL     1      -7.186   9.520  67.164  1.00  0.00    -0.087 A  
HETATM   17  C   UNL     1      -5.933   8.896  66.979  1.00  0.00    -0.057 A  
HETATM   18  C   UNL     1      -5.329   8.179  68.000  1.00  0.00    -0.034 A  
HETATM   19  C   UNL     1      -5.970   8.093  69.220  1.00  0.00    -0.037 A  
HETATM   20  C   UNL     1      -7.217   8.708  69.406  1.00  0.00    -0.057 A  
HETATM   21  C   UNL     1      -7.883   9.431  68.390  1.00  0.00    -0.090 A  
ENDBRANCH   7   8
ENDBRANCH   5   7
TORSDOF 2
ENDMDL
MODEL      166
REMARK 921   NORMALIZED FREE ENERGY PREDICTED BY IDOCK:   -3.69 KCAL/MOL
REMARK 922        TOTAL FREE ENERGY PREDICTED BY IDOCK:   -4.51 KCAL/MOL
REMARK 923 INTER-LIGAND FREE ENERGY PREDICTED BY IDOCK:   -4.86 KCAL/MOL
REMARK 924 INTRA-LIGAND FREE ENERGY PREDICTED BY IDOCK:    0.35 KCAL/MOL
REMARK 927      BINDING AFFINITY PREDICTED BY RF-SCORE:    0.00 PKD
ROOT
HETATM    1  C   UNL     1     -10.531  12.813  63.911  1.00  0.00    -0.372 C  
HETATM    2  N   UNL     1     -10.887  13.514  65.134  1.00  0.00    -0.314 NA 
HETATM    3  C   UNL     1     -12.325  13.523  65.392  1.00  0.00    -0.478 C  
HETATM    4  C   UNL     1     -12.362  13.994  66.837  1.00  0.00    -0.321 C  
HETATM    5  C   UNL     1     -11.237  13.188  67.487  1.00  0.00    -0.314 C  
HETATM    6  C   UNL     1     -10.248  12.949  66.331  1.00  0.00    -0.267 C  
ENDROOT
BRANCH   5   7
HETATM    7  C   UNL     1     -10.550  13.834  68.702  1.00  0.00    -0.253 C  
BRANCH   7   8
HETATM    8  N   UNL     1      -9.245  14.471  68.374  1.00  0.00    -0.191 NA 
HETATM    9  C   UNL     1      -8.089  13.620  68.364  1.00  0.00    -0.146 A  
HETATM   10  C   UNL     1      -8.149  12.242  68.683  1.00  0.00    -0.029 A  
HETATM   11  C   UNL     1      -7.031  11.395  68.626  1.00  0.00    -0.087 A  
HETATM   12  C   UNL     1      -5.796  11.897  68.258  1.00  0.00    -0.050 A  
HETATM   13  C   UNL     1      -5.687  13.248  67.963  1.00  0.00    -0.119 A  
HETATM   14  C   UNL     1      -6.810  14.103  68.020  1.00  0.00    -0.145 A  
HETATM   15  S   UNL     1      -6.453  15.799  67.650  1.00  0.00    -0.173 SA 
HETATM   16  C   UNL     1      -8.061  16.542  67.679  1.00  0.00    -0.163 A  
HETATM   17  C   UNL     1      -8.070  17.912  67.339  1.00  0.00    -0.217 A  
HETATM   18  C   UNL     1      -9.252  18.636  67.295  1.00  0.00    -0.297 A  
HETATM   19  C   UNL     1     -10.437  17.987  67.580  1.00  0.00    -0.408 A  
HETATM   20  C   UNL     1     -10.431  16.626  67.922  1.00  0.00    -0.322 A  
HETATM   21  C   UNL     1      -9.251  15.853  68.002  1.00  0.00    -0.192 A  
ENDBRANCH   7   8
ENDBRANCH   5   7
TORSDOF 2
ENDMDL
MODEL      167
REMARK 921   NORMALIZED FREE ENERGY PREDICTED BY IDOCK:   -3.67 KCAL/MOL
REMARK 922        TOTAL FREE ENERGY PREDICTED BY IDOCK:   -4.50 KCAL/MOL
REMARK 923 INTER-LIGAND FREE ENERGY PREDICTED BY IDOCK:   -4.12 KCAL/MOL
REMARK 924 INTRA-LIGAND FREE ENERGY PREDICTED BY IDOCK:   -0.38 KCAL/MOL
REMARK 927      BINDING AFFINITY PREDICTED BY RF-SCORE:    0.00 PKD
ROOT
HETATM    1  C   UNL     1     -13.524  12.372  72.036  1.00  0.00    -0.360 C  
HETATM    2  N   UNL     1     -12.907  11.607  70.965  1.00  0.00    -0.295 NA 
HETATM    3  C   UNL     1     -12.081  12.424  70.079  1.00  0.00    -0.263 C  
HETATM    4  C   UNL     1     -11.325  11.353  69.310  1.00  0.00    -0.355 C  
HETATM    5  C   UNL     1     -10.934  10.359  70.404  1.00  0.00    -0.320 C  
HETATM    6  C   UNL     1     -12.050  10.517  71.452  1.00  0.00    -0.282 C  
ENDROOT
BRANCH   5   7
HETATM    7  C   UNL     1     -10.766   8.894  69.965  1.00  0.00    -0.228 C  
BRANCH   7   8
HETATM    8  N   UNL     1      -9.351   8.516  69.697  1.00  0.00    -0.157 NA 
HETATM    9  C   UNL     1      -8.931   8.502  68.324  1.00  0.00    -0.139 A  
HETATM   10  C   UNL     1      -9.807   8.792  67.250  1.00  0.00    -0.260 A  
HETATM   11  C   UNL     1      -9.388   8.829  65.911  1.00  0.00    -0.284 A  
HETATM   12  C   UNL     1      -8.071   8.561  65.585  1.00  0.00    -0.119 A  
HETATM   13  C   UNL     1      -7.184   8.246  66.605  1.00  0.00    -0.081 A  
HETATM   14  C   UNL     1      -7.602   8.207  67.954  1.00  0.00    -0.102 A  
HETATM   15  S   UNL     1      -6.331   7.742  69.097  1.00  0.00    -0.036 SA 
HETATM   16  C   UNL     1      -7.140   7.923  70.662  1.00  0.00    -0.049 A  
HETATM   17  C   UNL     1      -6.307   7.676  71.775  1.00  0.00    -0.039 A  
HETATM   18  C   UNL     1      -6.783   7.795  73.071  1.00  0.00    -0.080 A  
HETATM   19  C   UNL     1      -8.096   8.178  73.263  1.00  0.00    -0.246 A  
HETATM   20  C   UNL     1      -8.928   8.421  72.160  1.00  0.00    -0.293 A  
HETATM   21  C   UNL     1      -8.495   8.291  70.820  1.00  0.00    -0.132 A  
ENDBRANCH   7   8
ENDBRANCH   5   7
TORSDOF 2
ENDMDL
MODEL      168
REMARK 921   NORMALIZED FREE ENERGY PREDICTED BY IDOCK:   -3.67 KCAL/MOL
REMARK 922        TOTAL FREE ENERGY PREDICTED BY IDOCK:   -4.49 KCAL/MOL
REMARK 923 INTER-LIGAND FREE ENERGY PREDICTED BY IDOCK:   -4.03 KCAL/MOL
REMARK 924 INTRA-LIGAND FREE ENERGY PREDICTED BY IDOCK:   -0.47 KCAL/MOL
REMARK 927      BINDING AFFINITY PREDICTED BY RF-SCORE:    0.00 PKD
ROOT
HETATM    1  C   UNL     1      -7.622   4.400  71.468  1.00  0.00    -0.073 C  
HETATM    2  N   UNL     1      -8.787   5.227  71.195  1.00  0.00    -0.133 NA 
HETATM    3  C   UNL     1      -8.986   6.281  72.186  1.00  0.00    -0.137 C  
HETATM    4  C   UNL     1     -10.014   7.154  71.485  1.00  0.00    -0.190 C  
HETATM    5  C   UNL     1      -9.485   7.219  70.051  1.00  0.00    -0.161 C  
HETATM    6  C   UNL     1      -8.731   5.887  69.883  1.00  0.00    -0.129 C  
ENDROOT
BRANCH   5   7
HETATM    7  C   UNL     1     -10.535   7.425  68.946  1.00  0.00    -0.203 C  
BRANCH   7   8
HETATM    8  N   UNL     1     -10.238   8.580  68.056  1.00  0.00    -0.204 NA 
HETATM    9  C   UNL     1      -9.532   8.298  66.838  1.00  0.00    -0.186 A  
HETATM   10  C   UNL     1      -9.091   6.999  66.490  1.00  0.00    -0.183 A  
HETATM   11  C   UNL     1      -8.444   6.710  65.278  1.00  0.00    -0.078 A  
HETATM   12  C   UNL     1      -8.198   7.718  64.363  1.00  0.00    -0.041 A  
HETATM   13  C   UNL     1      -8.590   9.012  64.676  1.00  0.00    -0.190 A  
HETATM   14  C   UNL     1      -9.240   9.306  65.895  1.00  0.00    -0.219 A  
HETATM   15  S   UNL     1      -9.619  11.022  66.123  1.00  0.00    -0.217 SA 
HETATM   16  C   UNL     1     -10.524  11.014  67.645  1.00  0.00    -0.204 A  
HETATM   17  C   UNL     1     -11.017  12.280  68.030  1.00  0.00    -0.265 A  
HETATM   18  C   UNL     1     -11.764  12.440  69.187  1.00  0.00    -0.376 A  
HETATM   19  C   UNL     1     -12.033  11.329  69.962  1.00  0.00    -0.447 A  
HETATM   20  C   UNL     1     -11.542  10.070  69.584  1.00  0.00    -0.156 A  
HETATM   21  C   UNL     1     -10.758   9.861  68.426  1.00  0.00    -0.232 A  
ENDBRANCH   7   8
ENDBRANCH   5   7
TORSDOF 2
ENDMDL
MODEL      169
REMARK 921   NORMALIZED FREE ENERGY PREDICTED BY IDOCK:   -3.66 KCAL/MOL
REMARK 922        TOTAL FREE ENERGY PREDICTED BY IDOCK:   -4.48 KCAL/MOL
REMARK 923 INTER-LIGAND FREE ENERGY PREDICTED BY IDOCK:   -4.29 KCAL/MOL
REMARK 924 INTRA-LIGAND FREE ENERGY PREDICTED BY IDOCK:   -0.18 KCAL/MOL
REMARK 927      BINDING AFFINITY PREDICTED BY RF-SCORE:    0.00 PKD
ROOT
HETATM    1  C   UNL     1     -11.432   7.634  72.620  1.00  0.00    -0.349 C  
HETATM    2  N   UNL     1     -10.927   7.664  71.256  1.00  0.00    -0.236 NA 
HETATM    3  C   UNL     1      -9.558   7.167  71.142  1.00  0.00    -0.164 C  
HETATM    4  C   UNL     1      -9.432   6.996  69.637  1.00  0.00    -0.147 C  
HETATM    5  C   UNL     1     -10.764   6.350  69.254  1.00  0.00    -0.349 C  
HETATM    6  C   UNL     1     -11.741   6.876  70.321  1.00  0.00    -0.291 C  
ENDROOT
BRANCH   5   7
HETATM    7  C   UNL     1     -11.271   6.628  67.829  1.00  0.00    -0.150 C  
BRANCH   7   8
HETATM    8  N   UNL     1     -10.188   6.987  66.874  1.00  0.00    -0.240 NA 
HETATM    9  C   UNL     1      -9.908   8.385  66.703  1.00  0.00    -0.273 A  
HETATM   10  C   UNL     1     -10.636   9.401  67.368  1.00  0.00    -0.326 A  
HETATM   11  C   UNL     1     -10.334  10.765  67.243  1.00  0.00    -0.262 A  
HETATM   12  C   UNL     1      -9.292  11.176  66.432  1.00  0.00    -0.207 A  
HETATM   13  C   UNL     1      -8.569  10.215  65.740  1.00  0.00    -0.159 A  
HETATM   14  C   UNL     1      -8.871   8.841  65.863  1.00  0.00    -0.186 A  
HETATM   15  S   UNL     1      -7.860   7.781  64.866  1.00  0.00    -0.128 SA 
HETATM   16  C   UNL     1      -8.401   6.167  65.354  1.00  0.00    -0.150 A  
HETATM   17  C   UNL     1      -7.690   5.111  64.745  1.00  0.00    -0.086 A  
HETATM   18  C   UNL     1      -7.978   3.786  65.037  1.00  0.00    -0.090 A  
HETATM   19  C   UNL     1      -8.975   3.511  65.952  1.00  0.00    -0.142 A  
HETATM   20  C   UNL     1      -9.687   4.558  66.556  1.00  0.00    -0.220 A  
HETATM   21  C   UNL     1      -9.444   5.922  66.275  1.00  0.00    -0.139 A  
ENDBRANCH   7   8
ENDBRANCH   5   7
TORSDOF 2
ENDMDL
MODEL      170
REMARK 921   NORMALIZED FREE ENERGY PREDICTED BY IDOCK:   -3.65 KCAL/MOL
REMARK 922        TOTAL FREE ENERGY PREDICTED BY IDOCK:   -4.47 KCAL/MOL
REMARK 923 INTER-LIGAND FREE ENERGY PREDICTED BY IDOCK:   -4.16 KCAL/MOL
REMARK 924 INTRA-LIGAND FREE ENERGY PREDICTED BY IDOCK:   -0.31 KCAL/MOL
REMARK 927      BINDING AFFINITY PREDICTED BY RF-SCORE:    0.00 PKD
ROOT
HETATM    1  C   UNL     1     -11.902  15.384  68.611  1.00  0.00    -0.296 C  
HETATM    2  N   UNL     1     -11.272  14.080  68.478  1.00  0.00    -0.251 NA 
HETATM    3  C   UNL     1     -11.826  13.081  69.388  1.00  0.00    -0.322 C  
HETATM    4  C   UNL     1     -11.247  11.801  68.808  1.00  0.00    -0.308 C  
HETATM    5  C   UNL     1     -11.435  11.993  67.303  1.00  0.00    -0.403 C  
HETATM    6  C   UNL     1     -11.380  13.521  67.123  1.00  0.00    -0.321 C  
ENDROOT
BRANCH   5   7
HETATM    7  C   UNL     1     -10.426  11.274  66.392  1.00  0.00    -0.257 C  
BRANCH   7   8
HETATM    8  N   UNL     1      -9.359  10.557  67.142  1.00  0.00    -0.154 NA 
HETATM    9  C   UNL     1      -9.538   9.146  67.341  1.00  0.00    -0.151 A  
HETATM   10  C   UNL     1     -10.684   8.448  66.890  1.00  0.00    -0.163 A  
HETATM   11  C   UNL     1     -10.842   7.061  67.038  1.00  0.00    -0.413 A  
HETATM   12  C   UNL     1      -9.859   6.311  67.659  1.00  0.00    -0.135 A  
HETATM   13  C   UNL     1      -8.731   6.960  68.139  1.00  0.00    -0.126 A  
HETATM   14  C   UNL     1      -8.570   8.355  67.994  1.00  0.00    -0.135 A  
HETATM   15  S   UNL     1      -7.082   8.996  68.713  1.00  0.00    -0.071 SA 
HETATM   16  C   UNL     1      -7.134  10.702  68.240  1.00  0.00    -0.081 A  
HETATM   17  C   UNL     1      -6.001  11.446  68.636  1.00  0.00    -0.042 A  
HETATM   18  C   UNL     1      -5.878  12.791  68.325  1.00  0.00    -0.072 A  
HETATM   19  C   UNL     1      -6.886  13.400  67.602  1.00  0.00    -0.172 A  
HETATM   20  C   UNL     1      -8.015  12.665  67.210  1.00  0.00    -0.166 A  
HETATM   21  C   UNL     1      -8.195  11.298  67.523  1.00  0.00    -0.124 A  
ENDBRANCH   7   8
ENDBRANCH   5   7
TORSDOF 2
ENDMDL
MODEL      171
REMARK 921   NORMALIZED FREE ENERGY PREDICTED BY IDOCK:   -3.65 KCAL/MOL
REMARK 922        TOTAL FREE ENERGY PREDICTED BY IDOCK:   -4.47 KCAL/MOL
REMARK 923 INTER-LIGAND FREE ENERGY PREDICTED BY IDOCK:   -4.13 KCAL/MOL
REMARK 924 INTRA-LIGAND FREE ENERGY PREDICTED BY IDOCK:   -0.34 KCAL/MOL
REMARK 927      BINDING AFFINITY PREDICTED BY RF-SCORE:    0.00 PKD
ROOT
HETATM    1  C   UNL     1     -11.953  12.778  69.281  1.00  0.00    -0.246 C  
HETATM    2  N   UNL     1     -11.809  11.875  68.150  1.00  0.00    -0.497 NA 
HETATM    3  C   UNL     1     -10.995  12.432  67.072  1.00  0.00    -0.260 C  
HETATM    4  C   UNL     1     -10.742  11.196  66.225  1.00  0.00    -0.298 C  
HETATM    5  C   UNL     1     -10.420  10.127  67.270  1.00  0.00    -0.313 C  
HETATM    6  C   UNL     1     -11.203  10.586  68.512  1.00  0.00    -0.274 C  
ENDROOT
BRANCH   5   7
HETATM    7  C   UNL     1     -10.756   8.676  66.886  1.00  0.00    -0.082 C  
BRANCH   7   8
HETATM    8  N   UNL     1      -9.727   7.694  67.324  1.00  0.00    -0.157 NA 
HETATM    9  C   UNL     1      -8.526   7.617  66.541  1.00  0.00    -0.133 A  
HETATM   10  C   UNL     1      -8.316   8.399  65.379  1.00  0.00    -0.166 A  
HETATM   11  C   UNL     1      -7.123   8.364  64.640  1.00  0.00    -0.080 A  
HETATM   12  C   UNL     1      -6.089   7.531  65.026  1.00  0.00    -0.038 A  
HETATM   13  C   UNL     1      -6.263   6.728  66.144  1.00  0.00    -0.045 A  
HETATM   14  C   UNL     1      -7.462   6.759  66.889  1.00  0.00    -0.083 A  
HETATM   15  S   UNL     1      -7.501   5.628  68.253  1.00  0.00    -0.078 SA 
HETATM   16  C   UNL     1      -9.046   6.018  69.028  1.00  0.00    -0.122 A  
HETATM   17  C   UNL     1      -9.298   5.291  70.211  1.00  0.00    -0.207 A  
HETATM   18  C   UNL     1     -10.455   5.494  70.948  1.00  0.00    -0.319 A  
HETATM   19  C   UNL     1     -11.362   6.438  70.511  1.00  0.00    -0.438 A  
HETATM   20  C   UNL     1     -11.117   7.160  69.334  1.00  0.00    -0.141 A  
HETATM   21  C   UNL     1      -9.964   6.973  68.537  1.00  0.00    -0.155 A  
ENDBRANCH   7   8
ENDBRANCH   5   7
TORSDOF 2
ENDMDL
MODEL      172
REMARK 921   NORMALIZED FREE ENERGY PREDICTED BY IDOCK:   -3.63 KCAL/MOL
REMARK 922        TOTAL FREE ENERGY PREDICTED BY IDOCK:   -4.45 KCAL/MOL
REMARK 923 INTER-LIGAND FREE ENERGY PREDICTED BY IDOCK:   -4.10 KCAL/MOL
REMARK 924 INTRA-LIGAND FREE ENERGY PREDICTED BY IDOCK:   -0.35 KCAL/MOL
REMARK 927      BINDING AFFINITY PREDICTED BY RF-SCORE:    0.00 PKD
ROOT
HETATM    1  C   UNL     1      -9.610  15.205  69.126  1.00  0.00    -0.232 C  
HETATM    2  N   UNL     1      -9.455  14.046  68.262  1.00  0.00    -0.212 NA 
HETATM    3  C   UNL     1      -8.257  13.265  68.560  1.00  0.00    -0.084 C  
HETATM    4  C   UNL     1      -8.532  11.992  67.776  1.00  0.00    -0.157 C  
HETATM    5  C   UNL     1     -10.005  11.716  68.080  1.00  0.00    -0.194 C  
HETATM    6  C   UNL     1     -10.592  13.117  68.333  1.00  0.00    -0.251 C  
ENDROOT
BRANCH   5   7
HETATM    7  C   UNL     1     -10.792  10.953  67.001  1.00  0.00    -0.266 C  
BRANCH   7   8
HETATM    8  N   UNL     1     -10.011   9.860  66.360  1.00  0.00    -0.230 NA 
HETATM    9  C   UNL     1      -9.924   8.617  67.073  1.00  0.00    -0.249 A  
HETATM   10  C   UNL     1     -10.512   8.420  68.346  1.00  0.00    -0.208 A  
HETATM   11  C   UNL     1     -10.473   7.192  69.025  1.00  0.00    -0.221 A  
HETATM   12  C   UNL     1      -9.829   6.106  68.461  1.00  0.00    -0.157 A  
HETATM   13  C   UNL     1      -9.216   6.262  67.226  1.00  0.00    -0.119 A  
HETATM   14  C   UNL     1      -9.253   7.497  66.541  1.00  0.00    -0.174 A  
HETATM   15  S   UNL     1      -8.375   7.502  65.001  1.00  0.00    -0.001 SA 
HETATM   16  C   UNL     1      -8.732   9.115  64.364  1.00  0.00    -0.153 A  
HETATM   17  C   UNL     1      -8.197   9.361  63.081  1.00  0.00    -0.165 A  
HETATM   18  C   UNL     1      -8.404  10.569  62.433  1.00  0.00    -0.239 A  
HETATM   19  C   UNL     1      -9.161  11.537  63.062  1.00  0.00    -0.224 A  
HETATM   20  C   UNL     1      -9.691  11.299  64.339  1.00  0.00    -0.293 A  
HETATM   21  C   UNL     1      -9.489  10.092  65.048  1.00  0.00    -0.271 A  
ENDBRANCH   7   8
ENDBRANCH   5   7
TORSDOF 2
ENDMDL
MODEL      173
REMARK 921   NORMALIZED FREE ENERGY PREDICTED BY IDOCK:   -3.63 KCAL/MOL
REMARK 922        TOTAL FREE ENERGY PREDICTED BY IDOCK:   -4.45 KCAL/MOL
REMARK 923 INTER-LIGAND FREE ENERGY PREDICTED BY IDOCK:   -4.17 KCAL/MOL
REMARK 924 INTRA-LIGAND FREE ENERGY PREDICTED BY IDOCK:   -0.28 KCAL/MOL
REMARK 927      BINDING AFFINITY PREDICTED BY RF-SCORE:    0.00 PKD
ROOT
HETATM    1  C   UNL     1      -7.702  10.519  69.294  1.00  0.00    -0.144 C  
HETATM    2  N   UNL     1      -9.017   9.972  68.999  1.00  0.00    -0.153 NA 
HETATM    3  C   UNL     1      -9.523  10.375  67.689  1.00  0.00    -0.148 C  
HETATM    4  C   UNL     1     -10.693   9.420  67.520  1.00  0.00    -0.290 C  
HETATM    5  C   UNL     1     -10.118   8.087  68.001  1.00  0.00    -0.238 C  
HETATM    6  C   UNL     1      -9.052   8.504  69.031  1.00  0.00    -0.146 C  
ENDROOT
BRANCH   5   7
HETATM    7  C   UNL     1     -11.123   7.085  68.593  1.00  0.00    -0.014 C  
BRANCH   7   8
HETATM    8  N   UNL     1     -10.510   5.780  68.962  1.00  0.00    -0.243 NA 
HETATM    9  C   UNL     1     -10.501   5.436  70.356  1.00  0.00    -0.275 A  
HETATM   10  C   UNL     1     -11.009   6.294  71.361  1.00  0.00    -0.327 A  
HETATM   11  C   UNL     1     -11.048   5.941  72.719  1.00  0.00    -0.321 A  
HETATM   12  C   UNL     1     -10.565   4.713  73.133  1.00  0.00    -0.283 A  
HETATM   13  C   UNL     1     -10.033   3.852  72.184  1.00  0.00    -0.243 A  
HETATM   14  C   UNL     1      -9.992   4.204  70.817  1.00  0.00    -0.122 A  
HETATM   15  S   UNL     1      -9.236   2.987  69.774  1.00  0.00    -0.146 SA 
HETATM   16  C   UNL     1      -9.469   3.671  68.157  1.00  0.00    -0.156 A  
HETATM   17  C   UNL     1      -9.009   2.846  67.109  1.00  0.00    -0.181 A  
HETATM   18  C   UNL     1      -9.136   3.228  65.782  1.00  0.00    -0.153 A  
HETATM   19  C   UNL     1      -9.739   4.437  65.496  1.00  0.00    -0.206 A  
HETATM   20  C   UNL     1     -10.194   5.262  66.535  1.00  0.00    -0.293 A  
HETATM   21  C   UNL     1     -10.067   4.926  67.902  1.00  0.00    -0.085 A  
ENDBRANCH   7   8
ENDBRANCH   5   7
TORSDOF 2
ENDMDL
MODEL      174
REMARK 921   NORMALIZED FREE ENERGY PREDICTED BY IDOCK:   -3.62 KCAL/MOL
REMARK 922        TOTAL FREE ENERGY PREDICTED BY IDOCK:   -4.44 KCAL/MOL
REMARK 923 INTER-LIGAND FREE ENERGY PREDICTED BY IDOCK:   -4.84 KCAL/MOL
REMARK 924 INTRA-LIGAND FREE ENERGY PREDICTED BY IDOCK:    0.40 KCAL/MOL
REMARK 927      BINDING AFFINITY PREDICTED BY RF-SCORE:    0.00 PKD
ROOT
HETATM    1  C   UNL     1     -11.514  13.036  63.430  1.00  0.00    -0.251 C  
HETATM    2  N   UNL     1     -11.370  13.409  64.829  1.00  0.00    -0.324 NA 
HETATM    3  C   UNL     1     -12.455  14.262  65.308  1.00  0.00    -0.421 C  
HETATM    4  C   UNL     1     -12.234  14.202  66.811  1.00  0.00    -0.429 C  
HETATM    5  C   UNL     1     -11.948  12.720  67.055  1.00  0.00    -0.364 C  
HETATM    6  C   UNL     1     -11.314  12.251  65.732  1.00  0.00    -0.355 C  
ENDROOT
BRANCH   5   7
HETATM    7  C   UNL     1     -11.057  12.388  68.264  1.00  0.00    -0.243 C  
BRANCH   7   8
HETATM    8  N   UNL     1      -9.639  12.121  67.899  1.00  0.00    -0.192 NA 
HETATM    9  C   UNL     1      -9.318  10.790  67.466  1.00  0.00    -0.147 A  
HETATM   10  C   UNL     1     -10.275   9.748  67.414  1.00  0.00    -0.284 A  
HETATM   11  C   UNL     1      -9.978   8.460  66.944  1.00  0.00    -0.341 A  
HETATM   12  C   UNL     1      -8.699   8.152  66.516  1.00  0.00    -0.160 A  
HETATM   13  C   UNL     1      -7.723   9.137  66.576  1.00  0.00    -0.096 A  
HETATM   14  C   UNL     1      -8.019  10.434  67.049  1.00  0.00    -0.116 A  
HETATM   15  S   UNL     1      -6.627  11.531  67.086  1.00  0.00    -0.137 SA 
HETATM   16  C   UNL     1      -7.361  13.063  67.586  1.00  0.00    -0.147 A  
HETATM   17  C   UNL     1      -6.460  14.149  67.628  1.00  0.00    -0.153 A  
HETATM   18  C   UNL     1      -6.882  15.421  67.981  1.00  0.00    -0.152 A  
HETATM   19  C   UNL     1      -8.215  15.619  68.282  1.00  0.00    -0.142 A  
HETATM   20  C   UNL     1      -9.113  14.541  68.245  1.00  0.00    -0.196 A  
HETATM   21  C   UNL     1      -8.726  13.222  67.913  1.00  0.00    -0.192 A  
ENDBRANCH   7   8
ENDBRANCH   5   7
TORSDOF 2
ENDMDL
MODEL      175
REMARK 921   NORMALIZED FREE ENERGY PREDICTED BY IDOCK:   -3.58 KCAL/MOL
REMARK 922        TOTAL FREE ENERGY PREDICTED BY IDOCK:   -4.39 KCAL/MOL
REMARK 923 INTER-LIGAND FREE ENERGY PREDICTED BY IDOCK:   -4.18 KCAL/MOL
REMARK 924 INTRA-LIGAND FREE ENERGY PREDICTED BY IDOCK:   -0.21 KCAL/MOL
REMARK 927      BINDING AFFINITY PREDICTED BY RF-SCORE:    0.00 PKD
ROOT
HETATM    1  C   UNL     1      -5.277  10.798  70.231  1.00  0.00    -0.057 C  
HETATM    2  N   UNL     1      -6.176   9.973  69.439  1.00  0.00    -0.044 NA 
HETATM    3  C   UNL     1      -5.525   8.790  68.883  1.00  0.00    -0.037 C  
HETATM    4  C   UNL     1      -6.728   7.981  68.424  1.00  0.00    -0.067 C  
HETATM    5  C   UNL     1      -7.702   8.127  69.594  1.00  0.00    -0.101 C  
HETATM    6  C   UNL     1      -7.340   9.496  70.198  1.00  0.00    -0.124 C  
ENDROOT
BRANCH   5   7
HETATM    7  C   UNL     1      -9.199   8.032  69.250  1.00  0.00    -0.152 C  
BRANCH   7   8
HETATM    8  N   UNL     1     -10.023   7.458  70.349  1.00  0.00    -0.188 NA 
HETATM    9  C   UNL     1     -11.054   8.296  70.894  1.00  0.00    -0.261 A  
HETATM   10  C   UNL     1     -11.277   9.623  70.454  1.00  0.00    -0.342 A  
HETATM   11  C   UNL     1     -12.315  10.428  70.948  1.00  0.00    -0.480 A  
HETATM   12  C   UNL     1     -13.172   9.941  71.919  1.00  0.00    -0.558 A  
HETATM   13  C   UNL     1     -12.973   8.653  72.397  1.00  0.00    -0.403 A  
HETATM   14  C   UNL     1     -11.928   7.841  71.903  1.00  0.00    -0.301 A  
HETATM   15  S   UNL     1     -11.817   6.249  72.673  1.00  0.00     0.026 SA 
HETATM   16  C   UNL     1     -10.527   5.466  71.746  1.00  0.00    -0.226 A  
HETATM   17  C   UNL     1     -10.278   4.128  72.120  1.00  0.00    -0.220 A  
HETATM   18  C   UNL     1      -9.313   3.368  71.476  1.00  0.00    -0.210 A  
HETATM   19  C   UNL     1      -8.597   3.942  70.444  1.00  0.00    -0.111 A  
HETATM   20  C   UNL     1      -8.838   5.273  70.073  1.00  0.00    -0.140 A  
HETATM   21  C   UNL     1      -9.796   6.093  70.713  1.00  0.00    -0.186 A  
ENDBRANCH   7   8
ENDBRANCH   5   7
TORSDOF 2
ENDMDL
MODEL      176
REMARK 921   NORMALIZED FREE ENERGY PREDICTED BY IDOCK:   -3.57 KCAL/MOL
REMARK 922        TOTAL FREE ENERGY PREDICTED BY IDOCK:   -4.38 KCAL/MOL
REMARK 923 INTER-LIGAND FREE ENERGY PREDICTED BY IDOCK:   -4.05 KCAL/MOL
REMARK 924 INTRA-LIGAND FREE ENERGY PREDICTED BY IDOCK:   -0.34 KCAL/MOL
REMARK 927      BINDING AFFINITY PREDICTED BY RF-SCORE:    0.00 PKD
ROOT
HETATM    1  C   UNL     1     -12.975  10.312  71.740  1.00  0.00    -0.469 C  
HETATM    2  N   UNL     1     -12.003   9.237  71.622  1.00  0.00    -0.354 NA 
HETATM    3  C   UNL     1     -12.619   7.915  71.537  1.00  0.00    -0.321 C  
HETATM    4  C   UNL     1     -11.438   7.068  71.090  1.00  0.00    -0.333 C  
HETATM    5  C   UNL     1     -10.784   7.936  70.014  1.00  0.00    -0.244 C  
HETATM    6  C   UNL     1     -11.132   9.372  70.446  1.00  0.00    -0.261 C  
ENDROOT
BRANCH   5   7
HETATM    7  C   UNL     1      -9.271   7.750  69.815  1.00  0.00    -0.150 C  
BRANCH   7   8
HETATM    8  N   UNL     1      -8.860   7.728  68.384  1.00  0.00    -0.131 NA 
HETATM    9  C   UNL     1      -9.021   6.488  67.679  1.00  0.00    -0.114 A  
HETATM   10  C   UNL     1      -9.510   5.312  68.298  1.00  0.00    -0.155 A  
HETATM   11  C   UNL     1      -9.717   4.111  67.601  1.00  0.00    -0.176 A  
HETATM   12  C   UNL     1      -9.429   4.032  66.250  1.00  0.00    -0.199 A  
HETATM   13  C   UNL     1      -8.923   5.154  65.611  1.00  0.00    -0.154 A  
HETATM   14  C   UNL     1      -8.712   6.363  66.309  1.00  0.00    -0.143 A  
HETATM   15  S   UNL     1      -8.019   7.662  65.323  1.00  0.00    -0.134 SA 
HETATM   16  C   UNL     1      -8.016   9.033  66.445  1.00  0.00    -0.103 A  
HETATM   17  C   UNL     1      -7.566  10.244  65.876  1.00  0.00    -0.134 A  
HETATM   18  C   UNL     1      -7.523  11.415  66.617  1.00  0.00    -0.110 A  
HETATM   19  C   UNL     1      -7.943  11.384  67.932  1.00  0.00    -0.120 A  
HETATM   20  C   UNL     1      -8.387  10.182  68.502  1.00  0.00    -0.116 A  
HETATM   21  C   UNL     1      -8.429   8.958  67.794  1.00  0.00    -0.125 A  
ENDBRANCH   7   8
ENDBRANCH   5   7
TORSDOF 2
ENDMDL
MODEL      177
REMARK 921   NORMALIZED FREE ENERGY PREDICTED BY IDOCK:   -3.56 KCAL/MOL
REMARK 922        TOTAL FREE ENERGY PREDICTED BY IDOCK:   -4.38 KCAL/MOL
REMARK 923 INTER-LIGAND FREE ENERGY PREDICTED BY IDOCK:   -4.72 KCAL/MOL
REMARK 924 INTRA-LIGAND FREE ENERGY PREDICTED BY IDOCK:    0.34 KCAL/MOL
REMARK 927      BINDING AFFINITY PREDICTED BY RF-SCORE:    0.00 PKD
ROOT
HETATM    1  C   UNL     1     -10.285  11.337  63.760  1.00  0.00    -0.377 C  
HETATM    2  N   UNL     1     -10.698  12.233  64.829  1.00  0.00    -0.287 NA 
HETATM    3  C   UNL     1     -12.041  12.774  64.634  1.00  0.00    -0.423 C  
HETATM    4  C   UNL     1     -12.322  13.363  66.007  1.00  0.00    -0.471 C  
HETATM    5  C   UNL     1     -11.811  12.278  66.955  1.00  0.00    -0.329 C  
HETATM    6  C   UNL     1     -10.688  11.595  66.153  1.00  0.00    -0.278 C  
ENDROOT
BRANCH   5   7
HETATM    7  C   UNL     1     -11.320  12.753  68.333  1.00  0.00    -0.295 C  
BRANCH   7   8
HETATM    8  N   UNL     1      -9.959  13.353  68.303  1.00  0.00    -0.237 NA 
HETATM    9  C   UNL     1      -9.878  14.774  68.112  1.00  0.00    -0.221 A  
HETATM   10  C   UNL     1     -11.019  15.589  67.921  1.00  0.00    -0.316 A  
HETATM   11  C   UNL     1     -10.949  16.984  67.785  1.00  0.00    -0.199 A  
HETATM   12  C   UNL     1      -9.724  17.625  67.820  1.00  0.00    -0.280 A  
HETATM   13  C   UNL     1      -8.577  16.861  67.979  1.00  0.00    -0.214 A  
HETATM   14  C   UNL     1      -8.644  15.457  68.115  1.00  0.00    -0.152 A  
HETATM   15  S   UNL     1      -7.066  14.664  68.263  1.00  0.00    -0.129 SA 
HETATM   16  C   UNL     1      -7.515  12.974  68.547  1.00  0.00    -0.123 A  
HETATM   17  C   UNL     1      -6.417  12.115  68.775  1.00  0.00    -0.078 A  
HETATM   18  C   UNL     1      -6.600  10.766  69.034  1.00  0.00    -0.058 A  
HETATM   19  C   UNL     1      -7.888  10.268  69.079  1.00  0.00    -0.114 A  
HETATM   20  C   UNL     1      -8.981  11.117  68.849  1.00  0.00    -0.089 A  
HETATM   21  C   UNL     1      -8.844  12.494  68.560  1.00  0.00    -0.046 A  
ENDBRANCH   7   8
ENDBRANCH   5   7
TORSDOF 2
ENDMDL
MODEL      178
REMARK 921   NORMALIZED FREE ENERGY PREDICTED BY IDOCK:   -3.53 KCAL/MOL
REMARK 922        TOTAL FREE ENERGY PREDICTED BY IDOCK:   -4.34 KCAL/MOL
REMARK 923 INTER-LIGAND FREE ENERGY PREDICTED BY IDOCK:   -4.54 KCAL/MOL
REMARK 924 INTRA-LIGAND FREE ENERGY PREDICTED BY IDOCK:    0.20 KCAL/MOL
REMARK 927      BINDING AFFINITY PREDICTED BY RF-SCORE:    0.00 PKD
ROOT
HETATM    1  C   UNL     1     -13.220  10.732  71.853  1.00  0.00    -0.419 C  
HETATM    2  N   UNL     1     -12.815   9.338  71.931  1.00  0.00    -0.372 NA 
HETATM    3  C   UNL     1     -13.925   8.407  71.734  1.00  0.00    -0.420 C  
HETATM    4  C   UNL     1     -13.179   7.099  71.529  1.00  0.00    -0.419 C  
HETATM    5  C   UNL     1     -12.036   7.501  70.596  1.00  0.00    -0.161 C  
HETATM    6  C   UNL     1     -11.785   8.979  70.945  1.00  0.00    -0.276 C  
ENDROOT
BRANCH   5   7
HETATM    7  C   UNL     1     -10.749   6.665  70.695  1.00  0.00    -0.241 C  
BRANCH   7   8
HETATM    8  N   UNL     1      -9.517   7.433  70.367  1.00  0.00    -0.165 NA 
HETATM    9  C   UNL     1      -9.387   7.910  69.019  1.00  0.00    -0.151 A  
HETATM   10  C   UNL     1     -10.351   7.646  68.016  1.00  0.00    -0.257 A  
HETATM   11  C   UNL     1     -10.254   8.152  66.710  1.00  0.00    -0.372 A  
HETATM   12  C   UNL     1      -9.174   8.937  66.346  1.00  0.00    -0.240 A  
HETATM   13  C   UNL     1      -8.193   9.198  67.292  1.00  0.00    -0.114 A  
HETATM   14  C   UNL     1      -8.287   8.689  68.606  1.00  0.00    -0.122 A  
HETATM   15  S   UNL     1      -6.912   9.100  69.646  1.00  0.00    -0.058 SA 
HETATM   16  C   UNL     1      -7.409   8.440  71.213  1.00  0.00    -0.086 A  
HETATM   17  C   UNL     1      -6.500   8.698  72.262  1.00  0.00    -0.075 A  
HETATM   18  C   UNL     1      -6.752   8.267  73.555  1.00  0.00    -0.142 A  
HETATM   19  C   UNL     1      -7.925   7.583  73.809  1.00  0.00    -0.173 A  
HETATM   20  C   UNL     1      -8.828   7.321  72.769  1.00  0.00    -0.156 A  
HETATM   21  C   UNL     1      -8.605   7.722  71.431  1.00  0.00    -0.120 A  
ENDBRANCH   7   8
ENDBRANCH   5   7
TORSDOF 2
ENDMDL
MODEL      179
REMARK 921   NORMALIZED FREE ENERGY PREDICTED BY IDOCK:   -3.52 KCAL/MOL
REMARK 922        TOTAL FREE ENERGY PREDICTED BY IDOCK:   -4.33 KCAL/MOL
REMARK 923 INTER-LIGAND FREE ENERGY PREDICTED BY IDOCK:   -4.00 KCAL/MOL
REMARK 924 INTRA-LIGAND FREE ENERGY PREDICTED BY IDOCK:   -0.33 KCAL/MOL
REMARK 927      BINDING AFFINITY PREDICTED BY RF-SCORE:    0.00 PKD
ROOT
HETATM    1  C   UNL     1     -12.120  12.212  69.219  1.00  0.00    -0.178 C  
HETATM    2  N   UNL     1     -11.676  11.086  68.413  1.00  0.00    -0.501 NA 
HETATM    3  C   UNL     1     -10.570  11.423  67.519  1.00  0.00    -0.213 C  
HETATM    4  C   UNL     1     -10.112  10.040  67.084  1.00  0.00    -0.265 C  
HETATM    5  C   UNL     1     -10.134   9.247  68.391  1.00  0.00    -0.215 C  
HETATM    6  C   UNL     1     -11.233   9.939  69.217  1.00  0.00    -0.130 C  
ENDROOT
BRANCH   5   7
HETATM    7  C   UNL     1     -10.380   7.734  68.266  1.00  0.00    -0.198 C  
BRANCH   7   8
HETATM    8  N   UNL     1      -9.573   6.922  69.218  1.00  0.00    -0.149 NA 
HETATM    9  C   UNL     1      -8.189   6.723  68.893  1.00  0.00    -0.121 A  
HETATM   10  C   UNL     1      -7.598   7.230  67.711  1.00  0.00    -0.110 A  
HETATM   11  C   UNL     1      -6.234   7.082  67.413  1.00  0.00    -0.041 A  
HETATM   12  C   UNL     1      -5.401   6.403  68.284  1.00  0.00    -0.008 A  
HETATM   13  C   UNL     1      -5.945   5.867  69.443  1.00  0.00    -0.027 A  
HETATM   14  C   UNL     1      -7.317   6.013  69.744  1.00  0.00    -0.079 A  
HETATM   15  S   UNL     1      -7.821   5.219  71.247  1.00  0.00    -0.110 SA 
HETATM   16  C   UNL     1      -9.519   5.706  71.385  1.00  0.00    -0.147 A  
HETATM   17  C   UNL     1     -10.155   5.255  72.561  1.00  0.00    -0.224 A  
HETATM   18  C   UNL     1     -11.479   5.568  72.829  1.00  0.00    -0.339 A  
HETATM   19  C   UNL     1     -12.172   6.349  71.925  1.00  0.00    -0.332 A  
HETATM   20  C   UNL     1     -11.544   6.796  70.753  1.00  0.00    -0.418 A  
HETATM   21  C   UNL     1     -10.204   6.485  70.425  1.00  0.00    -0.193 A  
ENDBRANCH   7   8
ENDBRANCH   5   7
TORSDOF 2
ENDMDL
MODEL      180
REMARK 921   NORMALIZED FREE ENERGY PREDICTED BY IDOCK:   -3.50 KCAL/MOL
REMARK 922        TOTAL FREE ENERGY PREDICTED BY IDOCK:   -4.31 KCAL/MOL
REMARK 923 INTER-LIGAND FREE ENERGY PREDICTED BY IDOCK:   -4.10 KCAL/MOL
REMARK 924 INTRA-LIGAND FREE ENERGY PREDICTED BY IDOCK:   -0.20 KCAL/MOL
REMARK 927      BINDING AFFINITY PREDICTED BY RF-SCORE:    0.00 PKD
ROOT
HETATM    1  C   UNL     1      -6.573   6.827  74.357  1.00  0.00    -0.083 C  
HETATM    2  N   UNL     1      -7.309   6.678  73.112  1.00  0.00    -0.084 NA 
HETATM    3  C   UNL     1      -6.459   6.299  71.986  1.00  0.00    -0.058 C  
HETATM    4  C   UNL     1      -7.500   5.894  70.955  1.00  0.00    -0.094 C  
HETATM    5  C   UNL     1      -8.493   5.071  71.778  1.00  0.00    -0.124 C  
HETATM    6  C   UNL     1      -8.378   5.672  73.191  1.00  0.00    -0.118 C  
ENDROOT
BRANCH   5   7
HETATM    7  C   UNL     1      -9.947   5.060  71.278  1.00  0.00    -0.197 C  
BRANCH   7   8
HETATM    8  N   UNL     1     -10.144   5.818  70.012  1.00  0.00    -0.199 NA 
HETATM    9  C   UNL     1     -10.441   7.218  70.132  1.00  0.00    -0.218 A  
HETATM   10  C   UNL     1     -10.584   7.868  71.381  1.00  0.00    -0.246 A  
HETATM   11  C   UNL     1     -10.824   9.245  71.503  1.00  0.00    -0.442 A  
HETATM   12  C   UNL     1     -10.946  10.033  70.372  1.00  0.00    -0.384 A  
HETATM   13  C   UNL     1     -10.840   9.431  69.127  1.00  0.00    -0.176 A  
HETATM   14  C   UNL     1     -10.599   8.046  69.001  1.00  0.00    -0.154 A  
HETATM   15  S   UNL     1     -10.540   7.466  67.327  1.00  0.00    -0.316 SA 
HETATM   16  C   UNL     1     -10.097   5.763  67.528  1.00  0.00    -0.171 A  
HETATM   17  C   UNL     1      -9.911   5.067  66.314  1.00  0.00    -0.247 A  
HETATM   18  C   UNL     1      -9.542   3.731  66.299  1.00  0.00    -0.176 A  
HETATM   19  C   UNL     1      -9.345   3.084  67.503  1.00  0.00    -0.229 A  
HETATM   20  C   UNL     1      -9.533   3.771  68.712  1.00  0.00    -0.220 A  
HETATM   21  C   UNL     1      -9.930   5.126  68.778  1.00  0.00    -0.166 A  
ENDBRANCH   7   8
ENDBRANCH   5   7
TORSDOF 2
ENDMDL
MODEL      181
REMARK 921   NORMALIZED FREE ENERGY PREDICTED BY IDOCK:   -3.49 KCAL/MOL
REMARK 922        TOTAL FREE ENERGY PREDICTED BY IDOCK:   -4.29 KCAL/MOL
REMARK 923 INTER-LIGAND FREE ENERGY PREDICTED BY IDOCK:   -3.86 KCAL/MOL
REMARK 924 INTRA-LIGAND FREE ENERGY PREDICTED BY IDOCK:   -0.43 KCAL/MOL
REMARK 927      BINDING AFFINITY PREDICTED BY RF-SCORE:    0.00 PKD
ROOT
HETATM    1  C   UNL     1      -8.647   1.601  66.749  1.00  0.00    -0.106 C  
HETATM    2  N   UNL     1      -9.362   2.191  67.870  1.00  0.00    -0.192 NA 
HETATM    3  C   UNL     1      -8.865   1.738  69.167  1.00  0.00    -0.081 C  
HETATM    4  C   UNL     1      -9.530   2.737  70.102  1.00  0.00    -0.177 C  
HETATM    5  C   UNL     1      -9.342   4.066  69.369  1.00  0.00    -0.243 C  
HETATM    6  C   UNL     1      -9.301   3.660  67.885  1.00  0.00    -0.190 C  
ENDROOT
BRANCH   5   7
HETATM    7  C   UNL     1     -10.403   5.147  69.636  1.00  0.00    -0.246 C  
BRANCH   7   8
HETATM    8  N   UNL     1      -9.823   6.487  69.925  1.00  0.00    -0.166 NA 
HETATM    9  C   UNL     1      -9.733   7.408  68.826  1.00  0.00    -0.149 A  
HETATM   10  C   UNL     1     -10.134   7.073  67.511  1.00  0.00    -0.236 A  
HETATM   11  C   UNL     1     -10.095   7.985  66.445  1.00  0.00    -0.174 A  
HETATM   12  C   UNL     1      -9.637   9.275  66.648  1.00  0.00    -0.263 A  
HETATM   13  C   UNL     1      -9.210   9.637  67.918  1.00  0.00    -0.134 A  
HETATM   14  C   UNL     1      -9.246   8.721  68.992  1.00  0.00    -0.141 A  
HETATM   15  S   UNL     1      -8.617   9.364  70.519  1.00  0.00    -0.192 SA 
HETATM   16  C   UNL     1      -8.930   8.038  71.650  1.00  0.00    -0.150 A  
HETATM   17  C   UNL     1      -8.578   8.323  72.987  1.00  0.00    -0.275 A  
HETATM   18  C   UNL     1      -8.780   7.397  73.998  1.00  0.00    -0.266 A  
HETATM   19  C   UNL     1      -9.348   6.180  73.679  1.00  0.00    -0.136 A  
HETATM   20  C   UNL     1      -9.696   5.890  72.350  1.00  0.00    -0.175 A  
HETATM   21  C   UNL     1      -9.489   6.794  71.282  1.00  0.00    -0.165 A  
ENDBRANCH   7   8
ENDBRANCH   5   7
TORSDOF 2
ENDMDL
MODEL      182
REMARK 921   NORMALIZED FREE ENERGY PREDICTED BY IDOCK:   -3.42 KCAL/MOL
REMARK 922        TOTAL FREE ENERGY PREDICTED BY IDOCK:   -4.22 KCAL/MOL
REMARK 923 INTER-LIGAND FREE ENERGY PREDICTED BY IDOCK:   -4.34 KCAL/MOL
REMARK 924 INTRA-LIGAND FREE ENERGY PREDICTED BY IDOCK:    0.12 KCAL/MOL
REMARK 927      BINDING AFFINITY PREDICTED BY RF-SCORE:    0.00 PKD
ROOT
HETATM    1  C   UNL     1      -6.611  11.056  67.645  1.00  0.00    -0.065 C  
HETATM    2  N   UNL     1      -7.826  10.630  66.968  1.00  0.00    -0.114 NA 
HETATM    3  C   UNL     1      -7.618  10.328  65.554  1.00  0.00    -0.149 C  
HETATM    4  C   UNL     1      -8.914   9.610  65.213  1.00  0.00    -0.246 C  
HETATM    5  C   UNL     1      -9.117   8.684  66.413  1.00  0.00    -0.218 C  
HETATM    6  C   UNL     1      -8.433   9.435  67.570  1.00  0.00    -0.122 C  
ENDROOT
BRANCH   5   7
HETATM    7  C   UNL     1     -10.571   8.315  66.751  1.00  0.00    -0.156 C  
BRANCH   7   8
HETATM    8  N   UNL     1     -10.776   7.968  68.183  1.00  0.00    -0.098 NA 
HETATM    9  C   UNL     1     -10.454   6.626  68.580  1.00  0.00    -0.213 A  
HETATM   10  C   UNL     1      -9.998   5.645  67.667  1.00  0.00    -0.177 A  
HETATM   11  C   UNL     1      -9.635   4.347  68.059  1.00  0.00    -0.204 A  
HETATM   12  C   UNL     1      -9.726   3.968  69.386  1.00  0.00    -0.205 A  
HETATM   13  C   UNL     1     -10.195   4.892  70.310  1.00  0.00    -0.299 A  
HETATM   14  C   UNL     1     -10.562   6.198  69.920  1.00  0.00    -0.265 A  
HETATM   15  S   UNL     1     -11.175   7.208  71.241  1.00  0.00    -0.270 SA 
HETATM   16  C   UNL     1     -11.404   8.775  70.448  1.00  0.00    -0.192 A  
HETATM   17  C   UNL     1     -11.831   9.804  71.316  1.00  0.00    -0.481 A  
HETATM   18  C   UNL     1     -12.037  11.095  70.855  1.00  0.00    -0.427 A  
HETATM   19  C   UNL     1     -11.804  11.368  69.521  1.00  0.00    -0.426 A  
HETATM   20  C   UNL     1     -11.383  10.348  68.655  1.00  0.00    -0.277 A  
HETATM   21  C   UNL     1     -11.181   9.012  69.074  1.00  0.00     0.264 A  
ENDBRANCH   7   8
ENDBRANCH   5   7
TORSDOF 2
ENDMDL
MODEL      183
REMARK 921   NORMALIZED FREE ENERGY PREDICTED BY IDOCK:   -3.40 KCAL/MOL
REMARK 922        TOTAL FREE ENERGY PREDICTED BY IDOCK:   -4.19 KCAL/MOL
REMARK 923 INTER-LIGAND FREE ENERGY PREDICTED BY IDOCK:   -3.91 KCAL/MOL
REMARK 924 INTRA-LIGAND FREE ENERGY PREDICTED BY IDOCK:   -0.28 KCAL/MOL
REMARK 927      BINDING AFFINITY PREDICTED BY RF-SCORE:    0.00 PKD
ROOT
HETATM    1  C   UNL     1     -12.814  10.889  71.118  1.00  0.00    -0.409 C  
HETATM    2  N   UNL     1     -11.893   9.854  71.558  1.00  0.00    -0.385 NA 
HETATM    3  C   UNL     1     -12.566   8.715  72.177  1.00  0.00    -0.391 C  
HETATM    4  C   UNL     1     -11.441   7.693  72.215  1.00  0.00    -0.366 C  
HETATM    5  C   UNL     1     -10.798   7.843  70.835  1.00  0.00    -0.245 C  
HETATM    6  C   UNL     1     -11.068   9.314  70.468  1.00  0.00    -0.265 C  
ENDROOT
BRANCH   5   7
HETATM    7  C   UNL     1      -9.303   7.495  70.738  1.00  0.00    -0.162 C  
BRANCH   7   8
HETATM    8  N   UNL     1      -8.721   7.754  69.393  1.00  0.00    -0.135 NA 
HETATM    9  C   UNL     1      -7.749   8.806  69.296  1.00  0.00    -0.095 A  
HETATM   10  C   UNL     1      -7.368   9.603  70.402  1.00  0.00    -0.156 A  
HETATM   11  C   UNL     1      -6.383  10.599  70.324  1.00  0.00    -0.141 A  
HETATM   12  C   UNL     1      -5.741  10.850  69.124  1.00  0.00    -0.040 A  
HETATM   13  C   UNL     1      -6.102  10.110  68.008  1.00  0.00    -0.052 A  
HETATM   14  C   UNL     1      -7.095   9.108  68.083  1.00  0.00    -0.078 A  
HETATM   15  S   UNL     1      -7.440   8.308  66.540  1.00  0.00    -0.082 SA 
HETATM   16  C   UNL     1      -8.597   7.052  67.012  1.00  0.00    -0.122 A  
HETATM   17  C   UNL     1      -8.992   6.204  65.955  1.00  0.00    -0.133 A  
HETATM   18  C   UNL     1      -9.877   5.158  66.163  1.00  0.00    -0.204 A  
HETATM   19  C   UNL     1     -10.364   4.945  67.438  1.00  0.00    -0.127 A  
HETATM   20  C   UNL     1      -9.977   5.788  68.490  1.00  0.00    -0.197 A  
HETATM   21  C   UNL     1      -9.095   6.881  68.323  1.00  0.00    -0.125 A  
ENDBRANCH   7   8
ENDBRANCH   5   7
TORSDOF 2
ENDMDL
MODEL      184
REMARK 921   NORMALIZED FREE ENERGY PREDICTED BY IDOCK:   -3.40 KCAL/MOL
REMARK 922        TOTAL FREE ENERGY PREDICTED BY IDOCK:   -4.19 KCAL/MOL
REMARK 923 INTER-LIGAND FREE ENERGY PREDICTED BY IDOCK:   -3.89 KCAL/MOL
REMARK 924 INTRA-LIGAND FREE ENERGY PREDICTED BY IDOCK:   -0.29 KCAL/MOL
REMARK 927      BINDING AFFINITY PREDICTED BY RF-SCORE:    0.00 PKD
ROOT
HETATM    1  C   UNL     1     -11.702  13.121  70.009  1.00  0.00    -0.221 C  
HETATM    2  N   UNL     1     -11.773  11.882  69.251  1.00  0.00    -0.306 NA 
HETATM    3  C   UNL     1     -11.462  12.059  67.835  1.00  0.00    -0.330 C  
HETATM    4  C   UNL     1     -11.282  10.617  67.390  1.00  0.00    -0.280 C  
HETATM    5  C   UNL     1     -10.455  10.011  68.526  1.00  0.00    -0.229 C  
HETATM    6  C   UNL     1     -10.864  10.843  69.755  1.00  0.00    -0.187 C  
ENDROOT
BRANCH   5   7
HETATM    7  C   UNL     1     -10.635   8.504  68.771  1.00  0.00    -0.133 C  
BRANCH   7   8
HETATM    8  N   UNL     1      -9.485   7.878  69.479  1.00  0.00    -0.160 NA 
HETATM    9  C   UNL     1      -9.646   7.620  70.882  1.00  0.00    -0.164 A  
HETATM   10  C   UNL     1     -10.818   7.969  71.596  1.00  0.00    -0.288 A  
HETATM   11  C   UNL     1     -11.001   7.674  72.956  1.00  0.00    -0.457 A  
HETATM   12  C   UNL     1     -10.007   7.027  73.668  1.00  0.00    -0.348 A  
HETATM   13  C   UNL     1      -8.830   6.691  73.012  1.00  0.00    -0.138 A  
HETATM   14  C   UNL     1      -8.643   6.987  71.644  1.00  0.00    -0.116 A  
HETATM   15  S   UNL     1      -7.058   6.515  71.008  1.00  0.00    -0.071 SA 
HETATM   16  C   UNL     1      -7.210   6.895  69.284  1.00  0.00    -0.090 A  
HETATM   17  C   UNL     1      -6.082   6.542  68.513  1.00  0.00    -0.025 A  
HETATM   18  C   UNL     1      -6.051   6.755  67.144  1.00  0.00    -0.029 A  
HETATM   19  C   UNL     1      -7.157   7.313  66.534  1.00  0.00    -0.078 A  
HETATM   20  C   UNL     1      -8.278   7.669  67.298  1.00  0.00    -0.119 A  
HETATM   21  C   UNL     1      -8.349   7.492  68.699  1.00  0.00    -0.129 A  
ENDBRANCH   7   8
ENDBRANCH   5   7
TORSDOF 2
ENDMDL
MODEL      185
REMARK 921   NORMALIZED FREE ENERGY PREDICTED BY IDOCK:   -3.39 KCAL/MOL
REMARK 922        TOTAL FREE ENERGY PREDICTED BY IDOCK:   -4.19 KCAL/MOL
REMARK 923 INTER-LIGAND FREE ENERGY PREDICTED BY IDOCK:   -4.23 KCAL/MOL
REMARK 924 INTRA-LIGAND FREE ENERGY PREDICTED BY IDOCK:    0.04 KCAL/MOL
REMARK 927      BINDING AFFINITY PREDICTED BY RF-SCORE:    0.00 PKD
ROOT
HETATM    1  C   UNL     1      -7.028   8.406  72.756  1.00  0.00    -0.071 C  
HETATM    2  N   UNL     1      -8.277   7.720  72.467  1.00  0.00    -0.117 NA 
HETATM    3  C   UNL     1      -9.269   7.865  73.529  1.00  0.00    -0.276 C  
HETATM    4  C   UNL     1     -10.524   7.368  72.829  1.00  0.00    -0.323 C  
HETATM    5  C   UNL     1     -10.431   8.029  71.453  1.00  0.00    -0.257 C  
HETATM    6  C   UNL     1      -8.916   8.183  71.227  1.00  0.00    -0.146 C  
ENDROOT
BRANCH   5   7
HETATM    7  C   UNL     1     -11.109   7.282  70.292  1.00  0.00    -0.266 C  
BRANCH   7   8
HETATM    8  N   UNL     1     -10.653   7.736  68.950  1.00  0.00    -0.188 NA 
HETATM    9  C   UNL     1     -10.113   6.735  68.073  1.00  0.00    -0.159 A  
HETATM   10  C   UNL     1      -9.973   5.379  68.451  1.00  0.00    -0.217 A  
HETATM   11  C   UNL     1      -9.494   4.388  67.581  1.00  0.00    -0.204 A  
HETATM   12  C   UNL     1      -9.118   4.717  66.291  1.00  0.00    -0.122 A  
HETATM   13  C   UNL     1      -9.214   6.041  65.887  1.00  0.00    -0.084 A  
HETATM   14  C   UNL     1      -9.695   7.040  66.761  1.00  0.00    -0.184 A  
HETATM   15  S   UNL     1      -9.699   8.672  66.069  1.00  0.00    -0.079 SA 
HETATM   16  C   UNL     1     -10.468   9.627  67.347  1.00  0.00    -0.257 A  
HETATM   17  C   UNL     1     -10.663  10.985  67.016  1.00  0.00    -0.319 A  
HETATM   18  C   UNL     1     -11.270  11.862  67.901  1.00  0.00    -0.325 A  
HETATM   19  C   UNL     1     -11.701  11.381  69.121  1.00  0.00    -0.410 A  
HETATM   20  C   UNL     1     -11.506  10.032  69.456  1.00  0.00    -0.176 A  
HETATM   21  C   UNL     1     -10.872   9.106  68.597  1.00  0.00    -0.049 A  
ENDBRANCH   7   8
ENDBRANCH   5   7
TORSDOF 2
ENDMDL
MODEL      186
REMARK 921   NORMALIZED FREE ENERGY PREDICTED BY IDOCK:   -3.33 KCAL/MOL
REMARK 922        TOTAL FREE ENERGY PREDICTED BY IDOCK:   -4.11 KCAL/MOL
REMARK 923 INTER-LIGAND FREE ENERGY PREDICTED BY IDOCK:   -3.94 KCAL/MOL
REMARK 924 INTRA-LIGAND FREE ENERGY PREDICTED BY IDOCK:   -0.17 KCAL/MOL
REMARK 927      BINDING AFFINITY PREDICTED BY RF-SCORE:    0.00 PKD
ROOT
HETATM    1  C   UNL     1     -11.555   7.852  72.578  1.00  0.00    -0.386 C  
HETATM    2  N   UNL     1     -10.788   8.550  71.559  1.00  0.00    -0.244 NA 
HETATM    3  C   UNL     1      -9.348   8.513  71.800  1.00  0.00    -0.253 C  
HETATM    4  C   UNL     1      -8.813   8.993  70.461  1.00  0.00    -0.242 C  
HETATM    5  C   UNL     1      -9.677   8.230  69.455  1.00  0.00    -0.174 C  
HETATM    6  C   UNL     1     -11.003   8.016  70.207  1.00  0.00    -0.242 C  
ENDROOT
BRANCH   5   7
HETATM    7  C   UNL     1      -9.896   8.908  68.092  1.00  0.00    -0.167 C  
BRANCH   7   8
HETATM    8  N   UNL     1      -9.243  10.241  67.983  1.00  0.00    -0.134 NA 
HETATM    9  C   UNL     1     -10.001  11.376  68.429  1.00  0.00    -0.204 A  
HETATM   10  C   UNL     1     -11.324  11.270  68.921  1.00  0.00    -0.340 A  
HETATM   11  C   UNL     1     -12.050  12.369  69.405  1.00  0.00    -0.237 A  
HETATM   12  C   UNL     1     -11.485  13.631  69.405  1.00  0.00    -0.343 A  
HETATM   13  C   UNL     1     -10.199  13.785  68.907  1.00  0.00    -0.111 A  
HETATM   14  C   UNL     1      -9.466  12.681  68.418  1.00  0.00    -0.163 A  
HETATM   15  S   UNL     1      -7.862  13.094  67.788  1.00  0.00    -0.168 SA 
HETATM   16  C   UNL     1      -7.185  11.505  67.396  1.00  0.00    -0.119 A  
HETATM   17  C   UNL     1      -5.853  11.543  66.929  1.00  0.00    -0.132 A  
HETATM   18  C   UNL     1      -5.172  10.382  66.598  1.00  0.00    -0.043 A  
HETATM   19  C   UNL     1      -5.817   9.170  66.747  1.00  0.00    -0.051 A  
HETATM   20  C   UNL     1      -7.142   9.128  67.208  1.00  0.00    -0.079 A  
HETATM   21  C   UNL     1      -7.884  10.285  67.536  1.00  0.00    -0.102 A  
ENDBRANCH   7   8
ENDBRANCH   5   7
TORSDOF 2
ENDMDL
MODEL      187
REMARK 921   NORMALIZED FREE ENERGY PREDICTED BY IDOCK:   -3.32 KCAL/MOL
REMARK 922        TOTAL FREE ENERGY PREDICTED BY IDOCK:   -4.10 KCAL/MOL
REMARK 923 INTER-LIGAND FREE ENERGY PREDICTED BY IDOCK:   -3.89 KCAL/MOL
REMARK 924 INTRA-LIGAND FREE ENERGY PREDICTED BY IDOCK:   -0.22 KCAL/MOL
REMARK 927      BINDING AFFINITY PREDICTED BY RF-SCORE:    0.00 PKD
ROOT
HETATM    1  C   UNL     1      -9.421  10.977  62.756  1.00  0.00    -0.334 C  
HETATM    2  N   UNL     1      -9.086  10.685  64.141  1.00  0.00    -0.211 NA 
HETATM    3  C   UNL     1     -10.161  11.017  65.072  1.00  0.00    -0.296 C  
HETATM    4  C   UNL     1      -9.685  10.313  66.333  1.00  0.00    -0.252 C  
HETATM    5  C   UNL     1      -9.202   8.961  65.807  1.00  0.00    -0.283 C  
HETATM    6  C   UNL     1      -8.752   9.271  64.368  1.00  0.00    -0.181 C  
ENDROOT
BRANCH   5   7
HETATM    7  C   UNL     1      -8.090   8.273  66.617  1.00  0.00    -0.102 C  
BRANCH   7   8
HETATM    8  N   UNL     1      -8.226   8.461  68.088  1.00  0.00    -0.123 NA 
HETATM    9  C   UNL     1      -9.296   7.758  68.738  1.00  0.00    -0.146 A  
HETATM   10  C   UNL     1     -10.219   6.947  68.035  1.00  0.00    -0.209 A  
HETATM   11  C   UNL     1     -11.235   6.218  68.672  1.00  0.00    -0.328 A  
HETATM   12  C   UNL     1     -11.381   6.281  70.046  1.00  0.00    -0.486 A  
HETATM   13  C   UNL     1     -10.514   7.087  70.771  1.00  0.00    -0.231 A  
HETATM   14  C   UNL     1      -9.491   7.822  70.133  1.00  0.00    -0.160 A  
HETATM   15  S   UNL     1      -8.520   8.821  71.229  1.00  0.00    -0.181 SA 
HETATM   16  C   UNL     1      -7.281   9.480  70.148  1.00  0.00    -0.114 A  
HETATM   17  C   UNL     1      -6.312  10.275  70.797  1.00  0.00    -0.030 A  
HETATM   18  C   UNL     1      -5.263  10.848  70.095  1.00  0.00    -0.055 A  
HETATM   19  C   UNL     1      -5.169  10.617  68.737  1.00  0.00    -0.041 A  
HETATM   20  C   UNL     1      -6.132   9.830  68.088  1.00  0.00    -0.050 A  
HETATM   21  C   UNL     1      -7.232   9.244  68.756  1.00  0.00    -0.074 A  
ENDBRANCH   7   8
ENDBRANCH   5   7
TORSDOF 2
ENDMDL
MODEL      188
REMARK 921   NORMALIZED FREE ENERGY PREDICTED BY IDOCK:   -3.31 KCAL/MOL
REMARK 922        TOTAL FREE ENERGY PREDICTED BY IDOCK:   -4.10 KCAL/MOL
REMARK 923 INTER-LIGAND FREE ENERGY PREDICTED BY IDOCK:   -4.04 KCAL/MOL
REMARK 924 INTRA-LIGAND FREE ENERGY PREDICTED BY IDOCK:   -0.05 KCAL/MOL
REMARK 927      BINDING AFFINITY PREDICTED BY RF-SCORE:    0.00 PKD
ROOT
HETATM    1  C   UNL     1      -7.118   9.261  70.544  1.00  0.00    -0.100 C  
HETATM    2  N   UNL     1      -8.535   8.977  70.387  1.00  0.00    -0.162 NA 
HETATM    3  C   UNL     1      -9.192   9.857  69.423  1.00  0.00    -0.214 C  
HETATM    4  C   UNL     1     -10.514   9.134  69.218  1.00  0.00    -0.231 C  
HETATM    5  C   UNL     1     -10.087   7.670  69.104  1.00  0.00    -0.194 C  
HETATM    6  C   UNL     1      -8.803   7.599  69.950  1.00  0.00    -0.143 C  
ENDROOT
BRANCH   5   7
HETATM    7  C   UNL     1     -11.122   6.622  69.547  1.00  0.00    -0.322 C  
BRANCH   7   8
HETATM    8  N   UNL     1     -10.522   5.300  69.875  1.00  0.00    -0.307 NA 
HETATM    9  C   UNL     1      -9.985   4.539  68.781  1.00  0.00    -0.050 A  
HETATM   10  C   UNL     1     -10.042   4.982  67.438  1.00  0.00    -0.213 A  
HETATM   11  C   UNL     1      -9.475   4.266  66.373  1.00  0.00    -0.191 A  
HETATM   12  C   UNL     1      -8.833   3.063  66.605  1.00  0.00    -0.155 A  
HETATM   13  C   UNL     1      -8.778   2.579  67.905  1.00  0.00    -0.138 A  
HETATM   14  C   UNL     1      -9.349   3.296  68.979  1.00  0.00    -0.163 A  
HETATM   15  S   UNL     1      -9.209   2.488  70.550  1.00  0.00    -0.133 SA 
HETATM   16  C   UNL     1      -9.887   3.691  71.660  1.00  0.00    -0.160 A  
HETATM   17  C   UNL     1      -9.830   3.318  73.020  1.00  0.00    -0.193 A  
HETATM   18  C   UNL     1     -10.301   4.158  74.017  1.00  0.00    -0.259 A  
HETATM   19  C   UNL     1     -10.822   5.386  73.658  1.00  0.00    -0.321 A  
HETATM   20  C   UNL     1     -10.883   5.759  72.307  1.00  0.00    -0.298 A  
HETATM   21  C   UNL     1     -10.436   4.927  71.254  1.00  0.00    -0.098 A  
ENDBRANCH   7   8
ENDBRANCH   5   7
TORSDOF 2
ENDMDL
MODEL      189
REMARK 921   NORMALIZED FREE ENERGY PREDICTED BY IDOCK:   -3.31 KCAL/MOL
REMARK 922        TOTAL FREE ENERGY PREDICTED BY IDOCK:   -4.09 KCAL/MOL
REMARK 923 INTER-LIGAND FREE ENERGY PREDICTED BY IDOCK:   -3.87 KCAL/MOL
REMARK 924 INTRA-LIGAND FREE ENERGY PREDICTED BY IDOCK:   -0.22 KCAL/MOL
REMARK 927      BINDING AFFINITY PREDICTED BY RF-SCORE:    0.00 PKD
ROOT
HETATM    1  C   UNL     1     -12.119   5.801  72.466  1.00  0.00    -0.024 C  
HETATM    2  N   UNL     1     -11.326   6.687  71.627  1.00  0.00    -0.262 NA 
HETATM    3  C   UNL     1     -11.508   6.436  70.199  1.00  0.00    -0.417 C  
HETATM    4  C   UNL     1     -10.863   7.675  69.599  1.00  0.00    -0.195 C  
HETATM    5  C   UNL     1     -11.392   8.800  70.491  1.00  0.00    -0.255 C  
HETATM    6  C   UNL     1     -11.624   8.109  71.847  1.00  0.00    -0.306 C  
ENDROOT
BRANCH   5   7
HETATM    7  C   UNL     1     -10.492  10.040  70.628  1.00  0.00    -0.141 C  
BRANCH   7   8
HETATM    8  N   UNL     1      -9.439  10.127  69.579  1.00  0.00    -0.220 NA 
HETATM    9  C   UNL     1      -8.157   9.565  69.897  1.00  0.00    -0.157 A  
HETATM   10  C   UNL     1      -7.864   8.984  71.154  1.00  0.00    -0.154 A  
HETATM   11  C   UNL     1      -6.628   8.389  71.452  1.00  0.00    -0.060 A  
HETATM   12  C   UNL     1      -5.621   8.363  70.504  1.00  0.00    -0.028 A  
HETATM   13  C   UNL     1      -5.857   8.946  69.267  1.00  0.00    -0.035 A  
HETATM   14  C   UNL     1      -7.099   9.546  68.965  1.00  0.00    -0.066 A  
HETATM   15  S   UNL     1      -7.183  10.271  67.349  1.00  0.00    -0.093 SA 
HETATM   16  C   UNL     1      -8.872  10.796  67.254  1.00  0.00    -0.133 A  
HETATM   17  C   UNL     1      -9.233  11.358  66.011  1.00  0.00    -0.229 A  
HETATM   18  C   UNL     1     -10.525  11.799  65.768  1.00  0.00    -0.302 A  
HETATM   19  C   UNL     1     -11.469  11.668  66.766  1.00  0.00    -0.299 A  
HETATM   20  C   UNL     1     -11.113  11.114  68.005  1.00  0.00    -0.334 A  
HETATM   21  C   UNL     1      -9.805  10.670  68.307  1.00  0.00    -0.163 A  
ENDBRANCH   7   8
ENDBRANCH   5   7
TORSDOF 2
ENDMDL
MODEL      190
REMARK 921   NORMALIZED FREE ENERGY PREDICTED BY IDOCK:   -3.31 KCAL/MOL
REMARK 922        TOTAL FREE ENERGY PREDICTED BY IDOCK:   -4.09 KCAL/MOL
REMARK 923 INTER-LIGAND FREE ENERGY PREDICTED BY IDOCK:   -3.67 KCAL/MOL
REMARK 924 INTRA-LIGAND FREE ENERGY PREDICTED BY IDOCK:   -0.41 KCAL/MOL
REMARK 927      BINDING AFFINITY PREDICTED BY RF-SCORE:    0.00 PKD
ROOT
HETATM    1  C   UNL     1     -10.025  12.786  66.121  1.00  0.00    -0.266 C  
HETATM    2  N   UNL     1      -9.809  11.582  66.908  1.00  0.00    -0.195 NA 
HETATM    3  C   UNL     1     -11.053  10.945  67.333  1.00  0.00    -0.307 C  
HETATM    4  C   UNL     1     -10.544   9.594  67.809  1.00  0.00    -0.320 C  
HETATM    5  C   UNL     1      -9.544   9.203  66.720  1.00  0.00    -0.253 C  
HETATM    6  C   UNL     1      -9.033  10.557  66.194  1.00  0.00    -0.160 C  
ENDROOT
BRANCH   5   7
HETATM    7  C   UNL     1      -8.388   8.286  67.153  1.00  0.00    -0.123 C  
BRANCH   7   8
HETATM    8  N   UNL     1      -8.739   6.840  67.128  1.00  0.00    -0.119 NA 
HETATM    9  C   UNL     1      -8.620   6.162  65.868  1.00  0.00    -0.147 A  
HETATM   10  C   UNL     1      -8.226   6.820  64.678  1.00  0.00    -0.032 A  
HETATM   11  C   UNL     1      -8.059   6.153  63.455  1.00  0.00    -0.068 A  
HETATM   12  C   UNL     1      -8.294   4.792  63.366  1.00  0.00    -0.112 A  
HETATM   13  C   UNL     1      -8.708   4.113  64.503  1.00  0.00    -0.129 A  
HETATM   14  C   UNL     1      -8.878   4.782  65.735  1.00  0.00    -0.131 A  
HETATM   15  S   UNL     1      -9.453   3.746  67.053  1.00  0.00    -0.173 SA 
HETATM   16  C   UNL     1      -9.424   4.845  68.442  1.00  0.00    -0.139 A  
HETATM   17  C   UNL     1      -9.780   4.237  69.666  1.00  0.00    -0.284 A  
HETATM   18  C   UNL     1      -9.787   4.956  70.851  1.00  0.00    -0.277 A  
HETATM   19  C   UNL     1      -9.425   6.289  70.821  1.00  0.00    -0.185 A  
HETATM   20  C   UNL     1      -9.075   6.897  69.606  1.00  0.00    -0.143 A  
HETATM   21  C   UNL     1      -9.074   6.211  68.369  1.00  0.00    -0.113 A  
ENDBRANCH   7   8
ENDBRANCH   5   7
TORSDOF 2
ENDMDL
MODEL      191
REMARK 921   NORMALIZED FREE ENERGY PREDICTED BY IDOCK:   -3.30 KCAL/MOL
REMARK 922        TOTAL FREE ENERGY PREDICTED BY IDOCK:   -4.08 KCAL/MOL
REMARK 923 INTER-LIGAND FREE ENERGY PREDICTED BY IDOCK:   -4.66 KCAL/MOL
REMARK 924 INTRA-LIGAND FREE ENERGY PREDICTED BY IDOCK:    0.59 KCAL/MOL
REMARK 927      BINDING AFFINITY PREDICTED BY RF-SCORE:    0.00 PKD
ROOT
HETATM    1  C   UNL     1     -10.271  11.790  63.351  1.00  0.00    -0.449 C  
HETATM    2  N   UNL     1     -10.500  12.351  64.673  1.00  0.00    -0.296 NA 
HETATM    3  C   UNL     1     -11.759  13.085  64.773  1.00  0.00    -0.345 C  
HETATM    4  C   UNL     1     -11.887  13.247  66.279  1.00  0.00    -0.444 C  
HETATM    5  C   UNL     1     -11.492  11.866  66.805  1.00  0.00    -0.384 C  
HETATM    6  C   UNL     1     -10.519  11.336  65.736  1.00  0.00    -0.254 C  
ENDROOT
BRANCH   5   7
HETATM    7  C   UNL     1     -10.873  11.824  68.212  1.00  0.00    -0.220 C  
BRANCH   7   8
HETATM    8  N   UNL     1      -9.981  12.979  68.501  1.00  0.00    -0.209 NA 
HETATM    9  C   UNL     1      -8.616  12.873  68.066  1.00  0.00    -0.186 A  
HETATM   10  C   UNL     1      -8.104  11.721  67.424  1.00  0.00    -0.161 A  
HETATM   11  C   UNL     1      -6.785  11.631  66.952  1.00  0.00    -0.124 A  
HETATM   12  C   UNL     1      -5.913  12.693  67.116  1.00  0.00     0.036 A  
HETATM   13  C   UNL     1      -6.368  13.832  67.765  1.00  0.00    -0.171 A  
HETATM   14  C   UNL     1      -7.693  13.925  68.242  1.00  0.00    -0.136 A  
HETATM   15  S   UNL     1      -8.062  15.443  69.078  1.00  0.00    -0.230 SA 
HETATM   16  C   UNL     1      -9.794  15.284  69.413  1.00  0.00    -0.252 A  
HETATM   17  C   UNL     1     -10.370  16.416  70.028  1.00  0.00    -0.034 A  
HETATM   18  C   UNL     1     -11.721  16.459  70.337  1.00  0.00     0.052 A  
HETATM   19  C   UNL     1     -12.508  15.370  70.021  1.00  0.00    -0.316 A  
HETATM   20  C   UNL     1     -11.939  14.240  69.413  1.00  0.00    -0.381 A  
HETATM   21  C   UNL     1     -10.564  14.142  69.099  1.00  0.00    -0.158 A  
ENDBRANCH   7   8
ENDBRANCH   5   7
TORSDOF 2
ENDMDL
MODEL      192
REMARK 921   NORMALIZED FREE ENERGY PREDICTED BY IDOCK:   -3.25 KCAL/MOL
REMARK 922        TOTAL FREE ENERGY PREDICTED BY IDOCK:   -4.02 KCAL/MOL
REMARK 923 INTER-LIGAND FREE ENERGY PREDICTED BY IDOCK:   -3.75 KCAL/MOL
REMARK 924 INTRA-LIGAND FREE ENERGY PREDICTED BY IDOCK:   -0.27 KCAL/MOL
REMARK 927      BINDING AFFINITY PREDICTED BY RF-SCORE:    0.00 PKD
ROOT
HETATM    1  C   UNL     1      -8.826   7.137  66.090  1.00  0.00    -0.150 C  
HETATM    2  N   UNL     1      -9.364   6.020  66.850  1.00  0.00    -0.127 NA 
HETATM    3  C   UNL     1      -8.845   4.727  66.411  1.00  0.00    -0.113 C  
HETATM    4  C   UNL     1      -9.289   3.829  67.554  1.00  0.00    -0.238 C  
HETATM    5  C   UNL     1      -8.963   4.667  68.792  1.00  0.00    -0.143 C  
HETATM    6  C   UNL     1      -9.090   6.117  68.290  1.00  0.00    -0.112 C  
ENDROOT
BRANCH   5   7
HETATM    7  C   UNL     1      -9.834   4.414  70.034  1.00  0.00    -0.223 C  
BRANCH   7   8
HETATM    8  N   UNL     1      -9.565   5.363  71.148  1.00  0.00    -0.159 NA 
HETATM    9  C   UNL     1     -10.580   6.340  71.429  1.00  0.00    -0.237 A  
HETATM   10  C   UNL     1     -11.773   6.446  70.676  1.00  0.00    -0.377 A  
HETATM   11  C   UNL     1     -12.789   7.365  70.978  1.00  0.00    -0.226 A  
HETATM   12  C   UNL     1     -12.648   8.234  72.045  1.00  0.00    -0.387 A  
HETATM   13  C   UNL     1     -11.481   8.182  72.794  1.00  0.00    -0.397 A  
HETATM   14  C   UNL     1     -10.456   7.259  72.493  1.00  0.00    -0.237 A  
HETATM   15  S   UNL     1      -9.032   7.383  73.540  1.00  0.00    -0.222 SA 
HETATM   16  C   UNL     1      -8.032   6.029  72.988  1.00  0.00    -0.109 A  
HETATM   17  C   UNL     1      -6.840   5.854  73.722  1.00  0.00    -0.081 A  
HETATM   18  C   UNL     1      -5.957   4.826  73.428  1.00  0.00    -0.018 A  
HETATM   19  C   UNL     1      -6.270   3.956  72.402  1.00  0.00    -0.013 A  
HETATM   20  C   UNL     1      -7.453   4.129  71.667  1.00  0.00    -0.060 A  
HETATM   21  C   UNL     1      -8.372   5.175  71.915  1.00  0.00    -0.121 A  
ENDBRANCH   7   8
ENDBRANCH   5   7
TORSDOF 2
ENDMDL
MODEL      193
REMARK 921   NORMALIZED FREE ENERGY PREDICTED BY IDOCK:   -3.24 KCAL/MOL
REMARK 922        TOTAL FREE ENERGY PREDICTED BY IDOCK:   -4.02 KCAL/MOL
REMARK 923 INTER-LIGAND FREE ENERGY PREDICTED BY IDOCK:   -3.55 KCAL/MOL
REMARK 924 INTRA-LIGAND FREE ENERGY PREDICTED BY IDOCK:   -0.47 KCAL/MOL
REMARK 927      BINDING AFFINITY PREDICTED BY RF-SCORE:    0.00 PKD
ROOT
HETATM    1  C   UNL     1     -12.467  11.607  70.823  1.00  0.00    -0.330 C  
HETATM    2  N   UNL     1     -12.201  10.535  69.877  1.00  0.00    -0.257 NA 
HETATM    3  C   UNL     1     -11.146  10.863  68.921  1.00  0.00    -0.252 C  
HETATM    4  C   UNL     1     -10.860   9.497  68.318  1.00  0.00    -0.194 C  
HETATM    5  C   UNL     1     -10.848   8.580  69.543  1.00  0.00    -0.134 C  
HETATM    6  C   UNL     1     -11.804   9.277  70.527  1.00  0.00    -0.124 C  
ENDROOT
BRANCH   5   7
HETATM    7  C   UNL     1     -11.246   7.114  69.300  1.00  0.00    -0.002 C  
BRANCH   7   8
HETATM    8  N   UNL     1     -10.163   6.146  69.620  1.00  0.00    -0.187 NA 
HETATM    9  C   UNL     1     -10.223   5.501  70.902  1.00  0.00    -0.227 A  
HETATM   10  C   UNL     1     -11.232   5.781  71.854  1.00  0.00    -0.289 A  
HETATM   11  C   UNL     1     -11.324   5.118  73.087  1.00  0.00    -0.385 A  
HETATM   12  C   UNL     1     -10.397   4.150  73.428  1.00  0.00    -0.232 A  
HETATM   13  C   UNL     1      -9.375   3.863  72.535  1.00  0.00    -0.159 A  
HETATM   14  C   UNL     1      -9.279   4.530  71.293  1.00  0.00    -0.140 A  
HETATM   15  S   UNL     1      -7.879   4.051  70.317  1.00  0.00    -0.047 SA 
HETATM   16  C   UNL     1      -8.137   4.953  68.814  1.00  0.00    -0.084 A  
HETATM   17  C   UNL     1      -7.176   4.693  67.813  1.00  0.00    -0.066 A  
HETATM   18  C   UNL     1      -7.248   5.304  66.570  1.00  0.00    -0.077 A  
HETATM   19  C   UNL     1      -8.291   6.172  66.317  1.00  0.00    -0.124 A  
HETATM   20  C   UNL     1      -9.245   6.437  67.312  1.00  0.00    -0.122 A  
HETATM   21  C   UNL     1      -9.202   5.856  68.600  1.00  0.00    -0.118 A  
ENDBRANCH   7   8
ENDBRANCH   5   7
TORSDOF 2
ENDMDL
MODEL      194
REMARK 921   NORMALIZED FREE ENERGY PREDICTED BY IDOCK:   -3.23 KCAL/MOL
REMARK 922        TOTAL FREE ENERGY PREDICTED BY IDOCK:   -4.00 KCAL/MOL
REMARK 923 INTER-LIGAND FREE ENERGY PREDICTED BY IDOCK:   -4.47 KCAL/MOL
REMARK 924 INTRA-LIGAND FREE ENERGY PREDICTED BY IDOCK:    0.47 KCAL/MOL
REMARK 927      BINDING AFFINITY PREDICTED BY RF-SCORE:    0.00 PKD
ROOT
HETATM    1  C   UNL     1     -12.398  13.580  63.732  1.00  0.00    -0.327 C  
HETATM    2  N   UNL     1     -11.408  13.668  64.794  1.00  0.00    -0.340 NA 
HETATM    3  C   UNL     1     -10.796  14.990  64.898  1.00  0.00    -0.411 C  
HETATM    4  C   UNL     1     -10.099  14.887  66.245  1.00  0.00    -0.298 C  
HETATM    5  C   UNL     1     -11.150  14.201  67.120  1.00  0.00    -0.315 C  
HETATM    6  C   UNL     1     -11.955  13.351  66.120  1.00  0.00    -0.413 C  
ENDROOT
BRANCH   5   7
HETATM    7  C   UNL     1     -10.616  13.356  68.289  1.00  0.00    -0.254 C  
BRANCH   7   8
HETATM    8  N   UNL     1      -9.244  12.827  68.059  1.00  0.00    -0.203 NA 
HETATM    9  C   UNL     1      -8.152  13.732  68.283  1.00  0.00    -0.150 A  
HETATM   10  C   UNL     1      -8.340  15.081  68.667  1.00  0.00    -0.166 A  
HETATM   11  C   UNL     1      -7.275  15.955  68.935  1.00  0.00    -0.158 A  
HETATM   12  C   UNL     1      -5.968  15.517  68.817  1.00  0.00    -0.099 A  
HETATM   13  C   UNL     1      -5.739  14.208  68.416  1.00  0.00    -0.105 A  
HETATM   14  C   UNL     1      -6.808  13.327  68.144  1.00  0.00    -0.114 A  
HETATM   15  S   UNL     1      -6.304  11.715  67.606  1.00  0.00    -0.082 SA 
HETATM   16  C   UNL     1      -7.847  10.852  67.490  1.00  0.00    -0.114 A  
HETATM   17  C   UNL     1      -7.722   9.491  67.139  1.00  0.00    -0.091 A  
HETATM   18  C   UNL     1      -8.835   8.671  67.027  1.00  0.00    -0.143 A  
HETATM   19  C   UNL     1     -10.082   9.208  67.279  1.00  0.00    -0.295 A  
HETATM   20  C   UNL     1     -10.210  10.561  67.625  1.00  0.00    -0.234 A  
HETATM   21  C   UNL     1      -9.108  11.441  67.730  1.00  0.00    -0.158 A  
ENDBRANCH   7   8
ENDBRANCH   5   7
TORSDOF 2
ENDMDL
MODEL      195
REMARK 921   NORMALIZED FREE ENERGY PREDICTED BY IDOCK:   -3.11 KCAL/MOL
REMARK 922        TOTAL FREE ENERGY PREDICTED BY IDOCK:   -3.87 KCAL/MOL
REMARK 923 INTER-LIGAND FREE ENERGY PREDICTED BY IDOCK:   -3.51 KCAL/MOL
REMARK 924 INTRA-LIGAND FREE ENERGY PREDICTED BY IDOCK:   -0.36 KCAL/MOL
REMARK 927      BINDING AFFINITY PREDICTED BY RF-SCORE:    0.00 PKD
ROOT
HETATM    1  C   UNL     1     -13.136  10.206  71.174  1.00  0.00    -0.392 C  
HETATM    2  N   UNL     1     -12.022   9.354  71.558  1.00  0.00    -0.356 NA 
HETATM    3  C   UNL     1     -12.439   8.163  72.294  1.00  0.00    -0.301 C  
HETATM    4  C   UNL     1     -11.166   7.333  72.256  1.00  0.00    -0.305 C  
HETATM    5  C   UNL     1     -10.694   7.499  70.810  1.00  0.00    -0.238 C  
HETATM    6  C   UNL     1     -11.231   8.886  70.411  1.00  0.00    -0.230 C  
ENDROOT
BRANCH   5   7
HETATM    7  C   UNL     1      -9.179   7.383  70.571  1.00  0.00    -0.157 C  
BRANCH   7   8
HETATM    8  N   UNL     1      -8.636   6.028  70.864  1.00  0.00    -0.130 NA 
HETATM    9  C   UNL     1      -8.848   5.013  69.872  1.00  0.00    -0.102 A  
HETATM   10  C   UNL     1      -9.568   5.247  68.676  1.00  0.00    -0.183 A  
HETATM   11  C   UNL     1      -9.735   4.272  67.680  1.00  0.00    -0.186 A  
HETATM   12  C   UNL     1      -9.195   3.009  67.845  1.00  0.00    -0.247 A  
HETATM   13  C   UNL     1      -8.504   2.729  69.015  1.00  0.00    -0.100 A  
HETATM   14  C   UNL     1      -8.335   3.707  70.020  1.00  0.00    -0.055 A  
HETATM   15  S   UNL     1      -7.461   3.137  71.452  1.00  0.00    -0.041 SA 
HETATM   16  C   UNL     1      -7.314   4.613  72.421  1.00  0.00    -0.082 A  
HETATM   17  C   UNL     1      -6.577   4.449  73.614  1.00  0.00    -0.056 A  
HETATM   18  C   UNL     1      -6.354   5.513  74.474  1.00  0.00    -0.070 A  
HETATM   19  C   UNL     1      -6.857   6.754  74.138  1.00  0.00    -0.079 A  
HETATM   20  C   UNL     1      -7.592   6.920  72.955  1.00  0.00    -0.089 A  
HETATM   21  C   UNL     1      -7.865   5.862  72.058  1.00  0.00    -0.106 A  
ENDBRANCH   7   8
ENDBRANCH   5   7
TORSDOF 2
ENDMDL
MODEL      196
REMARK 921   NORMALIZED FREE ENERGY PREDICTED BY IDOCK:   -3.08 KCAL/MOL
REMARK 922        TOTAL FREE ENERGY PREDICTED BY IDOCK:   -3.84 KCAL/MOL
REMARK 923 INTER-LIGAND FREE ENERGY PREDICTED BY IDOCK:   -3.74 KCAL/MOL
REMARK 924 INTRA-LIGAND FREE ENERGY PREDICTED BY IDOCK:   -0.10 KCAL/MOL
REMARK 927      BINDING AFFINITY PREDICTED BY RF-SCORE:    0.00 PKD
ROOT
HETATM    1  C   UNL     1     -10.576  15.663  65.739  1.00  0.00    -0.361 C  
HETATM    2  N   UNL     1     -10.633  14.297  66.234  1.00  0.00    -0.286 NA 
HETATM    3  C   UNL     1     -11.268  13.374  65.296  1.00  0.00    -0.289 C  
HETATM    4  C   UNL     1     -10.888  12.032  65.900  1.00  0.00    -0.329 C  
HETATM    5  C   UNL     1      -9.416  12.228  66.267  1.00  0.00    -0.234 C  
HETATM    6  C   UNL     1      -9.310  13.739  66.543  1.00  0.00    -0.233 C  
ENDROOT
BRANCH   5   7
HETATM    7  C   UNL     1      -8.891  11.393  67.446  1.00  0.00    -0.150 C  
BRANCH   7   8
HETATM    8  N   UNL     1      -8.774   9.941  67.138  1.00  0.00    -0.131 NA 
HETATM    9  C   UNL     1      -7.870   9.570  66.086  1.00  0.00    -0.100 A  
HETATM   10  C   UNL     1      -7.139  10.520  65.332  1.00  0.00    -0.072 A  
HETATM   11  C   UNL     1      -6.218  10.159  64.337  1.00  0.00    -0.133 A  
HETATM   12  C   UNL     1      -5.997   8.826  64.042  1.00  0.00    -0.071 A  
HETATM   13  C   UNL     1      -6.713   7.863  64.739  1.00  0.00    -0.051 A  
HETATM   14  C   UNL     1      -7.642   8.222  65.740  1.00  0.00    -0.082 A  
HETATM   15  S   UNL     1      -8.482   6.848  66.480  1.00  0.00    -0.130 SA 
HETATM   16  C   UNL     1      -9.441   7.627  67.749  1.00  0.00    -0.142 A  
HETATM   17  C   UNL     1     -10.171   6.726  68.555  1.00  0.00    -0.186 A  
HETATM   18  C   UNL     1     -10.956   7.175  69.606  1.00  0.00    -0.236 A  
HETATM   19  C   UNL     1     -11.006   8.530  69.866  1.00  0.00    -0.165 A  
HETATM   20  C   UNL     1     -10.285   9.428  69.064  1.00  0.00    -0.216 A  
HETATM   21  C   UNL     1      -9.489   9.021  67.969  1.00  0.00    -0.142 A  
ENDBRANCH   7   8
ENDBRANCH   5   7
TORSDOF 2
ENDMDL
MODEL      197
REMARK 921   NORMALIZED FREE ENERGY PREDICTED BY IDOCK:   -3.02 KCAL/MOL
REMARK 922        TOTAL FREE ENERGY PREDICTED BY IDOCK:   -3.77 KCAL/MOL
REMARK 923 INTER-LIGAND FREE ENERGY PREDICTED BY IDOCK:   -3.89 KCAL/MOL
REMARK 924 INTRA-LIGAND FREE ENERGY PREDICTED BY IDOCK:    0.12 KCAL/MOL
REMARK 927      BINDING AFFINITY PREDICTED BY RF-SCORE:    0.00 PKD
ROOT
HETATM    1  C   UNL     1     -11.031  16.433  68.997  1.00  0.00    -0.325 C  
HETATM    2  N   UNL     1     -11.067  15.283  68.108  1.00  0.00    -0.295 NA 
HETATM    3  C   UNL     1     -10.134  15.395  66.989  1.00  0.00    -0.249 C  
HETATM    4  C   UNL     1     -10.140  13.971  66.457  1.00  0.00    -0.287 C  
HETATM    5  C   UNL     1     -10.072  13.131  67.733  1.00  0.00    -0.226 C  
HETATM    6  C   UNL     1     -10.758  14.017  68.788  1.00  0.00    -0.259 C  
ENDROOT
BRANCH   5   7
HETATM    7  C   UNL     1     -10.706  11.732  67.661  1.00  0.00    -0.214 C  
BRANCH   7   8
HETATM    8  N   UNL     1     -10.040  10.734  68.542  1.00  0.00    -0.168 NA 
HETATM    9  C   UNL     1      -8.615  10.602  68.415  1.00  0.00    -0.134 A  
HETATM   10  C   UNL     1      -7.857  11.346  67.479  1.00  0.00    -0.126 A  
HETATM   11  C   UNL     1      -6.459  11.258  67.386  1.00  0.00    -0.080 A  
HETATM   12  C   UNL     1      -5.758  10.407  68.221  1.00  0.00    -0.040 A  
HETATM   13  C   UNL     1      -6.466   9.640  69.135  1.00  0.00    -0.044 A  
HETATM   14  C   UNL     1      -7.872   9.725  69.231  1.00  0.00    -0.105 A  
HETATM   15  S   UNL     1      -8.588   8.633  70.430  1.00  0.00    -0.167 SA 
HETATM   16  C   UNL     1     -10.299   9.087  70.385  1.00  0.00    -0.212 A  
HETATM   17  C   UNL     1     -11.104   8.400  71.319  1.00  0.00    -0.307 A  
HETATM   18  C   UNL     1     -12.462   8.655  71.425  1.00  0.00    -0.337 A  
HETATM   19  C   UNL     1     -13.023   9.612  70.603  1.00  0.00    -0.036 A  
HETATM   20  C   UNL     1     -12.228  10.294  69.671  1.00  0.00    -0.024 A  
HETATM   21  C   UNL     1     -10.844  10.053  69.510  1.00  0.00    -0.253 A  
ENDBRANCH   7   8
ENDBRANCH   5   7
TORSDOF 2
ENDMDL
MODEL      198
REMARK 921   NORMALIZED FREE ENERGY PREDICTED BY IDOCK:   -2.99 KCAL/MOL
REMARK 922        TOTAL FREE ENERGY PREDICTED BY IDOCK:   -3.73 KCAL/MOL
REMARK 923 INTER-LIGAND FREE ENERGY PREDICTED BY IDOCK:   -3.50 KCAL/MOL
REMARK 924 INTRA-LIGAND FREE ENERGY PREDICTED BY IDOCK:   -0.23 KCAL/MOL
REMARK 927      BINDING AFFINITY PREDICTED BY RF-SCORE:    0.00 PKD
ROOT
HETATM    1  C   UNL     1     -10.124   2.988  63.446  1.00  0.00    -0.156 C  
HETATM    2  N   UNL     1      -9.965   3.399  64.832  1.00  0.00    -0.102 NA 
HETATM    3  C   UNL     1      -8.593   3.774  65.164  1.00  0.00    -0.113 C  
HETATM    4  C   UNL     1      -8.792   4.458  66.507  1.00  0.00    -0.114 C  
HETATM    5  C   UNL     1     -10.033   5.319  66.271  1.00  0.00    -0.216 C  
HETATM    6  C   UNL     1     -10.815   4.542  65.196  1.00  0.00    -0.043 C  
ENDROOT
BRANCH   5   7
HETATM    7  C   UNL     1     -10.901   5.617  67.505  1.00  0.00    -0.095 C  
BRANCH   7   8
HETATM    8  N   UNL     1     -10.223   6.477  68.512  1.00  0.00    -0.160 NA 
HETATM    9  C   UNL     1      -9.849   5.857  69.752  1.00  0.00    -0.169 A  
HETATM   10  C   UNL     1     -10.133   4.502  70.049  1.00  0.00    -0.204 A  
HETATM   11  C   UNL     1      -9.726   3.878  71.238  1.00  0.00    -0.247 A  
HETATM   12  C   UNL     1      -9.025   4.591  72.194  1.00  0.00    -0.145 A  
HETATM   13  C   UNL     1      -8.749   5.930  71.955  1.00  0.00    -0.137 A  
HETATM   14  C   UNL     1      -9.158   6.561  70.760  1.00  0.00    -0.154 A  
HETATM   15  S   UNL     1      -8.746   8.283  70.668  1.00  0.00    -0.144 SA 
HETATM   16  C   UNL     1      -9.268   8.713  69.031  1.00  0.00    -0.145 A  
HETATM   17  C   UNL     1      -8.984  10.046  68.666  1.00  0.00    -0.136 A  
HETATM   18  C   UNL     1      -9.310  10.534  67.409  1.00  0.00    -0.158 A  
HETATM   19  C   UNL     1      -9.912   9.683  66.504  1.00  0.00    -0.313 A  
HETATM   20  C   UNL     1     -10.200   8.358  66.864  1.00  0.00    -0.383 A  
HETATM   21  C   UNL     1      -9.907   7.822  68.139  1.00  0.00    -0.167 A  
ENDBRANCH   7   8
ENDBRANCH   5   7
TORSDOF 2
ENDMDL
MODEL      199
REMARK 921   NORMALIZED FREE ENERGY PREDICTED BY IDOCK:   -2.98 KCAL/MOL
REMARK 922        TOTAL FREE ENERGY PREDICTED BY IDOCK:   -3.72 KCAL/MOL
REMARK 923 INTER-LIGAND FREE ENERGY PREDICTED BY IDOCK:   -3.49 KCAL/MOL
REMARK 924 INTRA-LIGAND FREE ENERGY PREDICTED BY IDOCK:   -0.23 KCAL/MOL
REMARK 927      BINDING AFFINITY PREDICTED BY RF-SCORE:    0.00 PKD
ROOT
HETATM    1  C   UNL     1     -11.032   7.546  73.012  1.00  0.00    -0.390 C  
HETATM    2  N   UNL     1      -9.885   8.342  72.605  1.00  0.00    -0.281 NA 
HETATM    3  C   UNL     1      -8.607   7.717  72.936  1.00  0.00    -0.143 C  
HETATM    4  C   UNL     1      -7.645   8.564  72.120  1.00  0.00    -0.122 C  
HETATM    5  C   UNL     1      -8.369   8.707  70.781  1.00  0.00    -0.172 C  
HETATM    6  C   UNL     1      -9.857   8.619  71.162  1.00  0.00    -0.222 C  
ENDROOT
BRANCH   5   7
HETATM    7  C   UNL     1      -8.060   9.979  69.973  1.00  0.00    -0.136 C  
BRANCH   7   8
HETATM    8  N   UNL     1      -8.639   9.964  68.601  1.00  0.00    -0.116 NA 
HETATM    9  C   UNL     1      -9.602  10.982  68.291  1.00  0.00    -0.171 A  
HETATM   10  C   UNL     1     -10.031  11.947  69.234  1.00  0.00     0.339 A  
HETATM   11  C   UNL     1     -10.934  12.975  68.920  1.00  0.00    -0.271 A  
HETATM   12  C   UNL     1     -11.461  13.073  67.645  1.00  0.00    -0.369 A  
HETATM   13  C   UNL     1     -11.088  12.132  66.696  1.00  0.00    -0.353 A  
HETATM   14  C   UNL     1     -10.180  11.096  67.009  1.00  0.00    -0.215 A  
HETATM   15  S   UNL     1      -9.868   9.974  65.673  1.00  0.00    -0.294 SA 
HETATM   16  C   UNL     1      -8.620   8.914  66.349  1.00  0.00    -0.126 A  
HETATM   17  C   UNL     1      -8.130   7.948  65.444  1.00  0.00    -0.130 A  
HETATM   18  C   UNL     1      -7.135   7.056  65.811  1.00  0.00    -0.069 A  
HETATM   19  C   UNL     1      -6.613   7.133  67.088  1.00  0.00    -0.059 A  
HETATM   20  C   UNL     1      -7.100   8.089  67.991  1.00  0.00    -0.086 A  
HETATM   21  C   UNL     1      -8.128   9.005  67.670  1.00  0.00    -0.109 A  
ENDBRANCH   7   8
ENDBRANCH   5   7
TORSDOF 2
ENDMDL
MODEL      200
REMARK 921   NORMALIZED FREE ENERGY PREDICTED BY IDOCK:   -2.98 KCAL/MOL
REMARK 922        TOTAL FREE ENERGY PREDICTED BY IDOCK:   -3.72 KCAL/MOL
REMARK 923 INTER-LIGAND FREE ENERGY PREDICTED BY IDOCK:   -3.40 KCAL/MOL
REMARK 924 INTRA-LIGAND FREE ENERGY PREDICTED BY IDOCK:   -0.32 KCAL/MOL
REMARK 927      BINDING AFFINITY PREDICTED BY RF-SCORE:    0.00 PKD
ROOT
HETATM    1  C   UNL     1      -7.754   8.293  64.508  1.00  0.00    -0.123 C  
HETATM    2  N   UNL     1      -8.276   8.000  65.833  1.00  0.00    -0.120 NA 
HETATM    3  C   UNL     1      -9.239   6.902  65.839  1.00  0.00     0.048 C  
HETATM    4  C   UNL     1      -9.340   6.607  67.327  1.00  0.00    -0.144 C  
HETATM    5  C   UNL     1      -7.882   6.659  67.784  1.00  0.00    -0.112 C  
HETATM    6  C   UNL     1      -7.229   7.648  66.801  1.00  0.00    -0.088 C  
ENDROOT
BRANCH   5   7
HETATM    7  C   UNL     1      -7.641   7.065  69.248  1.00  0.00    -0.096 C  
BRANCH   7   8
HETATM    8  N   UNL     1      -8.670   6.538  70.185  1.00  0.00    -0.139 NA 
HETATM    9  C   UNL     1      -8.569   5.154  70.553  1.00  0.00    -0.118 A  
HETATM   10  C   UNL     1      -7.570   4.294  70.036  1.00  0.00    -0.049 A  
HETATM   11  C   UNL     1      -7.436   2.954  70.430  1.00  0.00    -0.040 A  
HETATM   12  C   UNL     1      -8.309   2.410  71.355  1.00  0.00    -0.077 A  
HETATM   13  C   UNL     1      -9.320   3.211  71.867  1.00  0.00    -0.196 A  
HETATM   14  C   UNL     1      -9.458   4.559  71.472  1.00  0.00    -0.153 A  
HETATM   15  S   UNL     1     -10.836   5.396  72.208  1.00  0.00    -0.208 SA 
HETATM   16  C   UNL     1     -10.635   7.054  71.617  1.00  0.00    -0.204 A  
HETATM   17  C   UNL     1     -11.586   7.967  72.123  1.00  0.00    -0.380 A  
HETATM   18  C   UNL     1     -11.554   9.308  71.773  1.00  0.00    -0.458 A  
HETATM   19  C   UNL     1     -10.559   9.748  70.922  1.00  0.00    -0.344 A  
HETATM   20  C   UNL     1      -9.615   8.843  70.414  1.00  0.00    -0.227 A  
HETATM   21  C   UNL     1      -9.620   7.463  70.724  1.00  0.00    -0.170 A  
ENDBRANCH   7   8
ENDBRANCH   5   7
TORSDOF 2
ENDMDL
MODEL      201
REMARK 921   NORMALIZED FREE ENERGY PREDICTED BY IDOCK:   -2.95 KCAL/MOL
REMARK 922        TOTAL FREE ENERGY PREDICTED BY IDOCK:   -3.69 KCAL/MOL
REMARK 923 INTER-LIGAND FREE ENERGY PREDICTED BY IDOCK:   -3.42 KCAL/MOL
REMARK 924 INTRA-LIGAND FREE ENERGY PREDICTED BY IDOCK:   -0.27 KCAL/MOL
REMARK 927      BINDING AFFINITY PREDICTED BY RF-SCORE:    0.00 PKD
ROOT
HETATM    1  C   UNL     1      -8.214  20.084  66.200  1.00  0.00    -0.272 C  
HETATM    2  N   UNL     1      -8.220  19.023  67.195  1.00  0.00    -0.265 NA 
HETATM    3  C   UNL     1      -8.977  19.368  68.396  1.00  0.00    -0.354 C  
HETATM    4  C   UNL     1      -9.095  18.011  69.069  1.00  0.00    -0.037 C  
HETATM    5  C   UNL     1      -9.440  17.081  67.904  1.00  0.00    -0.245 C  
HETATM    6  C   UNL     1      -8.781  17.762  66.691  1.00  0.00    -0.261 C  
ENDROOT
BRANCH   5   7
HETATM    7  C   UNL     1      -8.996  15.616  68.048  1.00  0.00    -0.178 C  
BRANCH   7   8
HETATM    8  N   UNL     1     -10.129  14.650  68.036  1.00  0.00    -0.225 NA 
HETATM    9  C   UNL     1     -10.280  13.839  66.861  1.00  0.00    -0.261 A  
HETATM   10  C   UNL     1      -9.430  13.954  65.734  1.00  0.00    -0.016 A  
HETATM   11  C   UNL     1      -9.542  13.129  64.604  1.00  0.00     0.343 A  
HETATM   12  C   UNL     1     -10.524  12.157  64.547  1.00  0.00    -0.339 A  
HETATM   13  C   UNL     1     -11.396  12.027  65.619  1.00  0.00    -0.381 A  
HETATM   14  C   UNL     1     -11.286  12.856  66.757  1.00  0.00    -0.322 A  
HETATM   15  S   UNL     1     -12.520  12.561  67.995  1.00  0.00     1.226 SA 
HETATM   16  C   UNL     1     -12.017  13.646  69.301  1.00  0.00    -0.336 A  
HETATM   17  C   UNL     1     -12.810  13.554  70.465  1.00  0.00    -0.131 A  
HETATM   18  C   UNL     1     -12.536  14.323  71.586  1.00  0.00    -0.419 A  
HETATM   19  C   UNL     1     -11.455  15.182  71.553  1.00  0.00    -0.422 A  
HETATM   20  C   UNL     1     -10.667  15.278  70.396  1.00  0.00    -0.268 A  
HETATM   21  C   UNL     1     -10.920  14.532  69.222  1.00  0.00    -0.260 A  
ENDBRANCH   7   8
ENDBRANCH   5   7
TORSDOF 2
ENDMDL
MODEL      202
REMARK 921   NORMALIZED FREE ENERGY PREDICTED BY IDOCK:   -2.94 KCAL/MOL
REMARK 922        TOTAL FREE ENERGY PREDICTED BY IDOCK:   -3.68 KCAL/MOL
REMARK 923 INTER-LIGAND FREE ENERGY PREDICTED BY IDOCK:   -3.84 KCAL/MOL
REMARK 924 INTRA-LIGAND FREE ENERGY PREDICTED BY IDOCK:    0.16 KCAL/MOL
REMARK 927      BINDING AFFINITY PREDICTED BY RF-SCORE:    0.00 PKD
ROOT
HETATM    1  C   UNL     1      -8.399   8.599  67.748  1.00  0.00    -0.118 C  
HETATM    2  N   UNL     1      -9.321   7.518  68.061  1.00  0.00    -0.139 NA 
HETATM    3  C   UNL     1      -9.888   6.887  66.873  1.00  0.00    -0.183 C  
HETATM    4  C   UNL     1     -10.505   5.633  67.471  1.00  0.00    -0.294 C  
HETATM    5  C   UNL     1      -9.424   5.150  68.439  1.00  0.00    -0.168 C  
HETATM    6  C   UNL     1      -8.704   6.446  68.855  1.00  0.00    -0.126 C  
ENDROOT
BRANCH   5   7
HETATM    7  C   UNL     1      -9.910   4.350  69.659  1.00  0.00    -0.202 C  
BRANCH   7   8
HETATM    8  N   UNL     1      -9.603   5.007  70.959  1.00  0.00    -0.161 NA 
HETATM    9  C   UNL     1      -8.389   4.612  71.617  1.00  0.00    -0.104 A  
HETATM   10  C   UNL     1      -7.524   3.619  71.099  1.00  0.00    -0.044 A  
HETATM   11  C   UNL     1      -6.312   3.265  71.713  1.00  0.00    -0.015 A  
HETATM   12  C   UNL     1      -5.919   3.884  72.886  1.00  0.00    -0.011 A  
HETATM   13  C   UNL     1      -6.752   4.845  73.443  1.00  0.00    -0.068 A  
HETATM   14  C   UNL     1      -7.972   5.202  72.828  1.00  0.00    -0.098 A  
HETATM   15  S   UNL     1      -8.908   6.416  73.719  1.00  0.00    -0.128 SA 
HETATM   16  C   UNL     1     -10.270   6.722  72.629  1.00  0.00    -0.186 A  
HETATM   17  C   UNL     1     -11.154   7.726  73.078  1.00  0.00    -0.419 A  
HETATM   18  C   UNL     1     -12.260   8.100  72.330  1.00  0.00    -0.397 A  
HETATM   19  C   UNL     1     -12.481   7.477  71.117  1.00  0.00    -0.306 A  
HETATM   20  C   UNL     1     -11.607   6.475  70.670  1.00  0.00    -0.442 A  
HETATM   21  C   UNL     1     -10.480   6.045  71.407  1.00  0.00    -0.231 A  
ENDBRANCH   7   8
ENDBRANCH   5   7
TORSDOF 2
ENDMDL
MODEL      203
REMARK 921   NORMALIZED FREE ENERGY PREDICTED BY IDOCK:   -2.94 KCAL/MOL
REMARK 922        TOTAL FREE ENERGY PREDICTED BY IDOCK:   -3.67 KCAL/MOL
REMARK 923 INTER-LIGAND FREE ENERGY PREDICTED BY IDOCK:   -3.81 KCAL/MOL
REMARK 924 INTRA-LIGAND FREE ENERGY PREDICTED BY IDOCK:    0.14 KCAL/MOL
REMARK 927      BINDING AFFINITY PREDICTED BY RF-SCORE:    0.00 PKD
ROOT
HETATM    1  C   UNL     1      -7.836   9.405  68.433  1.00  0.00    -0.090 C  
HETATM    2  N   UNL     1      -9.082   8.680  68.238  1.00  0.00    -0.141 NA 
HETATM    3  C   UNL     1      -9.481   8.595  66.836  1.00  0.00    -0.180 C  
HETATM    4  C   UNL     1     -10.571   7.538  66.903  1.00  0.00    -0.367 C  
HETATM    5  C   UNL     1      -9.968   6.486  67.835  1.00  0.00    -0.148 C  
HETATM    6  C   UNL     1      -9.034   7.302  68.747  1.00  0.00    -0.129 C  
ENDROOT
BRANCH   5   7
HETATM    7  C   UNL     1     -10.966   5.643  68.647  1.00  0.00    -0.006 C  
BRANCH   7   8
HETATM    8  N   UNL     1     -10.615   5.537  70.090  1.00  0.00    -0.302 NA 
HETATM    9  C   UNL     1     -11.064   6.598  70.948  1.00  0.00    -0.286 A  
HETATM   10  C   UNL     1     -11.776   7.723  70.469  1.00  0.00    -0.118 A  
HETATM   11  C   UNL     1     -12.260   8.737  71.310  1.00  0.00    -0.332 A  
HETATM   12  C   UNL     1     -12.039   8.674  72.674  1.00  0.00    -0.267 A  
HETATM   13  C   UNL     1     -11.322   7.600  73.183  1.00  0.00    -0.231 A  
HETATM   14  C   UNL     1     -10.832   6.580  72.339  1.00  0.00    -0.233 A  
HETATM   15  S   UNL     1      -9.906   5.323  73.178  1.00  0.00    -0.157 SA 
HETATM   16  C   UNL     1      -9.571   4.165  71.879  1.00  0.00    -0.152 A  
HETATM   17  C   UNL     1      -8.887   3.005  72.303  1.00  0.00    -0.112 A  
HETATM   18  C   UNL     1      -8.568   1.992  71.411  1.00  0.00    -0.091 A  
HETATM   19  C   UNL     1      -8.943   2.129  70.089  1.00  0.00    -0.150 A  
HETATM   20  C   UNL     1      -9.619   3.283  69.664  1.00  0.00    -0.137 A  
HETATM   21  C   UNL     1      -9.947   4.351  70.531  1.00  0.00    -0.185 A  
ENDBRANCH   7   8
ENDBRANCH   5   7
TORSDOF 2
ENDMDL
MODEL      204
REMARK 921   NORMALIZED FREE ENERGY PREDICTED BY IDOCK:   -2.91 KCAL/MOL
REMARK 922        TOTAL FREE ENERGY PREDICTED BY IDOCK:   -3.65 KCAL/MOL
REMARK 923 INTER-LIGAND FREE ENERGY PREDICTED BY IDOCK:   -3.65 KCAL/MOL
REMARK 924 INTRA-LIGAND FREE ENERGY PREDICTED BY IDOCK:    0.00 KCAL/MOL
REMARK 927      BINDING AFFINITY PREDICTED BY RF-SCORE:    0.00 PKD
ROOT
HETATM    1  C   UNL     1      -6.333   7.745  73.615  1.00  0.00    -0.078 C  
HETATM    2  N   UNL     1      -6.745   7.033  72.416  1.00  0.00    -0.057 NA 
HETATM    3  C   UNL     1      -6.485   5.598  72.485  1.00  0.00    -0.061 C  
HETATM    4  C   UNL     1      -7.297   5.094  71.303  1.00  0.00    -0.078 C  
HETATM    5  C   UNL     1      -8.603   5.880  71.427  1.00  0.00    -0.129 C  
HETATM    6  C   UNL     1      -8.175   7.189  72.115  1.00  0.00    -0.098 C  
ENDROOT
BRANCH   5   7
HETATM    7  C   UNL     1      -9.366   6.145  70.119  1.00  0.00    -0.155 C  
BRANCH   7   8
HETATM    8  N   UNL     1      -9.680   7.583  69.897  1.00  0.00    -0.171 NA 
HETATM    9  C   UNL     1     -10.879   8.089  70.504  1.00  0.00    -0.241 A  
HETATM   10  C   UNL     1     -11.762   7.274  71.253  1.00  0.00    -0.328 A  
HETATM   11  C   UNL     1     -12.908   7.774  71.890  1.00  0.00    -0.317 A  
HETATM   12  C   UNL     1     -13.229   9.117  71.794  1.00  0.00    -0.459 A  
HETATM   13  C   UNL     1     -12.404   9.946  71.047  1.00  0.00    -0.451 A  
HETATM   14  C   UNL     1     -11.251   9.446  70.403  1.00  0.00    -0.262 A  
HETATM   15  S   UNL     1     -10.358  10.656  69.466  1.00  0.00    -0.135 SA 
HETATM   16  C   UNL     1      -8.938   9.746  68.923  1.00  0.00    -0.144 A  
HETATM   17  C   UNL     1      -8.004  10.514  68.195  1.00  0.00    -0.111 A  
HETATM   18  C   UNL     1      -6.829   9.954  67.716  1.00  0.00    -0.080 A  
HETATM   19  C   UNL     1      -6.575   8.622  67.976  1.00  0.00    -0.058 A  
HETATM   20  C   UNL     1      -7.503   7.855  68.695  1.00  0.00    -0.099 A  
HETATM   21  C   UNL     1      -8.724   8.374  69.184  1.00  0.00    -0.142 A  
ENDBRANCH   7   8
ENDBRANCH   5   7
TORSDOF 2
ENDMDL
MODEL      205
REMARK 921   NORMALIZED FREE ENERGY PREDICTED BY IDOCK:   -2.86 KCAL/MOL
REMARK 922        TOTAL FREE ENERGY PREDICTED BY IDOCK:   -3.59 KCAL/MOL
REMARK 923 INTER-LIGAND FREE ENERGY PREDICTED BY IDOCK:   -3.96 KCAL/MOL
REMARK 924 INTRA-LIGAND FREE ENERGY PREDICTED BY IDOCK:    0.37 KCAL/MOL
REMARK 927      BINDING AFFINITY PREDICTED BY RF-SCORE:    0.00 PKD
ROOT
HETATM    1  C   UNL     1      -9.384  14.134  67.950  1.00  0.00    -0.204 C  
HETATM    2  N   UNL     1     -10.114  12.891  68.145  1.00  0.00    -0.235 NA 
HETATM    3  C   UNL     1     -11.563  13.061  68.069  1.00  0.00    -0.343 C  
HETATM    4  C   UNL     1     -12.024  11.616  67.964  1.00  0.00    -0.187 C  
HETATM    5  C   UNL     1     -11.034  11.015  66.964  1.00  0.00    -0.333 C  
HETATM    6  C   UNL     1      -9.759  11.853  67.167  1.00  0.00    -0.185 C  
ENDROOT
BRANCH   5   7
HETATM    7  C   UNL     1     -10.756   9.509  67.102  1.00  0.00    -0.182 C  
BRANCH   7   8
HETATM    8  N   UNL     1      -9.542   9.203  67.907  1.00  0.00    -0.144 NA 
HETATM    9  C   UNL     1      -8.290   9.160  67.205  1.00  0.00    -0.121 A  
HETATM   10  C   UNL     1      -8.186   9.358  65.808  1.00  0.00    -0.116 A  
HETATM   11  C   UNL     1      -6.960   9.368  65.125  1.00  0.00    -0.092 A  
HETATM   12  C   UNL     1      -5.778   9.165  65.815  1.00  0.00    -0.050 A  
HETATM   13  C   UNL     1      -5.836   8.940  67.183  1.00  0.00    -0.046 A  
HETATM   14  C   UNL     1      -7.069   8.928  67.872  1.00  0.00    -0.079 A  
HETATM   15  S   UNL     1      -6.931   8.581  69.605  1.00  0.00    -0.048 SA 
HETATM   16  C   UNL     1      -8.600   8.776  70.167  1.00  0.00    -0.146 A  
HETATM   17  C   UNL     1      -8.761   8.619  71.560  1.00  0.00    -0.266 A  
HETATM   18  C   UNL     1     -10.003   8.761  72.161  1.00  0.00    -0.359 A  
HETATM   19  C   UNL     1     -11.091   9.074  71.370  1.00  0.00    -0.399 A  
HETATM   20  C   UNL     1     -10.934   9.226  69.984  1.00  0.00    -0.254 A  
HETATM   21  C   UNL     1      -9.694   9.070  69.324  1.00  0.00    -0.168 A  
ENDBRANCH   7   8
ENDBRANCH   5   7
TORSDOF 2
ENDMDL
MODEL      206
REMARK 921   NORMALIZED FREE ENERGY PREDICTED BY IDOCK:   -2.84 KCAL/MOL
REMARK 922        TOTAL FREE ENERGY PREDICTED BY IDOCK:   -3.56 KCAL/MOL
REMARK 923 INTER-LIGAND FREE ENERGY PREDICTED BY IDOCK:   -3.18 KCAL/MOL
REMARK 924 INTRA-LIGAND FREE ENERGY PREDICTED BY IDOCK:   -0.39 KCAL/MOL
REMARK 927      BINDING AFFINITY PREDICTED BY RF-SCORE:    0.00 PKD
ROOT
HETATM    1  C   UNL     1      -5.762  12.460  68.595  1.00  0.00    -0.054 C  
HETATM    2  N   UNL     1      -6.560  11.246  68.527  1.00  0.00    -0.058 NA 
HETATM    3  C   UNL     1      -7.423  11.194  67.349  1.00  0.00    -0.109 C  
HETATM    4  C   UNL     1      -7.851   9.735  67.363  1.00  0.00    -0.099 C  
HETATM    5  C   UNL     1      -6.547   9.001  67.678  1.00  0.00    -0.061 C  
HETATM    6  C   UNL     1      -5.748  10.022  68.508  1.00  0.00    -0.041 C  
ENDROOT
BRANCH   5   7
HETATM    7  C   UNL     1      -6.683   7.653  68.406  1.00  0.00    -0.061 C  
BRANCH   7   8
HETATM    8  N   UNL     1      -8.095   7.245  68.638  1.00  0.00    -0.123 NA 
HETATM    9  C   UNL     1      -8.721   6.454  67.615  1.00  0.00    -0.114 A  
HETATM   10  C   UNL     1      -8.064   6.095  66.414  1.00  0.00    -0.111 A  
HETATM   11  C   UNL     1      -8.653   5.281  65.435  1.00  0.00    -0.149 A  
HETATM   12  C   UNL     1      -9.938   4.800  65.610  1.00  0.00    -0.195 A  
HETATM   13  C   UNL     1     -10.628   5.150  66.762  1.00  0.00    -0.266 A  
HETATM   14  C   UNL     1     -10.038   5.970  67.749  1.00  0.00    -0.156 A  
HETATM   15  S   UNL     1     -11.099   6.336  69.121  1.00  0.00    -0.354 SA 
HETATM   16  C   UNL     1     -10.027   7.242  70.201  1.00  0.00    -0.184 A  
HETATM   17  C   UNL     1     -10.618   7.604  71.431  1.00  0.00    -0.236 A  
HETATM   18  C   UNL     1      -9.905   8.299  72.395  1.00  0.00    -0.375 A  
HETATM   19  C   UNL     1      -8.588   8.627  72.139  1.00  0.00    -0.190 A  
HETATM   20  C   UNL     1      -7.999   8.273  70.916  1.00  0.00    -0.101 A  
HETATM   21  C   UNL     1      -8.691   7.584  69.894  1.00  0.00    -0.140 A  
ENDBRANCH   7   8
ENDBRANCH   5   7
TORSDOF 2
ENDMDL
MODEL      207
REMARK 921   NORMALIZED FREE ENERGY PREDICTED BY IDOCK:   -2.79 KCAL/MOL
REMARK 922        TOTAL FREE ENERGY PREDICTED BY IDOCK:   -3.51 KCAL/MOL
REMARK 923 INTER-LIGAND FREE ENERGY PREDICTED BY IDOCK:   -3.64 KCAL/MOL
REMARK 924 INTRA-LIGAND FREE ENERGY PREDICTED BY IDOCK:    0.13 KCAL/MOL
REMARK 927      BINDING AFFINITY PREDICTED BY RF-SCORE:    0.00 PKD
ROOT
HETATM    1  C   UNL     1     -11.085   9.420  69.347  1.00  0.00    -0.076 C  
HETATM    2  N   UNL     1     -11.157   9.165  70.777  1.00  0.00    -0.257 NA 
HETATM    3  C   UNL     1     -12.527   9.133  71.284  1.00  0.00    -0.300 C  
HETATM    4  C   UNL     1     -12.316   8.531  72.664  1.00  0.00    -0.289 C  
HETATM    5  C   UNL     1     -11.325   7.398  72.393  1.00  0.00    -0.341 C  
HETATM    6  C   UNL     1     -10.533   7.894  71.169  1.00  0.00    -0.204 C  
ENDROOT
BRANCH   5   7
HETATM    7  C   UNL     1     -10.396   7.012  73.556  1.00  0.00    -0.356 C  
BRANCH   7   8
HETATM    8  N   UNL     1      -9.371   5.998  73.184  1.00  0.00    -0.139 NA 
HETATM    9  C   UNL     1      -9.792   4.626  73.160  1.00  0.00    -0.143 A  
HETATM   10  C   UNL     1     -11.104   4.219  73.504  1.00  0.00    -0.377 A  
HETATM   11  C   UNL     1     -11.534   2.886  73.433  1.00  0.00    -0.165 A  
HETATM   12  C   UNL     1     -10.661   1.893  73.025  1.00  0.00    -0.243 A  
HETATM   13  C   UNL     1      -9.358   2.244  72.703  1.00  0.00    -0.126 A  
HETATM   14  C   UNL     1      -8.921   3.585  72.775  1.00  0.00    -0.096 A  
HETATM   15  S   UNL     1      -7.213   3.818  72.365  1.00  0.00    -0.050 SA 
HETATM   16  C   UNL     1      -7.043   5.580  72.423  1.00  0.00    -0.084 A  
HETATM   17  C   UNL     1      -5.762   6.048  72.059  1.00  0.00    -0.031 A  
HETATM   18  C   UNL     1      -5.472   7.404  72.033  1.00  0.00    -0.036 A  
HETATM   19  C   UNL     1      -6.469   8.302  72.359  1.00  0.00    -0.085 A  
HETATM   20  C   UNL     1      -7.742   7.840  72.725  1.00  0.00    -0.133 A  
HETATM   21  C   UNL     1      -8.079   6.468  72.788  1.00  0.00    -0.106 A  
ENDBRANCH   7   8
ENDBRANCH   5   7
TORSDOF 2
ENDMDL
MODEL      208
REMARK 921   NORMALIZED FREE ENERGY PREDICTED BY IDOCK:   -2.70 KCAL/MOL
REMARK 922        TOTAL FREE ENERGY PREDICTED BY IDOCK:   -3.41 KCAL/MOL
REMARK 923 INTER-LIGAND FREE ENERGY PREDICTED BY IDOCK:   -3.02 KCAL/MOL
REMARK 924 INTRA-LIGAND FREE ENERGY PREDICTED BY IDOCK:   -0.39 KCAL/MOL
REMARK 927      BINDING AFFINITY PREDICTED BY RF-SCORE:    0.00 PKD
ROOT
HETATM    1  C   UNL     1      -9.836   5.149  65.441  1.00  0.00     0.096 C  
HETATM    2  N   UNL     1      -9.304   5.589  66.721  1.00  0.00    -0.128 NA 
HETATM    3  C   UNL     1     -10.037   6.718  67.289  1.00  0.00    -0.182 C  
HETATM    4  C   UNL     1      -9.504   6.729  68.712  1.00  0.00    -0.130 C  
HETATM    5  C   UNL     1      -9.505   5.247  69.089  1.00  0.00    -0.184 C  
HETATM    6  C   UNL     1      -9.304   4.531  67.741  1.00  0.00    -0.147 C  
ENDROOT
BRANCH   5   7
HETATM    7  C   UNL     1      -8.462   4.807  70.130  1.00  0.00    -0.082 C  
BRANCH   7   8
HETATM    8  N   UNL     1      -8.943   4.922  71.534  1.00  0.00    -0.133 NA 
HETATM    9  C   UNL     1      -9.629   3.786  72.082  1.00  0.00    -0.148 A  
HETATM   10  C   UNL     1      -9.886   2.611  71.335  1.00  0.00    -0.162 A  
HETATM   11  C   UNL     1     -10.511   1.480  71.881  1.00  0.00    -0.085 A  
HETATM   12  C   UNL     1     -10.921   1.480  73.202  1.00  0.00    -0.246 A  
HETATM   13  C   UNL     1     -10.713   2.622  73.963  1.00  0.00    -0.262 A  
HETATM   14  C   UNL     1     -10.085   3.762  73.417  1.00  0.00    -0.135 A  
HETATM   15  S   UNL     1      -9.953   5.128  74.538  1.00  0.00    -0.254 SA 
HETATM   16  C   UNL     1      -9.021   6.305  73.598  1.00  0.00    -0.124 A  
HETATM   17  C   UNL     1      -8.708   7.488  74.301  1.00  0.00    -0.264 A  
HETATM   18  C   UNL     1      -7.966   8.501  73.712  1.00  0.00    -0.082 A  
HETATM   19  C   UNL     1      -7.521   8.329  72.417  1.00  0.00    -0.153 A  
HETATM   20  C   UNL     1      -7.834   7.157  71.713  1.00  0.00    -0.093 A  
HETATM   21  C   UNL     1      -8.605   6.107  72.262  1.00  0.00    -0.119 A  
ENDBRANCH   7   8
ENDBRANCH   5   7
TORSDOF 2
ENDMDL
MODEL      209
REMARK 921   NORMALIZED FREE ENERGY PREDICTED BY IDOCK:   -2.64 KCAL/MOL
REMARK 922        TOTAL FREE ENERGY PREDICTED BY IDOCK:   -3.34 KCAL/MOL
REMARK 923 INTER-LIGAND FREE ENERGY PREDICTED BY IDOCK:   -3.15 KCAL/MOL
REMARK 924 INTRA-LIGAND FREE ENERGY PREDICTED BY IDOCK:   -0.20 KCAL/MOL
REMARK 927      BINDING AFFINITY PREDICTED BY RF-SCORE:    0.00 PKD
ROOT
HETATM    1  C   UNL     1      -9.550   7.697  73.490  1.00  0.00    -0.290 C  
HETATM    2  N   UNL     1      -8.493   8.025  72.547  1.00  0.00    -0.145 NA 
HETATM    3  C   UNL     1      -7.183   8.158  73.179  1.00  0.00    -0.122 C  
HETATM    4  C   UNL     1      -6.268   8.154  71.965  1.00  0.00    -0.049 C  
HETATM    5  C   UNL     1      -6.851   7.033  71.103  1.00  0.00    -0.060 C  
HETATM    6  C   UNL     1      -8.345   7.028  71.477  1.00  0.00    -0.112 C  
ENDROOT
BRANCH   5   7
HETATM    7  C   UNL     1      -6.643   7.163  69.585  1.00  0.00    -0.044 C  
BRANCH   7   8
HETATM    8  N   UNL     1      -7.902   7.036  68.801  1.00  0.00    -0.116 NA 
HETATM    9  C   UNL     1      -8.596   8.252  68.483  1.00  0.00    -0.133 A  
HETATM   10  C   UNL     1      -8.149   9.525  68.913  1.00  0.00    -0.096 A  
HETATM   11  C   UNL     1      -8.796  10.720  68.563  1.00  0.00    -0.149 A  
HETATM   12  C   UNL     1      -9.932  10.692  67.774  1.00  0.00    -0.192 A  
HETATM   13  C   UNL     1     -10.419   9.462  67.353  1.00  0.00    -0.343 A  
HETATM   14  C   UNL     1      -9.771   8.258  67.705  1.00  0.00    -0.159 A  
HETATM   15  S   UNL     1     -10.575   6.797  67.104  1.00  0.00    -0.364 SA 
HETATM   16  C   UNL     1      -9.455   5.516  67.596  1.00  0.00    -0.118 A  
HETATM   17  C   UNL     1      -9.832   4.224  67.169  1.00  0.00    -0.205 A  
HETATM   18  C   UNL     1      -9.051   3.115  67.455  1.00  0.00    -0.210 A  
HETATM   19  C   UNL     1      -7.877   3.294  68.161  1.00  0.00    -0.063 A  
HETATM   20  C   UNL     1      -7.501   4.576  68.590  1.00  0.00    -0.064 A  
HETATM   21  C   UNL     1      -8.275   5.733  68.342  1.00  0.00    -0.108 A  
ENDBRANCH   7   8
ENDBRANCH   5   7
TORSDOF 2
ENDMDL
MODEL      210
REMARK 921   NORMALIZED FREE ENERGY PREDICTED BY IDOCK:   -2.61 KCAL/MOL
REMARK 922        TOTAL FREE ENERGY PREDICTED BY IDOCK:   -3.31 KCAL/MOL
REMARK 923 INTER-LIGAND FREE ENERGY PREDICTED BY IDOCK:   -3.13 KCAL/MOL
REMARK 924 INTRA-LIGAND FREE ENERGY PREDICTED BY IDOCK:   -0.18 KCAL/MOL
REMARK 927      BINDING AFFINITY PREDICTED BY RF-SCORE:    0.00 PKD
ROOT
HETATM    1  C   UNL     1      -5.799  12.245  68.588  1.00  0.00    -0.054 C  
HETATM    2  N   UNL     1      -6.543  11.003  68.452  1.00  0.00    -0.057 NA 
HETATM    3  C   UNL     1      -7.232  10.886  67.169  1.00  0.00    -0.104 C  
HETATM    4  C   UNL     1      -7.613   9.415  67.173  1.00  0.00    -0.091 C  
HETATM    5  C   UNL     1      -6.345   8.735  67.690  1.00  0.00    -0.057 C  
HETATM    6  C   UNL     1      -5.700   9.807  68.587  1.00  0.00    -0.039 C  
ENDROOT
BRANCH   5   7
HETATM    7  C   UNL     1      -6.540   7.406  68.437  1.00  0.00    -0.046 C  
BRANCH   7   8
HETATM    8  N   UNL     1      -7.963   6.976  68.520  1.00  0.00    -0.121 NA 
HETATM    9  C   UNL     1      -8.707   7.406  69.670  1.00  0.00    -0.137 A  
HETATM   10  C   UNL     1      -8.133   8.172  70.713  1.00  0.00    -0.102 A  
HETATM   11  C   UNL     1      -8.868   8.637  71.814  1.00  0.00    -0.281 A  
HETATM   12  C   UNL     1     -10.215   8.343  71.926  1.00  0.00    -0.340 A  
HETATM   13  C   UNL     1     -10.812   7.572  70.939  1.00  0.00    -0.252 A  
HETATM   14  C   UNL     1     -10.075   7.101  69.830  1.00  0.00    -0.191 A  
HETATM   15  S   UNL     1     -11.010   6.100  68.706  1.00  0.00    -0.306 SA 
HETATM   16  C   UNL     1      -9.848   5.804  67.402  1.00  0.00    -0.138 A  
HETATM   17  C   UNL     1     -10.372   5.069  66.317  1.00  0.00    -0.332 A  
HETATM   18  C   UNL     1      -9.597   4.771  65.207  1.00  0.00    -0.126 A  
HETATM   19  C   UNL     1      -8.291   5.219  65.171  1.00  0.00    -0.145 A  
HETATM   20  C   UNL     1      -7.765   5.946  66.249  1.00  0.00    -0.102 A  
HETATM   21  C   UNL     1      -8.509   6.255  67.411  1.00  0.00    -0.108 A  
ENDBRANCH   7   8
ENDBRANCH   5   7
TORSDOF 2
ENDMDL
MODEL      211
REMARK 921   NORMALIZED FREE ENERGY PREDICTED BY IDOCK:   -2.56 KCAL/MOL
REMARK 922        TOTAL FREE ENERGY PREDICTED BY IDOCK:   -3.25 KCAL/MOL
REMARK 923 INTER-LIGAND FREE ENERGY PREDICTED BY IDOCK:   -2.99 KCAL/MOL
REMARK 924 INTRA-LIGAND FREE ENERGY PREDICTED BY IDOCK:   -0.26 KCAL/MOL
REMARK 927      BINDING AFFINITY PREDICTED BY RF-SCORE:    0.00 PKD
ROOT
HETATM    1  C   UNL     1      -6.396  14.727  68.407  1.00  0.00    -0.103 C  
HETATM    2  N   UNL     1      -7.160  13.541  68.760  1.00  0.00    -0.102 NA 
HETATM    3  C   UNL     1      -8.475  13.497  68.124  1.00  0.00    -0.172 C  
HETATM    4  C   UNL     1      -8.879  12.055  68.384  1.00  0.00    -0.149 C  
HETATM    5  C   UNL     1      -7.596  11.281  68.078  1.00  0.00    -0.105 C  
HETATM    6  C   UNL     1      -6.479  12.288  68.405  1.00  0.00    -0.057 C  
ENDROOT
BRANCH   5   7
HETATM    7  C   UNL     1      -7.406   9.953  68.830  1.00  0.00    -0.078 C  
BRANCH   7   8
HETATM    8  N   UNL     1      -8.328   8.877  68.373  1.00  0.00    -0.124 NA 
HETATM    9  C   UNL     1      -9.382   8.499  69.272  1.00  0.00    -0.154 A  
HETATM   10  C   UNL     1      -9.542   9.076  70.554  1.00  0.00    -0.264 A  
HETATM   11  C   UNL     1     -10.599   8.746  71.416  1.00  0.00    -0.349 A  
HETATM   12  C   UNL     1     -11.541   7.808  71.034  1.00  0.00    -0.301 A  
HETATM   13  C   UNL     1     -11.408   7.198  69.795  1.00  0.00    -0.158 A  
HETATM   14  C   UNL     1     -10.344   7.526  68.926  1.00  0.00    -0.211 A  
HETATM   15  S   UNL     1     -10.328   6.605  67.413  1.00  0.00    -0.258 SA 
HETATM   16  C   UNL     1      -8.983   7.346  66.529  1.00  0.00    -0.159 A  
HETATM   17  C   UNL     1      -8.794   6.831  65.229  1.00  0.00     0.146 A  
HETATM   18  C   UNL     1      -7.795   7.319  64.399  1.00  0.00    -0.126 A  
HETATM   19  C   UNL     1      -6.987   8.338  64.863  1.00  0.00    -0.074 A  
HETATM   20  C   UNL     1      -7.170   8.849  66.157  1.00  0.00    -0.090 A  
HETATM   21  C   UNL     1      -8.159   8.370  67.046  1.00  0.00    -0.104 A  
ENDBRANCH   7   8
ENDBRANCH   5   7
TORSDOF 2
ENDMDL
MODEL      212
REMARK 921   NORMALIZED FREE ENERGY PREDICTED BY IDOCK:   -2.55 KCAL/MOL
REMARK 922        TOTAL FREE ENERGY PREDICTED BY IDOCK:   -3.24 KCAL/MOL
REMARK 923 INTER-LIGAND FREE ENERGY PREDICTED BY IDOCK:   -3.44 KCAL/MOL
REMARK 924 INTRA-LIGAND FREE ENERGY PREDICTED BY IDOCK:    0.20 KCAL/MOL
REMARK 927      BINDING AFFINITY PREDICTED BY RF-SCORE:    0.00 PKD
ROOT
HETATM    1  C   UNL     1      -9.876  11.010  66.365  1.00  0.00    -0.212 C  
HETATM    2  N   UNL     1      -8.793  11.580  67.150  1.00  0.00    -0.163 NA 
HETATM    3  C   UNL     1      -7.470  11.251  66.625  1.00  0.00    -0.133 C  
HETATM    4  C   UNL     1      -6.595  12.222  67.401  1.00  0.00    -0.154 C  
HETATM    5  C   UNL     1      -7.397  13.523  67.343  1.00  0.00    -0.124 C  
HETATM    6  C   UNL     1      -8.857  13.046  67.242  1.00  0.00    -0.208 C  
ENDROOT
BRANCH   5   7
HETATM    7  C   UNL     1      -7.195  14.500  68.514  1.00  0.00    -0.120 C  
BRANCH   7   8
HETATM    8  N   UNL     1      -7.993  15.750  68.387  1.00  0.00    -0.137 NA 
HETATM    9  C   UNL     1      -7.441  16.795  67.572  1.00  0.00    -0.159 A  
HETATM   10  C   UNL     1      -6.180  16.688  66.937  1.00  0.00    -0.189 A  
HETATM   11  C   UNL     1      -5.658  17.686  66.100  1.00  0.00    -0.241 A  
HETATM   12  C   UNL     1      -6.374  18.847  65.871  1.00  0.00    -0.252 A  
HETATM   13  C   UNL     1      -7.603  19.005  66.496  1.00  0.00    -0.264 A  
HETATM   14  C   UNL     1      -8.130  18.003  67.340  1.00  0.00    -0.222 A  
HETATM   15  S   UNL     1      -9.690  18.416  68.073  1.00  0.00    -0.333 SA 
HETATM   16  C   UNL     1     -10.113  16.926  68.934  1.00  0.00    -0.297 A  
HETATM   17  C   UNL     1     -11.375  16.962  69.564  1.00  0.00     0.376 A  
HETATM   18  C   UNL     1     -11.862  15.868  70.263  1.00  0.00    -0.343 A  
HETATM   19  C   UNL     1     -11.092  14.724  70.325  1.00  0.00    -0.185 A  
HETATM   20  C   UNL     1      -9.834  14.686  69.703  1.00  0.00     0.165 A  
HETATM   21  C   UNL     1      -9.286  15.783  68.999  1.00  0.00    -0.243 A  
ENDBRANCH   7   8
ENDBRANCH   5   7
TORSDOF 2
ENDMDL
MODEL      213
REMARK 921   NORMALIZED FREE ENERGY PREDICTED BY IDOCK:   -2.54 KCAL/MOL
REMARK 922        TOTAL FREE ENERGY PREDICTED BY IDOCK:   -3.24 KCAL/MOL
REMARK 923 INTER-LIGAND FREE ENERGY PREDICTED BY IDOCK:   -3.02 KCAL/MOL
REMARK 924 INTRA-LIGAND FREE ENERGY PREDICTED BY IDOCK:   -0.22 KCAL/MOL
REMARK 927      BINDING AFFINITY PREDICTED BY RF-SCORE:    0.00 PKD
ROOT
HETATM    1  C   UNL     1      -7.480   5.759  65.910  1.00  0.00    -0.078 C  
HETATM    2  N   UNL     1      -8.038   5.614  67.245  1.00  0.00    -0.102 NA 
HETATM    3  C   UNL     1      -8.775   4.366  67.425  1.00  0.00    -0.105 C  
HETATM    4  C   UNL     1      -8.933   4.332  68.936  1.00  0.00    -0.156 C  
HETATM    5  C   UNL     1      -7.549   4.755  69.433  1.00  0.00    -0.056 C  
HETATM    6  C   UNL     1      -7.020   5.658  68.305  1.00  0.00    -0.068 C  
ENDROOT
BRANCH   5   7
HETATM    7  C   UNL     1      -7.502   5.459  70.799  1.00  0.00    -0.080 C  
BRANCH   7   8
HETATM    8  N   UNL     1      -8.746   5.288  71.597  1.00  0.00    -0.133 NA 
HETATM    9  C   UNL     1      -9.737   6.322  71.488  1.00  0.00    -0.162 A  
HETATM   10  C   UNL     1      -9.552   7.481  70.697  1.00  0.00    -0.171 A  
HETATM   11  C   UNL     1     -10.537   8.470  70.548  1.00  0.00    -0.238 A  
HETATM   12  C   UNL     1     -11.751   8.347  71.199  1.00  0.00    -0.315 A  
HETATM   13  C   UNL     1     -11.964   7.239  72.007  1.00  0.00    -0.333 A  
HETATM   14  C   UNL     1     -10.975   6.243  72.160  1.00  0.00    -0.257 A  
HETATM   15  S   UNL     1     -11.425   4.933  73.266  1.00  0.00    -0.148 SA 
HETATM   16  C   UNL     1     -10.052   3.823  73.121  1.00  0.00    -0.143 A  
HETATM   17  C   UNL     1     -10.192   2.632  73.866  1.00  0.00    -0.190 A  
HETATM   18  C   UNL     1      -9.214   1.649  73.844  1.00  0.00    -0.066 A  
HETATM   19  C   UNL     1      -8.093   1.848  73.063  1.00  0.00    -0.053 A  
HETATM   20  C   UNL     1      -7.948   3.032  72.324  1.00  0.00    -0.059 A  
HETATM   21  C   UNL     1      -8.907   4.071  72.333  1.00  0.00    -0.106 A  
ENDBRANCH   7   8
ENDBRANCH   5   7
TORSDOF 2
ENDMDL
MODEL      214
REMARK 921   NORMALIZED FREE ENERGY PREDICTED BY IDOCK:   -2.54 KCAL/MOL
REMARK 922        TOTAL FREE ENERGY PREDICTED BY IDOCK:   -3.23 KCAL/MOL
REMARK 923 INTER-LIGAND FREE ENERGY PREDICTED BY IDOCK:   -3.24 KCAL/MOL
REMARK 924 INTRA-LIGAND FREE ENERGY PREDICTED BY IDOCK:    0.01 KCAL/MOL
REMARK 927      BINDING AFFINITY PREDICTED BY RF-SCORE:    0.00 PKD
ROOT
HETATM    1  C   UNL     1      -9.548   7.712  73.505  1.00  0.00    -0.290 C  
HETATM    2  N   UNL     1      -8.542   8.134  72.543  1.00  0.00    -0.176 NA 
HETATM    3  C   UNL     1      -7.211   8.273  73.131  1.00  0.00    -0.107 C  
HETATM    4  C   UNL     1      -6.348   8.377  71.884  1.00  0.00    -0.064 C  
HETATM    5  C   UNL     1      -6.930   7.292  70.976  1.00  0.00    -0.060 C  
HETATM    6  C   UNL     1      -8.406   7.213  71.407  1.00  0.00    -0.112 C  
ENDROOT
BRANCH   5   7
HETATM    7  C   UNL     1      -6.789   7.523  69.462  1.00  0.00    -0.044 C  
BRANCH   7   8
HETATM    8  N   UNL     1      -8.065   7.355  68.716  1.00  0.00    -0.126 NA 
HETATM    9  C   UNL     1      -8.437   6.015  68.357  1.00  0.00    -0.112 A  
HETATM   10  C   UNL     1      -7.631   4.890  68.651  1.00  0.00    -0.077 A  
HETATM   11  C   UNL     1      -8.013   3.574  68.347  1.00  0.00    -0.072 A  
HETATM   12  C   UNL     1      -9.221   3.328  67.719  1.00  0.00    -0.240 A  
HETATM   13  C   UNL     1     -10.031   4.405  67.389  1.00  0.00    -0.146 A  
HETATM   14  C   UNL     1      -9.648   5.730  67.692  1.00  0.00    -0.114 A  
HETATM   15  S   UNL     1     -10.800   6.963  67.149  1.00  0.00    -0.343 SA 
HETATM   16  C   UNL     1     -10.095   8.455  67.795  1.00  0.00    -0.207 A  
HETATM   17  C   UNL     1     -10.871   9.610  67.559  1.00  0.00    -0.265 A  
HETATM   18  C   UNL     1     -10.468  10.854  68.018  1.00  0.00    -0.222 A  
HETATM   19  C   UNL     1      -9.289  10.948  68.731  1.00  0.00    -0.190 A  
HETATM   20  C   UNL     1      -8.513   9.803  68.964  1.00  0.00    -0.137 A  
HETATM   21  C   UNL     1      -8.870   8.517  68.497  1.00  0.00    -0.139 A  
ENDBRANCH   7   8
ENDBRANCH   5   7
TORSDOF 2
ENDMDL
MODEL      215
REMARK 921   NORMALIZED FREE ENERGY PREDICTED BY IDOCK:   -2.50 KCAL/MOL
REMARK 922        TOTAL FREE ENERGY PREDICTED BY IDOCK:   -3.19 KCAL/MOL
REMARK 923 INTER-LIGAND FREE ENERGY PREDICTED BY IDOCK:   -2.85 KCAL/MOL
REMARK 924 INTRA-LIGAND FREE ENERGY PREDICTED BY IDOCK:   -0.34 KCAL/MOL
REMARK 927      BINDING AFFINITY PREDICTED BY RF-SCORE:    0.00 PKD
ROOT
HETATM    1  C   UNL     1     -10.747   4.693  65.683  1.00  0.00    -0.148 C  
HETATM    2  N   UNL     1      -9.856   5.267  66.678  1.00  0.00    -0.161 NA 
HETATM    3  C   UNL     1     -10.322   6.554  67.190  1.00  0.00    -0.247 C  
HETATM    4  C   UNL     1      -9.422   6.732  68.402  1.00  0.00    -0.126 C  
HETATM    5  C   UNL     1      -9.430   5.342  69.039  1.00  0.00    -0.182 C  
HETATM    6  C   UNL     1      -9.656   4.397  67.845  1.00  0.00    -0.152 C  
ENDROOT
BRANCH   5   7
HETATM    7  C   UNL     1      -8.178   4.955  69.845  1.00  0.00    -0.073 C  
BRANCH   7   8
HETATM    8  N   UNL     1      -8.233   5.386  71.268  1.00  0.00    -0.118 NA 
HETATM    9  C   UNL     1      -7.510   6.577  71.616  1.00  0.00    -0.089 A  
HETATM   10  C   UNL     1      -6.739   7.307  70.680  1.00  0.00    -0.048 A  
HETATM   11  C   UNL     1      -6.071   8.498  71.003  1.00  0.00    -0.037 A  
HETATM   12  C   UNL     1      -6.135   9.006  72.288  1.00  0.00    -0.016 A  
HETATM   13  C   UNL     1      -6.858   8.307  73.244  1.00  0.00    -0.136 A  
HETATM   14  C   UNL     1      -7.530   7.107  72.923  1.00  0.00    -0.076 A  
HETATM   15  S   UNL     1      -8.358   6.347  74.293  1.00  0.00    -0.130 SA 
HETATM   16  C   UNL     1      -9.186   4.980  73.527  1.00  0.00    -0.126 A  
HETATM   17  C   UNL     1      -9.995   4.229  74.407  1.00  0.00    -0.213 A  
HETATM   18  C   UNL     1     -10.726   3.139  73.959  1.00  0.00    -0.279 A  
HETATM   19  C   UNL     1     -10.660   2.801  72.622  1.00  0.00    -0.134 A  
HETATM   20  C   UNL     1      -9.854   3.542  71.746  1.00  0.00    -0.230 A  
HETATM   21  C   UNL     1      -9.074   4.647  72.159  1.00  0.00    -0.127 A  
ENDBRANCH   7   8
ENDBRANCH   5   7
TORSDOF 2
ENDMDL
MODEL      216
REMARK 921   NORMALIZED FREE ENERGY PREDICTED BY IDOCK:   -2.47 KCAL/MOL
REMARK 922        TOTAL FREE ENERGY PREDICTED BY IDOCK:   -3.16 KCAL/MOL
REMARK 923 INTER-LIGAND FREE ENERGY PREDICTED BY IDOCK:   -2.69 KCAL/MOL
REMARK 924 INTRA-LIGAND FREE ENERGY PREDICTED BY IDOCK:   -0.47 KCAL/MOL
REMARK 927      BINDING AFFINITY PREDICTED BY RF-SCORE:    0.00 PKD
ROOT
HETATM    1  C   UNL     1      -8.571   2.412  63.486  1.00  0.00    -0.085 C  
HETATM    2  N   UNL     1      -8.936   2.884  64.812  1.00  0.00    -0.122 NA 
HETATM    3  C   UNL     1      -8.002   2.455  65.850  1.00  0.00    -0.082 C  
HETATM    4  C   UNL     1      -8.421   3.343  67.010  1.00  0.00    -0.109 C  
HETATM    5  C   UNL     1      -8.614   4.706  66.343  1.00  0.00    -0.112 C  
HETATM    6  C   UNL     1      -9.019   4.349  64.901  1.00  0.00    -0.147 C  
ENDROOT
BRANCH   5   7
HETATM    7  C   UNL     1      -9.632   5.650  67.004  1.00  0.00    -0.136 C  
BRANCH   7   8
HETATM    8  N   UNL     1      -8.999   6.746  67.789  1.00  0.00    -0.117 NA 
HETATM    9  C   UNL     1      -8.719   7.969  67.090  1.00  0.00    -0.131 A  
HETATM   10  C   UNL     1      -8.985   8.143  65.711  1.00  0.00    -0.165 A  
HETATM   11  C   UNL     1      -8.760   9.352  65.036  1.00  0.00    -0.216 A  
HETATM   12  C   UNL     1      -8.242  10.442  65.713  1.00  0.00    -0.156 A  
HETATM   13  C   UNL     1      -7.942  10.306  67.060  1.00  0.00    -0.111 A  
HETATM   14  C   UNL     1      -8.167   9.091  67.743  1.00  0.00    -0.109 A  
HETATM   15  S   UNL     1      -7.677   9.110  69.446  1.00  0.00    -0.083 SA 
HETATM   16  C   UNL     1      -8.211   7.520  70.015  1.00  0.00    -0.130 A  
HETATM   17  C   UNL     1      -7.999   7.298  71.393  1.00  0.00    -0.097 A  
HETATM   18  C   UNL     1      -8.379   6.111  71.998  1.00  0.00    -0.114 A  
HETATM   19  C   UNL     1      -8.989   5.140  71.228  1.00  0.00    -0.161 A  
HETATM   20  C   UNL     1      -9.197   5.354  69.858  1.00  0.00    -0.174 A  
HETATM   21  C   UNL     1      -8.807   6.539  69.192  1.00  0.00    -0.128 A  
ENDBRANCH   7   8
ENDBRANCH   5   7
TORSDOF 2
ENDMDL
MODEL      217
REMARK 921   NORMALIZED FREE ENERGY PREDICTED BY IDOCK:   -2.45 KCAL/MOL
REMARK 922        TOTAL FREE ENERGY PREDICTED BY IDOCK:   -3.13 KCAL/MOL
REMARK 923 INTER-LIGAND FREE ENERGY PREDICTED BY IDOCK:   -3.39 KCAL/MOL
REMARK 924 INTRA-LIGAND FREE ENERGY PREDICTED BY IDOCK:    0.26 KCAL/MOL
REMARK 927      BINDING AFFINITY PREDICTED BY RF-SCORE:    0.00 PKD
ROOT
HETATM    1  C   UNL     1     -10.266  11.586  63.327  1.00  0.00    -0.391 C  
HETATM    2  N   UNL     1     -10.107  12.052  64.696  1.00  0.00    -0.272 NA 
HETATM    3  C   UNL     1     -11.258  12.813  65.178  1.00  0.00    -0.292 C  
HETATM    4  C   UNL     1     -10.972  12.864  66.670  1.00  0.00    -0.302 C  
HETATM    5  C   UNL     1     -10.518  11.437  66.979  1.00  0.00    -0.271 C  
HETATM    6  C   UNL     1      -9.891  10.961  65.656  1.00  0.00    -0.241 C  
ENDROOT
BRANCH   5   7
HETATM    7  C   UNL     1      -9.549  11.271  68.162  1.00  0.00    -0.186 C  
BRANCH   7   8
HETATM    8  N   UNL     1      -8.980   9.900  68.274  1.00  0.00    -0.119 NA 
HETATM    9  C   UNL     1      -9.774   8.920  68.961  1.00  0.00    -0.171 A  
HETATM   10  C   UNL     1     -11.026   9.222  69.549  1.00  0.00    -0.169 A  
HETATM   11  C   UNL     1     -11.828   8.258  70.178  1.00  0.00     0.319 A  
HETATM   12  C   UNL     1     -11.403   6.944  70.258  1.00  0.00    -0.373 A  
HETATM   13  C   UNL     1     -10.169   6.609  69.718  1.00  0.00    -0.214 A  
HETATM   14  C   UNL     1      -9.359   7.578  69.086  1.00  0.00    -0.147 A  
HETATM   15  S   UNL     1      -7.805   6.959  68.501  1.00  0.00    -0.120 SA 
HETATM   16  C   UNL     1      -7.124   8.364  67.666  1.00  0.00    -0.083 A  
HETATM   17  C   UNL     1      -5.887   8.116  67.033  1.00  0.00    -0.045 A  
HETATM   18  C   UNL     1      -5.232   9.107  66.318  1.00  0.00    -0.036 A  
HETATM   19  C   UNL     1      -5.819  10.354  66.223  1.00  0.00    -0.078 A  
HETATM   20  C   UNL     1      -7.046  10.605  66.854  1.00  0.00    -0.109 A  
HETATM   21  C   UNL     1      -7.741   9.634  67.611  1.00  0.00    -0.095 A  
ENDBRANCH   7   8
ENDBRANCH   5   7
TORSDOF 2
ENDMDL
MODEL      218
REMARK 921   NORMALIZED FREE ENERGY PREDICTED BY IDOCK:   -2.43 KCAL/MOL
REMARK 922        TOTAL FREE ENERGY PREDICTED BY IDOCK:   -3.11 KCAL/MOL
REMARK 923 INTER-LIGAND FREE ENERGY PREDICTED BY IDOCK:   -2.73 KCAL/MOL
REMARK 924 INTRA-LIGAND FREE ENERGY PREDICTED BY IDOCK:   -0.39 KCAL/MOL
REMARK 927      BINDING AFFINITY PREDICTED BY RF-SCORE:    0.00 PKD
ROOT
HETATM    1  C   UNL     1      -9.699   8.914  65.254  1.00  0.00     0.329 C  
HETATM    2  N   UNL     1      -8.850   9.690  66.144  1.00  0.00    -0.145 NA 
HETATM    3  C   UNL     1      -7.600  10.113  65.518  1.00  0.00    -0.146 C  
HETATM    4  C   UNL     1      -7.104  11.146  66.517  1.00  0.00    -0.124 C  
HETATM    5  C   UNL     1      -8.372  11.935  66.847  1.00  0.00    -0.169 C  
HETATM    6  C   UNL     1      -9.501  10.907  66.648  1.00  0.00    -0.179 C  
ENDROOT
BRANCH   5   7
HETATM    7  C   UNL     1      -8.428  12.582  68.241  1.00  0.00    -0.165 C  
BRANCH   7   8
HETATM    8  N   UNL     1      -8.731  14.039  68.206  1.00  0.00    -0.178 NA 
HETATM    9  C   UNL     1     -10.047  14.440  68.617  1.00  0.00    -0.242 A  
HETATM   10  C   UNL     1     -11.045  13.514  69.006  1.00  0.00    -0.293 A  
HETATM   11  C   UNL     1     -12.316  13.904  69.455  1.00  0.00    -0.275 A  
HETATM   12  C   UNL     1     -12.650  15.244  69.522  1.00  0.00    -0.021 A  
HETATM   13  C   UNL     1     -11.710  16.185  69.125  1.00  0.00    -0.239 A  
HETATM   14  C   UNL     1     -10.431  15.796  68.671  1.00  0.00    -0.231 A  
HETATM   15  S   UNL     1      -9.395  17.144  68.170  1.00  0.00    -0.272 SA 
HETATM   16  C   UNL     1      -7.865  16.332  67.800  1.00  0.00    -0.142 A  
HETATM   17  C   UNL     1      -6.820  17.209  67.434  1.00  0.00    -0.179 A  
HETATM   18  C   UNL     1      -5.553  16.733  67.133  1.00  0.00    -0.191 A  
HETATM   19  C   UNL     1      -5.320  15.374  67.209  1.00  0.00     0.306 A  
HETATM   20  C   UNL     1      -6.356  14.500  67.569  1.00  0.00    -0.033 A  
HETATM   21  C   UNL     1      -7.669  14.935  67.863  1.00  0.00    -0.141 A  
ENDBRANCH   7   8
ENDBRANCH   5   7
TORSDOF 2
ENDMDL
MODEL      219
REMARK 921   NORMALIZED FREE ENERGY PREDICTED BY IDOCK:   -2.43 KCAL/MOL
REMARK 922        TOTAL FREE ENERGY PREDICTED BY IDOCK:   -3.11 KCAL/MOL
REMARK 923 INTER-LIGAND FREE ENERGY PREDICTED BY IDOCK:   -3.02 KCAL/MOL
REMARK 924 INTRA-LIGAND FREE ENERGY PREDICTED BY IDOCK:   -0.09 KCAL/MOL
REMARK 927      BINDING AFFINITY PREDICTED BY RF-SCORE:    0.00 PKD
ROOT
HETATM    1  C   UNL     1      -5.223  12.580  69.922  1.00  0.00    -0.084 C  
HETATM    2  N   UNL     1      -6.142  13.247  69.013  1.00  0.00    -0.082 NA 
HETATM    3  C   UNL     1      -7.398  13.634  69.651  1.00  0.00     0.436 C  
HETATM    4  C   UNL     1      -7.981  14.571  68.607  1.00  0.00    -0.145 C  
HETATM    5  C   UNL     1      -6.773  15.411  68.190  1.00  0.00    -0.138 C  
HETATM    6  C   UNL     1      -5.579  14.466  68.416  1.00  0.00    -0.107 C  
ENDROOT
BRANCH   5   7
HETATM    7  C   UNL     1      -6.795  15.972  66.758  1.00  0.00     0.078 C  
BRANCH   7   8
HETATM    8  N   UNL     1      -7.981  16.826  66.474  1.00  0.00    -0.270 NA 
HETATM    9  C   UNL     1      -7.837  18.236  66.706  1.00  0.00    -0.235 A  
HETATM   10  C   UNL     1      -6.649  18.813  67.216  1.00  0.00    -0.203 A  
HETATM   11  C   UNL     1      -6.487  20.195  67.397  1.00  0.00    -0.246 A  
HETATM   12  C   UNL     1      -7.518  21.064  67.086  1.00  0.00    -0.257 A  
HETATM   13  C   UNL     1      -8.710  20.538  66.608  1.00  0.00    -0.165 A  
HETATM   14  C   UNL     1      -8.877  19.147  66.426  1.00  0.00    -0.338 A  
HETATM   15  S   UNL     1     -10.485  18.676  65.849  1.00  0.00    -0.203 SA 
HETATM   16  C   UNL     1     -10.307  16.931  65.606  1.00  0.00    -0.237 A  
HETATM   17  C   UNL     1     -11.452  16.303  65.070  1.00  0.00     0.060 A  
HETATM   18  C   UNL     1     -11.468  14.943  64.802  1.00  0.00    -0.410 A  
HETATM   19  C   UNL     1     -10.330  14.203  65.057  1.00  0.00    -0.443 A  
HETATM   20  C   UNL     1      -9.192  14.823  65.594  1.00  0.00     0.205 A  
HETATM   21  C   UNL     1      -9.135  16.201  65.905  1.00  0.00    -0.233 A  
ENDBRANCH   7   8
ENDBRANCH   5   7
TORSDOF 2
ENDMDL
MODEL      220
REMARK 921   NORMALIZED FREE ENERGY PREDICTED BY IDOCK:   -2.42 KCAL/MOL
REMARK 922        TOTAL FREE ENERGY PREDICTED BY IDOCK:   -3.10 KCAL/MOL
REMARK 923 INTER-LIGAND FREE ENERGY PREDICTED BY IDOCK:   -2.87 KCAL/MOL
REMARK 924 INTRA-LIGAND FREE ENERGY PREDICTED BY IDOCK:   -0.23 KCAL/MOL
REMARK 927      BINDING AFFINITY PREDICTED BY RF-SCORE:    0.00 PKD
ROOT
HETATM    1  C   UNL     1     -10.052  10.825  66.415  1.00  0.00    -0.227 C  
HETATM    2  N   UNL     1      -8.954  11.485  67.103  1.00  0.00    -0.162 NA 
HETATM    3  C   UNL     1      -7.669  11.308  66.432  1.00  0.00    -0.089 C  
HETATM    4  C   UNL     1      -6.818  12.345  67.146  1.00  0.00    -0.077 C  
HETATM    5  C   UNL     1      -7.747  13.557  67.219  1.00  0.00    -0.093 C  
HETATM    6  C   UNL     1      -9.155  12.933  67.254  1.00  0.00    -0.208 C  
ENDROOT
BRANCH   5   7
HETATM    7  C   UNL     1      -7.520  14.520  68.396  1.00  0.00    -0.116 C  
BRANCH   7   8
HETATM    8  N   UNL     1      -8.374  15.738  68.338  1.00  0.00    -0.159 NA 
HETATM    9  C   UNL     1      -9.504  15.783  69.223  1.00  0.00    -0.270 A  
HETATM   10  C   UNL     1      -9.839  14.719  70.095  1.00  0.00     0.438 A  
HETATM   11  C   UNL     1     -10.912  14.778  70.997  1.00  0.00     0.085 A  
HETATM   12  C   UNL     1     -11.710  15.907  71.057  1.00  0.00    -0.473 A  
HETATM   13  C   UNL     1     -11.433  16.963  70.200  1.00  0.00     0.662 A  
HETATM   14  C   UNL     1     -10.355  16.906  69.291  1.00  0.00    -0.298 A  
HETATM   15  S   UNL     1     -10.197  18.337  68.257  1.00  0.00    -0.373 SA 
HETATM   16  C   UNL     1      -8.707  17.998  67.361  1.00  0.00    -0.248 A  
HETATM   17  C   UNL     1      -8.305  19.038  66.495  1.00  0.00    -0.313 A  
HETATM   18  C   UNL     1      -7.148  18.938  65.738  1.00  0.00    -0.274 A  
HETATM   19  C   UNL     1      -6.378  17.797  65.852  1.00  0.00    -0.253 A  
HETATM   20  C   UNL     1      -6.776  16.760  66.709  1.00  0.00    -0.257 A  
HETATM   21  C   UNL     1      -7.958  16.807  67.484  1.00  0.00    -0.172 A  
ENDBRANCH   7   8
ENDBRANCH   5   7
TORSDOF 2
ENDMDL
MODEL      221
REMARK 921   NORMALIZED FREE ENERGY PREDICTED BY IDOCK:   -2.34 KCAL/MOL
REMARK 922        TOTAL FREE ENERGY PREDICTED BY IDOCK:   -3.01 KCAL/MOL
REMARK 923 INTER-LIGAND FREE ENERGY PREDICTED BY IDOCK:   -2.60 KCAL/MOL
REMARK 924 INTRA-LIGAND FREE ENERGY PREDICTED BY IDOCK:   -0.41 KCAL/MOL
REMARK 927      BINDING AFFINITY PREDICTED BY RF-SCORE:    0.00 PKD
ROOT
HETATM    1  C   UNL     1      -7.605   5.121  72.097  1.00  0.00    -0.098 C  
HETATM    2  N   UNL     1      -8.403   5.827  71.107  1.00  0.00    -0.122 NA 
HETATM    3  C   UNL     1      -8.170   7.269  71.106  1.00  0.00    -0.107 C  
HETATM    4  C   UNL     1      -8.840   7.675  69.803  1.00  0.00    -0.140 C  
HETATM    5  C   UNL     1      -8.379   6.589  68.830  1.00  0.00    -0.122 C  
HETATM    6  C   UNL     1      -8.163   5.361  69.734  1.00  0.00    -0.100 C  
ENDROOT
BRANCH   5   7
HETATM    7  C   UNL     1      -9.326   6.277  67.659  1.00  0.00    -0.116 C  
BRANCH   7   8
HETATM    8  N   UNL     1      -8.702   6.481  66.323  1.00  0.00    -0.140 NA 
HETATM    9  C   UNL     1      -8.763   7.806  65.772  1.00  0.00    -0.133 A  
HETATM   10  C   UNL     1      -9.412   8.880  66.426  1.00  0.00    -0.283 A  
HETATM   11  C   UNL     1      -9.431  10.187  65.916  1.00  0.00    -0.249 A  
HETATM   12  C   UNL     1      -8.809  10.474  64.714  1.00  0.00    -0.211 A  
HETATM   13  C   UNL     1      -8.184   9.444  64.026  1.00  0.00    -0.163 A  
HETATM   14  C   UNL     1      -8.164   8.128  64.536  1.00  0.00    -0.115 A  
HETATM   15  S   UNL     1      -7.353   6.952  63.487  1.00  0.00    -0.088 SA 
HETATM   16  C   UNL     1      -7.390   5.477  64.467  1.00  0.00    -0.064 A  
HETATM   17  C   UNL     1      -6.730   4.376  63.879  1.00  0.00    -0.043 A  
HETATM   18  C   UNL     1      -6.652   3.153  64.527  1.00  0.00    -0.035 A  
HETATM   19  C   UNL     1      -7.223   3.028  65.778  1.00  0.00    -0.070 A  
HETATM   20  C   UNL     1      -7.883   4.118  66.364  1.00  0.00    -0.094 A  
HETATM   21  C   UNL     1      -8.008   5.377  65.733  1.00  0.00    -0.106 A  
ENDBRANCH   7   8
ENDBRANCH   5   7
TORSDOF 2
ENDMDL
MODEL      222
REMARK 921   NORMALIZED FREE ENERGY PREDICTED BY IDOCK:   -2.30 KCAL/MOL
REMARK 922        TOTAL FREE ENERGY PREDICTED BY IDOCK:   -2.96 KCAL/MOL
REMARK 923 INTER-LIGAND FREE ENERGY PREDICTED BY IDOCK:   -2.64 KCAL/MOL
REMARK 924 INTRA-LIGAND FREE ENERGY PREDICTED BY IDOCK:   -0.33 KCAL/MOL
REMARK 927      BINDING AFFINITY PREDICTED BY RF-SCORE:    0.00 PKD
ROOT
HETATM    1  C   UNL     1     -10.100   3.033  63.106  1.00  0.00    -0.129 C  
HETATM    2  N   UNL     1      -9.744   3.235  64.502  1.00  0.00    -0.163 NA 
HETATM    3  C   UNL     1      -8.335   3.572  64.690  1.00  0.00    -0.093 C  
HETATM    4  C   UNL     1      -8.336   4.046  66.135  1.00  0.00    -0.108 C  
HETATM    5  C   UNL     1      -9.589   4.920  66.205  1.00  0.00    -0.180 C  
HETATM    6  C   UNL     1     -10.522   4.302  65.147  1.00  0.00    -0.173 C  
ENDROOT
BRANCH   5   7
HETATM    7  C   UNL     1     -10.273   5.021  67.579  1.00  0.00    -0.129 C  
BRANCH   7   8
HETATM    8  N   UNL     1      -9.364   5.496  68.659  1.00  0.00    -0.122 NA 
HETATM    9  C   UNL     1      -9.022   6.890  68.656  1.00  0.00    -0.129 A  
HETATM   10  C   UNL     1      -9.481   7.790  67.664  1.00  0.00    -0.168 A  
HETATM   11  C   UNL     1      -9.191   9.163  67.685  1.00  0.00    -0.143 A  
HETATM   12  C   UNL     1      -8.413   9.695  68.698  1.00  0.00    -0.119 A  
HETATM   13  C   UNL     1      -7.920   8.843  69.676  1.00  0.00    -0.092 A  
HETATM   14  C   UNL     1      -8.209   7.461  69.657  1.00  0.00    -0.130 A  
HETATM   15  S   UNL     1      -7.451   6.540  70.968  1.00  0.00    -0.086 SA 
HETATM   16  C   UNL     1      -8.116   4.916  70.728  1.00  0.00    -0.087 A  
HETATM   17  C   UNL     1      -7.718   3.979  71.706  1.00  0.00    -0.070 A  
HETATM   18  C   UNL     1      -8.168   2.668  71.672  1.00  0.00    -0.063 A  
HETATM   19  C   UNL     1      -9.033   2.290  70.664  1.00  0.00    -0.151 A  
HETATM   20  C   UNL     1      -9.428   3.217  69.689  1.00  0.00    -0.209 A  
HETATM   21  C   UNL     1      -8.979   4.558  69.668  1.00  0.00    -0.096 A  
ENDBRANCH   7   8
ENDBRANCH   5   7
TORSDOF 2
ENDMDL
MODEL      223
REMARK 921   NORMALIZED FREE ENERGY PREDICTED BY IDOCK:   -2.30 KCAL/MOL
REMARK 922        TOTAL FREE ENERGY PREDICTED BY IDOCK:   -2.96 KCAL/MOL
REMARK 923 INTER-LIGAND FREE ENERGY PREDICTED BY IDOCK:   -2.83 KCAL/MOL
REMARK 924 INTRA-LIGAND FREE ENERGY PREDICTED BY IDOCK:   -0.13 KCAL/MOL
REMARK 927      BINDING AFFINITY PREDICTED BY RF-SCORE:    0.00 PKD
ROOT
HETATM    1  C   UNL     1      -6.674   6.492  64.918  1.00  0.00    -0.042 C  
HETATM    2  N   UNL     1      -7.252   6.686  66.238  1.00  0.00    -0.071 NA 
HETATM    3  C   UNL     1      -7.975   5.513  66.724  1.00  0.00    -0.101 C  
HETATM    4  C   UNL     1      -8.157   5.867  68.191  1.00  0.00    -0.109 C  
HETATM    5  C   UNL     1      -6.788   6.428  68.579  1.00  0.00    -0.071 C  
HETATM    6  C   UNL     1      -6.253   7.019  67.262  1.00  0.00    -0.041 C  
ENDROOT
BRANCH   5   7
HETATM    7  C   UNL     1      -6.773   7.461  69.718  1.00  0.00    -0.044 C  
BRANCH   7   8
HETATM    8  N   UNL     1      -8.130   7.799  70.229  1.00  0.00    -0.111 NA 
HETATM    9  C   UNL     1      -8.860   8.809  69.517  1.00  0.00    -0.144 A  
HETATM   10  C   UNL     1      -8.328   9.498  68.400  1.00  0.00    -0.118 A  
HETATM   11  C   UNL     1      -9.056  10.450  67.671  1.00  0.00    -0.143 A  
HETATM   12  C   UNL     1     -10.352  10.766  68.038  1.00  0.00    -0.211 A  
HETATM   13  C   UNL     1     -10.904  10.134  69.143  1.00  0.00    -0.260 A  
HETATM   14  C   UNL     1     -10.173   9.176  69.880  1.00  0.00    -0.205 A  
HETATM   15  S   UNL     1     -11.039   8.518  71.279  1.00  0.00    -0.280 SA 
HETATM   16  C   UNL     1      -9.918   7.284  71.876  1.00  0.00    -0.166 A  
HETATM   17  C   UNL     1     -10.406   6.542  72.973  1.00  0.00    -0.239 A  
HETATM   18  C   UNL     1      -9.658   5.524  73.545  1.00  0.00    -0.140 A  
HETATM   19  C   UNL     1      -8.418   5.234  73.012  1.00  0.00    -0.111 A  
HETATM   20  C   UNL     1      -7.927   5.972  71.925  1.00  0.00    -0.107 A  
HETATM   21  C   UNL     1      -8.643   7.032  71.323  1.00  0.00    -0.119 A  
ENDBRANCH   7   8
ENDBRANCH   5   7
TORSDOF 2
ENDMDL
MODEL      224
REMARK 921   NORMALIZED FREE ENERGY PREDICTED BY IDOCK:   -2.29 KCAL/MOL
REMARK 922        TOTAL FREE ENERGY PREDICTED BY IDOCK:   -2.96 KCAL/MOL
REMARK 923 INTER-LIGAND FREE ENERGY PREDICTED BY IDOCK:   -3.31 KCAL/MOL
REMARK 924 INTRA-LIGAND FREE ENERGY PREDICTED BY IDOCK:    0.36 KCAL/MOL
REMARK 927      BINDING AFFINITY PREDICTED BY RF-SCORE:    0.00 PKD
ROOT
HETATM    1  C   UNL     1      -7.110   7.693  64.163  1.00  0.00    -0.068 C  
HETATM    2  N   UNL     1      -7.902   8.773  64.730  1.00  0.00    -0.116 NA 
HETATM    3  C   UNL     1      -8.742   9.446  63.743  1.00  0.00    -0.201 C  
HETATM    4  C   UNL     1      -9.667  10.250  64.642  1.00  0.00    -0.398 C  
HETATM    5  C   UNL     1     -10.025   9.251  65.743  1.00  0.00    -0.215 C  
HETATM    6  C   UNL     1      -8.794   8.329  65.810  1.00  0.00    -0.155 C  
ENDROOT
BRANCH   5   7
HETATM    7  C   UNL     1     -10.368   9.847  67.118  1.00  0.00    -0.243 C  
BRANCH   7   8
HETATM    8  N   UNL     1      -9.170  10.227  67.914  1.00  0.00    -0.137 NA 
HETATM    9  C   UNL     1      -8.727  11.589  67.814  1.00  0.00    -0.142 A  
HETATM   10  C   UNL     1      -9.357  12.541  66.976  1.00  0.00    -0.210 A  
HETATM   11  C   UNL     1      -8.959  13.885  66.913  1.00  0.00    -0.236 A  
HETATM   12  C   UNL     1      -7.899  14.335  67.679  1.00  0.00    -0.191 A  
HETATM   13  C   UNL     1      -7.236  13.429  68.494  1.00  0.00    -0.110 A  
HETATM   14  C   UNL     1      -7.633  12.075  68.560  1.00  0.00    -0.126 A  
HETATM   15  S   UNL     1      -6.632  11.074  69.626  1.00  0.00    -0.139 SA 
HETATM   16  C   UNL     1      -7.469   9.513  69.580  1.00  0.00    -0.092 A  
HETATM   17  C   UNL     1      -6.903   8.530  70.420  1.00  0.00    -0.037 A  
HETATM   18  C   UNL     1      -7.453   7.260  70.513  1.00  0.00    -0.083 A  
HETATM   19  C   UNL     1      -8.582   6.970  69.774  1.00  0.00    -0.141 A  
HETATM   20  C   UNL     1      -9.145   7.944  68.935  1.00  0.00    -0.141 A  
HETATM   21  C   UNL     1      -8.608   9.244  68.789  1.00  0.00    -0.131 A  
ENDBRANCH   7   8
ENDBRANCH   5   7
TORSDOF 2
ENDMDL
MODEL      225
REMARK 921   NORMALIZED FREE ENERGY PREDICTED BY IDOCK:   -2.18 KCAL/MOL
REMARK 922        TOTAL FREE ENERGY PREDICTED BY IDOCK:   -2.83 KCAL/MOL
REMARK 923 INTER-LIGAND FREE ENERGY PREDICTED BY IDOCK:   -2.52 KCAL/MOL
REMARK 924 INTRA-LIGAND FREE ENERGY PREDICTED BY IDOCK:   -0.30 KCAL/MOL
REMARK 927      BINDING AFFINITY PREDICTED BY RF-SCORE:    0.00 PKD
ROOT
HETATM    1  C   UNL     1      -5.690  11.308  70.617  1.00  0.00    -0.123 C  
HETATM    2  N   UNL     1      -6.336  10.115  70.094  1.00  0.00    -0.091 NA 
HETATM    3  C   UNL     1      -6.374  10.078  68.634  1.00  0.00    -0.048 C  
HETATM    4  C   UNL     1      -6.768   8.631  68.387  1.00  0.00    -0.064 C  
HETATM    5  C   UNL     1      -5.896   7.865  69.382  1.00  0.00    -0.030 C  
HETATM    6  C   UNL     1      -5.689   8.870  70.530  1.00  0.00    -0.027 C  
ENDROOT
BRANCH   5   7
HETATM    7  C   UNL     1      -6.456   6.525  69.889  1.00  0.00    -0.043 C  
BRANCH   7   8
HETATM    8  N   UNL     1      -7.673   6.078  69.158  1.00  0.00    -0.093 NA 
HETATM    9  C   UNL     1      -7.468   5.377  67.921  1.00  0.00    -0.077 A  
HETATM   10  C   UNL     1      -6.182   5.141  67.377  1.00  0.00    -0.035 A  
HETATM   11  C   UNL     1      -5.974   4.413  66.195  1.00  0.00    -0.023 A  
HETATM   12  C   UNL     1      -7.051   3.899  65.495  1.00  0.00    -0.063 A  
HETATM   13  C   UNL     1      -8.331   4.131  65.979  1.00  0.00    -0.109 A  
HETATM   14  C   UNL     1      -8.544   4.863  67.168  1.00  0.00    -0.104 A  
HETATM   15  S   UNL     1     -10.250   5.084  67.591  1.00  0.00    -0.066 SA 
HETATM   16  C   UNL     1     -10.152   5.901  69.160  1.00  0.00    -0.190 A  
HETATM   17  C   UNL     1     -11.403   6.138  69.767  1.00  0.00    -0.452 A  
HETATM   18  C   UNL     1     -11.497   6.750  71.008  1.00  0.00    -0.372 A  
HETATM   19  C   UNL     1     -10.335   7.119  71.655  1.00  0.00    -0.215 A  
HETATM   20  C   UNL     1      -9.089   6.890  71.052  1.00  0.00    -0.155 A  
HETATM   21  C   UNL     1      -8.943   6.289  69.781  1.00  0.00    -0.140 A  
ENDBRANCH   7   8
ENDBRANCH   5   7
TORSDOF 2
ENDMDL
MODEL      226
REMARK 921   NORMALIZED FREE ENERGY PREDICTED BY IDOCK:   -2.14 KCAL/MOL
REMARK 922        TOTAL FREE ENERGY PREDICTED BY IDOCK:   -2.79 KCAL/MOL
REMARK 923 INTER-LIGAND FREE ENERGY PREDICTED BY IDOCK:   -3.01 KCAL/MOL
REMARK 924 INTRA-LIGAND FREE ENERGY PREDICTED BY IDOCK:    0.22 KCAL/MOL
REMARK 927      BINDING AFFINITY PREDICTED BY RF-SCORE:    0.00 PKD
ROOT
HETATM    1  C   UNL     1      -8.590   8.713  64.602  1.00  0.00    -0.089 C  
HETATM    2  N   UNL     1      -7.785   8.306  65.742  1.00  0.00    -0.088 NA 
HETATM    3  C   UNL     1      -6.354   8.520  65.538  1.00  0.00    -0.055 C  
HETATM    4  C   UNL     1      -5.825   8.342  66.952  1.00  0.00    -0.049 C  
HETATM    5  C   UNL     1      -6.840   9.117  67.795  1.00  0.00    -0.076 C  
HETATM    6  C   UNL     1      -8.143   9.010  66.982  1.00  0.00    -0.106 C  
ENDROOT
BRANCH   5   7
HETATM    7  C   UNL     1      -7.029   8.637  69.244  1.00  0.00    -0.058 C  
BRANCH   7   8
HETATM    8  N   UNL     1      -8.099   7.614  69.394  1.00  0.00    -0.125 NA 
HETATM    9  C   UNL     1      -7.754   6.259  69.067  1.00  0.00    -0.100 A  
HETATM   10  C   UNL     1      -6.476   5.887  68.586  1.00  0.00    -0.045 A  
HETATM   11  C   UNL     1      -6.118   4.557  68.314  1.00  0.00    -0.031 A  
HETATM   12  C   UNL     1      -7.035   3.538  68.499  1.00  0.00    -0.050 A  
HETATM   13  C   UNL     1      -8.309   3.861  68.944  1.00  0.00    -0.087 A  
HETATM   14  C   UNL     1      -8.672   5.198  69.218  1.00  0.00    -0.096 A  
HETATM   15  S   UNL     1     -10.355   5.404  69.733  1.00  0.00    -0.301 SA 
HETATM   16  C   UNL     1     -10.429   7.133  70.114  1.00  0.00    -0.216 A  
HETATM   17  C   UNL     1     -11.673   7.559  70.627  1.00  0.00    -0.240 A  
HETATM   18  C   UNL     1     -11.887   8.878  70.994  1.00  0.00    -0.324 A  
HETATM   19  C   UNL     1     -10.849   9.780  70.861  1.00  0.00    -0.399 A  
HETATM   20  C   UNL     1      -9.613   9.362  70.347  1.00  0.00    -0.319 A  
HETATM   21  C   UNL     1      -9.354   8.033  69.939  1.00  0.00    -0.156 A  
ENDBRANCH   7   8
ENDBRANCH   5   7
TORSDOF 2
ENDMDL
MODEL      227
REMARK 921   NORMALIZED FREE ENERGY PREDICTED BY IDOCK:   -1.83 KCAL/MOL
REMARK 922        TOTAL FREE ENERGY PREDICTED BY IDOCK:   -2.44 KCAL/MOL
REMARK 923 INTER-LIGAND FREE ENERGY PREDICTED BY IDOCK:   -4.55 KCAL/MOL
REMARK 924 INTRA-LIGAND FREE ENERGY PREDICTED BY IDOCK:    2.11 KCAL/MOL
REMARK 927      BINDING AFFINITY PREDICTED BY RF-SCORE:    0.00 PKD
ROOT
HETATM    1  C   UNL     1     -10.464  11.746  68.719  1.00  0.00    -0.198 C  
HETATM    2  N   UNL     1      -9.101  12.230  68.563  1.00  0.00    -0.129 NA 
HETATM    3  C   UNL     1      -8.385  11.580  67.468  1.00  0.00    -0.143 C  
HETATM    4  C   UNL     1      -7.174  12.489  67.329  1.00  0.00    -0.114 C  
HETATM    5  C   UNL     1      -7.784  13.888  67.433  1.00  0.00    -0.165 C  
HETATM    6  C   UNL     1      -9.027  13.676  68.316  1.00  0.00    -0.187 C  
ENDROOT
BRANCH   5   7
HETATM    7  C   UNL     1      -6.868  14.991  67.989  1.00  0.00    -0.141 C  
BRANCH   7   8
HETATM    8  N   UNL     1      -7.522  16.327  68.052  1.00  0.00    -0.133 NA 
HETATM    9  C   UNL     1      -6.911  17.310  68.902  1.00  0.00    -0.233 A  
HETATM   10  C   UNL     1      -5.763  17.041  69.685  1.00  0.00    -0.207 A  
HETATM   11  C   UNL     1      -5.134  18.013  70.478  1.00  0.00    -0.255 A  
HETATM   12  C   UNL     1      -5.638  19.300  70.533  1.00  0.00    -0.250 A  
HETATM   13  C   UNL     1      -6.778  19.600  69.800  1.00  0.00    -0.299 A  
HETATM   14  C   UNL     1      -7.414  18.624  69.002  1.00  0.00    -0.214 A  
HETATM   15  S   UNL     1      -8.877  19.195  68.182  1.00  0.00    -0.331 SA 
HETATM   16  C   UNL     1      -9.329  17.799  67.190  1.00  0.00    -0.264 A  
HETATM   17  C   UNL     1     -10.451  18.017  66.362  1.00  0.00    -0.345 A  
HETATM   18  C   UNL     1     -10.920  17.030  65.510  1.00  0.00     0.025 A  
HETATM   19  C   UNL     1     -10.258  15.818  65.470  1.00  0.00    -0.407 A  
HETATM   20  C   UNL     1      -9.144  15.596  66.294  1.00  0.00    -0.376 A  
HETATM   21  C   UNL     1      -8.643  16.564  67.195  1.00  0.00    -0.186 A  
ENDBRANCH   7   8
ENDBRANCH   5   7
TORSDOF 2
ENDMDL
MODEL      228
REMARK 921   NORMALIZED FREE ENERGY PREDICTED BY IDOCK:   -1.80 KCAL/MOL
REMARK 922        TOTAL FREE ENERGY PREDICTED BY IDOCK:   -2.41 KCAL/MOL
REMARK 923 INTER-LIGAND FREE ENERGY PREDICTED BY IDOCK:   -2.21 KCAL/MOL
REMARK 924 INTRA-LIGAND FREE ENERGY PREDICTED BY IDOCK:   -0.20 KCAL/MOL
REMARK 927      BINDING AFFINITY PREDICTED BY RF-SCORE:    0.00 PKD
ROOT
HETATM    1  C   UNL     1      -6.663   8.291  72.765  1.00  0.00    -0.096 C  
HETATM    2  N   UNL     1      -7.703   7.442  72.206  1.00  0.00    -0.090 NA 
HETATM    3  C   UNL     1      -9.002   7.631  72.847  1.00  0.00    -0.169 C  
HETATM    4  C   UNL     1      -9.918   6.909  71.873  1.00  0.00    -0.183 C  
HETATM    5  C   UNL     1      -9.401   7.374  70.510  1.00  0.00    -0.157 C  
HETATM    6  C   UNL     1      -7.909   7.655  70.766  1.00  0.00    -0.096 C  
ENDROOT
BRANCH   5   7
HETATM    7  C   UNL     1      -9.606   6.402  69.336  1.00  0.00    -0.142 C  
BRANCH   7   8
HETATM    8  N   UNL     1      -8.447   6.348  68.403  1.00  0.00    -0.116 NA 
HETATM    9  C   UNL     1      -7.535   5.251  68.562  1.00  0.00    -0.072 A  
HETATM   10  C   UNL     1      -7.681   4.271  69.574  1.00  0.00    -0.054 A  
HETATM   11  C   UNL     1      -6.820   3.170  69.702  1.00  0.00    -0.034 A  
HETATM   12  C   UNL     1      -5.762   3.008  68.826  1.00  0.00    -0.022 A  
HETATM   13  C   UNL     1      -5.566   3.960  67.836  1.00  0.00    -0.021 A  
HETATM   14  C   UNL     1      -6.429   5.070  67.705  1.00  0.00    -0.045 A  
HETATM   15  S   UNL     1      -5.983   6.191  66.407  1.00  0.00    -0.029 SA 
HETATM   16  C   UNL     1      -7.316   7.357  66.434  1.00  0.00    -0.083 A  
HETATM   17  C   UNL     1      -7.241   8.344  65.428  1.00  0.00    -0.082 A  
HETATM   18  C   UNL     1      -8.218   9.319  65.301  1.00  0.00    -0.136 A  
HETATM   19  C   UNL     1      -9.287   9.305  66.176  1.00  0.00    -0.270 A  
HETATM   20  C   UNL     1      -9.362   8.328  67.180  1.00  0.00    -0.189 A  
HETATM   21  C   UNL     1      -8.380   7.328  67.363  1.00  0.00    -0.119 A  
ENDBRANCH   7   8
ENDBRANCH   5   7
TORSDOF 2
ENDMDL
MODEL      229
REMARK 921   NORMALIZED FREE ENERGY PREDICTED BY IDOCK:   -1.75 KCAL/MOL
REMARK 922        TOTAL FREE ENERGY PREDICTED BY IDOCK:   -2.35 KCAL/MOL
REMARK 923 INTER-LIGAND FREE ENERGY PREDICTED BY IDOCK:   -1.89 KCAL/MOL
REMARK 924 INTRA-LIGAND FREE ENERGY PREDICTED BY IDOCK:   -0.46 KCAL/MOL
REMARK 927      BINDING AFFINITY PREDICTED BY RF-SCORE:    0.00 PKD
ROOT
HETATM    1  C   UNL     1      -6.455  11.005  69.050  1.00  0.00    -0.056 C  
HETATM    2  N   UNL     1      -6.241   9.572  69.183  1.00  0.00    -0.041 NA 
HETATM    3  C   UNL     1      -6.983   8.983  70.295  1.00  0.00    -0.052 C  
HETATM    4  C   UNL     1      -6.849   7.501  69.986  1.00  0.00    -0.051 C  
HETATM    5  C   UNL     1      -7.097   7.443  68.478  1.00  0.00    -0.084 C  
HETATM    6  C   UNL     1      -6.617   8.818  67.979  1.00  0.00    -0.061 C  
ENDROOT
BRANCH   5   7
HETATM    7  C   UNL     1      -6.417   6.291  67.719  1.00  0.00    -0.049 C  
BRANCH   7   8
HETATM    8  N   UNL     1      -7.379   5.379  67.043  1.00  0.00    -0.082 NA 
HETATM    9  C   UNL     1      -7.590   5.583  65.637  1.00  0.00    -0.083 A  
HETATM   10  C   UNL     1      -6.957   6.618  64.908  1.00  0.00    -0.058 A  
HETATM   11  C   UNL     1      -7.122   6.791  63.525  1.00  0.00    -0.060 A  
HETATM   12  C   UNL     1      -7.942   5.937  62.810  1.00  0.00    -0.104 A  
HETATM   13  C   UNL     1      -8.603   4.925  63.490  1.00  0.00    -0.128 A  
HETATM   14  C   UNL     1      -8.441   4.749  64.882  1.00  0.00    -0.140 A  
HETATM   15  S   UNL     1      -9.404   3.428  65.566  1.00  0.00    -0.127 SA 
HETATM   16  C   UNL     1      -8.870   3.402  67.255  1.00  0.00    -0.134 A  
HETATM   17  C   UNL     1      -9.446   2.370  68.027  1.00  0.00    -0.199 A  
HETATM   18  C   UNL     1      -9.116   2.200  69.363  1.00  0.00    -0.177 A  
HETATM   19  C   UNL     1      -8.196   3.057  69.933  1.00  0.00    -0.067 A  
HETATM   20  C   UNL     1      -7.624   4.087  69.170  1.00  0.00    -0.054 A  
HETATM   21  C   UNL     1      -7.945   4.313  67.812  1.00  0.00    -0.087 A  
ENDBRANCH   7   8
ENDBRANCH   5   7
TORSDOF 2
ENDMDL
MODEL      230
REMARK 921   NORMALIZED FREE ENERGY PREDICTED BY IDOCK:   -1.63 KCAL/MOL
REMARK 922        TOTAL FREE ENERGY PREDICTED BY IDOCK:   -2.22 KCAL/MOL
REMARK 923 INTER-LIGAND FREE ENERGY PREDICTED BY IDOCK:   -1.97 KCAL/MOL
REMARK 924 INTRA-LIGAND FREE ENERGY PREDICTED BY IDOCK:   -0.25 KCAL/MOL
REMARK 927      BINDING AFFINITY PREDICTED BY RF-SCORE:    0.00 PKD
ROOT
HETATM    1  C   UNL     1      -6.330  11.206  70.324  1.00  0.00    -0.097 C  
HETATM    2  N   UNL     1      -7.510  10.478  69.884  1.00  0.00    -0.131 NA 
HETATM    3  C   UNL     1      -7.994  10.911  68.575  1.00  0.00    -0.134 C  
HETATM    4  C   UNL     1      -8.969   9.795  68.238  1.00  0.00    -0.119 C  
HETATM    5  C   UNL     1      -8.204   8.537  68.654  1.00  0.00    -0.122 C  
HETATM    6  C   UNL     1      -7.294   9.027  69.795  1.00  0.00    -0.058 C  
ENDROOT
BRANCH   5   7
HETATM    7  C   UNL     1      -9.058   7.331  69.083  1.00  0.00    -0.137 C  
BRANCH   7   8
HETATM    8  N   UNL     1      -8.366   6.025  68.910  1.00  0.00    -0.107 NA 
HETATM    9  C   UNL     1      -8.154   5.574  67.564  1.00  0.00    -0.101 A  
HETATM   10  C   UNL     1      -8.604   6.297  66.433  1.00  0.00    -0.133 A  
HETATM   11  C   UNL     1      -8.355   5.885  65.114  1.00  0.00    -0.143 A  
HETATM   12  C   UNL     1      -7.653   4.719  64.869  1.00  0.00    -0.077 A  
HETATM   13  C   UNL     1      -7.217   3.966  65.950  1.00  0.00    -0.071 A  
HETATM   14  C   UNL     1      -7.466   4.376  67.278  1.00  0.00    -0.077 A  
HETATM   15  S   UNL     1      -6.865   3.255  68.512  1.00  0.00    -0.046 SA 
HETATM   16  C   UNL     1      -7.215   4.121  70.017  1.00  0.00    -0.045 A  
HETATM   17  C   UNL     1      -6.762   3.462  71.181  1.00  0.00    -0.031 A  
HETATM   18  C   UNL     1      -6.940   4.018  72.438  1.00  0.00    -0.047 A  
HETATM   19  C   UNL     1      -7.563   5.246  72.538  1.00  0.00    -0.097 A  
HETATM   20  C   UNL     1      -8.018   5.902  71.384  1.00  0.00    -0.113 A  
HETATM   21  C   UNL     1      -7.879   5.365  70.083  1.00  0.00    -0.081 A  
ENDBRANCH   7   8
ENDBRANCH   5   7
TORSDOF 2
ENDMDL
MODEL      231
REMARK 921   NORMALIZED FREE ENERGY PREDICTED BY IDOCK:   -1.62 KCAL/MOL
REMARK 922        TOTAL FREE ENERGY PREDICTED BY IDOCK:   -2.21 KCAL/MOL
REMARK 923 INTER-LIGAND FREE ENERGY PREDICTED BY IDOCK:   -2.34 KCAL/MOL
REMARK 924 INTRA-LIGAND FREE ENERGY PREDICTED BY IDOCK:    0.14 KCAL/MOL
REMARK 927      BINDING AFFINITY PREDICTED BY RF-SCORE:    0.00 PKD
ROOT
HETATM    1  C   UNL     1      -5.793  11.838  70.903  1.00  0.00     0.087 C  
HETATM    2  N   UNL     1      -6.258  10.772  70.030  1.00  0.00    -0.103 NA 
HETATM    3  C   UNL     1      -5.172  10.100  69.321  1.00  0.00    -0.035 C  
HETATM    4  C   UNL     1      -5.887   8.871  68.784  1.00  0.00    -0.041 C  
HETATM    5  C   UNL     1      -6.730   8.419  69.978  1.00  0.00    -0.042 C  
HETATM    6  C   UNL     1      -7.007   9.727  70.741  1.00  0.00    -0.045 C  
ENDROOT
BRANCH   5   7
HETATM    7  C   UNL     1      -8.029   7.665  69.648  1.00  0.00    -0.124 C  
BRANCH   7   8
HETATM    8  N   UNL     1      -8.448   6.714  70.713  1.00  0.00    -0.133 NA 
HETATM    9  C   UNL     1      -9.831   6.739  71.101  1.00  0.00    -0.177 A  
HETATM   10  C   UNL     1     -10.768   7.640  70.543  1.00  0.00    -0.241 A  
HETATM   11  C   UNL     1     -12.130   7.635  70.882  1.00  0.00    -0.226 A  
HETATM   12  C   UNL     1     -12.612   6.730  71.811  1.00  0.00    -0.370 A  
HETATM   13  C   UNL     1     -11.722   5.846  72.403  1.00  0.00    -0.307 A  
HETATM   14  C   UNL     1     -10.351   5.850  72.065  1.00  0.00    -0.207 A  
HETATM   15  S   UNL     1      -9.376   4.674  72.963  1.00  0.00    -0.122 SA 
HETATM   16  C   UNL     1      -7.781   4.848  72.214  1.00  0.00    -0.091 A  
HETATM   17  C   UNL     1      -6.808   3.953  72.710  1.00  0.00    -0.043 A  
HETATM   18  C   UNL     1      -5.514   3.948  72.212  1.00  0.00     0.000 A  
HETATM   19  C   UNL     1      -5.188   4.833  71.204  1.00  0.00    -0.004 A  
HETATM   20  C   UNL     1      -6.150   5.727  70.711  1.00  0.00    -0.030 A  
HETATM   21  C   UNL     1      -7.475   5.785  71.201  1.00  0.00    -0.091 A  
ENDBRANCH   7   8
ENDBRANCH   5   7
TORSDOF 2
ENDMDL
MODEL      232
REMARK 921   NORMALIZED FREE ENERGY PREDICTED BY IDOCK:   -1.56 KCAL/MOL
REMARK 922        TOTAL FREE ENERGY PREDICTED BY IDOCK:   -2.14 KCAL/MOL
REMARK 923 INTER-LIGAND FREE ENERGY PREDICTED BY IDOCK:   -1.81 KCAL/MOL
REMARK 924 INTRA-LIGAND FREE ENERGY PREDICTED BY IDOCK:   -0.33 KCAL/MOL
REMARK 927      BINDING AFFINITY PREDICTED BY RF-SCORE:    0.00 PKD
ROOT
HETATM    1  C   UNL     1      -6.211   9.011  74.521  1.00  0.00    -0.058 C  
HETATM    2  N   UNL     1      -6.257   9.426  73.128  1.00  0.00    -0.264 NA 
HETATM    3  C   UNL     1      -5.173   8.862  72.327  1.00  0.00    -0.053 C  
HETATM    4  C   UNL     1      -5.658   9.170  70.919  1.00  0.00    -0.039 C  
HETATM    5  C   UNL     1      -7.143   8.811  70.983  1.00  0.00    -0.084 C  
HETATM    6  C   UNL     1      -7.512   9.059  72.457  1.00  0.00     0.461 C  
ENDROOT
BRANCH   5   7
HETATM    7  C   UNL     1      -8.071   9.576  70.025  1.00  0.00    -0.167 C  
BRANCH   7   8
HETATM    8  N   UNL     1      -8.677   8.714  68.974  1.00  0.00    -0.133 NA 
HETATM    9  C   UNL     1      -9.802   7.910  69.360  1.00  0.00    -0.180 A  
HETATM   10  C   UNL     1     -10.311   7.887  70.680  1.00  0.00    -0.205 A  
HETATM   11  C   UNL     1     -11.441   7.141  71.051  1.00  0.00    -0.331 A  
HETATM   12  C   UNL     1     -12.106   6.371  70.113  1.00  0.00     0.105 A  
HETATM   13  C   UNL     1     -11.624   6.344  68.812  1.00  0.00     0.137 A  
HETATM   14  C   UNL     1     -10.486   7.092  68.436  1.00  0.00    -0.197 A  
HETATM   15  S   UNL     1     -10.008   6.888  66.742  1.00  0.00    -0.160 SA 
HETATM   16  C   UNL     1      -8.671   8.039  66.582  1.00  0.00    -0.140 A  
HETATM   17  C   UNL     1      -8.140   8.129  65.277  1.00  0.00    -0.136 A  
HETATM   18  C   UNL     1      -7.102   8.999  64.981  1.00  0.00    -0.087 A  
HETATM   19  C   UNL     1      -6.597   9.797  65.988  1.00  0.00    -0.082 A  
HETATM   20  C   UNL     1      -7.120   9.707  67.287  1.00  0.00    -0.086 A  
HETATM   21  C   UNL     1      -8.162   8.820  67.643  1.00  0.00    -0.110 A  
ENDBRANCH   7   8
ENDBRANCH   5   7
TORSDOF 2
ENDMDL
MODEL      233
REMARK 921   NORMALIZED FREE ENERGY PREDICTED BY IDOCK:   -1.50 KCAL/MOL
REMARK 922        TOTAL FREE ENERGY PREDICTED BY IDOCK:   -2.07 KCAL/MOL
REMARK 923 INTER-LIGAND FREE ENERGY PREDICTED BY IDOCK:   -3.04 KCAL/MOL
REMARK 924 INTRA-LIGAND FREE ENERGY PREDICTED BY IDOCK:    0.96 KCAL/MOL
REMARK 927      BINDING AFFINITY PREDICTED BY RF-SCORE:    0.00 PKD
ROOT
HETATM    1  C   UNL     1      -6.014   6.464  64.686  1.00  0.00    -0.023 C  
HETATM    2  N   UNL     1      -6.584   7.796  64.807  1.00  0.00    -0.044 NA 
HETATM    3  C   UNL     1      -6.814   8.439  63.515  1.00  0.00    -0.084 C  
HETATM    4  C   UNL     1      -7.694   9.610  63.922  1.00  0.00    -0.131 C  
HETATM    5  C   UNL     1      -8.674   8.973  64.909  1.00  0.00    -0.200 C  
HETATM    6  C   UNL     1      -7.869   7.812  65.520  1.00  0.00    -0.111 C  
ENDROOT
BRANCH   5   7
HETATM    7  C   UNL     1      -9.250   9.901  65.992  1.00  0.00    -0.170 C  
BRANCH   7   8
HETATM    8  N   UNL     1      -8.797   9.558  67.367  1.00  0.00    -0.128 NA 
HETATM    9  C   UNL     1      -9.314   8.346  67.939  1.00  0.00    -0.135 A  
HETATM   10  C   UNL     1     -10.241   7.514  67.265  1.00  0.00    -0.337 A  
HETATM   11  C   UNL     1     -10.709   6.304  67.799  1.00  0.00    -0.383 A  
HETATM   12  C   UNL     1     -10.279   5.877  69.042  1.00  0.00    -0.261 A  
HETATM   13  C   UNL     1      -9.390   6.676  69.748  1.00  0.00    -0.145 A  
HETATM   14  C   UNL     1      -8.917   7.895  69.215  1.00  0.00    -0.145 A  
HETATM   15  S   UNL     1      -7.825   8.785  70.290  1.00  0.00    -0.107 SA 
HETATM   16  C   UNL     1      -7.330  10.155  69.282  1.00  0.00    -0.098 A  
HETATM   17  C   UNL     1      -6.381  11.005  69.889  1.00  0.00    -0.137 A  
HETATM   18  C   UNL     1      -5.876  12.112  69.224  1.00  0.00    -0.079 A  
HETATM   19  C   UNL     1      -6.309  12.367  67.938  1.00  0.00    -0.096 A  
HETATM   20  C   UNL     1      -7.255  11.527  67.333  1.00  0.00    -0.119 A  
HETATM   21  C   UNL     1      -7.815  10.400  67.978  1.00  0.00    -0.104 A  
ENDBRANCH   7   8
ENDBRANCH   5   7
TORSDOF 2
ENDMDL
MODEL      234
REMARK 921   NORMALIZED FREE ENERGY PREDICTED BY IDOCK:   -1.50 KCAL/MOL
REMARK 922        TOTAL FREE ENERGY PREDICTED BY IDOCK:   -2.07 KCAL/MOL
REMARK 923 INTER-LIGAND FREE ENERGY PREDICTED BY IDOCK:   -2.24 KCAL/MOL
REMARK 924 INTRA-LIGAND FREE ENERGY PREDICTED BY IDOCK:    0.18 KCAL/MOL
REMARK 927      BINDING AFFINITY PREDICTED BY RF-SCORE:    0.00 PKD
ROOT
HETATM    1  C   UNL     1      -6.707   3.893  71.941  1.00  0.00    -0.019 C  
HETATM    2  N   UNL     1      -6.875   5.100  71.147  1.00  0.00    -0.043 NA 
HETATM    3  C   UNL     1      -5.614   5.787  70.877  1.00  0.00    -0.013 C  
HETATM    4  C   UNL     1      -6.038   6.763  69.791  1.00  0.00    -0.027 C  
HETATM    5  C   UNL     1      -6.920   5.903  68.885  1.00  0.00    -0.068 C  
HETATM    6  C   UNL     1      -7.506   4.850  69.844  1.00  0.00    -0.056 C  
ENDROOT
BRANCH   5   7
HETATM    7  C   UNL     1      -8.021   6.641  68.105  1.00  0.00    -0.110 C  
BRANCH   7   8
HETATM    8  N   UNL     1      -8.626   7.771  68.862  1.00  0.00    -0.132 NA 
HETATM    9  C   UNL     1      -8.125   9.087  68.578  1.00  0.00    -0.107 A  
HETATM   10  C   UNL     1      -7.080   9.327  67.654  1.00  0.00    -0.082 A  
HETATM   11  C   UNL     1      -6.622  10.615  67.336  1.00  0.00    -0.071 A  
HETATM   12  C   UNL     1      -7.185  11.724  67.942  1.00  0.00    -0.092 A  
HETATM   13  C   UNL     1      -8.195  11.531  68.874  1.00  0.00    -0.019 A  
HETATM   14  C   UNL     1      -8.657  10.237  69.198  1.00  0.00    -0.164 A  
HETATM   15  S   UNL     1      -9.920  10.204  70.441  1.00  0.00     0.248 SA 
HETATM   16  C   UNL     1     -10.352   8.487  70.500  1.00  0.00    -0.200 A  
HETATM   17  C   UNL     1     -11.412   8.189  71.384  1.00  0.00    -0.301 A  
HETATM   18  C   UNL     1     -11.884   6.893  71.531  1.00  0.00    -0.366 A  
HETATM   19  C   UNL     1     -11.304   5.888  70.782  1.00  0.00    -0.205 A  
HETATM   20  C   UNL     1     -10.248   6.180  69.906  1.00  0.00    -0.246 A  
HETATM   21  C   UNL     1      -9.719   7.480  69.739  1.00  0.00    -0.171 A  
ENDBRANCH   7   8
ENDBRANCH   5   7
TORSDOF 2
ENDMDL
MODEL      235
REMARK 921   NORMALIZED FREE ENERGY PREDICTED BY IDOCK:   -1.38 KCAL/MOL
REMARK 922        TOTAL FREE ENERGY PREDICTED BY IDOCK:   -1.94 KCAL/MOL
REMARK 923 INTER-LIGAND FREE ENERGY PREDICTED BY IDOCK:   -1.56 KCAL/MOL
REMARK 924 INTRA-LIGAND FREE ENERGY PREDICTED BY IDOCK:   -0.38 KCAL/MOL
REMARK 927      BINDING AFFINITY PREDICTED BY RF-SCORE:    0.00 PKD
ROOT
HETATM    1  C   UNL     1      -5.997  10.466  70.770  1.00  0.00    -0.080 C  
HETATM    2  N   UNL     1      -5.556   9.104  71.025  1.00  0.00    -0.038 NA 
HETATM    3  C   UNL     1      -5.681   8.715  72.427  1.00  0.00    -0.064 C  
HETATM    4  C   UNL     1      -5.488   7.210  72.333  1.00  0.00    -0.037 C  
HETATM    5  C   UNL     1      -6.331   6.834  71.114  1.00  0.00    -0.041 C  
HETATM    6  C   UNL     1      -6.293   8.102  70.242  1.00  0.00    -0.036 C  
ENDROOT
BRANCH   5   7
HETATM    7  C   UNL     1      -5.880   5.589  70.331  1.00  0.00    -0.021 C  
BRANCH   7   8
HETATM    8  N   UNL     1      -7.009   4.810  69.755  1.00  0.00    -0.051 NA 
HETATM    9  C   UNL     1      -7.173   4.860  68.329  1.00  0.00    -0.062 A  
HETATM   10  C   UNL     1      -6.339   5.635  67.488  1.00  0.00    -0.042 A  
HETATM   11  C   UNL     1      -6.464   5.648  66.090  1.00  0.00    -0.040 A  
HETATM   12  C   UNL     1      -7.444   4.892  65.471  1.00  0.00    -0.081 A  
HETATM   13  C   UNL     1      -8.300   4.138  66.261  1.00  0.00    -0.105 A  
HETATM   14  C   UNL     1      -8.178   4.124  67.668  1.00  0.00    -0.095 A  
HETATM   15  S   UNL     1      -9.394   3.134  68.494  1.00  0.00    -0.147 SA 
HETATM   16  C   UNL     1      -8.877   3.229  70.186  1.00  0.00    -0.086 A  
HETATM   17  C   UNL     1      -9.654   2.451  71.071  1.00  0.00    -0.203 A  
HETATM   18  C   UNL     1      -9.367   2.400  72.426  1.00  0.00    -0.145 A  
HETATM   19  C   UNL     1      -8.289   3.120  72.903  1.00  0.00    -0.080 A  
HETATM   20  C   UNL     1      -7.517   3.897  72.027  1.00  0.00    -0.061 A  
HETATM   21  C   UNL     1      -7.784   3.998  70.642  1.00  0.00    -0.048 A  
ENDBRANCH   7   8
ENDBRANCH   5   7
TORSDOF 2
ENDMDL
MODEL      236
REMARK 921   NORMALIZED FREE ENERGY PREDICTED BY IDOCK:   -1.35 KCAL/MOL
REMARK 922        TOTAL FREE ENERGY PREDICTED BY IDOCK:   -1.90 KCAL/MOL
REMARK 923 INTER-LIGAND FREE ENERGY PREDICTED BY IDOCK:   -1.59 KCAL/MOL
REMARK 924 INTRA-LIGAND FREE ENERGY PREDICTED BY IDOCK:   -0.31 KCAL/MOL
REMARK 927      BINDING AFFINITY PREDICTED BY RF-SCORE:    0.00 PKD
ROOT
HETATM    1  C   UNL     1      -5.996  10.464  70.772  1.00  0.00    -0.080 C  
HETATM    2  N   UNL     1      -5.536   9.108  71.024  1.00  0.00    -0.036 NA 
HETATM    3  C   UNL     1      -5.651   8.716  72.426  1.00  0.00    -0.057 C  
HETATM    4  C   UNL     1      -5.438   7.214  72.331  1.00  0.00    -0.037 C  
HETATM    5  C   UNL     1      -6.280   6.828  71.114  1.00  0.00    -0.040 C  
HETATM    6  C   UNL     1      -6.262   8.097  70.243  1.00  0.00    -0.032 C  
ENDROOT
BRANCH   5   7
HETATM    7  C   UNL     1      -5.815   5.590  70.328  1.00  0.00    -0.021 C  
BRANCH   7   8
HETATM    8  N   UNL     1      -6.937   4.794  69.758  1.00  0.00    -0.051 NA 
HETATM    9  C   UNL     1      -7.701   3.997  70.676  1.00  0.00    -0.048 A  
HETATM   10  C   UNL     1      -7.403   3.919  72.057  1.00  0.00    -0.059 A  
HETATM   11  C   UNL     1      -8.178   3.181  72.966  1.00  0.00    -0.079 A  
HETATM   12  C   UNL     1      -9.282   2.473  72.526  1.00  0.00    -0.128 A  
HETATM   13  C   UNL     1      -9.594   2.501  71.174  1.00  0.00    -0.218 A  
HETATM   14  C   UNL     1      -8.816   3.241  70.257  1.00  0.00    -0.082 A  
HETATM   15  S   UNL     1      -9.355   3.111  68.574  1.00  0.00    -0.147 SA 
HETATM   16  C   UNL     1      -8.274   4.239  67.739  1.00  0.00    -0.095 A  
HETATM   17  C   UNL     1      -8.542   4.382  66.360  1.00  0.00    -0.112 A  
HETATM   18  C   UNL     1      -7.798   5.243  65.568  1.00  0.00    -0.093 A  
HETATM   19  C   UNL     1      -6.788   5.978  66.155  1.00  0.00    -0.061 A  
HETATM   20  C   UNL     1      -6.516   5.836  67.524  1.00  0.00    -0.047 A  
HETATM   21  C   UNL     1      -7.231   4.955  68.367  1.00  0.00    -0.062 A  
ENDBRANCH   7   8
ENDBRANCH   5   7
TORSDOF 2
ENDMDL
MODEL      237
REMARK 921   NORMALIZED FREE ENERGY PREDICTED BY IDOCK:   -1.16 KCAL/MOL
REMARK 922        TOTAL FREE ENERGY PREDICTED BY IDOCK:   -1.69 KCAL/MOL
REMARK 923 INTER-LIGAND FREE ENERGY PREDICTED BY IDOCK:   -1.52 KCAL/MOL
REMARK 924 INTRA-LIGAND FREE ENERGY PREDICTED BY IDOCK:   -0.18 KCAL/MOL
REMARK 927      BINDING AFFINITY PREDICTED BY RF-SCORE:    0.00 PKD
ROOT
HETATM    1  C   UNL     1     -11.051  15.253  73.194  1.00  0.00     0.912 C  
HETATM    2  N   UNL     1     -11.957  14.613  72.253  1.00  0.00    -0.226 NA 
HETATM    3  C   UNL     1     -13.345  15.040  72.413  1.00  0.00    -0.409 C  
HETATM    4  C   UNL     1     -13.968  14.502  71.135  1.00  0.00    -0.248 C  
HETATM    5  C   UNL     1     -12.929  14.861  70.072  1.00  0.00    -0.005 C  
HETATM    6  C   UNL     1     -11.599  14.859  70.849  1.00  0.00    -0.297 C  
ENDROOT
BRANCH   5   7
HETATM    7  C   UNL     1     -12.871  13.945  68.838  1.00  0.00     1.136 C  
BRANCH   7   8
HETATM    8  N   UNL     1     -11.636  13.117  68.773  1.00  0.00    -0.286 NA 
HETATM    9  C   UNL     1     -11.700  11.806  69.358  1.00  0.00    -0.341 A  
HETATM   10  C   UNL     1     -12.856  11.311  70.006  1.00  0.00     0.052 A  
HETATM   11  C   UNL     1     -12.940  10.013  70.534  1.00  0.00    -0.156 A  
HETATM   12  C   UNL     1     -11.858   9.155  70.447  1.00  0.00    -0.057 A  
HETATM   13  C   UNL     1     -10.695   9.610  69.843  1.00  0.00    -0.283 A  
HETATM   14  C   UNL     1     -10.607  10.915  69.312  1.00  0.00    -0.217 A  
HETATM   15  S   UNL     1      -9.024  11.316  68.623  1.00  0.00    -0.110 SA 
HETATM   16  C   UNL     1      -9.301  12.929  67.944  1.00  0.00    -0.208 A  
HETATM   17  C   UNL     1      -8.190  13.465  67.258  1.00  0.00    -0.162 A  
HETATM   18  C   UNL     1      -8.250  14.710  66.652  1.00  0.00     0.152 A  
HETATM   19  C   UNL     1      -9.431  15.424  66.718  1.00  0.00    -0.260 A  
HETATM   20  C   UNL     1     -10.536  14.896  67.403  1.00  0.00    -0.255 A  
HETATM   21  C   UNL     1     -10.515  13.642  68.055  1.00  0.00    -0.248 A  
ENDBRANCH   7   8
ENDBRANCH   5   7
TORSDOF 2
ENDMDL
MODEL      238
REMARK 921   NORMALIZED FREE ENERGY PREDICTED BY IDOCK:   -1.10 KCAL/MOL
REMARK 922        TOTAL FREE ENERGY PREDICTED BY IDOCK:   -1.62 KCAL/MOL
REMARK 923 INTER-LIGAND FREE ENERGY PREDICTED BY IDOCK:   -1.21 KCAL/MOL
REMARK 924 INTRA-LIGAND FREE ENERGY PREDICTED BY IDOCK:   -0.41 KCAL/MOL
REMARK 927      BINDING AFFINITY PREDICTED BY RF-SCORE:    0.00 PKD
ROOT
HETATM    1  C   UNL     1      -5.637  11.697  69.228  1.00  0.00    -0.054 C  
HETATM    2  N   UNL     1      -5.442  10.273  69.452  1.00  0.00    -0.038 NA 
HETATM    3  C   UNL     1      -6.322   9.731  70.484  1.00  0.00    -0.100 C  
HETATM    4  C   UNL     1      -6.149   8.237  70.263  1.00  0.00    -0.031 C  
HETATM    5  C   UNL     1      -6.198   8.109  68.740  1.00  0.00    -0.044 C  
HETATM    6  C   UNL     1      -5.658   9.463  68.245  1.00  0.00    -0.037 C  
ENDROOT
BRANCH   5   7
HETATM    7  C   UNL     1      -5.426   6.928  68.129  1.00  0.00    -0.019 C  
BRANCH   7   8
HETATM    8  N   UNL     1      -6.273   6.036  67.291  1.00  0.00    -0.031 NA 
HETATM    9  C   UNL     1      -6.987   4.991  67.970  1.00  0.00    -0.061 A  
HETATM   10  C   UNL     1      -6.881   4.769  69.364  1.00  0.00    -0.049 A  
HETATM   11  C   UNL     1      -7.615   3.782  70.039  1.00  0.00    -0.048 A  
HETATM   12  C   UNL     1      -8.481   2.959  69.341  1.00  0.00    -0.100 A  
HETATM   13  C   UNL     1      -8.595   3.125  67.968  1.00  0.00    -0.116 A  
HETATM   14  C   UNL     1      -7.857   4.117  67.286  1.00  0.00    -0.092 A  
HETATM   15  S   UNL     1      -8.112   4.137  65.532  1.00  0.00    -0.102 SA 
HETATM   16  C   UNL     1      -7.169   5.548  65.025  1.00  0.00    -0.066 A  
HETATM   17  C   UNL     1      -7.259   5.839  63.647  1.00  0.00    -0.055 A  
HETATM   18  C   UNL     1      -6.597   6.924  63.095  1.00  0.00    -0.043 A  
HETATM   19  C   UNL     1      -5.847   7.735  63.924  1.00  0.00    -0.053 A  
HETATM   20  C   UNL     1      -5.752   7.448  65.293  1.00  0.00    -0.037 A  
HETATM   21  C   UNL     1      -6.391   6.341  65.898  1.00  0.00    -0.039 A  
ENDBRANCH   7   8
ENDBRANCH   5   7
TORSDOF 2
ENDMDL
MODEL      239
REMARK 921   NORMALIZED FREE ENERGY PREDICTED BY IDOCK:   -0.88 KCAL/MOL
REMARK 922        TOTAL FREE ENERGY PREDICTED BY IDOCK:   -1.38 KCAL/MOL
REMARK 923 INTER-LIGAND FREE ENERGY PREDICTED BY IDOCK:   -1.57 KCAL/MOL
REMARK 924 INTRA-LIGAND FREE ENERGY PREDICTED BY IDOCK:    0.19 KCAL/MOL
REMARK 927      BINDING AFFINITY PREDICTED BY RF-SCORE:    0.00 PKD
ROOT
HETATM    1  C   UNL     1      -6.150  12.967  68.210  1.00  0.00    -0.082 C  
HETATM    2  N   UNL     1      -5.967  11.536  68.398  1.00  0.00    -0.045 NA 
HETATM    3  C   UNL     1      -6.910  10.958  69.352  1.00  0.00    -0.114 C  
HETATM    4  C   UNL     1      -6.719   9.473  69.092  1.00  0.00    -0.049 C  
HETATM    5  C   UNL     1      -6.672   9.398  67.565  1.00  0.00    -0.068 C  
HETATM    6  C   UNL     1      -6.104  10.768  67.152  1.00  0.00    -0.063 C  
ENDROOT
BRANCH   5   7
HETATM    7  C   UNL     1      -5.859   8.238  66.965  1.00  0.00    -0.046 C  
BRANCH   7   8
HETATM    8  N   UNL     1      -6.650   7.375  66.046  1.00  0.00    -0.048 NA 
HETATM    9  C   UNL     1      -6.945   6.044  66.496  1.00  0.00    -0.067 A  
HETATM   10  C   UNL     1      -6.487   5.534  67.735  1.00  0.00    -0.048 A  
HETATM   11  C   UNL     1      -6.815   4.252  68.202  1.00  0.00    -0.048 A  
HETATM   12  C   UNL     1      -7.608   3.414  67.439  1.00  0.00    -0.077 A  
HETATM   13  C   UNL     1      -8.056   3.865  66.205  1.00  0.00    -0.097 A  
HETATM   14  C   UNL     1      -7.728   5.154  65.732  1.00  0.00    -0.091 A  
HETATM   15  S   UNL     1      -8.361   5.520  64.118  1.00  0.00    -0.058 SA 
HETATM   16  C   UNL     1      -7.893   7.215  63.900  1.00  0.00    -0.109 A  
HETATM   17  C   UNL     1      -8.348   7.789  62.693  1.00  0.00    -0.023 A  
HETATM   18  C   UNL     1      -8.082   9.113  62.381  1.00  0.00    -0.143 A  
HETATM   19  C   UNL     1      -7.368   9.877  63.283  1.00  0.00    -0.132 A  
HETATM   20  C   UNL     1      -6.911   9.309  64.482  1.00  0.00    -0.093 A  
HETATM   21  C   UNL     1      -7.138   7.958  64.834  1.00  0.00    -0.067 A  
ENDBRANCH   7   8
ENDBRANCH   5   7
TORSDOF 2
ENDMDL
MODEL      240
REMARK 921   NORMALIZED FREE ENERGY PREDICTED BY IDOCK:   -0.76 KCAL/MOL
REMARK 922        TOTAL FREE ENERGY PREDICTED BY IDOCK:   -1.25 KCAL/MOL
REMARK 923 INTER-LIGAND FREE ENERGY PREDICTED BY IDOCK:   -1.07 KCAL/MOL
REMARK 924 INTRA-LIGAND FREE ENERGY PREDICTED BY IDOCK:   -0.18 KCAL/MOL
REMARK 927      BINDING AFFINITY PREDICTED BY RF-SCORE:    0.00 PKD
ROOT
HETATM    1  C   UNL     1     -12.119  15.560  65.577  1.00  0.00     0.602 C  
HETATM    2  N   UNL     1     -11.051  14.628  65.902  1.00  0.00    -0.332 NA 
HETATM    3  C   UNL     1      -9.867  15.283  66.452  1.00  0.00    -0.275 C  
HETATM    4  C   UNL     1      -9.097  14.090  66.996  1.00  0.00    -0.256 C  
HETATM    5  C   UNL     1     -10.187  13.263  67.678  1.00  0.00    -0.228 C  
HETATM    6  C   UNL     1     -11.456  13.604  66.875  1.00  0.00    -0.345 C  
ENDROOT
BRANCH   5   7
HETATM    7  C   UNL     1      -9.947  11.746  67.750  1.00  0.00    -0.190 C  
BRANCH   7   8
HETATM    8  N   UNL     1      -8.584  11.341  67.310  1.00  0.00    -0.139 NA 
HETATM    9  C   UNL     1      -8.435  10.939  65.939  1.00  0.00    -0.158 A  
HETATM   10  C   UNL     1      -9.522  10.884  65.034  1.00  0.00    -0.274 A  
HETATM   11  C   UNL     1      -9.374  10.540  63.681  1.00  0.00    -0.324 A  
HETATM   12  C   UNL     1      -8.125  10.222  63.177  1.00  0.00    -0.158 A  
HETATM   13  C   UNL     1      -7.037  10.238  64.036  1.00  0.00    -0.053 A  
HETATM   14  C   UNL     1      -7.183  10.582  65.398  1.00  0.00    -0.077 A  
HETATM   15  S   UNL     1      -5.681  10.500  66.335  1.00  0.00    -0.087 SA 
HETATM   16  C   UNL     1      -6.186  11.109  67.920  1.00  0.00    -0.053 A  
HETATM   17  C   UNL     1      -5.138  11.215  68.859  1.00  0.00    -0.040 A  
HETATM   18  C   UNL     1      -5.364  11.695  70.140  1.00  0.00    -0.097 A  
HETATM   19  C   UNL     1      -6.643  12.083  70.486  1.00  0.00     0.872 A  
HETATM   20  C   UNL     1      -7.689  11.975  69.557  1.00  0.00     0.650 A  
HETATM   21  C   UNL     1      -7.511  11.472  68.248  1.00  0.00    -0.103 A  
ENDBRANCH   7   8
ENDBRANCH   5   7
TORSDOF 2
ENDMDL
MODEL      241
REMARK 921   NORMALIZED FREE ENERGY PREDICTED BY IDOCK:   -0.68 KCAL/MOL
REMARK 922        TOTAL FREE ENERGY PREDICTED BY IDOCK:   -1.15 KCAL/MOL
REMARK 923 INTER-LIGAND FREE ENERGY PREDICTED BY IDOCK:   -1.52 KCAL/MOL
REMARK 924 INTRA-LIGAND FREE ENERGY PREDICTED BY IDOCK:    0.36 KCAL/MOL
REMARK 927      BINDING AFFINITY PREDICTED BY RF-SCORE:    0.00 PKD
ROOT
HETATM    1  C   UNL     1      -6.442   7.026  72.520  1.00  0.00    -0.053 C  
HETATM    2  N   UNL     1      -6.369   7.408  71.118  1.00  0.00    -0.036 NA 
HETATM    3  C   UNL     1      -5.131   8.105  70.779  1.00  0.00    -0.022 C  
HETATM    4  C   UNL     1      -5.180   8.069  69.260  1.00  0.00    -0.026 C  
HETATM    5  C   UNL     1      -5.631   6.637  68.968  1.00  0.00    -0.017 C  
HETATM    6  C   UNL     1      -6.473   6.264  70.202  1.00  0.00    -0.040 C  
ENDROOT
BRANCH   5   7
HETATM    7  C   UNL     1      -6.410   6.421  67.659  1.00  0.00    -0.040 C  
BRANCH   7   8
HETATM    8  N   UNL     1      -7.478   7.432  67.432  1.00  0.00    -0.101 NA 
HETATM    9  C   UNL     1      -7.130   8.581  66.643  1.00  0.00    -0.077 A  
HETATM   10  C   UNL     1      -5.831   8.789  66.123  1.00  0.00    -0.047 A  
HETATM   11  C   UNL     1      -5.499   9.884  65.310  1.00  0.00    -0.059 A  
HETATM   12  C   UNL     1      -6.457  10.830  64.991  1.00  0.00     0.145 A  
HETATM   13  C   UNL     1      -7.738  10.678  65.503  1.00  0.00    -0.083 A  
HETATM   14  C   UNL     1      -8.074   9.578  66.322  1.00  0.00    -0.111 A  
HETATM   15  S   UNL     1      -9.747   9.591  66.907  1.00  0.00    -0.196 SA 
HETATM   16  C   UNL     1      -9.863   8.046  67.765  1.00  0.00    -0.165 A  
HETATM   17  C   UNL     1     -11.147   7.767  68.282  1.00  0.00     0.272 A  
HETATM   18  C   UNL     1     -11.409   6.588  68.963  1.00  0.00    -0.296 A  
HETATM   19  C   UNL     1     -10.387   5.672  69.119  1.00  0.00    -0.328 A  
HETATM   20  C   UNL     1      -9.109   5.947  68.611  1.00  0.00    -0.115 A  
HETATM   21  C   UNL     1      -8.788   7.144  67.930  1.00  0.00    -0.124 A  
ENDBRANCH   7   8
ENDBRANCH   5   7
TORSDOF 2
ENDMDL
MODEL      242
REMARK 921   NORMALIZED FREE ENERGY PREDICTED BY IDOCK:   -0.43 KCAL/MOL
REMARK 922        TOTAL FREE ENERGY PREDICTED BY IDOCK:   -0.88 KCAL/MOL
REMARK 923 INTER-LIGAND FREE ENERGY PREDICTED BY IDOCK:   -2.26 KCAL/MOL
REMARK 924 INTRA-LIGAND FREE ENERGY PREDICTED BY IDOCK:    1.39 KCAL/MOL
REMARK 927      BINDING AFFINITY PREDICTED BY RF-SCORE:    0.00 PKD
ROOT
HETATM    1  C   UNL     1      -6.687   8.330  72.741  1.00  0.00    -0.096 C  
HETATM    2  N   UNL     1      -7.702   7.675  71.931  1.00  0.00    -0.084 NA 
HETATM    3  C   UNL     1      -9.042   7.774  72.504  1.00  0.00    -0.169 C  
HETATM    4  C   UNL     1      -9.898   7.330  71.329  1.00  0.00    -0.183 C  
HETATM    5  C   UNL     1      -9.261   8.063  70.147  1.00  0.00    -0.152 C  
HETATM    6  C   UNL     1      -7.787   8.212  70.566  1.00  0.00    -0.087 C  
ENDROOT
BRANCH   5   7
HETATM    7  C   UNL     1      -9.399   7.388  68.772  1.00  0.00    -0.144 C  
BRANCH   7   8
HETATM    8  N   UNL     1      -8.490   7.957  67.740  1.00  0.00    -0.125 NA 
HETATM    9  C   UNL     1      -8.305   9.381  67.748  1.00  0.00    -0.115 A  
HETATM   10  C   UNL     1      -8.973  10.235  68.658  1.00  0.00    -0.144 A  
HETATM   11  C   UNL     1      -8.758  11.622  68.703  1.00  0.00    -0.083 A  
HETATM   12  C   UNL     1      -7.871  12.217  67.824  1.00  0.00    -0.151 A  
HETATM   13  C   UNL     1      -7.215  11.419  66.897  1.00  0.00    -0.144 A  
HETATM   14  C   UNL     1      -7.430  10.025  66.849  1.00  0.00    -0.095 A  
HETATM   15  S   UNL     1      -6.532   9.193  65.567  1.00  0.00    -0.069 SA 
HETATM   16  C   UNL     1      -6.916   7.492  65.874  1.00  0.00    -0.061 A  
HETATM   17  C   UNL     1      -6.256   6.587  65.015  1.00  0.00    -0.038 A  
HETATM   18  C   UNL     1      -6.434   5.217  65.137  1.00  0.00    -0.039 A  
HETATM   19  C   UNL     1      -7.266   4.743  66.132  1.00  0.00    -0.076 A  
HETATM   20  C   UNL     1      -7.928   5.640  66.984  1.00  0.00    -0.102 A  
HETATM   21  C   UNL     1      -7.795   7.044  66.884  1.00  0.00    -0.107 A  
ENDBRANCH   7   8
ENDBRANCH   5   7
TORSDOF 2
ENDMDL
MODEL      243
REMARK 921   NORMALIZED FREE ENERGY PREDICTED BY IDOCK:   -0.29 KCAL/MOL
REMARK 922        TOTAL FREE ENERGY PREDICTED BY IDOCK:   -0.72 KCAL/MOL
REMARK 923 INTER-LIGAND FREE ENERGY PREDICTED BY IDOCK:   -2.38 KCAL/MOL
REMARK 924 INTRA-LIGAND FREE ENERGY PREDICTED BY IDOCK:    1.66 KCAL/MOL
REMARK 927      BINDING AFFINITY PREDICTED BY RF-SCORE:    0.00 PKD
ROOT
HETATM    1  C   UNL     1      -6.450   7.023  72.538  1.00  0.00    -0.053 C  
HETATM    2  N   UNL     1      -6.604   7.408  71.145  1.00  0.00    -0.043 NA 
HETATM    3  C   UNL     1      -5.442   8.118  70.616  1.00  0.00    -0.025 C  
HETATM    4  C   UNL     1      -5.730   8.084  69.124  1.00  0.00    -0.034 C  
HETATM    5  C   UNL     1      -6.209   6.649  68.902  1.00  0.00    -0.027 C  
HETATM    6  C   UNL     1      -6.841   6.265  70.252  1.00  0.00    -0.054 C  
ENDROOT
BRANCH   5   7
HETATM    7  C   UNL     1      -7.183   6.428  67.732  1.00  0.00    -0.087 C  
BRANCH   7   8
HETATM    8  N   UNL     1      -8.240   7.472  67.638  1.00  0.00    -0.117 NA 
HETATM    9  C   UNL     1      -9.252   7.467  68.656  1.00  0.00    -0.144 A  
HETATM   10  C   UNL     1      -9.292   6.505  69.693  1.00  0.00    -0.144 A  
HETATM   11  C   UNL     1     -10.250   6.526  70.719  1.00  0.00    -0.218 A  
HETATM   12  C   UNL     1     -11.223   7.509  70.743  1.00  0.00    -0.287 A  
HETATM   13  C   UNL     1     -11.236   8.457  69.730  1.00  0.00     0.027 A  
HETATM   14  C   UNL     1     -10.275   8.438  68.696  1.00  0.00    -0.201 A  
HETATM   15  S   UNL     1     -10.491   9.706  67.477  1.00  0.00    -0.269 SA 
HETATM   16  C   UNL     1      -9.076   9.480  66.436  1.00  0.00    -0.159 A  
HETATM   17  C   UNL     1      -8.965  10.431  65.398  1.00  0.00    -0.207 A  
HETATM   18  C   UNL     1      -7.902  10.405  64.509  1.00  0.00    -0.066 A  
HETATM   19  C   UNL     1      -6.934   9.431  64.660  1.00  0.00    -0.096 A  
HETATM   20  C   UNL     1      -7.043   8.483  65.688  1.00  0.00    -0.079 A  
HETATM   21  C   UNL     1      -8.119   8.455  66.605  1.00  0.00    -0.101 A  
ENDBRANCH   7   8
ENDBRANCH   5   7
TORSDOF 2
ENDMDL
MODEL      244
REMARK 921   NORMALIZED FREE ENERGY PREDICTED BY IDOCK:   -0.08 KCAL/MOL
REMARK 922        TOTAL FREE ENERGY PREDICTED BY IDOCK:   -0.49 KCAL/MOL
REMARK 923 INTER-LIGAND FREE ENERGY PREDICTED BY IDOCK:   -1.48 KCAL/MOL
REMARK 924 INTRA-LIGAND FREE ENERGY PREDICTED BY IDOCK:    1.00 KCAL/MOL
REMARK 927      BINDING AFFINITY PREDICTED BY RF-SCORE:    0.00 PKD
ROOT
HETATM    1  C   UNL     1      -7.476  21.180  66.203  1.00  0.00     0.596 C  
HETATM    2  N   UNL     1      -7.924  19.915  66.765  1.00  0.00    -0.297 NA 
HETATM    3  C   UNL     1      -8.294  20.015  68.175  1.00  0.00    -0.175 C  
HETATM    4  C   UNL     1      -9.016  18.694  68.383  1.00  0.00    -0.356 C  
HETATM    5  C   UNL     1      -9.884  18.578  67.129  1.00  0.00    -0.335 C  
HETATM    6  C   UNL     1      -9.085  19.350  66.064  1.00  0.00    -0.168 C  
ENDROOT
BRANCH   5   7
HETATM    7  C   UNL     1     -10.225  17.152  66.666  1.00  0.00    -0.319 C  
BRANCH   7   8
HETATM    8  N   UNL     1      -9.538  16.093  67.454  1.00  0.00    -0.228 NA 
HETATM    9  C   UNL     1     -10.370  15.201  68.211  1.00  0.00    -0.231 A  
HETATM   10  C   UNL     1     -11.780  15.321  68.256  1.00  0.00    -0.320 A  
HETATM   11  C   UNL     1     -12.602  14.421  68.953  1.00  0.00     0.289 A  
HETATM   12  C   UNL     1     -12.043  13.365  69.651  1.00  0.00    -0.349 A  
HETATM   13  C   UNL     1     -10.663  13.227  69.655  1.00  0.00     0.338 A  
HETATM   14  C   UNL     1      -9.833  14.131  68.956  1.00  0.00    -0.025 A  
HETATM   15  S   UNL     1      -8.099  13.805  69.122  1.00  0.00     0.412 SA 
HETATM   16  C   UNL     1      -7.379  15.008  68.039  1.00  0.00    -0.127 A  
HETATM   17  C   UNL     1      -5.975  14.920  67.929  1.00  0.00    -0.160 A  
HETATM   18  C   UNL     1      -5.262  15.777  67.105  1.00  0.00     0.261 A  
HETATM   19  C   UNL     1      -5.953  16.722  66.374  1.00  0.00     0.194 A  
HETATM   20  C   UNL     1      -7.349  16.816  66.483  1.00  0.00    -0.306 A  
HETATM   21  C   UNL     1      -8.117  15.980  67.326  1.00  0.00    -0.177 A  
ENDBRANCH   7   8
ENDBRANCH   5   7
TORSDOF 2
ENDMDL
MODEL      245
REMARK 921   NORMALIZED FREE ENERGY PREDICTED BY IDOCK:   -0.04 KCAL/MOL
REMARK 922        TOTAL FREE ENERGY PREDICTED BY IDOCK:   -0.45 KCAL/MOL
REMARK 923 INTER-LIGAND FREE ENERGY PREDICTED BY IDOCK:   -1.25 KCAL/MOL
REMARK 924 INTRA-LIGAND FREE ENERGY PREDICTED BY IDOCK:    0.81 KCAL/MOL
REMARK 927      BINDING AFFINITY PREDICTED BY RF-SCORE:    0.00 PKD
ROOT
HETATM    1  C   UNL     1      -6.859  20.969  66.573  1.00  0.00    -0.172 C  
HETATM    2  N   UNL     1      -7.233  19.620  66.967  1.00  0.00    -0.208 NA 
HETATM    3  C   UNL     1      -7.269  19.435  68.415  1.00  0.00    -0.310 C  
HETATM    4  C   UNL     1      -7.993  18.103  68.525  1.00  0.00    -0.312 C  
HETATM    5  C   UNL     1      -9.126  18.247  67.508  1.00  0.00    -0.256 C  
HETATM    6  C   UNL     1      -8.550  19.214  66.458  1.00  0.00    -0.322 C  
ENDROOT
BRANCH   5   7
HETATM    7  C   UNL     1      -9.637  16.945  66.868  1.00  0.00    -0.254 C  
BRANCH   7   8
HETATM    8  N   UNL     1      -9.284  15.726  67.645  1.00  0.00    -0.199 NA 
HETATM    9  C   UNL     1      -7.909  15.313  67.618  1.00  0.00    -0.159 A  
HETATM   10  C   UNL     1      -6.918  15.991  66.868  1.00  0.00    -0.139 A  
HETATM   11  C   UNL     1      -5.564  15.621  66.879  1.00  0.00     0.767 A  
HETATM   12  C   UNL     1      -5.143  14.542  67.636  1.00  0.00     0.108 A  
HETATM   13  C   UNL     1      -6.086  13.833  68.366  1.00  0.00    -0.101 A  
HETATM   14  C   UNL     1      -7.450  14.202  68.356  1.00  0.00    -0.124 A  
HETATM   15  S   UNL     1      -8.497  13.144  69.317  1.00  0.00     1.048 SA 
HETATM   16  C   UNL     1     -10.069  13.952  69.198  1.00  0.00     0.082 A  
HETATM   17  C   UNL     1     -11.092  13.337  69.951  1.00  0.00     0.183 A  
HETATM   18  C   UNL     1     -12.377  13.859  69.980  1.00  0.00    -0.378 A  
HETATM   19  C   UNL     1     -12.642  15.009  69.264  1.00  0.00     0.101 A  
HETATM   20  C   UNL     1     -11.628  15.620  68.511  1.00  0.00    -0.378 A  
HETATM   21  C   UNL     1     -10.310  15.114  68.432  1.00  0.00    -0.229 A  
ENDBRANCH   7   8
ENDBRANCH   5   7
TORSDOF 2
ENDMDL
MODEL      246
REMARK 921   NORMALIZED FREE ENERGY PREDICTED BY IDOCK:    1.64 KCAL/MOL
REMARK 922        TOTAL FREE ENERGY PREDICTED BY IDOCK:    1.44 KCAL/MOL
REMARK 923 INTER-LIGAND FREE ENERGY PREDICTED BY IDOCK:    0.37 KCAL/MOL
REMARK 924 INTRA-LIGAND FREE ENERGY PREDICTED BY IDOCK:    1.07 KCAL/MOL
REMARK 927      BINDING AFFINITY PREDICTED BY RF-SCORE:    0.00 PKD
ROOT
HETATM    1  C   UNL     1     -12.126  14.818  66.896  1.00  0.00    -0.090 C  
HETATM    2  N   UNL     1     -10.978  15.337  67.624  1.00  0.00    -0.303 NA 
HETATM    3  C   UNL     1     -11.187  16.691  68.132  1.00  0.00    -0.202 C  
HETATM    4  C   UNL     1     -10.020  16.826  69.097  1.00  0.00    -0.252 C  
HETATM    5  C   UNL     1     -10.018  15.478  69.819  1.00  0.00    -0.281 C  
HETATM    6  C   UNL     1     -10.603  14.507  68.777  1.00  0.00    -0.248 C  
ENDROOT
BRANCH   5   7
HETATM    7  C   UNL     1      -8.660  14.993  70.352  1.00  0.00     1.166 C  
BRANCH   7   8
HETATM    8  N   UNL     1      -7.635  14.817  69.288  1.00  0.00    -0.156 NA 
HETATM    9  C   UNL     1      -7.436  13.485  68.789  1.00  0.00    -0.071 A  
HETATM   10  C   UNL     1      -8.139  12.364  69.293  1.00  0.00     0.643 A  
HETATM   11  C   UNL     1      -7.985  11.069  68.775  1.00  0.00    -0.144 A  
HETATM   12  C   UNL     1      -7.105  10.835  67.734  1.00  0.00    -0.086 A  
HETATM   13  C   UNL     1      -6.376  11.902  67.228  1.00  0.00    -0.143 A  
HETATM   14  C   UNL     1      -6.527  13.206  67.747  1.00  0.00    -0.153 A  
HETATM   15  S   UNL     1      -5.475  14.417  66.994  1.00  0.00     1.648 SA 
HETATM   16  C   UNL     1      -6.009  15.919  67.765  1.00  0.00    -0.147 A  
HETATM   17  C   UNL     1      -5.363  17.077  67.282  1.00  0.00    -0.171 A  
HETATM   18  C   UNL     1      -5.682  18.336  67.768  1.00  0.00    -0.158 A  
HETATM   19  C   UNL     1      -6.662  18.444  68.736  1.00  0.00    -0.267 A  
HETATM   20  C   UNL     1      -7.303  17.295  69.222  1.00  0.00    -0.078 A  
HETATM   21  C   UNL     1      -6.996  15.989  68.773  1.00  0.00    -0.139 A  
ENDBRANCH   7   8
ENDBRANCH   5   7
TORSDOF 2
ENDMDL
MODEL      247
REMARK 921   NORMALIZED FREE ENERGY PREDICTED BY IDOCK:    4.69 KCAL/MOL
REMARK 922        TOTAL FREE ENERGY PREDICTED BY IDOCK:    4.85 KCAL/MOL
REMARK 923 INTER-LIGAND FREE ENERGY PREDICTED BY IDOCK:    3.81 KCAL/MOL
REMARK 924 INTRA-LIGAND FREE ENERGY PREDICTED BY IDOCK:    1.04 KCAL/MOL
REMARK 927      BINDING AFFINITY PREDICTED BY RF-SCORE:    0.00 PKD
ROOT
HETATM    1  C   UNL     1      -7.481  12.809  66.884  1.00  0.00     0.214 C  
HETATM    2  N   UNL     1      -8.567  13.661  66.425  1.00  0.00     0.221 NA 
HETATM    3  C   UNL     1      -9.628  12.919  65.747  1.00  0.00    -0.074 C  
HETATM    4  C   UNL     1     -10.730  13.965  65.695  1.00  0.00    -0.292 C  
HETATM    5  C   UNL     1     -10.681  14.582  67.093  1.00  0.00    -0.286 C  
HETATM    6  C   UNL     1      -9.208  14.415  67.511  1.00  0.00    -0.200 C  
ENDROOT
BRANCH   5   7
HETATM    7  C   UNL     1     -11.145  16.044  67.209  1.00  0.00    -0.131 C  
BRANCH   7   8
HETATM    8  N   UNL     1     -11.089  16.575  68.599  1.00  0.00    -0.347 NA 
HETATM    9  C   UNL     1     -10.823  17.978  68.749  1.00  0.00     0.359 A  
HETATM   10  C   UNL     1     -10.585  18.836  67.649  1.00  0.00    -0.481 A  
HETATM   11  C   UNL     1     -10.375  20.216  67.788  1.00  0.00    -0.460 A  
HETATM   12  C   UNL     1     -10.381  20.799  69.042  1.00  0.00     0.470 A  
HETATM   13  C   UNL     1     -10.585  19.990  70.151  1.00  0.00     1.039 A  
HETATM   14  C   UNL     1     -10.795  18.600  70.015  1.00  0.00     2.227 A  
HETATM   15  S   UNL     1     -10.992  17.740  71.551  1.00  0.00     3.176 SA 
HETATM   16  C   UNL     1     -11.364  16.091  71.021  1.00  0.00    -0.379 A  
HETATM   17  C   UNL     1     -11.641  15.194  72.075  1.00  0.00    -0.496 A  
HETATM   18  C   UNL     1     -11.970  13.870  71.826  1.00  0.00     0.276 A  
HETATM   19  C   UNL     1     -12.036  13.438  70.516  1.00  0.00    -0.332 A  
HETATM   20  C   UNL     1     -11.757  14.326  69.466  1.00  0.00    -0.366 A  
HETATM   21  C   UNL     1     -11.396  15.678  69.670  1.00  0.00    -0.329 A  
ENDBRANCH   7   8
ENDBRANCH   5   7
TORSDOF 2
ENDMDL
MODEL      248
REMARK 921   NORMALIZED FREE ENERGY PREDICTED BY IDOCK:    4.85 KCAL/MOL
REMARK 922        TOTAL FREE ENERGY PREDICTED BY IDOCK:    5.03 KCAL/MOL
REMARK 923 INTER-LIGAND FREE ENERGY PREDICTED BY IDOCK:    2.18 KCAL/MOL
REMARK 924 INTRA-LIGAND FREE ENERGY PREDICTED BY IDOCK:    2.84 KCAL/MOL
REMARK 927      BINDING AFFINITY PREDICTED BY RF-SCORE:    0.00 PKD
ROOT
HETATM    1  C   UNL     1     -13.354  15.734  69.454  1.00  0.00     1.938 C  
HETATM    2  N   UNL     1     -12.311  14.883  70.002  1.00  0.00    -0.325 NA 
HETATM    3  C   UNL     1     -12.488  14.605  71.425  1.00  0.00    -0.344 C  
HETATM    4  C   UNL     1     -11.499  13.468  71.628  1.00  0.00     2.060 C  
HETATM    5  C   UNL     1     -11.738  12.586  70.401  1.00  0.00    -0.100 C  
HETATM    6  C   UNL     1     -12.214  13.581  69.327  1.00  0.00    -0.211 C  
ENDROOT
BRANCH   5   7
HETATM    7  C   UNL     1     -10.539  11.753  69.917  1.00  0.00     0.718 C  
BRANCH   7   8
HETATM    8  N   UNL     1     -10.091  12.104  68.542  1.00  0.00    -0.207 NA 
HETATM    9  C   UNL     1      -9.629  13.446  68.331  1.00  0.00    -0.188 A  
HETATM   10  C   UNL     1      -9.622  14.425  69.354  1.00  0.00     0.210 A  
HETATM   11  C   UNL     1      -9.124  15.724  69.165  1.00  0.00    -0.262 A  
HETATM   12  C   UNL     1      -8.621  16.105  67.934  1.00  0.00    -0.169 A  
HETATM   13  C   UNL     1      -8.633  15.184  66.897  1.00  0.00    -0.289 A  
HETATM   14  C   UNL     1      -9.134  13.877  67.082  1.00  0.00    -0.239 A  
HETATM   15  S   UNL     1      -9.101  12.871  65.624  1.00  0.00     0.662 SA 
HETATM   16  C   UNL     1      -9.656  11.302  66.231  1.00  0.00    -0.209 A  
HETATM   17  C   UNL     1      -9.656  10.275  65.262  1.00  0.00    -0.324 A  
HETATM   18  C   UNL     1     -10.044   8.983  65.582  1.00  0.00     0.256 A  
HETATM   19  C   UNL     1     -10.423   8.707  66.880  1.00  0.00    -0.329 A  
HETATM   20  C   UNL     1     -10.428   9.725  67.845  1.00  0.00    -0.288 A  
HETATM   21  C   UNL     1     -10.062  11.061  67.562  1.00  0.00    -0.180 A  
ENDBRANCH   7   8
ENDBRANCH   5   7
TORSDOF 2
ENDMDL
MODEL      249
REMARK 921   NORMALIZED FREE ENERGY PREDICTED BY IDOCK:    9.75 KCAL/MOL
REMARK 922        TOTAL FREE ENERGY PREDICTED BY IDOCK:   10.49 KCAL/MOL
REMARK 923 INTER-LIGAND FREE ENERGY PREDICTED BY IDOCK:   10.25 KCAL/MOL
REMARK 924 INTRA-LIGAND FREE ENERGY PREDICTED BY IDOCK:    0.24 KCAL/MOL
REMARK 927      BINDING AFFINITY PREDICTED BY RF-SCORE:    0.00 PKD
ROOT
HETATM    1  C   UNL     1      -8.441  12.758  64.507  1.00  0.00     3.533 C  
HETATM    2  N   UNL     1      -9.072  12.185  65.685  1.00  0.00     0.041 NA 
HETATM    3  C   UNL     1      -9.755  10.923  65.413  1.00  0.00    -0.238 C  
HETATM    4  C   UNL     1     -10.003  10.412  66.823  1.00  0.00    -0.256 C  
HETATM    5  C   UNL     1      -8.676  10.697  67.527  1.00  0.00    -0.125 C  
HETATM    6  C   UNL     1      -8.125  11.924  66.778  1.00  0.00    -0.108 C  
ENDROOT
BRANCH   5   7
HETATM    7  C   UNL     1      -8.748  10.938  69.044  1.00  0.00    -0.100 C  
BRANCH   7   8
HETATM    8  N   UNL     1      -9.029  12.354  69.406  1.00  0.00     1.003 NA 
HETATM    9  C   UNL     1     -10.403  12.772  69.381  1.00  0.00     0.490 A  
HETATM   10  C   UNL     1     -11.460  11.911  68.999  1.00  0.00    -0.355 A  
HETATM   11  C   UNL     1     -12.808  12.299  69.022  1.00  0.00     1.459 A  
HETATM   12  C   UNL     1     -13.158  13.577  69.418  1.00  0.00     1.505 A  
HETATM   13  C   UNL     1     -12.151  14.462  69.775  1.00  0.00    -0.386 A  
HETATM   14  C   UNL     1     -10.793  14.075  69.752  1.00  0.00     0.111 A  
HETATM   15  S   UNL     1      -9.661  15.363  70.202  1.00  0.00     0.331 SA 
HETATM   16  C   UNL     1      -8.104  14.519  70.201  1.00  0.00     0.931 A  
HETATM   17  C   UNL     1      -7.013  15.320  70.603  1.00  0.00     0.590 A  
HETATM   18  C   UNL     1      -5.729  14.804  70.675  1.00  0.00    -0.155 A  
HETATM   19  C   UNL     1      -5.529  13.475  70.356  1.00  0.00    -0.136 A  
HETATM   20  C   UNL     1      -6.610  12.677  69.952  1.00  0.00     0.132 A  
HETATM   21  C   UNL     1      -7.933  13.164  69.842  1.00  0.00     1.980 A  
ENDBRANCH   7   8
ENDBRANCH   5   7
TORSDOF 2
ENDMDL
MODEL      250
REMARK 921   NORMALIZED FREE ENERGY PREDICTED BY IDOCK:    9.86 KCAL/MOL
REMARK 922        TOTAL FREE ENERGY PREDICTED BY IDOCK:   10.62 KCAL/MOL
REMARK 923 INTER-LIGAND FREE ENERGY PREDICTED BY IDOCK:    5.37 KCAL/MOL
REMARK 924 INTRA-LIGAND FREE ENERGY PREDICTED BY IDOCK:    5.25 KCAL/MOL
REMARK 927      BINDING AFFINITY PREDICTED BY RF-SCORE:    0.00 PKD
ROOT
HETATM    1  C   UNL     1     -11.329   3.679  64.268  1.00  0.00     0.725 C  
HETATM    2  N   UNL     1     -10.365   3.833  65.346  1.00  0.00     0.025 NA 
HETATM    3  C   UNL     1     -10.161   2.605  66.112  1.00  0.00     1.594 C  
HETATM    4  C   UNL     1      -8.911   2.955  66.901  1.00  0.00    -0.157 C  
HETATM    5  C   UNL     1      -8.028   3.638  65.856  1.00  0.00    -0.093 C  
HETATM    6  C   UNL     1      -9.040   4.263  64.879  1.00  0.00    -0.148 C  
ENDROOT
BRANCH   5   7
HETATM    7  C   UNL     1      -7.027   4.679  66.385  1.00  0.00    -0.066 C  
BRANCH   7   8
HETATM    8  N   UNL     1      -7.590   5.556  67.448  1.00  0.00    -0.088 NA 
HETATM    9  C   UNL     1      -8.813   6.244  67.143  1.00  0.00    -0.109 A  
HETATM   10  C   UNL     1      -9.457   6.144  65.886  1.00  0.00     0.025 A  
HETATM   11  C   UNL     1     -10.678   6.775  65.601  1.00  0.00     2.533 A  
HETATM   12  C   UNL     1     -11.304   7.548  66.562  1.00  0.00     1.841 A  
HETATM   13  C   UNL     1     -10.693   7.694  67.799  1.00  0.00    -0.215 A  
HETATM   14  C   UNL     1      -9.464   7.062  68.089  1.00  0.00    -0.123 A  
HETATM   15  S   UNL     1      -8.831   7.409  69.708  1.00  0.00    -0.141 SA 
HETATM   16  C   UNL     1      -7.393   6.378  69.784  1.00  0.00    -0.080 A  
HETATM   17  C   UNL     1      -6.724   6.412  71.027  1.00  0.00    -0.055 A  
HETATM   18  C   UNL     1      -5.591   5.645  71.256  1.00  0.00    -0.016 A  
HETATM   19  C   UNL     1      -5.128   4.828  70.244  1.00  0.00     0.000 A  
HETATM   20  C   UNL     1      -5.789   4.794  69.006  1.00  0.00    -0.017 A  
HETATM   21  C   UNL     1      -6.933   5.574  68.718  1.00  0.00    -0.060 A  
ENDBRANCH   7   8
ENDBRANCH   5   7
TORSDOF 2
ENDMDL
MODEL      251
REMARK 921   NORMALIZED FREE ENERGY PREDICTED BY IDOCK:   11.70 KCAL/MOL
REMARK 922        TOTAL FREE ENERGY PREDICTED BY IDOCK:   12.67 KCAL/MOL
REMARK 923 INTER-LIGAND FREE ENERGY PREDICTED BY IDOCK:    6.58 KCAL/MOL
REMARK 924 INTRA-LIGAND FREE ENERGY PREDICTED BY IDOCK:    6.09 KCAL/MOL
REMARK 927      BINDING AFFINITY PREDICTED BY RF-SCORE:    0.00 PKD
ROOT
HETATM    1  C   UNL     1      -7.499   5.432  66.224  1.00  0.00    -0.087 C  
HETATM    2  N   UNL     1      -8.068   5.214  67.544  1.00  0.00    -0.100 NA 
HETATM    3  C   UNL     1      -7.978   3.824  67.984  1.00  0.00    -0.076 C  
HETATM    4  C   UNL     1      -8.315   3.960  69.460  1.00  0.00    -0.078 C  
HETATM    5  C   UNL     1      -7.515   5.193  69.880  1.00  0.00    -0.061 C  
HETATM    6  C   UNL     1      -7.432   6.028  68.589  1.00  0.00    -0.087 C  
ENDROOT
BRANCH   5   7
HETATM    7  C   UNL     1      -8.085   6.009  71.053  1.00  0.00    -0.121 C  
BRANCH   7   8
HETATM    8  N   UNL     1      -9.566   6.149  71.011  1.00  0.00    -0.174 NA 
HETATM    9  C   UNL     1     -10.142   6.614  69.780  1.00  0.00    -0.182 A  
HETATM   10  C   UNL     1      -9.361   6.967  68.654  1.00  0.00    -0.135 A  
HETATM   11  C   UNL     1      -9.921   7.373  67.433  1.00  0.00    -0.239 A  
HETATM   12  C   UNL     1     -11.295   7.458  67.290  1.00  0.00     0.447 A  
HETATM   13  C   UNL     1     -12.097   7.146  68.379  1.00  0.00     2.356 A  
HETATM   14  C   UNL     1     -11.536   6.738  69.609  1.00  0.00    -0.176 A  
HETATM   15  S   UNL     1     -12.727   6.428  70.885  1.00  0.00     0.813 SA 
HETATM   16  C   UNL     1     -11.719   5.821  72.209  1.00  0.00    -0.205 A  
HETATM   17  C   UNL     1     -12.445   5.424  73.352  1.00  0.00     1.528 A  
HETATM   18  C   UNL     1     -11.805   4.907  74.468  1.00  0.00     3.850 A  
HETATM   19  C   UNL     1     -10.431   4.772  74.441  1.00  0.00    -0.331 A  
HETATM   20  C   UNL     1      -9.706   5.170  73.308  1.00  0.00    -0.160 A  
HETATM   21  C   UNL     1     -10.311   5.722  72.156  1.00  0.00    -0.205 A  
ENDBRANCH   7   8
ENDBRANCH   5   7
TORSDOF 2
ENDMDL
MODEL      252
REMARK 921   NORMALIZED FREE ENERGY PREDICTED BY IDOCK:   11.84 KCAL/MOL
REMARK 922        TOTAL FREE ENERGY PREDICTED BY IDOCK:   12.83 KCAL/MOL
REMARK 923 INTER-LIGAND FREE ENERGY PREDICTED BY IDOCK:    2.50 KCAL/MOL
REMARK 924 INTRA-LIGAND FREE ENERGY PREDICTED BY IDOCK:   10.33 KCAL/MOL
REMARK 927      BINDING AFFINITY PREDICTED BY RF-SCORE:    0.00 PKD
ROOT
HETATM    1  C   UNL     1      -6.040   6.818  65.863  1.00  0.00    -0.038 C  
HETATM    2  N   UNL     1      -7.351   7.445  65.930  1.00  0.00    -0.073 NA 
HETATM    3  C   UNL     1      -8.447   6.507  65.701  1.00  0.00    -0.144 C  
HETATM    4  C   UNL     1      -9.640   7.331  66.156  1.00  0.00    -0.019 C  
HETATM    5  C   UNL     1      -9.134   7.980  67.445  1.00  0.00    -0.147 C  
HETATM    6  C   UNL     1      -7.615   8.095  67.221  1.00  0.00    -0.097 C  
ENDROOT
BRANCH   5   7
HETATM    7  C   UNL     1      -9.761   9.334  67.818  1.00  0.00    -0.150 C  
BRANCH   7   8
HETATM    8  N   UNL     1      -9.450  10.418  66.846  1.00  0.00    -0.166 NA 
HETATM    9  C   UNL     1      -9.323  10.038  65.467  1.00  0.00    -0.216 A  
HETATM   10  C   UNL     1      -9.443   8.698  65.026  1.00  0.00     0.455 A  
HETATM   11  C   UNL     1      -9.370   8.329  63.674  1.00  0.00     1.846 A  
HETATM   12  C   UNL     1      -9.157   9.289  62.701  1.00  0.00    -0.058 A  
HETATM   13  C   UNL     1      -9.007  10.612  63.093  1.00  0.00    -0.244 A  
HETATM   14  C   UNL     1      -9.079  10.986  64.452  1.00  0.00    -0.103 A  
HETATM   15  S   UNL     1      -8.819  12.715  64.746  1.00  0.00     2.023 SA 
HETATM   16  C   UNL     1      -9.107  12.853  66.489  1.00  0.00    -0.132 A  
HETATM   17  C   UNL     1      -9.030  14.172  66.984  1.00  0.00    -0.251 A  
HETATM   18  C   UNL     1      -9.251  14.453  68.323  1.00  0.00    -0.201 A  
HETATM   19  C   UNL     1      -9.563  13.413  69.176  1.00  0.00     0.455 A  
HETATM   20  C   UNL     1      -9.637  12.099  68.688  1.00  0.00    -0.068 A  
HETATM   21  C   UNL     1      -9.398  11.761  67.336  1.00  0.00    -0.174 A  
ENDBRANCH   7   8
ENDBRANCH   5   7
TORSDOF 2
ENDMDL
MODEL      253
REMARK 921   NORMALIZED FREE ENERGY PREDICTED BY IDOCK:   14.49 KCAL/MOL
REMARK 922        TOTAL FREE ENERGY PREDICTED BY IDOCK:   15.78 KCAL/MOL
REMARK 923 INTER-LIGAND FREE ENERGY PREDICTED BY IDOCK:   13.67 KCAL/MOL
REMARK 924 INTRA-LIGAND FREE ENERGY PREDICTED BY IDOCK:    2.11 KCAL/MOL
REMARK 927      BINDING AFFINITY PREDICTED BY RF-SCORE:    0.00 PKD
ROOT
HETATM    1  C   UNL     1     -13.076  15.295  67.645  1.00  0.00     3.173 C  
HETATM    2  N   UNL     1     -11.921  16.036  68.127  1.00  0.00     0.063 NA 
HETATM    3  C   UNL     1     -12.277  17.309  68.750  1.00  0.00     2.853 C  
HETATM    4  C   UNL     1     -10.971  17.676  69.435  1.00  0.00     0.747 C  
HETATM    5  C   UNL     1     -10.527  16.350  70.055  1.00  0.00    -0.131 C  
HETATM    6  C   UNL     1     -11.128  15.291  69.114  1.00  0.00    -0.263 C  
ENDROOT
BRANCH   5   7
HETATM    7  C   UNL     1      -9.012  16.157  70.239  1.00  0.00     1.447 C  
BRANCH   7   8
HETATM    8  N   UNL     1      -8.223  16.464  69.014  1.00  0.00    -0.235 NA 
HETATM    9  C   UNL     1      -7.296  17.557  69.094  1.00  0.00    -0.128 A  
HETATM   10  C   UNL     1      -7.143  18.350  70.257  1.00  0.00     1.242 A  
HETATM   11  C   UNL     1      -6.202  19.387  70.357  1.00  0.00    -0.129 A  
HETATM   12  C   UNL     1      -5.379  19.686  69.286  1.00  0.00    -0.211 A  
HETATM   13  C   UNL     1      -5.515  18.950  68.117  1.00  0.00    -0.182 A  
HETATM   14  C   UNL     1      -6.461  17.907  68.013  1.00  0.00    -0.186 A  
HETATM   15  S   UNL     1      -6.506  17.121  66.425  1.00  0.00    -0.129 SA 
HETATM   16  C   UNL     1      -7.669  15.810  66.682  1.00  0.00    -0.105 A  
HETATM   17  C   UNL     1      -7.843  14.965  65.564  1.00  0.00     4.963 A  
HETATM   18  C   UNL     1      -8.704  13.879  65.610  1.00  0.00     1.492 A  
HETATM   19  C   UNL     1      -9.389  13.624  66.781  1.00  0.00    -0.269 A  
HETATM   20  C   UNL     1      -9.222  14.464  67.892  1.00  0.00    -0.195 A  
HETATM   21  C   UNL     1      -8.373  15.595  67.887  1.00  0.00    -0.146 A  
ENDBRANCH   7   8
ENDBRANCH   5   7
TORSDOF 2
ENDMDL
MODEL      254
REMARK 921   NORMALIZED FREE ENERGY PREDICTED BY IDOCK:   17.72 KCAL/MOL
REMARK 922        TOTAL FREE ENERGY PREDICTED BY IDOCK:   19.40 KCAL/MOL
REMARK 923 INTER-LIGAND FREE ENERGY PREDICTED BY IDOCK:    6.62 KCAL/MOL
REMARK 924 INTRA-LIGAND FREE ENERGY PREDICTED BY IDOCK:   12.78 KCAL/MOL
REMARK 927      BINDING AFFINITY PREDICTED BY RF-SCORE:    0.00 PKD
ROOT
HETATM    1  C   UNL     1     -13.382  16.578  65.573  1.00  0.00     6.479 C  
HETATM    2  N   UNL     1     -12.297  15.615  65.464  1.00  0.00     0.882 NA 
HETATM    3  C   UNL     1     -11.745  15.525  64.114  1.00  0.00    -0.086 C  
HETATM    4  C   UNL     1     -10.467  14.743  64.371  1.00  0.00     0.317 C  
HETATM    5  C   UNL     1      -9.912  15.402  65.634  1.00  0.00    -0.396 C  
HETATM    6  C   UNL     1     -11.171  15.910  66.361  1.00  0.00     0.098 C  
ENDROOT
BRANCH   5   7
HETATM    7  C   UNL     1      -9.048  14.512  66.543  1.00  0.00    -0.219 C  
BRANCH   7   8
HETATM    8  N   UNL     1      -9.088  13.071  66.173  1.00  0.00    -0.002 NA 
HETATM    9  C   UNL     1     -10.265  12.607  65.493  1.00  0.00    -0.281 A  
HETATM   10  C   UNL     1     -11.368  13.447  65.207  1.00  0.00    -0.313 A  
HETATM   11  C   UNL     1     -12.498  13.010  64.499  1.00  0.00    -0.427 A  
HETATM   12  C   UNL     1     -12.579  11.703  64.055  1.00  0.00    -0.127 A  
HETATM   13  C   UNL     1     -11.531  10.838  64.336  1.00  0.00     1.091 A  
HETATM   14  C   UNL     1     -10.393  11.274  65.050  1.00  0.00    -0.301 A  
HETATM   15  S   UNL     1      -9.189  10.008  65.343  1.00  0.00    -0.231 SA 
HETATM   16  C   UNL     1      -7.872  10.905  66.117  1.00  0.00    -0.144 A  
HETATM   17  C   UNL     1      -6.729  10.125  66.399  1.00  0.00    -0.092 A  
HETATM   18  C   UNL     1      -5.604  10.683  66.986  1.00  0.00    -0.045 A  
HETATM   19  C   UNL     1      -5.610  12.032  67.283  1.00  0.00    -0.133 A  
HETATM   20  C   UNL     1      -6.745  12.809  67.007  1.00  0.00     0.205 A  
HETATM   21  C   UNL     1      -7.923  12.281  66.431  1.00  0.00     0.345 A  
ENDBRANCH   7   8
ENDBRANCH   5   7
TORSDOF 2
ENDMDL
MODEL      255
REMARK 921   NORMALIZED FREE ENERGY PREDICTED BY IDOCK:   22.09 KCAL/MOL
REMARK 922        TOTAL FREE ENERGY PREDICTED BY IDOCK:   24.28 KCAL/MOL
REMARK 923 INTER-LIGAND FREE ENERGY PREDICTED BY IDOCK:   18.53 KCAL/MOL
REMARK 924 INTRA-LIGAND FREE ENERGY PREDICTED BY IDOCK:    5.75 KCAL/MOL
REMARK 927      BINDING AFFINITY PREDICTED BY RF-SCORE:    0.00 PKD
ROOT
HETATM    1  C   UNL     1     -13.500  21.235  68.695  1.00  0.00     6.956 C  
HETATM    2  N   UNL     1     -12.344  20.373  68.885  1.00  0.00     4.849 NA 
HETATM    3  C   UNL     1     -12.360  19.196  68.020  1.00  0.00     4.696 C  
HETATM    4  C   UNL     1     -10.935  18.693  68.180  1.00  0.00     0.126 C  
HETATM    5  C   UNL     1     -10.110  19.979  68.102  1.00  0.00    -0.547 C  
HETATM    6  C   UNL     1     -11.067  21.057  68.641  1.00  0.00     1.912 C  
ENDROOT
BRANCH   5   7
HETATM    7  C   UNL     1      -8.769  19.975  68.855  1.00  0.00     0.148 C  
BRANCH   7   8
HETATM    8  N   UNL     1      -8.167  18.620  68.986  1.00  0.00    -0.173 NA 
HETATM    9  C   UNL     1      -8.584  17.628  68.034  1.00  0.00    -0.248 A  
HETATM   10  C   UNL     1      -9.549  17.885  67.031  1.00  0.00    -0.286 A  
HETATM   11  C   UNL     1      -9.922  16.935  66.069  1.00  0.00    -0.313 A  
HETATM   12  C   UNL     1      -9.352  15.675  66.077  1.00  0.00    -0.384 A  
HETATM   13  C   UNL     1      -8.421  15.372  67.060  1.00  0.00    -0.262 A  
HETATM   14  C   UNL     1      -8.044  16.325  68.030  1.00  0.00    -0.148 A  
HETATM   15  S   UNL     1      -6.875  15.729  69.221  1.00  0.00    -0.195 SA 
HETATM   16  C   UNL     1      -6.529  17.180  70.177  1.00  0.00     0.368 A  
HETATM   17  C   UNL     1      -5.550  16.993  71.176  1.00  0.00     0.310 A  
HETATM   18  C   UNL     1      -5.150  18.037  71.996  1.00  0.00     0.713 A  
HETATM   19  C   UNL     1      -5.722  19.281  71.813  1.00  0.00    -0.134 A  
HETATM   20  C   UNL     1      -6.698  19.469  70.823  1.00  0.00     0.410 A  
HETATM   21  C   UNL     1      -7.153  18.431  69.978  1.00  0.00     0.729 A  
ENDBRANCH   7   8
ENDBRANCH   5   7
TORSDOF 2
ENDMDL
MODEL      256
REMARK 921   NORMALIZED FREE ENERGY PREDICTED BY IDOCK:   41.39 KCAL/MOL
REMARK 922        TOTAL FREE ENERGY PREDICTED BY IDOCK:   45.84 KCAL/MOL
REMARK 923 INTER-LIGAND FREE ENERGY PREDICTED BY IDOCK:   44.20 KCAL/MOL
REMARK 924 INTRA-LIGAND FREE ENERGY PREDICTED BY IDOCK:    1.64 KCAL/MOL
REMARK 927      BINDING AFFINITY PREDICTED BY RF-SCORE:    0.00 PKD
ROOT
HETATM    1  C   UNL     1      -7.172   8.458  72.789  1.00  0.00    -0.069 C  
HETATM    2  N   UNL     1      -8.569   8.658  73.139  1.00  0.00    -0.374 NA 
HETATM    3  C   UNL     1      -8.778   9.791  74.036  1.00  0.00     5.892 C  
HETATM    4  C   UNL     1     -10.286   9.962  73.949  1.00  0.00    11.255 C  
HETATM    5  C   UNL     1     -10.560   9.810  72.452  1.00  0.00     2.384 C  
HETATM    6  C   UNL     1      -9.430   8.883  71.969  1.00  0.00    -0.179 C  
ENDROOT
BRANCH   5   7
HETATM    7  C   UNL     1     -11.947   9.271  72.065  1.00  0.00    -0.321 C  
BRANCH   7   8
HETATM    8  N   UNL     1     -11.899   8.207  71.025  1.00  0.00    -0.284 NA 
HETATM    9  C   UNL     1     -12.641   7.006  71.288  1.00  0.00    -0.373 A  
HETATM   10  C   UNL     1     -13.363   6.798  72.488  1.00  0.00     0.526 A  
HETATM   11  C   UNL     1     -14.130   5.648  72.729  1.00  0.00     1.714 A  
HETATM   12  C   UNL     1     -14.197   4.644  71.779  1.00  0.00     6.163 A  
HETATM   13  C   UNL     1     -13.483   4.796  70.599  1.00  0.00    12.969 A  
HETATM   14  C   UNL     1     -12.709   5.952  70.354  1.00  0.00     2.974 A  
HETATM   15  S   UNL     1     -11.840   5.933  68.810  1.00  0.00     2.657 SA 
HETATM   16  C   UNL     1     -11.104   7.543  68.766  1.00  0.00     0.204 A  
HETATM   17  C   UNL     1     -10.393   7.821  67.579  1.00  0.00    -0.333 A  
HETATM   18  C   UNL     1      -9.776   9.046  67.379  1.00  0.00    -0.217 A  
HETATM   19  C   UNL     1      -9.876  10.008  68.365  1.00  0.00    -0.169 A  
HETATM   20  C   UNL     1     -10.578   9.734  69.549  1.00  0.00    -0.253 A  
HETATM   21  C   UNL     1     -11.205   8.493  69.807  1.00  0.00     0.031 A  
ENDBRANCH   7   8
ENDBRANCH   5   7
TORSDOF 2
ENDMDL
MODEL      257
REMARK 921   NORMALIZED FREE ENERGY PREDICTED BY IDOCK:   46.56 KCAL/MOL
REMARK 922        TOTAL FREE ENERGY PREDICTED BY IDOCK:   51.61 KCAL/MOL
REMARK 923 INTER-LIGAND FREE ENERGY PREDICTED BY IDOCK:   44.19 KCAL/MOL
REMARK 924 INTRA-LIGAND FREE ENERGY PREDICTED BY IDOCK:    7.42 KCAL/MOL
REMARK 927      BINDING AFFINITY PREDICTED BY RF-SCORE:    0.00 PKD
ROOT
HETATM    1  C   UNL     1     -13.416  14.175  66.251  1.00  0.00     2.064 C  
HETATM    2  N   UNL     1     -12.691  15.069  67.140  1.00  0.00     1.003 NA 
HETATM    3  C   UNL     1     -13.040  14.885  68.546  1.00  0.00     2.187 C  
HETATM    4  C   UNL     1     -11.929  15.665  69.230  1.00  0.00    -0.338 C  
HETATM    5  C   UNL     1     -10.685  15.243  68.447  1.00  0.00    -0.250 C  
HETATM    6  C   UNL     1     -11.232  14.918  67.045  1.00  0.00    -0.344 C  
ENDROOT
BRANCH   5   7
HETATM    7  C   UNL     1      -9.537  16.265  68.390  1.00  0.00    -0.216 C  
BRANCH   7   8
HETATM    8  N   UNL     1      -9.157  16.803  69.725  1.00  0.00     0.559 NA 
HETATM    9  C   UNL     1      -9.935  16.364  70.849  1.00  0.00     2.069 A  
HETATM   10  C   UNL     1     -11.041  15.490  70.723  1.00  0.00    -0.383 A  
HETATM   11  C   UNL     1     -11.773  15.019  71.823  1.00  0.00    -0.452 A  
HETATM   12  C   UNL     1     -11.435  15.415  73.105  1.00  0.00    -0.102 A  
HETATM   13  C   UNL     1     -10.373  16.292  73.272  1.00  0.00     6.210 A  
HETATM   14  C   UNL     1      -9.636  16.769  72.167  1.00  0.00     8.916 A  
HETATM   15  S   UNL     1      -8.349  17.913  72.589  1.00  0.00    16.704 SA 
HETATM   16  C   UNL     1      -7.561  18.194  71.027  1.00  0.00     5.180 A  
HETATM   17  C   UNL     1      -6.430  19.036  71.095  1.00  0.00     1.011 A  
HETATM   18  C   UNL     1      -5.690  19.338  69.962  1.00  0.00    -0.274 A  
HETATM   19  C   UNL     1      -6.070  18.788  68.754  1.00  0.00    -0.236 A  
HETATM   20  C   UNL     1      -7.196  17.954  68.683  1.00  0.00    -0.272 A  
HETATM   21  C   UNL     1      -7.995  17.635  69.805  1.00  0.00     1.153 A  
ENDBRANCH   7   8
ENDBRANCH   5   7
TORSDOF 2
ENDMDL
