MODEL        1
REMARK 921   NORMALIZED FREE ENERGY PREDICTED BY IDOCK:   -6.81 KCAL/MOL
REMARK 922        TOTAL FREE ENERGY PREDICTED BY IDOCK:   -7.05 KCAL/MOL
REMARK 923 INTER-LIGAND FREE ENERGY PREDICTED BY IDOCK:   -7.21 KCAL/MOL
REMARK 924 INTRA-LIGAND FREE ENERGY PREDICTED BY IDOCK:    0.16 KCAL/MOL
REMARK 927      BINDING AFFINITY PREDICTED BY RF-SCORE:    0.00 PKD
ROOT
HETATM    1  C   UNL     1     -11.895  12.830  67.863  1.00  0.00    -0.392 C  
HETATM    2  C   UNL     1     -11.400  14.169  67.391  1.00  0.00    -0.346 A  
HETATM    3  C   UNL     1     -11.042  15.126  68.364  1.00  0.00    -0.286 A  
HETATM    4  C   UNL     1     -10.588  16.413  68.021  1.00  0.00    -0.314 A  
HETATM    5  C   UNL     1     -10.491  16.728  66.662  1.00  0.00    -0.258 A  
HETATM    6  C   UNL     1     -10.828  15.798  65.674  1.00  0.00    -0.316 A  
HETATM    7  S   UNL     1     -10.009  18.341  66.114  1.00  0.00    -0.254 S  
HETATM    8  O   UNL     1      -8.619  18.244  65.711  1.00  0.00    -0.462 OA 
HETATM    9  C   UNL     1     -10.100  19.341  67.576  1.00  0.00    -0.389 C  
HETATM   10  O   UNL     1     -11.036  18.801  65.199  1.00  0.00    -0.514 OA 
HETATM   11  C   UNL     1     -11.300  14.529  66.036  1.00  0.00    -0.341 A  
HETATM   12  C   UNL     1     -10.311  17.388  69.138  1.00  0.00    -0.271 C  
HETATM   13  C   UNL     1      -9.481  18.611  68.752  1.00  0.00    -0.358 C  
ENDROOT
BRANCH  11  14
HETATM   14  S   UNL     1     -11.805  13.470  64.700  1.00  0.00    -0.415 S  
HETATM   15  O   UNL     1     -12.955  12.679  65.070  1.00  0.00    -0.812 OA 
HETATM   16  N   UNL     1     -12.364  14.608  63.597  1.00  0.00    -1.089 N  
HETATM   17  O   UNL     1     -10.636  12.878  64.096  1.00  0.00    -0.389 OA 
HETATM   18  H1  UNL     1     -12.653  14.000  62.830  1.00  0.00     0.000 HD 
HETATM   19  H2  UNL     1     -12.403  15.624  63.673  1.00  0.00     0.000 HD 
ENDBRANCH  11  14
TORSDOF 1
ENDMDL
MODEL        2
REMARK 921   NORMALIZED FREE ENERGY PREDICTED BY IDOCK:   -6.68 KCAL/MOL
REMARK 922        TOTAL FREE ENERGY PREDICTED BY IDOCK:   -6.91 KCAL/MOL
REMARK 923 INTER-LIGAND FREE ENERGY PREDICTED BY IDOCK:   -6.94 KCAL/MOL
REMARK 924 INTRA-LIGAND FREE ENERGY PREDICTED BY IDOCK:    0.03 KCAL/MOL
REMARK 927      BINDING AFFINITY PREDICTED BY RF-SCORE:    0.00 PKD
ROOT
HETATM    1  C   UNL     1     -11.540  11.986  67.317  1.00  0.00    -0.383 C  
HETATM    2  C   UNL     1     -11.024  13.365  67.014  1.00  0.00    -0.298 A  
HETATM    3  C   UNL     1     -10.431  14.099  68.063  1.00  0.00    -0.240 A  
HETATM    4  C   UNL     1      -9.938  15.404  67.882  1.00  0.00    -0.221 A  
HETATM    5  C   UNL     1     -10.045  15.969  66.608  1.00  0.00    -0.279 A  
HETATM    6  C   UNL     1     -10.617  15.264  65.546  1.00  0.00    -0.390 A  
HETATM    7  S   UNL     1      -9.532  17.633  66.283  1.00  0.00    -0.167 S  
HETATM    8  O   UNL     1      -8.243  17.547  65.626  1.00  0.00    -0.505 OA 
HETATM    9  C   UNL     1      -9.295  18.335  67.895  1.00  0.00    -0.276 C  
HETATM   10  O   UNL     1     -10.657  18.308  65.667  1.00  0.00    -0.614 OA 
HETATM   11  C   UNL     1     -11.124  13.973  65.752  1.00  0.00    -0.305 A  
HETATM   12  C   UNL     1      -9.399  16.131  69.089  1.00  0.00    -0.238 C  
HETATM   13  C   UNL     1      -8.549  17.364  68.788  1.00  0.00    -0.221 C  
ENDROOT
BRANCH  11  14
HETATM   14  S   UNL     1     -11.931  13.216  64.358  1.00  0.00    -0.422 S  
HETATM   15  O   UNL     1     -13.181  12.611  64.749  1.00  0.00    -0.846 OA 
HETATM   16  N   UNL     1     -12.338  14.577  63.460  1.00  0.00    -1.090 N  
HETATM   17  O   UNL     1     -10.952  12.505  63.573  1.00  0.00    -0.445 OA 
HETATM   18  H1  UNL     1     -12.801  14.143  62.661  1.00  0.00     0.000 HD 
HETATM   19  H2  UNL     1     -12.170  15.563  63.658  1.00  0.00     0.000 HD 
ENDBRANCH  11  14
TORSDOF 1
ENDMDL
MODEL        3
REMARK 921   NORMALIZED FREE ENERGY PREDICTED BY IDOCK:   -6.39 KCAL/MOL
REMARK 922        TOTAL FREE ENERGY PREDICTED BY IDOCK:   -6.60 KCAL/MOL
REMARK 923 INTER-LIGAND FREE ENERGY PREDICTED BY IDOCK:   -6.45 KCAL/MOL
REMARK 924 INTRA-LIGAND FREE ENERGY PREDICTED BY IDOCK:   -0.15 KCAL/MOL
REMARK 927      BINDING AFFINITY PREDICTED BY RF-SCORE:    0.00 PKD
ROOT
HETATM    1  C   UNL     1     -10.798  12.312  67.011  1.00  0.00    -0.288 C  
HETATM    2  C   UNL     1     -10.418  13.763  66.906  1.00  0.00    -0.272 A  
HETATM    3  C   UNL     1      -9.565  14.301  67.892  1.00  0.00    -0.221 A  
HETATM    4  C   UNL     1      -9.170  15.651  67.890  1.00  0.00    -0.190 A  
HETATM    5  C   UNL     1      -9.649  16.467  66.860  1.00  0.00    -0.244 A  
HETATM    6  C   UNL     1     -10.487  15.962  65.862  1.00  0.00    -0.373 A  
HETATM    7  S   UNL     1      -9.284  18.199  66.800  1.00  0.00    -0.286 S  
HETATM    8  O   UNL     1      -8.235  18.367  65.813  1.00  0.00    -0.494 OA 
HETATM    9  C   UNL     1      -8.610  18.555  68.402  1.00  0.00    -0.331 C  
HETATM   10  O   UNL     1     -10.552  18.894  66.689  1.00  0.00    -0.399 OA 
HETATM   11  C   UNL     1     -10.887  14.619  65.895  1.00  0.00    -0.312 A  
HETATM   12  C   UNL     1      -8.323  16.144  69.036  1.00  0.00    -0.247 C  
HETATM   13  C   UNL     1      -7.620  17.481  68.807  1.00  0.00    -0.258 C  
ENDROOT
BRANCH  11  14
HETATM   14  S   UNL     1     -12.043  14.115  64.640  1.00  0.00    -0.456 S  
HETATM   15  O   UNL     1     -13.354  13.892  65.202  1.00  0.00    -0.698 OA 
HETATM   16  N   UNL     1     -12.161  15.529  63.741  1.00  0.00    -0.974 N  
HETATM   17  O   UNL     1     -11.412  13.149  63.774  1.00  0.00    -0.408 OA 
HETATM   18  H1  UNL     1     -12.824  15.240  63.021  1.00  0.00     0.000 HD 
HETATM   19  H2  UNL     1     -11.698  16.428  63.877  1.00  0.00     0.000 HD 
ENDBRANCH  11  14
TORSDOF 1
ENDMDL
MODEL        4
REMARK 921   NORMALIZED FREE ENERGY PREDICTED BY IDOCK:   -6.32 KCAL/MOL
REMARK 922        TOTAL FREE ENERGY PREDICTED BY IDOCK:   -6.53 KCAL/MOL
REMARK 923 INTER-LIGAND FREE ENERGY PREDICTED BY IDOCK:   -6.57 KCAL/MOL
REMARK 924 INTRA-LIGAND FREE ENERGY PREDICTED BY IDOCK:    0.04 KCAL/MOL
REMARK 927      BINDING AFFINITY PREDICTED BY RF-SCORE:    0.00 PKD
ROOT
HETATM    1  C   UNL     1     -11.913  11.025  70.920  1.00  0.00    -0.391 C  
HETATM    2  C   UNL     1     -11.874  11.854  69.666  1.00  0.00    -0.406 A  
HETATM    3  C   UNL     1     -11.477  11.227  68.467  1.00  0.00    -0.372 A  
HETATM    4  C   UNL     1     -11.391  11.924  67.247  1.00  0.00    -0.393 A  
HETATM    5  C   UNL     1     -11.721  13.282  67.250  1.00  0.00    -0.377 A  
HETATM    6  C   UNL     1     -12.128  13.930  68.420  1.00  0.00    -0.327 A  
HETATM    7  S   UNL     1     -11.572  14.278  65.793  1.00  0.00    -0.353 S  
HETATM    8  O   UNL     1     -12.910  14.433  65.259  1.00  0.00    -0.566 OA 
HETATM    9  C   UNL     1     -10.634  13.270  64.674  1.00  0.00    -0.404 C  
HETATM   10  O   UNL     1     -10.755  15.423  66.146  1.00  0.00    -0.304 OA 
HETATM   11  C   UNL     1     -12.185  13.223  69.629  1.00  0.00    -0.199 A  
HETATM   12  C   UNL     1     -10.876  11.180  66.040  1.00  0.00    -0.230 C  
HETATM   13  C   UNL     1     -11.149  11.844  64.693  1.00  0.00    -0.373 C  
ENDROOT
BRANCH  11  14
HETATM   14  S   UNL     1     -12.606  14.174  71.073  1.00  0.00    -0.389 S  
HETATM   15  O   UNL     1     -11.426  14.729  71.691  1.00  0.00    -0.296 OA 
HETATM   16  N   UNL     1     -13.410  15.470  70.367  1.00  0.00    -0.779 N  
HETATM   17  O   UNL     1     -13.602  13.462  71.836  1.00  0.00    -0.413 OA 
HETATM   18  H1  UNL     1     -13.651  16.015  71.195  1.00  0.00     0.000 HD 
HETATM   19  H2  UNL     1     -13.603  15.659  69.383  1.00  0.00     0.000 HD 
ENDBRANCH  11  14
TORSDOF 1
ENDMDL
MODEL        5
REMARK 921   NORMALIZED FREE ENERGY PREDICTED BY IDOCK:   -6.31 KCAL/MOL
REMARK 922        TOTAL FREE ENERGY PREDICTED BY IDOCK:   -6.52 KCAL/MOL
REMARK 923 INTER-LIGAND FREE ENERGY PREDICTED BY IDOCK:   -6.75 KCAL/MOL
REMARK 924 INTRA-LIGAND FREE ENERGY PREDICTED BY IDOCK:    0.23 KCAL/MOL
REMARK 927      BINDING AFFINITY PREDICTED BY RF-SCORE:    0.00 PKD
ROOT
HETATM    1  C   UNL     1     -12.974  11.021  71.782  1.00  0.00    -0.544 C  
HETATM    2  C   UNL     1     -12.511  11.808  70.588  1.00  0.00    -0.364 A  
HETATM    3  C   UNL     1     -11.952  11.101  69.503  1.00  0.00    -0.425 A  
HETATM    4  C   UNL     1     -11.472  11.750  68.350  1.00  0.00    -0.354 A  
HETATM    5  C   UNL     1     -11.570  13.144  68.300  1.00  0.00    -0.335 A  
HETATM    6  C   UNL     1     -12.129  13.872  69.355  1.00  0.00    -0.384 A  
HETATM    7  S   UNL     1     -10.927  14.073  66.937  1.00  0.00    -0.303 S  
HETATM    8  O   UNL     1     -12.061  14.431  66.108  1.00  0.00    -0.399 OA 
HETATM    9  C   UNL     1      -9.929  12.905  66.050  1.00  0.00    -0.272 C  
HETATM   10  O   UNL     1     -10.042  15.079  67.492  1.00  0.00    -0.227 OA 
HETATM   11  C   UNL     1     -12.580  13.208  70.504  1.00  0.00    -0.165 A  
HETATM   12  C   UNL     1     -10.817  10.909  67.283  1.00  0.00    -0.342 C  
HETATM   13  C   UNL     1     -10.657  11.582  65.922  1.00  0.00    -0.318 C  
ENDROOT
BRANCH  11  14
HETATM   14  S   UNL     1     -13.168  14.243  71.827  1.00  0.00    -0.394 S  
HETATM   15  O   UNL     1     -12.068  14.854  72.535  1.00  0.00    -0.336 OA 
HETATM   16  N   UNL     1     -13.897  15.479  70.953  1.00  0.00    -0.854 N  
HETATM   17  O   UNL     1     -14.238  13.566  72.518  1.00  0.00    -0.734 OA 
HETATM   18  H1  UNL     1     -14.234  16.072  71.711  1.00  0.00     0.000 HD 
HETATM   19  H2  UNL     1     -13.979  15.602  69.943  1.00  0.00     0.000 HD 
ENDBRANCH  11  14
TORSDOF 1
ENDMDL
MODEL        6
REMARK 921   NORMALIZED FREE ENERGY PREDICTED BY IDOCK:   -6.19 KCAL/MOL
REMARK 922        TOTAL FREE ENERGY PREDICTED BY IDOCK:   -6.40 KCAL/MOL
REMARK 923 INTER-LIGAND FREE ENERGY PREDICTED BY IDOCK:   -6.41 KCAL/MOL
REMARK 924 INTRA-LIGAND FREE ENERGY PREDICTED BY IDOCK:    0.01 KCAL/MOL
REMARK 927      BINDING AFFINITY PREDICTED BY RF-SCORE:    0.00 PKD
ROOT
HETATM    1  C   UNL     1     -11.619  12.552  68.881  1.00  0.00    -0.364 C  
HETATM    2  C   UNL     1     -11.194  13.787  68.136  1.00  0.00    -0.298 A  
HETATM    3  C   UNL     1     -11.011  14.977  68.871  1.00  0.00    -0.256 A  
HETATM    4  C   UNL     1     -10.634  16.187  68.260  1.00  0.00    -0.288 A  
HETATM    5  C   UNL     1     -10.434  16.183  66.876  1.00  0.00    -0.300 A  
HETATM    6  C   UNL     1     -10.598  15.018  66.122  1.00  0.00    -0.314 A  
HETATM    7  S   UNL     1     -10.038  17.663  65.990  1.00  0.00    -0.198 S  
HETATM    8  O   UNL     1      -8.613  17.618  65.725  1.00  0.00    -0.516 OA 
HETATM    9  C   UNL     1     -10.351  18.963  67.156  1.00  0.00    -0.413 C  
HETATM   10  O   UNL     1     -11.007  17.787  64.919  1.00  0.00    -0.866 OA 
HETATM   11  C   UNL     1     -10.996  13.827  66.746  1.00  0.00    -0.304 A  
HETATM   12  C   UNL     1     -10.547  17.420  69.125  1.00  0.00    -0.161 C  
HETATM   13  C   UNL     1      -9.788  18.597  68.515  1.00  0.00    -0.427 C  
ENDROOT
BRANCH  11  14
HETATM   14  S   UNL     1     -11.282  12.437  65.673  1.00  0.00    -0.335 S  
HETATM   15  O   UNL     1     -12.662  12.379  65.256  1.00  0.00    -0.617 OA 
HETATM   16  N   UNL     1     -10.410  12.909  64.316  1.00  0.00    -0.498 N  
HETATM   17  O   UNL     1     -10.595  11.283  66.199  1.00  0.00    -0.251 OA 
HETATM   18  H1  UNL     1     -10.574  12.112  63.700  1.00  0.00     0.000 HD 
HETATM   19  H2  UNL     1      -9.868  13.758  64.153  1.00  0.00     0.000 HD 
ENDBRANCH  11  14
TORSDOF 1
ENDMDL
MODEL        7
REMARK 921   NORMALIZED FREE ENERGY PREDICTED BY IDOCK:   -5.90 KCAL/MOL
REMARK 922        TOTAL FREE ENERGY PREDICTED BY IDOCK:   -6.09 KCAL/MOL
REMARK 923 INTER-LIGAND FREE ENERGY PREDICTED BY IDOCK:   -5.95 KCAL/MOL
REMARK 924 INTRA-LIGAND FREE ENERGY PREDICTED BY IDOCK:   -0.13 KCAL/MOL
REMARK 927      BINDING AFFINITY PREDICTED BY RF-SCORE:    0.00 PKD
ROOT
HETATM    1  C   UNL     1     -10.357  13.694  64.811  1.00  0.00    -0.414 C  
HETATM    2  C   UNL     1     -10.736  14.046  66.222  1.00  0.00    -0.289 A  
HETATM    3  C   UNL     1     -11.179  13.009  67.070  1.00  0.00    -0.325 A  
HETATM    4  C   UNL     1     -11.574  13.243  68.400  1.00  0.00    -0.372 A  
HETATM    5  C   UNL     1     -11.511  14.556  68.876  1.00  0.00    -0.300 A  
HETATM    6  C   UNL     1     -11.067  15.603  68.064  1.00  0.00    -0.335 A  
HETATM    7  S   UNL     1     -12.059  14.981  70.505  1.00  0.00    -0.357 S  
HETATM    8  O   UNL     1     -10.868  15.125  71.318  1.00  0.00    -0.219 OA 
HETATM    9  C   UNL     1     -12.943  13.544  71.054  1.00  0.00    -0.202 C  
HETATM   10  O   UNL     1     -13.017  16.060  70.360  1.00  0.00    -0.283 OA 
HETATM   11  C   UNL     1     -10.699  15.353  66.735  1.00  0.00    -0.310 A  
HETATM   12  C   UNL     1     -12.110  12.078  69.195  1.00  0.00    -0.241 C  
HETATM   13  C   UNL     1     -12.169  12.287  70.707  1.00  0.00    -0.354 C  
ENDROOT
BRANCH  11  14
HETATM   14  S   UNL     1     -10.259  16.777  65.763  1.00  0.00    -0.235 S  
HETATM   15  O   UNL     1     -11.157  16.939  64.644  1.00  0.00    -0.934 OA 
HETATM   16  N   UNL     1     -10.632  18.013  66.837  1.00  0.00    -0.323 N  
HETATM   17  O   UNL     1      -8.826  16.815  65.601  1.00  0.00    -0.461 OA 
HETATM   18  H1  UNL     1     -10.380  18.830  66.280  1.00  0.00     0.000 HD 
HETATM   19  H2  UNL     1     -11.008  17.962  67.784  1.00  0.00     0.000 HD 
ENDBRANCH  11  14
TORSDOF 1
ENDMDL
MODEL        8
REMARK 921   NORMALIZED FREE ENERGY PREDICTED BY IDOCK:   -5.86 KCAL/MOL
REMARK 922        TOTAL FREE ENERGY PREDICTED BY IDOCK:   -6.04 KCAL/MOL
REMARK 923 INTER-LIGAND FREE ENERGY PREDICTED BY IDOCK:   -6.31 KCAL/MOL
REMARK 924 INTRA-LIGAND FREE ENERGY PREDICTED BY IDOCK:    0.27 KCAL/MOL
REMARK 927      BINDING AFFINITY PREDICTED BY RF-SCORE:    0.00 PKD
ROOT
HETATM    1  C   UNL     1     -10.411   8.552  68.820  1.00  0.00    -0.233 C  
HETATM    2  C   UNL     1     -10.778   9.819  68.098  1.00  0.00    -0.280 A  
HETATM    3  C   UNL     1     -10.374   9.959  66.754  1.00  0.00    -0.285 A  
HETATM    4  C   UNL     1     -10.654  11.115  66.001  1.00  0.00    -0.298 A  
HETATM    5  C   UNL     1     -11.362  12.144  66.629  1.00  0.00    -0.350 A  
HETATM    6  C   UNL     1     -11.785  12.031  67.956  1.00  0.00    -0.398 A  
HETATM    7  S   UNL     1     -11.700  13.676  65.807  1.00  0.00    -0.366 S  
HETATM    8  O   UNL     1     -13.083  13.619  65.377  1.00  0.00    -0.704 OA 
HETATM    9  C   UNL     1     -10.662  13.633  64.369  1.00  0.00    -0.354 C  
HETATM   10  O   UNL     1     -11.214  14.734  66.671  1.00  0.00    -0.335 OA 
HETATM   11  C   UNL     1     -11.477  10.881  68.696  1.00  0.00    -0.311 A  
HETATM   12  C   UNL     1     -10.105  11.197  64.599  1.00  0.00    -0.358 C  
HETATM   13  C   UNL     1     -10.732  12.270  63.710  1.00  0.00    -0.494 C  
ENDROOT
BRANCH  11  14
HETATM   14  S   UNL     1     -11.966  10.894  70.406  1.00  0.00    -0.387 S  
HETATM   15  O   UNL     1     -12.373  12.216  70.819  1.00  0.00    -0.376 OA 
HETATM   16  N   UNL     1     -13.374   9.980  70.333  1.00  0.00    -0.538 N  
HETATM   17  O   UNL     1     -11.028  10.111  71.174  1.00  0.00    -0.245 OA 
HETATM   18  H1  UNL     1     -13.654   9.987  71.314  1.00  0.00     0.000 HD 
HETATM   19  H2  UNL     1     -13.823   9.539  69.530  1.00  0.00     0.000 HD 
ENDBRANCH  11  14
TORSDOF 1
ENDMDL
MODEL        9
REMARK 921   NORMALIZED FREE ENERGY PREDICTED BY IDOCK:   -5.76 KCAL/MOL
REMARK 922        TOTAL FREE ENERGY PREDICTED BY IDOCK:   -5.94 KCAL/MOL
REMARK 923 INTER-LIGAND FREE ENERGY PREDICTED BY IDOCK:   -5.81 KCAL/MOL
REMARK 924 INTRA-LIGAND FREE ENERGY PREDICTED BY IDOCK:   -0.13 KCAL/MOL
REMARK 927      BINDING AFFINITY PREDICTED BY RF-SCORE:    0.00 PKD
ROOT
HETATM    1  C   UNL     1     -12.349  14.048  66.638  1.00  0.00    -0.408 C  
HETATM    2  C   UNL     1     -11.783  12.664  66.802  1.00  0.00    -0.460 A  
HETATM    3  C   UNL     1     -11.713  12.124  68.103  1.00  0.00    -0.402 A  
HETATM    4  C   UNL     1     -11.182  10.846  68.358  1.00  0.00    -0.347 A  
HETATM    5  C   UNL     1     -10.719  10.104  67.268  1.00  0.00    -0.254 A  
HETATM    6  C   UNL     1     -10.783  10.608  65.966  1.00  0.00    -0.127 A  
HETATM    7  S   UNL     1      -9.956   8.520  67.478  1.00  0.00    -0.219 S  
HETATM    8  O   UNL     1     -10.956   7.530  67.129  1.00  0.00    -0.293 OA 
HETATM    9  C   UNL     1      -9.648   8.416  69.222  1.00  0.00    -0.164 C  
HETATM   10  O   UNL     1      -8.673   8.576  66.805  1.00  0.00    -0.117 OA 
HETATM   11  C   UNL     1     -11.295  11.892  65.734  1.00  0.00    -0.299 A  
HETATM   12  C   UNL     1     -11.078  10.396  69.794  1.00  0.00    -0.352 C  
HETATM   13  C   UNL     1     -10.856   8.899  69.999  1.00  0.00    -0.239 C  
ENDROOT
BRANCH  11  14
HETATM   14  S   UNL     1     -11.224  12.473  64.054  1.00  0.00    -0.441 S  
HETATM   15  O   UNL     1     -10.162  13.436  63.883  1.00  0.00    -0.252 OA 
HETATM   16  N   UNL     1     -10.715  11.080  63.266  1.00  0.00    -0.752 N  
HETATM   17  O   UNL     1     -12.564  12.725  63.583  1.00  0.00    -0.685 OA 
HETATM   18  H1  UNL     1     -10.674  11.413  62.302  1.00  0.00     0.000 HD 
HETATM   19  H2  UNL     1     -10.505  10.156  63.645  1.00  0.00     0.000 HD 
ENDBRANCH  11  14
TORSDOF 1
ENDMDL
MODEL       10
REMARK 921   NORMALIZED FREE ENERGY PREDICTED BY IDOCK:   -5.75 KCAL/MOL
REMARK 922        TOTAL FREE ENERGY PREDICTED BY IDOCK:   -5.92 KCAL/MOL
REMARK 923 INTER-LIGAND FREE ENERGY PREDICTED BY IDOCK:   -5.77 KCAL/MOL
REMARK 924 INTRA-LIGAND FREE ENERGY PREDICTED BY IDOCK:   -0.15 KCAL/MOL
REMARK 927      BINDING AFFINITY PREDICTED BY RF-SCORE:    0.00 PKD
ROOT
HETATM    1  C   UNL     1     -10.940  12.280  63.482  1.00  0.00    -0.521 C  
HETATM    2  C   UNL     1     -10.804  11.740  64.878  1.00  0.00    -0.353 A  
HETATM    3  C   UNL     1     -10.277  10.441  65.039  1.00  0.00    -0.334 A  
HETATM    4  C   UNL     1     -10.130   9.842  66.304  1.00  0.00    -0.313 A  
HETATM    5  C   UNL     1     -10.520  10.581  67.424  1.00  0.00    -0.244 A  
HETATM    6  C   UNL     1     -11.036  11.874  67.297  1.00  0.00    -0.344 A  
HETATM    7  S   UNL     1     -10.456   9.899  69.057  1.00  0.00    -0.220 S  
HETATM    8  O   UNL     1      -9.272  10.448  69.688  1.00  0.00    -0.169 OA 
HETATM    9  C   UNL     1     -10.197   8.165  68.791  1.00  0.00    -0.207 C  
HETATM   10  O   UNL     1     -11.775  10.065  69.636  1.00  0.00    -0.158 OA 
HETATM   11  C   UNL     1     -11.197  12.445  66.027  1.00  0.00    -0.335 A  
HETATM   12  C   UNL     1      -9.634   8.418  66.360  1.00  0.00    -0.307 C  
HETATM   13  C   UNL     1      -9.140   7.947  67.726  1.00  0.00    -0.138 C  
ENDROOT
BRANCH  11  14
HETATM   14  S   UNL     1     -11.966  14.048  65.980  1.00  0.00    -0.436 S  
HETATM   15  O   UNL     1     -13.242  13.992  65.306  1.00  0.00    -0.782 OA 
HETATM   16  N   UNL     1     -12.315  14.272  67.609  1.00  0.00    -0.582 N  
HETATM   17  O   UNL     1     -10.974  15.041  65.650  1.00  0.00    -0.331 OA 
HETATM   18  H1  UNL     1     -12.757  15.192  67.582  1.00  0.00     0.000 HD 
HETATM   19  H2  UNL     1     -12.135  13.659  68.404  1.00  0.00     0.000 HD 
ENDBRANCH  11  14
TORSDOF 1
ENDMDL
MODEL       11
REMARK 921   NORMALIZED FREE ENERGY PREDICTED BY IDOCK:   -5.66 KCAL/MOL
REMARK 922        TOTAL FREE ENERGY PREDICTED BY IDOCK:   -5.83 KCAL/MOL
REMARK 923 INTER-LIGAND FREE ENERGY PREDICTED BY IDOCK:   -5.82 KCAL/MOL
REMARK 924 INTRA-LIGAND FREE ENERGY PREDICTED BY IDOCK:   -0.01 KCAL/MOL
REMARK 927      BINDING AFFINITY PREDICTED BY RF-SCORE:    0.00 PKD
ROOT
HETATM    1  C   UNL     1      -7.798  14.593  68.805  1.00  0.00    -0.146 C  
HETATM    2  C   UNL     1      -8.935  14.549  67.822  1.00  0.00    -0.190 A  
HETATM    3  C   UNL     1      -9.046  13.421  66.983  1.00  0.00    -0.245 A  
HETATM    4  C   UNL     1     -10.063  13.297  66.019  1.00  0.00    -0.301 A  
HETATM    5  C   UNL     1     -10.987  14.341  65.912  1.00  0.00    -0.304 A  
HETATM    6  C   UNL     1     -10.910  15.468  66.735  1.00  0.00    -0.291 A  
HETATM    7  S   UNL     1     -12.260  14.332  64.681  1.00  0.00    -0.433 S  
HETATM    8  O   UNL     1     -13.484  13.942  65.354  1.00  0.00    -0.672 OA 
HETATM    9  C   UNL     1     -11.786  13.027  63.577  1.00  0.00    -0.516 C  
HETATM   10  O   UNL     1     -12.156  15.584  63.957  1.00  0.00    -0.583 OA 
HETATM   11  C   UNL     1      -9.876  15.582  67.674  1.00  0.00    -0.213 A  
HETATM   12  C   UNL     1     -10.042  12.088  65.117  1.00  0.00    -0.295 C  
HETATM   13  C   UNL     1     -11.340  11.810  64.362  1.00  0.00    -0.373 C  
ENDROOT
BRANCH  11  14
HETATM   14  S   UNL     1      -9.811  17.107  68.587  1.00  0.00    -0.314 S  
HETATM   15  O   UNL     1      -8.481  17.669  68.565  1.00  0.00    -0.282 OA 
HETATM   16  N   UNL     1     -10.747  18.097  67.604  1.00  0.00    -0.399 N  
HETATM   17  O   UNL     1     -10.554  16.957  69.815  1.00  0.00    -0.265 OA 
HETATM   18  H1  UNL     1     -10.709  18.972  68.128  1.00  0.00     0.000 HD 
HETATM   19  H2  UNL     1     -11.220  17.883  66.726  1.00  0.00     0.000 HD 
ENDBRANCH  11  14
TORSDOF 1
ENDMDL
MODEL       12
REMARK 921   NORMALIZED FREE ENERGY PREDICTED BY IDOCK:   -5.62 KCAL/MOL
REMARK 922        TOTAL FREE ENERGY PREDICTED BY IDOCK:   -5.79 KCAL/MOL
REMARK 923 INTER-LIGAND FREE ENERGY PREDICTED BY IDOCK:   -5.67 KCAL/MOL
REMARK 924 INTRA-LIGAND FREE ENERGY PREDICTED BY IDOCK:   -0.12 KCAL/MOL
REMARK 927      BINDING AFFINITY PREDICTED BY RF-SCORE:    0.00 PKD
ROOT
HETATM    1  C   UNL     1      -7.234  16.252  67.469  1.00  0.00    -0.179 C  
HETATM    2  C   UNL     1      -8.518  15.784  66.842  1.00  0.00    -0.281 A  
HETATM    3  C   UNL     1      -8.670  14.404  66.590  1.00  0.00    -0.131 A  
HETATM    4  C   UNL     1      -9.826  13.873  65.988  1.00  0.00    -0.306 A  
HETATM    5  C   UNL     1     -10.847  14.764  65.643  1.00  0.00    -0.339 A  
HETATM    6  C   UNL     1     -10.730  16.135  65.889  1.00  0.00    -0.261 A  
HETATM    7  S   UNL     1     -12.312  14.220  64.809  1.00  0.00    -0.382 S  
HETATM    8  O   UNL     1     -13.355  14.144  65.812  1.00  0.00    -0.503 OA 
HETATM    9  C   UNL     1     -11.921  12.573  64.278  1.00  0.00    -0.408 C  
HETATM   10  O   UNL     1     -12.453  15.045  63.624  1.00  0.00    -0.667 OA 
HETATM   11  C   UNL     1      -9.561  16.647  66.468  1.00  0.00    -0.273 A  
HETATM   12  C   UNL     1      -9.854  12.395  65.687  1.00  0.00    -0.235 C  
HETATM   13  C   UNL     1     -11.233  11.811  65.392  1.00  0.00    -0.310 C  
ENDROOT
BRANCH  11  14
HETATM   14  S   UNL     1      -9.477  18.416  66.631  1.00  0.00    -0.321 S  
HETATM   15  O   UNL     1      -8.356  18.952  65.897  1.00  0.00    -0.483 OA 
HETATM   16  N   UNL     1     -10.849  18.872  65.774  1.00  0.00    -0.294 N  
HETATM   17  O   UNL     1      -9.733  18.779  68.003  1.00  0.00    -0.299 OA 
HETATM   18  H1  UNL     1     -10.801  19.887  65.867  1.00  0.00     0.000 HD 
HETATM   19  H2  UNL     1     -11.539  18.293  65.293  1.00  0.00     0.000 HD 
ENDBRANCH  11  14
TORSDOF 1
ENDMDL
MODEL       13
REMARK 921   NORMALIZED FREE ENERGY PREDICTED BY IDOCK:   -5.61 KCAL/MOL
REMARK 922        TOTAL FREE ENERGY PREDICTED BY IDOCK:   -5.78 KCAL/MOL
REMARK 923 INTER-LIGAND FREE ENERGY PREDICTED BY IDOCK:   -6.29 KCAL/MOL
REMARK 924 INTRA-LIGAND FREE ENERGY PREDICTED BY IDOCK:    0.51 KCAL/MOL
REMARK 927      BINDING AFFINITY PREDICTED BY RF-SCORE:    0.00 PKD
ROOT
HETATM    1  C   UNL     1     -11.995  13.766  70.303  1.00  0.00    -0.397 C  
HETATM    2  C   UNL     1     -11.463  14.635  69.198  1.00  0.00    -0.320 A  
HETATM    3  C   UNL     1     -11.187  15.987  69.490  1.00  0.00    -0.348 A  
HETATM    4  C   UNL     1     -10.706  16.884  68.518  1.00  0.00    -0.359 A  
HETATM    5  C   UNL     1     -10.497  16.391  67.226  1.00  0.00    -0.303 A  
HETATM    6  C   UNL     1     -10.752  15.054  66.908  1.00  0.00    -0.308 A  
HETATM    7  S   UNL     1      -9.972  17.445  65.903  1.00  0.00    -0.078 S  
HETATM    8  O   UNL     1      -8.554  17.204  65.720  1.00  0.00    -0.525 OA 
HETATM    9  C   UNL     1     -10.184  19.085  66.546  1.00  0.00    -0.421 C  
HETATM   10  O   UNL     1     -10.921  17.268  64.821  1.00  0.00    -0.950 OA 
HETATM   11  C   UNL     1     -11.252  14.183  67.885  1.00  0.00    -0.279 A  
HETATM   12  C   UNL     1     -10.522  18.327  68.914  1.00  0.00    -0.041 C  
HETATM   13  C   UNL     1      -9.663  19.164  67.968  1.00  0.00    -0.414 C  
ENDROOT
BRANCH  11  14
HETATM   14  S   UNL     1     -11.646  12.536  67.339  1.00  0.00    -0.370 S  
HETATM   15  O   UNL     1     -12.417  12.564  66.120  1.00  0.00    -0.522 OA 
HETATM   16  N   UNL     1     -10.120  11.980  66.907  1.00  0.00    -0.204 N  
HETATM   17  O   UNL     1     -12.045  11.743  68.476  1.00  0.00    -0.454 OA 
HETATM   18  H1  UNL     1     -10.345  11.036  66.594  1.00  0.00     0.000 HD 
HETATM   19  H2  UNL     1      -9.218  12.456  66.947  1.00  0.00     0.000 HD 
ENDBRANCH  11  14
TORSDOF 1
ENDMDL
MODEL       14
REMARK 921   NORMALIZED FREE ENERGY PREDICTED BY IDOCK:   -5.55 KCAL/MOL
REMARK 922        TOTAL FREE ENERGY PREDICTED BY IDOCK:   -5.71 KCAL/MOL
REMARK 923 INTER-LIGAND FREE ENERGY PREDICTED BY IDOCK:   -5.58 KCAL/MOL
REMARK 924 INTRA-LIGAND FREE ENERGY PREDICTED BY IDOCK:   -0.13 KCAL/MOL
REMARK 927      BINDING AFFINITY PREDICTED BY RF-SCORE:    0.00 PKD
ROOT
HETATM    1  C   UNL     1     -13.296  12.753  72.290  1.00  0.00    -0.563 C  
HETATM    2  C   UNL     1     -12.543  12.948  71.003  1.00  0.00    -0.376 A  
HETATM    3  C   UNL     1     -12.423  14.258  70.495  1.00  0.00    -0.428 A  
HETATM    4  C   UNL     1     -11.754  14.538  69.288  1.00  0.00    -0.350 A  
HETATM    5  C   UNL     1     -11.194  13.463  68.591  1.00  0.00    -0.269 A  
HETATM    6  C   UNL     1     -11.288  12.155  69.074  1.00  0.00    -0.329 A  
HETATM    7  S   UNL     1     -10.400  13.685  67.024  1.00  0.00    -0.261 S  
HETATM    8  O   UNL     1      -8.973  13.660  67.275  1.00  0.00    -0.204 OA 
HETATM    9  C   UNL     1     -10.856  15.329  66.537  1.00  0.00    -0.311 C  
HETATM   10  O   UNL     1     -11.027  12.760  66.099  1.00  0.00    -0.274 OA 
HETATM   11  C   UNL     1     -11.978  11.894  70.266  1.00  0.00    -0.330 A  
HETATM   12  C   UNL     1     -11.754  15.962  68.792  1.00  0.00    -0.355 C  
HETATM   13  C   UNL     1     -10.725  16.280  67.709  1.00  0.00    -0.325 C  
ENDROOT
BRANCH  11  14
HETATM   14  S   UNL     1     -12.130  10.182  70.724  1.00  0.00    -0.363 S  
HETATM   15  O   UNL     1     -13.516   9.779  70.770  1.00  0.00    -0.252 OA 
HETATM   16  N   UNL     1     -11.478   9.438  69.367  1.00  0.00    -0.430 N  
HETATM   17  O   UNL     1     -11.218   9.898  71.805  1.00  0.00    -0.154 OA 
HETATM   18  H1  UNL     1     -11.565   8.456  69.630  1.00  0.00     0.000 HD 
HETATM   19  H2  UNL     1     -11.099   9.853  68.515  1.00  0.00     0.000 HD 
ENDBRANCH  11  14
TORSDOF 1
ENDMDL
MODEL       15
REMARK 921   NORMALIZED FREE ENERGY PREDICTED BY IDOCK:   -5.53 KCAL/MOL
REMARK 922        TOTAL FREE ENERGY PREDICTED BY IDOCK:   -5.69 KCAL/MOL
REMARK 923 INTER-LIGAND FREE ENERGY PREDICTED BY IDOCK:   -5.90 KCAL/MOL
REMARK 924 INTRA-LIGAND FREE ENERGY PREDICTED BY IDOCK:    0.21 KCAL/MOL
REMARK 927      BINDING AFFINITY PREDICTED BY RF-SCORE:    0.00 PKD
ROOT
HETATM    1  C   UNL     1     -13.878  14.805  72.445  1.00  0.00    -0.578 C  
HETATM    2  C   UNL     1     -13.200  13.678  71.717  1.00  0.00    -0.477 A  
HETATM    3  C   UNL     1     -13.511  12.356  72.101  1.00  0.00    -0.481 A  
HETATM    4  C   UNL     1     -12.913  11.237  71.493  1.00  0.00    -0.520 A  
HETATM    5  C   UNL     1     -11.988  11.468  70.471  1.00  0.00    -0.344 A  
HETATM    6  C   UNL     1     -11.666  12.765  70.062  1.00  0.00    -0.282 A  
HETATM    7  S   UNL     1     -11.114  10.141  69.690  1.00  0.00    -0.269 S  
HETATM    8  O   UNL     1     -11.762   9.913  68.414  1.00  0.00     0.054 OA 
HETATM    9  C   UNL     1     -11.427   8.742  70.736  1.00  0.00    -0.270 C  
HETATM   10  O   UNL     1      -9.701  10.454  69.782  1.00  0.00    -0.182 OA 
HETATM   11  C   UNL     1     -12.255  13.868  70.695  1.00  0.00    -0.373 A  
HETATM   12  C   UNL     1     -13.253   9.870  72.034  1.00  0.00    -0.555 C  
HETATM   13  C   UNL     1     -12.890   8.696  71.128  1.00  0.00    -0.118 C  
ENDROOT
BRANCH  11  14
HETATM   14  S   UNL     1     -11.688  15.470  70.169  1.00  0.00    -0.378 S  
HETATM   15  O   UNL     1     -11.711  16.413  71.261  1.00  0.00    -0.403 OA 
HETATM   16  N   UNL     1     -10.066  15.143  69.877  1.00  0.00    -0.467 N  
HETATM   17  O   UNL     1     -12.265  15.778  68.883  1.00  0.00    -0.258 OA 
HETATM   18  H1  UNL     1      -9.740  16.062  69.575  1.00  0.00     0.000 HD 
HETATM   19  H2  UNL     1      -9.549  14.269  69.974  1.00  0.00     0.000 HD 
ENDBRANCH  11  14
TORSDOF 1
ENDMDL
MODEL       16
REMARK 921   NORMALIZED FREE ENERGY PREDICTED BY IDOCK:   -5.52 KCAL/MOL
REMARK 922        TOTAL FREE ENERGY PREDICTED BY IDOCK:   -5.68 KCAL/MOL
REMARK 923 INTER-LIGAND FREE ENERGY PREDICTED BY IDOCK:   -5.54 KCAL/MOL
REMARK 924 INTRA-LIGAND FREE ENERGY PREDICTED BY IDOCK:   -0.14 KCAL/MOL
REMARK 927      BINDING AFFINITY PREDICTED BY RF-SCORE:    0.00 PKD
ROOT
HETATM    1  C   UNL     1      -8.918  13.406  66.778  1.00  0.00    -0.190 C  
HETATM    2  C   UNL     1      -9.168  14.877  66.966  1.00  0.00    -0.249 A  
HETATM    3  C   UNL     1      -8.200  15.782  66.485  1.00  0.00    -0.278 A  
HETATM    4  C   UNL     1      -8.335  17.175  66.631  1.00  0.00    -0.286 A  
HETATM    5  C   UNL     1      -9.480  17.654  67.274  1.00  0.00    -0.257 A  
HETATM    6  C   UNL     1     -10.462  16.783  67.753  1.00  0.00    -0.335 A  
HETATM    7  S   UNL     1      -9.718  19.381  67.586  1.00  0.00    -0.351 S  
HETATM    8  O   UNL     1     -10.650  19.858  66.584  1.00  0.00    -0.468 OA 
HETATM    9  C   UNL     1      -8.130  20.102  67.264  1.00  0.00    -0.330 C  
HETATM   10  O   UNL     1      -9.987  19.520  69.004  1.00  0.00    -0.442 OA 
HETATM   11  C   UNL     1     -10.299  15.397  67.618  1.00  0.00    -0.262 A  
HETATM   12  C   UNL     1      -7.203  18.051  66.155  1.00  0.00    -0.325 C  
HETATM   13  C   UNL     1      -7.542  19.531  65.989  1.00  0.00    -0.326 C  
ENDROOT
BRANCH  11  14
HETATM   14  S   UNL     1     -11.555  14.383  68.364  1.00  0.00    -0.335 S  
HETATM   15  O   UNL     1     -11.006  13.571  69.423  1.00  0.00    -0.173 OA 
HETATM   16  N   UNL     1     -12.492  15.555  69.120  1.00  0.00    -0.595 N  
HETATM   17  O   UNL     1     -12.388  13.822  67.328  1.00  0.00    -0.337 OA 
HETATM   18  H1  UNL     1     -13.213  14.973  69.548  1.00  0.00     0.000 HD 
HETATM   19  H2  UNL     1     -12.372  16.568  69.145  1.00  0.00     0.000 HD 
ENDBRANCH  11  14
TORSDOF 1
ENDMDL
MODEL       17
REMARK 921   NORMALIZED FREE ENERGY PREDICTED BY IDOCK:   -5.52 KCAL/MOL
REMARK 922        TOTAL FREE ENERGY PREDICTED BY IDOCK:   -5.68 KCAL/MOL
REMARK 923 INTER-LIGAND FREE ENERGY PREDICTED BY IDOCK:   -5.75 KCAL/MOL
REMARK 924 INTRA-LIGAND FREE ENERGY PREDICTED BY IDOCK:    0.07 KCAL/MOL
REMARK 927      BINDING AFFINITY PREDICTED BY RF-SCORE:    0.00 PKD
ROOT
HETATM    1  C   UNL     1     -12.427   8.816  71.364  1.00  0.00    -0.348 C  
HETATM    2  C   UNL     1     -12.308  10.288  71.086  1.00  0.00    -0.501 A  
HETATM    3  C   UNL     1     -13.157  11.169  71.788  1.00  0.00    -0.536 A  
HETATM    4  C   UNL     1     -13.134  12.560  71.581  1.00  0.00    -0.414 A  
HETATM    5  C   UNL     1     -12.224  13.064  70.647  1.00  0.00    -0.307 A  
HETATM    6  C   UNL     1     -11.362  12.218  69.943  1.00  0.00    -0.084 A  
HETATM    7  S   UNL     1     -12.161  14.788  70.246  1.00  0.00    -0.355 S  
HETATM    8  O   UNL     1     -11.022  15.336  70.954  1.00  0.00    -0.312 OA 
HETATM    9  C   UNL     1     -13.641  15.453  70.963  1.00  0.00    -0.395 C  
HETATM   10  O   UNL     1     -12.284  14.890  68.804  1.00  0.00    -0.209 OA 
HETATM   11  C   UNL     1     -11.416  10.833  70.146  1.00  0.00    -0.331 A  
HETATM   12  C   UNL     1     -14.141  13.404  72.322  1.00  0.00    -0.515 C  
HETATM   13  C   UNL     1     -13.842  14.901  72.360  1.00  0.00    -0.587 C  
ENDROOT
BRANCH  11  14
HETATM   14  S   UNL     1     -10.354   9.847  69.115  1.00  0.00    -0.223 S  
HETATM   15  O   UNL     1     -10.999   9.522  67.865  1.00  0.00    -0.229 OA 
HETATM   16  N   UNL     1      -9.159  10.967  68.740  1.00  0.00    -0.229 N  
HETATM   17  O   UNL     1      -9.710   8.840  69.923  1.00  0.00    -0.172 OA 
HETATM   18  H1  UNL     1      -8.549  10.401  68.149  1.00  0.00     0.000 HD 
HETATM   19  H2  UNL     1      -9.068  11.942  69.025  1.00  0.00     0.000 HD 
ENDBRANCH  11  14
TORSDOF 1
ENDMDL
MODEL       18
REMARK 921   NORMALIZED FREE ENERGY PREDICTED BY IDOCK:   -5.50 KCAL/MOL
REMARK 922        TOTAL FREE ENERGY PREDICTED BY IDOCK:   -5.66 KCAL/MOL
REMARK 923 INTER-LIGAND FREE ENERGY PREDICTED BY IDOCK:   -5.52 KCAL/MOL
REMARK 924 INTRA-LIGAND FREE ENERGY PREDICTED BY IDOCK:   -0.15 KCAL/MOL
REMARK 927      BINDING AFFINITY PREDICTED BY RF-SCORE:    0.00 PKD
ROOT
HETATM    1  C   UNL     1     -10.137   9.460  66.347  1.00  0.00    -0.332 C  
HETATM    2  C   UNL     1     -10.438   9.133  67.783  1.00  0.00    -0.306 A  
HETATM    3  C   UNL     1     -10.421   7.778  68.175  1.00  0.00    -0.230 A  
HETATM    4  C   UNL     1     -10.709   7.372  69.491  1.00  0.00    -0.233 A  
HETATM    5  C   UNL     1     -11.014   8.365  70.426  1.00  0.00    -0.239 A  
HETATM    6  C   UNL     1     -11.028   9.717  70.072  1.00  0.00    -0.319 A  
HETATM    7  S   UNL     1     -11.471   7.967  72.090  1.00  0.00    -0.362 S  
HETATM    8  O   UNL     1     -10.300   8.210  72.910  1.00  0.00    -0.318 OA 
HETATM    9  C   UNL     1     -11.775   6.220  72.049  1.00  0.00    -0.322 C  
HETATM   10  O   UNL     1     -12.734   8.630  72.351  1.00  0.00    -0.383 OA 
HETATM   11  C   UNL     1     -10.761  10.100  68.750  1.00  0.00    -0.220 A  
HETATM   12  C   UNL     1     -10.745   5.893  69.784  1.00  0.00    -0.411 C  
HETATM   13  C   UNL     1     -10.687   5.515  71.263  1.00  0.00    -0.288 C  
ENDROOT
BRANCH  11  14
HETATM   14  S   UNL     1     -10.919  11.834  68.389  1.00  0.00    -0.251 S  
HETATM   15  O   UNL     1     -11.991  12.074  67.453  1.00  0.00    -0.583 OA 
HETATM   16  N   UNL     1     -11.462  12.411  69.870  1.00  0.00    -0.513 N  
HETATM   17  O   UNL     1      -9.605  12.402  68.204  1.00  0.00    -0.208 OA 
HETATM   18  H1  UNL     1     -11.553  13.406  69.663  1.00  0.00     0.000 HD 
HETATM   19  H2  UNL     1     -11.650  11.907  70.737  1.00  0.00     0.000 HD 
ENDBRANCH  11  14
TORSDOF 1
ENDMDL
MODEL       19
REMARK 921   NORMALIZED FREE ENERGY PREDICTED BY IDOCK:   -5.47 KCAL/MOL
REMARK 922        TOTAL FREE ENERGY PREDICTED BY IDOCK:   -5.62 KCAL/MOL
REMARK 923 INTER-LIGAND FREE ENERGY PREDICTED BY IDOCK:   -5.56 KCAL/MOL
REMARK 924 INTRA-LIGAND FREE ENERGY PREDICTED BY IDOCK:   -0.07 KCAL/MOL
REMARK 927      BINDING AFFINITY PREDICTED BY RF-SCORE:    0.00 PKD
ROOT
HETATM    1  C   UNL     1     -11.134  17.455  68.237  1.00  0.00    -0.010 C  
HETATM    2  C   UNL     1     -11.187  15.957  68.354  1.00  0.00    -0.368 A  
HETATM    3  C   UNL     1     -11.797  15.401  69.498  1.00  0.00    -0.370 A  
HETATM    4  C   UNL     1     -11.878  14.012  69.706  1.00  0.00    -0.385 A  
HETATM    5  C   UNL     1     -11.333  13.175  68.728  1.00  0.00    -0.291 A  
HETATM    6  C   UNL     1     -10.731  13.695  67.579  1.00  0.00    -0.266 A  
HETATM    7  S   UNL     1     -11.304  11.415  68.922  1.00  0.00    -0.301 S  
HETATM    8  O   UNL     1     -12.381  10.891  68.105  1.00  0.00    -0.306 OA 
HETATM    9  C   UNL     1     -11.720  11.160  70.628  1.00  0.00    -0.207 C  
HETATM   10  O   UNL     1      -9.930  10.991  68.734  1.00  0.00    -0.195 OA 
HETATM   11  C   UNL     1     -10.640  15.082  67.401  1.00  0.00    -0.271 A  
HETATM   12  C   UNL     1     -12.476  13.523  71.002  1.00  0.00    -0.451 C  
HETATM   13  C   UNL     1     -12.881  12.051  71.025  1.00  0.00    -0.279 C  
ENDROOT
BRANCH  11  14
HETATM   14  S   UNL     1      -9.755  15.631  65.958  1.00  0.00    -0.367 S  
HETATM   15  O   UNL     1      -8.393  15.976  66.285  1.00  0.00    -0.308 OA 
HETATM   16  N   UNL     1      -9.670  14.198  65.084  1.00  0.00    -0.552 N  
HETATM   17  O   UNL     1     -10.601  16.511  65.189  1.00  0.00    -0.632 OA 
HETATM   18  H1  UNL     1      -9.163  14.513  64.256  1.00  0.00     0.000 HD 
HETATM   19  H2  UNL     1     -10.027  13.271  65.316  1.00  0.00     0.000 HD 
ENDBRANCH  11  14
TORSDOF 1
ENDMDL
MODEL       20
REMARK 921   NORMALIZED FREE ENERGY PREDICTED BY IDOCK:   -5.43 KCAL/MOL
REMARK 922        TOTAL FREE ENERGY PREDICTED BY IDOCK:   -5.59 KCAL/MOL
REMARK 923 INTER-LIGAND FREE ENERGY PREDICTED BY IDOCK:   -5.53 KCAL/MOL
REMARK 924 INTRA-LIGAND FREE ENERGY PREDICTED BY IDOCK:   -0.06 KCAL/MOL
REMARK 927      BINDING AFFINITY PREDICTED BY RF-SCORE:    0.00 PKD
ROOT
HETATM    1  C   UNL     1      -9.267  15.995  66.075  1.00  0.00    -0.375 C  
HETATM    2  C   UNL     1      -9.999  15.768  67.369  1.00  0.00    -0.237 A  
HETATM    3  C   UNL     1     -10.437  14.460  67.665  1.00  0.00    -0.245 A  
HETATM    4  C   UNL     1     -11.147  14.153  68.840  1.00  0.00    -0.288 A  
HETATM    5  C   UNL     1     -11.409  15.197  69.733  1.00  0.00    -0.285 A  
HETATM    6  C   UNL     1     -10.980  16.501  69.473  1.00  0.00    -0.289 A  
HETATM    7  S   UNL     1     -12.363  14.944  71.203  1.00  0.00    -0.356 S  
HETATM    8  O   UNL     1     -11.419  14.867  72.301  1.00  0.00    -0.301 OA 
HETATM    9  C   UNL     1     -13.092  13.343  70.977  1.00  0.00    -0.113 C  
HETATM   10  O   UNL     1     -13.433  15.923  71.186  1.00  0.00    -0.502 OA 
HETATM   11  C   UNL     1     -10.294  16.791  68.285  1.00  0.00    -0.319 A  
HETATM   12  C   UNL     1     -11.641  12.740  69.021  1.00  0.00    -0.366 C  
HETATM   13  C   UNL     1     -12.063  12.368  70.441  1.00  0.00    -0.381 C  
ENDROOT
BRANCH  11  14
HETATM   14  S   UNL     1      -9.896  18.502  68.008  1.00  0.00    -0.361 S  
HETATM   15  O   UNL     1     -10.877  19.132  67.156  1.00  0.00    -0.464 OA 
HETATM   16  N   UNL     1     -10.148  19.132  69.545  1.00  0.00    -0.377 N  
HETATM   17  O   UNL     1      -8.480  18.626  67.760  1.00  0.00    -0.268 OA 
HETATM   18  H1  UNL     1      -9.920  20.114  69.386  1.00  0.00     0.000 HD 
HETATM   19  H2  UNL     1     -10.447  18.663  70.401  1.00  0.00     0.000 HD 
ENDBRANCH  11  14
TORSDOF 1
ENDMDL
MODEL       21
REMARK 921   NORMALIZED FREE ENERGY PREDICTED BY IDOCK:   -5.43 KCAL/MOL
REMARK 922        TOTAL FREE ENERGY PREDICTED BY IDOCK:   -5.58 KCAL/MOL
REMARK 923 INTER-LIGAND FREE ENERGY PREDICTED BY IDOCK:   -5.80 KCAL/MOL
REMARK 924 INTRA-LIGAND FREE ENERGY PREDICTED BY IDOCK:    0.22 KCAL/MOL
REMARK 927      BINDING AFFINITY PREDICTED BY RF-SCORE:    0.00 PKD
ROOT
HETATM    1  C   UNL     1     -10.701  11.565  66.253  1.00  0.00    -0.321 C  
HETATM    2  C   UNL     1     -11.142  12.363  67.448  1.00  0.00    -0.320 A  
HETATM    3  C   UNL     1     -11.639  11.664  68.567  1.00  0.00    -0.379 A  
HETATM    4  C   UNL     1     -12.094  12.323  69.724  1.00  0.00    -0.298 A  
HETATM    5  C   UNL     1     -12.036  13.720  69.742  1.00  0.00    -0.344 A  
HETATM    6  C   UNL     1     -11.539  14.441  68.653  1.00  0.00    -0.347 A  
HETATM    7  S   UNL     1     -12.655  14.659  71.110  1.00  0.00    -0.362 S  
HETATM    8  O   UNL     1     -11.502  15.067  71.888  1.00  0.00    -0.389 OA 
HETATM    9  C   UNL     1     -13.583  13.481  72.058  1.00  0.00    -0.499 C  
HETATM   10  O   UNL     1     -13.590  15.626  70.570  1.00  0.00    -0.351 OA 
HETATM   11  C   UNL     1     -11.112  13.767  67.501  1.00  0.00    -0.278 A  
HETATM   12  C   UNL     1     -12.684  11.486  70.832  1.00  0.00    -0.372 C  
HETATM   13  C   UNL     1     -12.812  12.182  72.185  1.00  0.00    -0.128 C  
ENDROOT
BRANCH  11  14
HETATM   14  S   UNL     1     -10.606  14.790  66.136  1.00  0.00    -0.324 S  
HETATM   15  O   UNL     1     -10.574  16.182  66.515  1.00  0.00    -0.308 OA 
HETATM   16  N   UNL     1      -9.000  14.319  65.975  1.00  0.00    -0.434 N  
HETATM   17  O   UNL     1     -11.269  14.342  64.936  1.00  0.00    -0.344 OA 
HETATM   18  H1  UNL     1      -8.710  14.906  65.192  1.00  0.00     0.000 HD 
HETATM   19  H2  UNL     1      -8.465  13.636  66.511  1.00  0.00     0.000 HD 
ENDBRANCH  11  14
TORSDOF 1
ENDMDL
MODEL       22
REMARK 921   NORMALIZED FREE ENERGY PREDICTED BY IDOCK:   -5.42 KCAL/MOL
REMARK 922        TOTAL FREE ENERGY PREDICTED BY IDOCK:   -5.57 KCAL/MOL
REMARK 923 INTER-LIGAND FREE ENERGY PREDICTED BY IDOCK:   -5.43 KCAL/MOL
REMARK 924 INTRA-LIGAND FREE ENERGY PREDICTED BY IDOCK:   -0.15 KCAL/MOL
REMARK 927      BINDING AFFINITY PREDICTED BY RF-SCORE:    0.00 PKD
ROOT
HETATM    1  C   UNL     1     -10.329  18.161  66.163  1.00  0.00    -0.394 C  
HETATM    2  C   UNL     1     -10.518  16.670  66.168  1.00  0.00    -0.291 A  
HETATM    3  C   UNL     1     -11.092  16.068  65.029  1.00  0.00    -0.345 A  
HETATM    4  C   UNL     1     -11.327  14.683  64.947  1.00  0.00    -0.403 A  
HETATM    5  C   UNL     1     -10.965  13.897  66.045  1.00  0.00    -0.285 A  
HETATM    6  C   UNL     1     -10.384  14.461  67.184  1.00  0.00    -0.262 A  
HETATM    7  S   UNL     1     -11.287  12.156  66.088  1.00  0.00    -0.366 S  
HETATM    8  O   UNL     1     -10.031  11.495  65.792  1.00  0.00    -0.216 OA 
HETATM    9  C   UNL     1     -12.395  11.887  64.729  1.00  0.00     0.057 C  
HETATM   10  O   UNL     1     -12.017  11.892  67.312  1.00  0.00    -0.605 OA 
HETATM   11  C   UNL     1     -10.179  15.846  67.255  1.00  0.00    -0.278 A  
HETATM   12  C   UNL     1     -12.023  14.153  63.718  1.00  0.00    -0.156 C  
HETATM   13  C   UNL     1     -11.920  12.644  63.505  1.00  0.00    -0.630 C  
ENDROOT
BRANCH  11  14
HETATM   14  S   UNL     1      -9.539  16.466  68.794  1.00  0.00    -0.257 S  
HETATM   15  O   UNL     1     -10.495  17.331  69.443  1.00  0.00    -0.313 OA 
HETATM   16  N   UNL     1      -9.502  15.055  69.705  1.00  0.00    -0.446 N  
HETATM   17  O   UNL     1      -8.161  16.854  68.613  1.00  0.00    -0.235 OA 
HETATM   18  H1  UNL     1      -9.134  15.410  70.588  1.00  0.00     0.000 HD 
HETATM   19  H2  UNL     1      -9.772  14.105  69.447  1.00  0.00     0.000 HD 
ENDBRANCH  11  14
TORSDOF 1
ENDMDL
MODEL       23
REMARK 921   NORMALIZED FREE ENERGY PREDICTED BY IDOCK:   -5.42 KCAL/MOL
REMARK 922        TOTAL FREE ENERGY PREDICTED BY IDOCK:   -5.57 KCAL/MOL
REMARK 923 INTER-LIGAND FREE ENERGY PREDICTED BY IDOCK:   -5.57 KCAL/MOL
REMARK 924 INTRA-LIGAND FREE ENERGY PREDICTED BY IDOCK:   -0.00 KCAL/MOL
REMARK 927      BINDING AFFINITY PREDICTED BY RF-SCORE:    0.00 PKD
ROOT
HETATM    1  C   UNL     1     -12.322   8.356  72.406  1.00  0.00    -0.412 C  
HETATM    2  C   UNL     1     -11.953   9.364  71.353  1.00  0.00    -0.446 A  
HETATM    3  C   UNL     1     -12.325  10.708  71.560  1.00  0.00    -0.414 A  
HETATM    4  C   UNL     1     -12.042  11.720  70.623  1.00  0.00    -0.407 A  
HETATM    5  C   UNL     1     -11.362  11.355  69.457  1.00  0.00    -0.289 A  
HETATM    6  C   UNL     1     -10.971  10.032  69.228  1.00  0.00    -0.264 A  
HETATM    7  S   UNL     1     -11.024  12.526  68.173  1.00  0.00    -0.244 S  
HETATM    8  O   UNL     1      -9.630  12.899  68.310  1.00  0.00    -0.218 OA 
HETATM    9  C   UNL     1     -12.025  13.929  68.592  1.00  0.00    -0.366 C  
HETATM   10  O   UNL     1     -11.544  11.964  66.941  1.00  0.00    -0.465 OA 
HETATM   11  C   UNL     1     -11.282   9.035  70.163  1.00  0.00    -0.171 A  
HETATM   12  C   UNL     1     -12.557  13.110  70.903  1.00  0.00    -0.377 C  
HETATM   13  C   UNL     1     -11.922  14.225  70.075  1.00  0.00    -0.396 C  
ENDROOT
BRANCH  11  14
HETATM   14  S   UNL     1     -10.836   7.373  69.714  1.00  0.00    -0.202 S  
HETATM   15  O   UNL     1     -11.942   6.468  69.911  1.00  0.00    -0.319 OA 
HETATM   16  N   UNL     1     -10.664   7.537  68.051  1.00  0.00    -0.412 N  
HETATM   17  O   UNL     1      -9.516   7.084  70.219  1.00  0.00    -0.165 OA 
HETATM   18  H1  UNL     1     -10.407   6.583  67.793  1.00  0.00     0.000 HD 
HETATM   19  H2  UNL     1     -10.783   8.361  67.461  1.00  0.00     0.000 HD 
ENDBRANCH  11  14
TORSDOF 1
ENDMDL
MODEL       24
REMARK 921   NORMALIZED FREE ENERGY PREDICTED BY IDOCK:   -5.41 KCAL/MOL
REMARK 922        TOTAL FREE ENERGY PREDICTED BY IDOCK:   -5.56 KCAL/MOL
REMARK 923 INTER-LIGAND FREE ENERGY PREDICTED BY IDOCK:   -5.41 KCAL/MOL
REMARK 924 INTRA-LIGAND FREE ENERGY PREDICTED BY IDOCK:   -0.15 KCAL/MOL
REMARK 927      BINDING AFFINITY PREDICTED BY RF-SCORE:    0.00 PKD
ROOT
HETATM    1  C   UNL     1      -9.247   7.334  68.071  1.00  0.00    -0.131 C  
HETATM    2  C   UNL     1      -9.797   8.631  67.546  1.00  0.00    -0.234 A  
HETATM    3  C   UNL     1      -9.622   8.922  66.177  1.00  0.00    -0.335 A  
HETATM    4  C   UNL     1     -10.084  10.118  65.598  1.00  0.00    -0.324 A  
HETATM    5  C   UNL     1     -10.742  11.031  66.427  1.00  0.00    -0.227 A  
HETATM    6  C   UNL     1     -10.940  10.767  67.786  1.00  0.00    -0.354 A  
HETATM    7  S   UNL     1     -11.294  12.603  65.826  1.00  0.00    -0.351 S  
HETATM    8  O   UNL     1     -12.722  12.484  65.609  1.00  0.00    -0.521 OA 
HETATM    9  C   UNL     1     -10.498  12.767  64.249  1.00  0.00    -0.399 C  
HETATM   10  O   UNL     1     -10.738  13.611  66.708  1.00  0.00    -0.271 OA 
HETATM   11  C   UNL     1     -10.452   9.580  68.349  1.00  0.00    -0.224 A  
HETATM   12  C   UNL     1      -9.772  10.367  64.143  1.00  0.00    -0.387 C  
HETATM   13  C   UNL     1     -10.594  11.467  63.474  1.00  0.00    -0.487 C  
ENDROOT
BRANCH  11  14
HETATM   14  S   UNL     1     -10.662   9.402  70.106  1.00  0.00    -0.260 S  
HETATM   15  O   UNL     1      -9.389   9.424  70.786  1.00  0.00    -0.253 OA 
HETATM   16  N   UNL     1     -11.408  10.861  70.478  1.00  0.00    -0.450 N  
HETATM   17  O   UNL     1     -11.646   8.380  70.365  1.00  0.00    -0.201 OA 
HETATM   18  H1  UNL     1     -11.529  10.759  71.487  1.00  0.00     0.000 HD 
HETATM   19  H2  UNL     1     -11.669  11.634  69.866  1.00  0.00     0.000 HD 
ENDBRANCH  11  14
TORSDOF 1
ENDMDL
MODEL       25
REMARK 921   NORMALIZED FREE ENERGY PREDICTED BY IDOCK:   -5.38 KCAL/MOL
REMARK 922        TOTAL FREE ENERGY PREDICTED BY IDOCK:   -5.53 KCAL/MOL
REMARK 923 INTER-LIGAND FREE ENERGY PREDICTED BY IDOCK:   -5.38 KCAL/MOL
REMARK 924 INTRA-LIGAND FREE ENERGY PREDICTED BY IDOCK:   -0.15 KCAL/MOL
REMARK 927      BINDING AFFINITY PREDICTED BY RF-SCORE:    0.00 PKD
ROOT
HETATM    1  C   UNL     1     -11.018   9.927  68.599  1.00  0.00    -0.222 C  
HETATM    2  C   UNL     1     -11.314  11.302  69.130  1.00  0.00    -0.349 A  
HETATM    3  C   UNL     1     -12.149  11.413  70.261  1.00  0.00    -0.459 A  
HETATM    4  C   UNL     1     -12.499  12.657  70.819  1.00  0.00    -0.357 A  
HETATM    5  C   UNL     1     -11.983  13.808  70.216  1.00  0.00    -0.326 A  
HETATM    6  C   UNL     1     -11.145  13.731  69.100  1.00  0.00    -0.282 A  
HETATM    7  S   UNL     1     -12.420  15.428  70.781  1.00  0.00    -0.448 S  
HETATM    8  O   UNL     1     -11.302  15.907  71.570  1.00  0.00    -0.379 OA 
HETATM    9  C   UNL     1     -13.796  15.152  71.866  1.00  0.00    -0.503 C  
HETATM   10  O   UNL     1     -12.907  16.160  69.627  1.00  0.00     0.166 OA 
HETATM   11  C   UNL     1     -10.826  12.483  68.546  1.00  0.00    -0.243 A  
HETATM   12  C   UNL     1     -13.465  12.668  71.977  1.00  0.00    -0.516 C  
HETATM   13  C   UNL     1     -13.521  13.970  72.773  1.00  0.00    -0.576 C  
ENDROOT
BRANCH  11  14
HETATM   14  S   UNL     1      -9.845  12.512  67.062  1.00  0.00    -0.221 S  
HETATM   15  O   UNL     1     -10.603  12.037  65.930  1.00  0.00    -0.249 OA 
HETATM   16  N   UNL     1      -9.671  14.168  66.838  1.00  0.00    -0.260 N  
HETATM   17  O   UNL     1      -8.524  12.014  67.358  1.00  0.00    -0.154 OA 
HETATM   18  H1  UNL     1      -9.108  14.185  65.987  1.00  0.00     0.000 HD 
HETATM   19  H2  UNL     1     -10.029  14.943  67.398  1.00  0.00     0.000 HD 
ENDBRANCH  11  14
TORSDOF 1
ENDMDL
MODEL       26
REMARK 921   NORMALIZED FREE ENERGY PREDICTED BY IDOCK:   -5.32 KCAL/MOL
REMARK 922        TOTAL FREE ENERGY PREDICTED BY IDOCK:   -5.47 KCAL/MOL
REMARK 923 INTER-LIGAND FREE ENERGY PREDICTED BY IDOCK:   -5.32 KCAL/MOL
REMARK 924 INTRA-LIGAND FREE ENERGY PREDICTED BY IDOCK:   -0.15 KCAL/MOL
REMARK 927      BINDING AFFINITY PREDICTED BY RF-SCORE:    0.00 PKD
ROOT
HETATM    1  C   UNL     1     -11.128  13.102  64.283  1.00  0.00    -0.426 C  
HETATM    2  C   UNL     1     -10.764  13.990  65.439  1.00  0.00    -0.344 A  
HETATM    3  C   UNL     1     -10.740  15.384  65.225  1.00  0.00    -0.439 A  
HETATM    4  C   UNL     1     -10.392  16.295  66.239  1.00  0.00    -0.335 A  
HETATM    5  C   UNL     1     -10.068  15.776  67.496  1.00  0.00    -0.245 A  
HETATM    6  C   UNL     1     -10.092  14.400  67.743  1.00  0.00    -0.226 A  
HETATM    7  S   UNL     1      -9.537  16.820  68.824  1.00  0.00    -0.259 S  
HETATM    8  O   UNL     1     -10.677  16.983  69.704  1.00  0.00    -0.283 OA 
HETATM    9  C   UNL     1      -9.203  18.377  68.044  1.00  0.00    -0.293 C  
HETATM   10  O   UNL     1      -8.276  16.286  69.303  1.00  0.00    -0.234 OA 
HETATM   11  C   UNL     1     -10.419  13.508  66.713  1.00  0.00    -0.273 A  
HETATM   12  C   UNL     1     -10.317  17.759  65.883  1.00  0.00    -0.257 C  
HETATM   13  C   UNL     1     -10.308  18.724  67.066  1.00  0.00    -0.454 C  
ENDROOT
BRANCH  11  14
HETATM   14  S   UNL     1     -10.308  11.778  67.110  1.00  0.00    -0.220 S  
HETATM   15  O   UNL     1      -9.245  11.142  66.368  1.00  0.00    -0.173 OA 
HETATM   16  N   UNL     1      -9.774  11.859  68.701  1.00  0.00    -0.347 N  
HETATM   17  O   UNL     1     -11.636  11.218  67.168  1.00  0.00    -0.513 OA 
HETATM   18  H1  UNL     1      -9.710  10.866  68.929  1.00  0.00     0.000 HD 
HETATM   19  H2  UNL     1      -9.571  12.674  69.279  1.00  0.00     0.000 HD 
ENDBRANCH  11  14
TORSDOF 1
ENDMDL
MODEL       27
REMARK 921   NORMALIZED FREE ENERGY PREDICTED BY IDOCK:   -5.32 KCAL/MOL
REMARK 922        TOTAL FREE ENERGY PREDICTED BY IDOCK:   -5.47 KCAL/MOL
REMARK 923 INTER-LIGAND FREE ENERGY PREDICTED BY IDOCK:   -5.32 KCAL/MOL
REMARK 924 INTRA-LIGAND FREE ENERGY PREDICTED BY IDOCK:   -0.15 KCAL/MOL
REMARK 927      BINDING AFFINITY PREDICTED BY RF-SCORE:    0.00 PKD
ROOT
HETATM    1  C   UNL     1      -9.436  11.510  67.565  1.00  0.00    -0.173 C  
HETATM    2  C   UNL     1      -9.312  12.984  67.296  1.00  0.00    -0.220 A  
HETATM    3  C   UNL     1      -8.568  13.766  68.204  1.00  0.00    -0.175 A  
HETATM    4  C   UNL     1      -8.412  15.156  68.048  1.00  0.00    -0.148 A  
HETATM    5  C   UNL     1      -9.020  15.758  66.943  1.00  0.00    -0.240 A  
HETATM    6  C   UNL     1      -9.755  15.009  66.019  1.00  0.00    -0.359 A  
HETATM    7  S   UNL     1      -8.960  17.510  66.688  1.00  0.00    -0.268 S  
HETATM    8  O   UNL     1      -7.952  17.746  65.673  1.00  0.00    -0.532 OA 
HETATM    9  C   UNL     1      -8.363  18.151  68.231  1.00  0.00    -0.291 C  
HETATM   10  O   UNL     1     -10.328  17.960  66.522  1.00  0.00    -0.357 OA 
HETATM   11  C   UNL     1      -9.918  13.630  66.205  1.00  0.00    -0.306 A  
HETATM   12  C   UNL     1      -7.667  15.910  69.121  1.00  0.00    -0.220 C  
HETATM   13  C   UNL     1      -7.204  17.314  68.736  1.00  0.00    -0.245 C  
ENDROOT
BRANCH  11  14
HETATM   14  S   UNL     1     -10.965  12.799  65.031  1.00  0.00    -0.301 S  
HETATM   15  O   UNL     1     -12.154  12.285  65.669  1.00  0.00    -0.557 OA 
HETATM   16  N   UNL     1     -11.470  14.098  64.093  1.00  0.00    -0.624 N  
HETATM   17  O   UNL     1     -10.151  11.981  64.165  1.00  0.00    -0.301 OA 
HETATM   18  H1  UNL     1     -12.071  13.622  63.419  1.00  0.00     0.000 HD 
HETATM   19  H2  UNL     1     -11.240  15.089  64.174  1.00  0.00     0.000 HD 
ENDBRANCH  11  14
TORSDOF 1
ENDMDL
MODEL       28
REMARK 921   NORMALIZED FREE ENERGY PREDICTED BY IDOCK:   -5.28 KCAL/MOL
REMARK 922        TOTAL FREE ENERGY PREDICTED BY IDOCK:   -5.43 KCAL/MOL
REMARK 923 INTER-LIGAND FREE ENERGY PREDICTED BY IDOCK:   -5.73 KCAL/MOL
REMARK 924 INTRA-LIGAND FREE ENERGY PREDICTED BY IDOCK:    0.31 KCAL/MOL
REMARK 927      BINDING AFFINITY PREDICTED BY RF-SCORE:    0.00 PKD
ROOT
HETATM    1  C   UNL     1     -10.236  16.040  65.674  1.00  0.00    -0.412 C  
HETATM    2  C   UNL     1     -10.865  15.495  66.926  1.00  0.00    -0.301 A  
HETATM    3  C   UNL     1     -10.732  16.241  68.116  1.00  0.00    -0.322 A  
HETATM    4  C   UNL     1     -11.268  15.803  69.341  1.00  0.00    -0.324 A  
HETATM    5  C   UNL     1     -11.957  14.586  69.353  1.00  0.00    -0.322 A  
HETATM    6  C   UNL     1     -12.114  13.829  68.188  1.00  0.00    -0.316 A  
HETATM    7  S   UNL     1     -12.603  13.898  70.851  1.00  0.00    -0.354 S  
HETATM    8  O   UNL     1     -14.027  14.168  70.850  1.00  0.00    -0.044 OA 
HETATM    9  C   UNL     1     -11.849  14.865  72.132  1.00  0.00    -0.310 C  
HETATM   10  O   UNL     1     -12.085  12.547  70.952  1.00  0.00    -0.285 OA 
HETATM   11  C   UNL     1     -11.553  14.271  66.982  1.00  0.00    -0.386 A  
HETATM   12  C   UNL     1     -10.999  16.635  70.570  1.00  0.00     0.053 C  
HETATM   13  C   UNL     1     -11.891  16.337  71.774  1.00  0.00    -0.510 C  
ENDROOT
BRANCH  11  14
HETATM   14  S   UNL     1     -11.718  13.174  65.592  1.00  0.00    -0.386 S  
HETATM   15  O   UNL     1     -12.116  11.853  66.018  1.00  0.00    -0.500 OA 
HETATM   16  N   UNL     1     -13.061  13.837  64.831  1.00  0.00    -0.642 N  
HETATM   17  O   UNL     1     -10.612  13.382  64.689  1.00  0.00    -0.372 OA 
HETATM   18  H1  UNL     1     -13.156  13.208  64.034  1.00  0.00     0.000 HD 
HETATM   19  H2  UNL     1     -13.626  14.646  65.094  1.00  0.00     0.000 HD 
ENDBRANCH  11  14
TORSDOF 1
ENDMDL
MODEL       29
REMARK 921   NORMALIZED FREE ENERGY PREDICTED BY IDOCK:   -5.26 KCAL/MOL
REMARK 922        TOTAL FREE ENERGY PREDICTED BY IDOCK:   -5.41 KCAL/MOL
REMARK 923 INTER-LIGAND FREE ENERGY PREDICTED BY IDOCK:   -5.26 KCAL/MOL
REMARK 924 INTRA-LIGAND FREE ENERGY PREDICTED BY IDOCK:   -0.14 KCAL/MOL
REMARK 927      BINDING AFFINITY PREDICTED BY RF-SCORE:    0.00 PKD
ROOT
HETATM    1  C   UNL     1     -13.640   9.924  71.273  1.00  0.00    -0.265 C  
HETATM    2  C   UNL     1     -12.219   9.448  71.391  1.00  0.00    -0.438 A  
HETATM    3  C   UNL     1     -11.926   8.461  72.355  1.00  0.00    -0.451 A  
HETATM    4  C   UNL     1     -10.624   7.967  72.554  1.00  0.00    -0.397 A  
HETATM    5  C   UNL     1      -9.603   8.484  71.751  1.00  0.00    -0.267 A  
HETATM    6  C   UNL     1      -9.862   9.456  70.780  1.00  0.00    -0.348 A  
HETATM    7  S   UNL     1      -7.914   7.997  71.967  1.00  0.00    -0.128 S  
HETATM    8  O   UNL     1      -7.620   7.044  70.915  1.00  0.00    -0.084 OA 
HETATM    9  C   UNL     1      -7.906   7.139  73.520  1.00  0.00    -0.096 C  
HETATM   10  O   UNL     1      -7.141   9.213  72.130  1.00  0.00    -0.324 OA 
HETATM   11  C   UNL     1     -11.163   9.952  70.613  1.00  0.00    -0.344 A  
HETATM   12  C   UNL     1     -10.405   6.973  73.667  1.00  0.00    -0.412 C  
HETATM   13  C   UNL     1      -9.091   6.198  73.606  1.00  0.00    -0.129 C  
ENDROOT
BRANCH  11  14
HETATM   14  S   UNL     1     -11.355  11.264  69.428  1.00  0.00    -0.316 S  
HETATM   15  O   UNL     1     -11.787  12.483  70.069  1.00  0.00    -0.331 OA 
HETATM   16  N   UNL     1      -9.754  11.519  68.986  1.00  0.00    -0.415 N  
HETATM   17  O   UNL     1     -12.010  10.748  68.251  1.00  0.00    -0.520 OA 
HETATM   18  H1  UNL     1      -9.864  12.272  68.306  1.00  0.00     0.000 HD 
HETATM   19  H2  UNL     1      -8.907  11.051  69.308  1.00  0.00     0.000 HD 
ENDBRANCH  11  14
TORSDOF 1
ENDMDL
MODEL       30
REMARK 921   NORMALIZED FREE ENERGY PREDICTED BY IDOCK:   -5.24 KCAL/MOL
REMARK 922        TOTAL FREE ENERGY PREDICTED BY IDOCK:   -5.38 KCAL/MOL
REMARK 923 INTER-LIGAND FREE ENERGY PREDICTED BY IDOCK:   -5.23 KCAL/MOL
REMARK 924 INTRA-LIGAND FREE ENERGY PREDICTED BY IDOCK:   -0.15 KCAL/MOL
REMARK 927      BINDING AFFINITY PREDICTED BY RF-SCORE:    0.00 PKD
ROOT
HETATM    1  C   UNL     1     -12.401  12.597  70.378  1.00  0.00    -0.315 C  
HETATM    2  C   UNL     1     -11.903  11.192  70.187  1.00  0.00    -0.449 A  
HETATM    3  C   UNL     1     -12.114  10.264  71.229  1.00  0.00    -0.479 A  
HETATM    4  C   UNL     1     -11.666   8.932  71.152  1.00  0.00    -0.356 A  
HETATM    5  C   UNL     1     -10.997   8.537  69.990  1.00  0.00    -0.196 A  
HETATM    6  C   UNL     1     -10.781   9.430  68.936  1.00  0.00    -0.203 A  
HETATM    7  S   UNL     1     -10.319   6.911  69.815  1.00  0.00    -0.213 S  
HETATM    8  O   UNL     1     -11.239   6.167  68.977  1.00  0.00    -0.383 OA 
HETATM    9  C   UNL     1     -10.382   6.237  71.454  1.00  0.00    -0.210 C  
HETATM   10  O   UNL     1      -8.923   7.071  69.456  1.00  0.00    -0.143 OA 
HETATM   11  C   UNL     1     -11.215  10.759  69.041  1.00  0.00    -0.262 A  
HETATM   12  C   UNL     1     -11.870   8.045  72.355  1.00  0.00    -0.429 C  
HETATM   13  C   UNL     1     -11.719   6.547  72.099  1.00  0.00    -0.353 C  
ENDROOT
BRANCH  11  14
HETATM   14  S   UNL     1     -10.787  11.832  67.689  1.00  0.00    -0.231 S  
HETATM   15  O   UNL     1      -9.805  12.810  68.094  1.00  0.00    -0.216 OA 
HETATM   16  N   UNL     1      -9.978  10.756  66.683  1.00  0.00    -0.199 N  
HETATM   17  O   UNL     1     -11.987  12.206  66.982  1.00  0.00    -0.593 OA 
HETATM   18  H1  UNL     1      -9.733  11.372  65.908  1.00  0.00     0.000 HD 
HETATM   19  H2  UNL     1      -9.786   9.763  66.812  1.00  0.00     0.000 HD 
ENDBRANCH  11  14
TORSDOF 1
ENDMDL
MODEL       31
REMARK 921   NORMALIZED FREE ENERGY PREDICTED BY IDOCK:   -5.22 KCAL/MOL
REMARK 922        TOTAL FREE ENERGY PREDICTED BY IDOCK:   -5.37 KCAL/MOL
REMARK 923 INTER-LIGAND FREE ENERGY PREDICTED BY IDOCK:   -5.68 KCAL/MOL
REMARK 924 INTRA-LIGAND FREE ENERGY PREDICTED BY IDOCK:    0.31 KCAL/MOL
REMARK 927      BINDING AFFINITY PREDICTED BY RF-SCORE:    0.00 PKD
ROOT
HETATM    1  C   UNL     1      -9.479  17.274  68.975  1.00  0.00    -0.141 C  
HETATM    2  C   UNL     1     -10.023  16.247  68.021  1.00  0.00    -0.240 A  
HETATM    3  C   UNL     1     -10.130  14.914  68.469  1.00  0.00    -0.232 A  
HETATM    4  C   UNL     1     -10.608  13.880  67.644  1.00  0.00    -0.247 A  
HETATM    5  C   UNL     1     -10.989  14.211  66.340  1.00  0.00    -0.311 A  
HETATM    6  C   UNL     1     -10.904  15.524  65.870  1.00  0.00    -0.317 A  
HETATM    7  S   UNL     1     -11.528  12.979  65.188  1.00  0.00    -0.319 S  
HETATM    8  O   UNL     1     -12.974  13.068  65.133  1.00  0.00    -0.729 OA 
HETATM    9  C   UNL     1     -11.090  11.443  65.960  1.00  0.00    -0.173 C  
HETATM   10  O   UNL     1     -10.711  13.126  64.000  1.00  0.00    -0.399 OA 
HETATM   11  C   UNL     1     -10.403  16.537  66.700  1.00  0.00    -0.298 A  
HETATM   12  C   UNL     1     -10.605  12.475  68.195  1.00  0.00    -0.239 C  
HETATM   13  C   UNL     1     -11.461  11.468  67.429  1.00  0.00    -0.349 C  
ENDROOT
BRANCH  11  14
HETATM   14  S   UNL     1     -10.234  18.145  65.960  1.00  0.00    -0.244 S  
HETATM   15  O   UNL     1     -11.029  18.250  64.759  1.00  0.00    -0.551 OA 
HETATM   16  N   UNL     1     -11.007  19.098  67.109  1.00  0.00    -0.401 N  
HETATM   17  O   UNL     1      -8.847  18.539  65.992  1.00  0.00    -0.493 OA 
HETATM   18  H1  UNL     1     -10.910  20.021  66.684  1.00  0.00     0.000 HD 
HETATM   19  H2  UNL     1     -11.450  18.828  67.987  1.00  0.00     0.000 HD 
ENDBRANCH  11  14
TORSDOF 1
ENDMDL
MODEL       32
REMARK 921   NORMALIZED FREE ENERGY PREDICTED BY IDOCK:   -5.22 KCAL/MOL
REMARK 922        TOTAL FREE ENERGY PREDICTED BY IDOCK:   -5.36 KCAL/MOL
REMARK 923 INTER-LIGAND FREE ENERGY PREDICTED BY IDOCK:   -5.54 KCAL/MOL
REMARK 924 INTRA-LIGAND FREE ENERGY PREDICTED BY IDOCK:    0.18 KCAL/MOL
REMARK 927      BINDING AFFINITY PREDICTED BY RF-SCORE:    0.00 PKD
ROOT
HETATM    1  C   UNL     1     -13.217  12.550  71.929  1.00  0.00    -0.495 C  
HETATM    2  C   UNL     1     -12.382  12.499  70.679  1.00  0.00    -0.369 A  
HETATM    3  C   UNL     1     -12.030  11.233  70.167  1.00  0.00    -0.452 A  
HETATM    4  C   UNL     1     -11.235  11.082  69.015  1.00  0.00    -0.320 A  
HETATM    5  C   UNL     1     -10.798  12.243  68.371  1.00  0.00    -0.230 A  
HETATM    6  C   UNL     1     -11.139  13.512  68.848  1.00  0.00    -0.305 A  
HETATM    7  S   UNL     1      -9.728  12.177  66.961  1.00  0.00    -0.206 S  
HETATM    8  O   UNL     1     -10.562  12.406  65.798  1.00  0.00    -0.246 OA 
HETATM    9  C   UNL     1      -9.163  10.496  66.925  1.00  0.00    -0.155 C  
HETATM   10  O   UNL     1      -8.586  13.021  67.258  1.00  0.00    -0.190 OA 
HETATM   11  C   UNL     1     -11.912  13.641  70.010  1.00  0.00    -0.343 A  
HETATM   12  C   UNL     1     -10.847   9.685  68.600  1.00  0.00    -0.203 C  
HETATM   13  C   UNL     1     -10.319   9.547  67.173  1.00  0.00    -0.320 C  
ENDROOT
BRANCH  11  14
HETATM   14  S   UNL     1     -12.190  15.301  70.587  1.00  0.00    -0.399 S  
HETATM   15  O   UNL     1     -13.586  15.522  70.879  1.00  0.00    -0.520 OA 
HETATM   16  N   UNL     1     -11.410  15.246  72.074  1.00  0.00    -0.485 N  
HETATM   17  O   UNL     1     -11.426  16.218  69.776  1.00  0.00    -0.299 OA 
HETATM   18  H1  UNL     1     -11.569  16.198  72.405  1.00  0.00     0.000 HD 
HETATM   19  H2  UNL     1     -10.915  14.475  72.522  1.00  0.00     0.000 HD 
ENDBRANCH  11  14
TORSDOF 1
ENDMDL
MODEL       33
REMARK 921   NORMALIZED FREE ENERGY PREDICTED BY IDOCK:   -5.21 KCAL/MOL
REMARK 922        TOTAL FREE ENERGY PREDICTED BY IDOCK:   -5.35 KCAL/MOL
REMARK 923 INTER-LIGAND FREE ENERGY PREDICTED BY IDOCK:   -5.37 KCAL/MOL
REMARK 924 INTRA-LIGAND FREE ENERGY PREDICTED BY IDOCK:    0.02 KCAL/MOL
REMARK 927      BINDING AFFINITY PREDICTED BY RF-SCORE:    0.00 PKD
ROOT
HETATM    1  C   UNL     1     -10.784   9.319  71.103  1.00  0.00    -0.403 C  
HETATM    2  C   UNL     1     -10.864  10.129  69.839  1.00  0.00    -0.347 A  
HETATM    3  C   UNL     1     -11.286  11.471  69.935  1.00  0.00    -0.267 A  
HETATM    4  C   UNL     1     -11.412  12.303  68.807  1.00  0.00    -0.360 A  
HETATM    5  C   UNL     1     -11.096  11.758  67.559  1.00  0.00    -0.272 A  
HETATM    6  C   UNL     1     -10.666  10.434  67.432  1.00  0.00    -0.338 A  
HETATM    7  S   UNL     1     -11.294  12.685  66.063  1.00  0.00    -0.346 S  
HETATM    8  O   UNL     1      -9.972  13.137  65.678  1.00  0.00    -0.276 OA 
HETATM    9  C   UNL     1     -12.250  14.097  66.552  1.00  0.00    -0.433 C  
HETATM   10  O   UNL     1     -12.113  11.883  65.175  1.00  0.00    -0.319 OA 
HETATM   11  C   UNL     1     -10.569   9.615  68.565  1.00  0.00    -0.220 A  
HETATM   12  C   UNL     1     -11.951  13.697  69.011  1.00  0.00    -0.392 C  
HETATM   13  C   UNL     1     -11.720  14.666  67.853  1.00  0.00    -0.379 C  
ENDROOT
BRANCH  11  14
HETATM   14  S   UNL     1     -10.120   7.919  68.270  1.00  0.00    -0.199 S  
HETATM   15  O   UNL     1     -10.993   7.020  68.986  1.00  0.00    -0.200 OA 
HETATM   16  N   UNL     1     -10.531   7.768  66.648  1.00  0.00    -0.491 N  
HETATM   17  O   UNL     1      -8.684   7.792  68.326  1.00  0.00    -0.127 OA 
HETATM   18  H1  UNL     1     -10.273   6.795  66.479  1.00  0.00     0.000 HD 
HETATM   19  H2  UNL     1     -10.928   8.457  66.009  1.00  0.00     0.000 HD 
ENDBRANCH  11  14
TORSDOF 1
ENDMDL
MODEL       34
REMARK 921   NORMALIZED FREE ENERGY PREDICTED BY IDOCK:   -5.18 KCAL/MOL
REMARK 922        TOTAL FREE ENERGY PREDICTED BY IDOCK:   -5.33 KCAL/MOL
REMARK 923 INTER-LIGAND FREE ENERGY PREDICTED BY IDOCK:   -5.24 KCAL/MOL
REMARK 924 INTRA-LIGAND FREE ENERGY PREDICTED BY IDOCK:   -0.08 KCAL/MOL
REMARK 927      BINDING AFFINITY PREDICTED BY RF-SCORE:    0.00 PKD
ROOT
HETATM    1  C   UNL     1     -12.848  11.984  71.934  1.00  0.00    -0.338 C  
HETATM    2  C   UNL     1     -12.180  11.956  70.587  1.00  0.00    -0.424 A  
HETATM    3  C   UNL     1     -12.204  13.133  69.809  1.00  0.00    -0.266 A  
HETATM    4  C   UNL     1     -11.624  13.199  68.529  1.00  0.00    -0.361 A  
HETATM    5  C   UNL     1     -11.004  12.048  68.035  1.00  0.00    -0.223 A  
HETATM    6  C   UNL     1     -10.955  10.870  68.785  1.00  0.00    -0.285 A  
HETATM    7  S   UNL     1     -10.313  11.990  66.406  1.00  0.00    -0.222 S  
HETATM    8  O   UNL     1      -8.878  12.131  66.560  1.00  0.00    -0.204 OA 
HETATM    9  C   UNL     1     -10.939  13.451  65.618  1.00  0.00    -0.281 C  
HETATM   10  O   UNL     1     -10.898  10.843  65.739  1.00  0.00    -0.169 OA 
HETATM   11  C   UNL     1     -11.558  10.817  70.050  1.00  0.00    -0.334 A  
HETATM   12  C   UNL     1     -11.778  14.480  67.747  1.00  0.00    -0.403 C  
HETATM   13  C   UNL     1     -10.837  14.639  66.554  1.00  0.00    -0.315 C  
ENDROOT
BRANCH  11  14
HETATM   14  S   UNL     1     -11.533   9.236  70.865  1.00  0.00    -0.324 S  
HETATM   15  O   UNL     1     -12.867   8.806  71.206  1.00  0.00    -0.302 OA 
HETATM   16  N   UNL     1     -11.037   8.244  69.602  1.00  0.00    -0.439 N  
HETATM   17  O   UNL     1     -10.457   9.216  71.826  1.00  0.00    -0.352 OA 
HETATM   18  H1  UNL     1     -11.022   7.338  70.070  1.00  0.00     0.000 HD 
HETATM   19  H2  UNL     1     -10.813   8.483  68.636  1.00  0.00     0.000 HD 
ENDBRANCH  11  14
TORSDOF 1
ENDMDL
MODEL       35
REMARK 921   NORMALIZED FREE ENERGY PREDICTED BY IDOCK:   -5.17 KCAL/MOL
REMARK 922        TOTAL FREE ENERGY PREDICTED BY IDOCK:   -5.31 KCAL/MOL
REMARK 923 INTER-LIGAND FREE ENERGY PREDICTED BY IDOCK:   -5.30 KCAL/MOL
REMARK 924 INTRA-LIGAND FREE ENERGY PREDICTED BY IDOCK:   -0.01 KCAL/MOL
REMARK 927      BINDING AFFINITY PREDICTED BY RF-SCORE:    0.00 PKD
ROOT
HETATM    1  C   UNL     1     -11.453  12.643  67.210  1.00  0.00    -0.402 C  
HETATM    2  C   UNL     1     -11.285  11.367  67.988  1.00  0.00    -0.346 A  
HETATM    3  C   UNL     1     -11.848  11.297  69.279  1.00  0.00    -0.423 A  
HETATM    4  C   UNL     1     -11.726  10.155  70.091  1.00  0.00    -0.330 A  
HETATM    5  C   UNL     1     -11.023   9.062  69.575  1.00  0.00    -0.106 A  
HETATM    6  C   UNL     1     -10.463   9.097  68.295  1.00  0.00    -0.254 A  
HETATM    7  S   UNL     1     -10.737   7.602  70.536  1.00  0.00    -0.239 S  
HETATM    8  O   UNL     1     -11.690   6.611  70.077  1.00  0.00    -0.383 OA 
HETATM    9  C   UNL     1     -11.176   8.079  72.188  1.00  0.00    -0.319 C  
HETATM   10  O   UNL     1      -9.309   7.354  70.513  1.00  0.00    -0.158 OA 
HETATM   11  C   UNL     1     -10.575  10.253  67.511  1.00  0.00    -0.268 A  
HETATM   12  C   UNL     1     -12.293  10.214  71.488  1.00  0.00    -0.505 C  
HETATM   13  C   UNL     1     -12.472   8.865  72.182  1.00  0.00    -0.459 C  
ENDROOT
BRANCH  11  14
HETATM   14  S   UNL     1      -9.728  10.224  65.947  1.00  0.00    -0.242 S  
HETATM   15  O   UNL     1      -8.402  10.783  66.065  1.00  0.00    -0.156 OA 
HETATM   16  N   UNL     1      -9.515   8.570  65.740  1.00  0.00    -0.431 N  
HETATM   17  O   UNL     1     -10.639  10.637  64.907  1.00  0.00    -0.279 OA 
HETATM   18  H1  UNL     1      -9.029   8.554  64.843  1.00  0.00     0.000 HD 
HETATM   19  H2  UNL     1      -9.794   7.797  66.344  1.00  0.00     0.000 HD 
ENDBRANCH  11  14
TORSDOF 1
ENDMDL
MODEL       36
REMARK 921   NORMALIZED FREE ENERGY PREDICTED BY IDOCK:   -5.15 KCAL/MOL
REMARK 922        TOTAL FREE ENERGY PREDICTED BY IDOCK:   -5.29 KCAL/MOL
REMARK 923 INTER-LIGAND FREE ENERGY PREDICTED BY IDOCK:   -5.15 KCAL/MOL
REMARK 924 INTRA-LIGAND FREE ENERGY PREDICTED BY IDOCK:   -0.14 KCAL/MOL
REMARK 927      BINDING AFFINITY PREDICTED BY RF-SCORE:    0.00 PKD
ROOT
HETATM    1  C   UNL     1     -11.899  15.096  68.541  1.00  0.00    -0.307 C  
HETATM    2  C   UNL     1     -11.493  13.691  68.889  1.00  0.00    -0.344 A  
HETATM    3  C   UNL     1     -12.246  13.003  69.863  1.00  0.00    -0.271 A  
HETATM    4  C   UNL     1     -11.932  11.693  70.270  1.00  0.00    -0.445 A  
HETATM    5  C   UNL     1     -10.834  11.071  69.668  1.00  0.00    -0.183 A  
HETATM    6  C   UNL     1     -10.075  11.722  68.692  1.00  0.00    -0.198 A  
HETATM    7  S   UNL     1     -10.297   9.456  70.158  1.00  0.00    -0.254 S  
HETATM    8  O   UNL     1     -10.780   8.535  69.148  1.00  0.00    -0.202 OA 
HETATM    9  C   UNL     1     -11.177   9.146  71.667  1.00  0.00    -0.377 C  
HETATM   10  O   UNL     1      -8.887   9.561  70.482  1.00  0.00    -0.233 OA 
HETATM   11  C   UNL     1     -10.390  13.035  68.317  1.00  0.00    -0.252 A  
HETATM   12  C   UNL     1     -12.750  11.080  71.379  1.00  0.00    -0.534 C  
HETATM   13  C   UNL     1     -12.627   9.564  71.525  1.00  0.00    -0.462 C  
ENDROOT
BRANCH  11  14
HETATM   14  S   UNL     1      -9.289  13.803  67.150  1.00  0.00    -0.249 S  
HETATM   15  O   UNL     1      -8.451  14.785  67.796  1.00  0.00    -0.149 OA 
HETATM   16  N   UNL     1      -8.281  12.511  66.778  1.00  0.00    -0.391 N  
HETATM   17  O   UNL     1     -10.013  14.099  65.938  1.00  0.00    -0.298 OA 
HETATM   18  H1  UNL     1      -7.650  12.951  66.109  1.00  0.00     0.000 HD 
HETATM   19  H2  UNL     1      -8.297  11.551  67.125  1.00  0.00     0.000 HD 
ENDBRANCH  11  14
TORSDOF 1
ENDMDL
MODEL       37
REMARK 921   NORMALIZED FREE ENERGY PREDICTED BY IDOCK:   -5.10 KCAL/MOL
REMARK 922        TOTAL FREE ENERGY PREDICTED BY IDOCK:   -5.24 KCAL/MOL
REMARK 923 INTER-LIGAND FREE ENERGY PREDICTED BY IDOCK:   -5.08 KCAL/MOL
REMARK 924 INTRA-LIGAND FREE ENERGY PREDICTED BY IDOCK:   -0.15 KCAL/MOL
REMARK 927      BINDING AFFINITY PREDICTED BY RF-SCORE:    0.00 PKD
ROOT
HETATM    1  C   UNL     1     -13.280  10.038  72.184  1.00  0.00    -0.489 C  
HETATM    2  C   UNL     1     -12.375   9.970  70.986  1.00  0.00    -0.458 A  
HETATM    3  C   UNL     1     -12.407  11.040  70.067  1.00  0.00    -0.377 A  
HETATM    4  C   UNL     1     -11.612  11.057  68.906  1.00  0.00    -0.383 A  
HETATM    5  C   UNL     1     -10.766   9.967  68.680  1.00  0.00    -0.226 A  
HETATM    6  C   UNL     1     -10.705   8.897  69.577  1.00  0.00    -0.206 A  
HETATM    7  S   UNL     1      -9.781   9.843  67.214  1.00  0.00    -0.179 S  
HETATM    8  O   UNL     1      -8.431  10.215  67.589  1.00  0.00    -0.118 OA 
HETATM    9  C   UNL     1     -10.435  11.099  66.146  1.00  0.00    -0.253 C  
HETATM   10  O   UNL     1     -10.077   8.556  66.615  1.00  0.00    -0.265 OA 
HETATM   11  C   UNL     1     -11.521   8.887  70.716  1.00  0.00    -0.275 A  
HETATM   12  C   UNL     1     -11.783  12.209  67.947  1.00  0.00    -0.403 C  
HETATM   13  C   UNL     1     -10.664  12.381  66.921  1.00  0.00    -0.269 C  
ENDROOT
BRANCH  11  14
HETATM   14  S   UNL     1     -11.442   7.425  71.725  1.00  0.00    -0.275 S  
HETATM   15  O   UNL     1     -12.658   6.654  71.618  1.00  0.00    -0.347 OA 
HETATM   16  N   UNL     1     -10.266   6.547  70.907  1.00  0.00    -0.189 N  
HETATM   17  O   UNL     1     -10.863   7.761  73.003  1.00  0.00    -0.373 OA 
HETATM   18  H1  UNL     1     -10.221   5.707  71.486  1.00  0.00     0.000 HD 
HETATM   19  H2  UNL     1      -9.743   6.786  70.064  1.00  0.00     0.000 HD 
ENDBRANCH  11  14
TORSDOF 1
ENDMDL
MODEL       38
REMARK 921   NORMALIZED FREE ENERGY PREDICTED BY IDOCK:   -5.07 KCAL/MOL
REMARK 922        TOTAL FREE ENERGY PREDICTED BY IDOCK:   -5.20 KCAL/MOL
REMARK 923 INTER-LIGAND FREE ENERGY PREDICTED BY IDOCK:   -5.13 KCAL/MOL
REMARK 924 INTRA-LIGAND FREE ENERGY PREDICTED BY IDOCK:   -0.07 KCAL/MOL
REMARK 927      BINDING AFFINITY PREDICTED BY RF-SCORE:    0.00 PKD
ROOT
HETATM    1  C   UNL     1      -8.769  17.579  66.484  1.00  0.00    -0.290 C  
HETATM    2  C   UNL     1      -9.278  16.184  66.252  1.00  0.00    -0.366 A  
HETATM    3  C   UNL     1     -10.326  16.004  65.324  1.00  0.00    -0.319 A  
HETATM    4  C   UNL     1     -10.882  14.741  65.054  1.00  0.00    -0.440 A  
HETATM    5  C   UNL     1     -10.358  13.639  65.738  1.00  0.00    -0.298 A  
HETATM    6  C   UNL     1      -9.313  13.783  66.656  1.00  0.00    -0.277 A  
HETATM    7  S   UNL     1     -11.033  12.014  65.539  1.00  0.00    -0.305 S  
HETATM    8  O   UNL     1     -10.136  11.299  64.652  1.00  0.00    -0.250 OA 
HETATM    9  C   UNL     1     -12.566  12.284  64.689  1.00  0.00    -0.289 C  
HETATM   10  O   UNL     1     -11.344  11.521  66.867  1.00  0.00    -0.347 OA 
HETATM   11  C   UNL     1      -8.788  15.054  66.928  1.00  0.00    -0.258 A  
HETATM   12  C   UNL     1     -12.054  14.670  64.107  1.00  0.00    -0.346 C  
HETATM   13  C   UNL     1     -12.375  13.280  63.562  1.00  0.00    -0.442 C  
ENDROOT
BRANCH  11  14
HETATM   14  S   UNL     1      -7.541  15.132  68.194  1.00  0.00    -0.121 S  
HETATM   15  O   UNL     1      -7.903  16.078  69.222  1.00  0.00    -0.228 OA 
HETATM   16  N   UNL     1      -7.708  13.610  68.887  1.00  0.00    -0.299 N  
HETATM   17  O   UNL     1      -6.237  15.141  67.575  1.00  0.00    -0.258 OA 
HETATM   18  H1  UNL     1      -6.993  13.655  69.614  1.00  0.00     0.000 HD 
HETATM   19  H2  UNL     1      -8.348  12.853  68.648  1.00  0.00     0.000 HD 
ENDBRANCH  11  14
TORSDOF 1
ENDMDL
MODEL       39
REMARK 921   NORMALIZED FREE ENERGY PREDICTED BY IDOCK:   -5.05 KCAL/MOL
REMARK 922        TOTAL FREE ENERGY PREDICTED BY IDOCK:   -5.18 KCAL/MOL
REMARK 923 INTER-LIGAND FREE ENERGY PREDICTED BY IDOCK:   -5.07 KCAL/MOL
REMARK 924 INTRA-LIGAND FREE ENERGY PREDICTED BY IDOCK:   -0.12 KCAL/MOL
REMARK 927      BINDING AFFINITY PREDICTED BY RF-SCORE:    0.00 PKD
ROOT
HETATM    1  C   UNL     1     -12.037  14.564  64.577  1.00  0.00    -0.501 C  
HETATM    2  C   UNL     1     -10.801  14.665  65.426  1.00  0.00    -0.365 A  
HETATM    3  C   UNL     1     -10.124  15.902  65.471  1.00  0.00    -0.353 A  
HETATM    4  C   UNL     1      -8.948  16.089  66.221  1.00  0.00    -0.380 A  
HETATM    5  C   UNL     1      -8.456  14.997  66.942  1.00  0.00    -0.236 A  
HETATM    6  C   UNL     1      -9.109  13.761  66.926  1.00  0.00    -0.253 A  
HETATM    7  S   UNL     1      -6.942  15.092  67.855  1.00  0.00    -0.168 S  
HETATM    8  O   UNL     1      -7.308  15.251  69.249  1.00  0.00    -0.158 OA 
HETATM    9  C   UNL     1      -6.193  16.600  67.295  1.00  0.00    -0.171 C  
HETATM   10  O   UNL     1      -6.109  13.993  67.407  1.00  0.00    -0.345 OA 
HETATM   11  C   UNL     1     -10.267  13.589  66.155  1.00  0.00    -0.302 A  
HETATM   12  C   UNL     1      -8.258  17.427  66.135  1.00  0.00    -0.237 C  
HETATM   13  C   UNL     1      -7.227  17.706  67.226  1.00  0.00    -0.203 C  
ENDROOT
BRANCH  11  14
HETATM   14  S   UNL     1     -10.948  11.946  66.120  1.00  0.00    -0.316 S  
HETATM   15  O   UNL     1     -10.984  11.427  64.774  1.00  0.00    -0.296 OA 
HETATM   16  N   UNL     1      -9.737  11.091  66.912  1.00  0.00    -0.185 N  
HETATM   17  O   UNL     1     -12.099  11.891  66.988  1.00  0.00    -0.600 OA 
HETATM   18  H1  UNL     1     -10.127  10.149  66.892  1.00  0.00     0.000 HD 
HETATM   19  H2  UNL     1      -8.855  11.423  67.303  1.00  0.00     0.000 HD 
ENDBRANCH  11  14
TORSDOF 1
ENDMDL
MODEL       40
REMARK 921   NORMALIZED FREE ENERGY PREDICTED BY IDOCK:   -5.05 KCAL/MOL
REMARK 922        TOTAL FREE ENERGY PREDICTED BY IDOCK:   -5.18 KCAL/MOL
REMARK 923 INTER-LIGAND FREE ENERGY PREDICTED BY IDOCK:   -5.06 KCAL/MOL
REMARK 924 INTRA-LIGAND FREE ENERGY PREDICTED BY IDOCK:   -0.12 KCAL/MOL
REMARK 927      BINDING AFFINITY PREDICTED BY RF-SCORE:    0.00 PKD
ROOT
HETATM    1  C   UNL     1     -12.102  14.224  68.461  1.00  0.00    -0.295 C  
HETATM    2  C   UNL     1     -11.010  15.187  68.088  1.00  0.00    -0.287 A  
HETATM    3  C   UNL     1     -11.272  16.568  68.208  1.00  0.00    -0.265 A  
HETATM    4  C   UNL     1     -10.320  17.546  67.864  1.00  0.00    -0.371 A  
HETATM    5  C   UNL     1      -9.078  17.109  67.395  1.00  0.00    -0.224 A  
HETATM    6  C   UNL     1      -8.785  15.748  67.273  1.00  0.00    -0.210 A  
HETATM    7  S   UNL     1      -7.834  18.248  66.856  1.00  0.00    -0.238 S  
HETATM    8  O   UNL     1      -6.868  18.346  67.933  1.00  0.00    -0.211 OA 
HETATM    9  C   UNL     1      -8.691  19.796  66.729  1.00  0.00    -0.339 C  
HETATM   10  O   UNL     1      -7.446  17.847  65.518  1.00  0.00    -0.524 OA 
HETATM   11  C   UNL     1      -9.755  14.789  67.599  1.00  0.00    -0.213 A  
HETATM   12  C   UNL     1     -10.730  18.995  67.952  1.00  0.00    -0.378 C  
HETATM   13  C   UNL     1      -9.584  20.004  67.937  1.00  0.00    -0.488 C  
ENDROOT
BRANCH  11  14
HETATM   14  S   UNL     1      -9.311  13.093  67.299  1.00  0.00    -0.234 S  
HETATM   15  O   UNL     1      -9.950  12.593  66.105  1.00  0.00    -0.252 OA 
HETATM   16  N   UNL     1      -7.684  13.261  66.916  1.00  0.00    -0.356 N  
HETATM   17  O   UNL     1      -9.348  12.365  68.545  1.00  0.00    -0.178 OA 
HETATM   18  H1  UNL     1      -7.430  12.288  66.744  1.00  0.00     0.000 HD 
HETATM   19  H2  UNL     1      -7.109  14.103  66.868  1.00  0.00     0.000 HD 
ENDBRANCH  11  14
TORSDOF 1
ENDMDL
MODEL       41
REMARK 921   NORMALIZED FREE ENERGY PREDICTED BY IDOCK:   -5.00 KCAL/MOL
REMARK 922        TOTAL FREE ENERGY PREDICTED BY IDOCK:   -5.13 KCAL/MOL
REMARK 923 INTER-LIGAND FREE ENERGY PREDICTED BY IDOCK:   -4.98 KCAL/MOL
REMARK 924 INTRA-LIGAND FREE ENERGY PREDICTED BY IDOCK:   -0.15 KCAL/MOL
REMARK 927      BINDING AFFINITY PREDICTED BY RF-SCORE:    0.00 PKD
ROOT
HETATM    1  C   UNL     1     -10.706  17.440  65.866  1.00  0.00    -0.123 C  
HETATM    2  C   UNL     1     -10.410  15.972  65.997  1.00  0.00    -0.366 A  
HETATM    3  C   UNL     1     -10.718  15.132  64.907  1.00  0.00    -0.421 A  
HETATM    4  C   UNL     1     -10.497  13.743  64.943  1.00  0.00    -0.437 A  
HETATM    5  C   UNL     1      -9.946  13.201  66.108  1.00  0.00    -0.291 A  
HETATM    6  C   UNL     1      -9.621  14.009  67.202  1.00  0.00    -0.245 A  
HETATM    7  S   UNL     1      -9.699  11.458  66.297  1.00  0.00    -0.220 S  
HETATM    8  O   UNL     1      -8.287  11.214  66.075  1.00  0.00    -0.167 OA 
HETATM    9  C   UNL     1     -10.610  10.744  64.952  1.00  0.00    -0.188 C  
HETATM   10  O   UNL     1     -10.355  11.070  67.530  1.00  0.00    -0.185 OA 
HETATM   11  C   UNL     1      -9.870  15.388  67.155  1.00  0.00    -0.221 A  
HETATM   12  C   UNL     1     -10.938  12.924  63.755  1.00  0.00    -0.392 C  
HETATM   13  C   UNL     1     -10.352  11.516  63.674  1.00  0.00    -0.467 C  
ENDROOT
BRANCH  11  14
HETATM   14  S   UNL     1      -9.522  16.298  68.643  1.00  0.00    -0.237 S  
HETATM   15  O   UNL     1     -10.738  16.776  69.256  1.00  0.00    -0.334 OA 
HETATM   16  N   UNL     1      -8.960  15.064  69.636  1.00  0.00    -0.453 N  
HETATM   17  O   UNL     1      -8.392  17.165  68.416  1.00  0.00    -0.233 OA 
HETATM   18  H1  UNL     1      -8.760  15.586  70.490  1.00  0.00     0.000 HD 
HETATM   19  H2  UNL     1      -8.849  14.069  69.440  1.00  0.00     0.000 HD 
ENDBRANCH  11  14
TORSDOF 1
ENDMDL
MODEL       42
REMARK 921   NORMALIZED FREE ENERGY PREDICTED BY IDOCK:   -4.97 KCAL/MOL
REMARK 922        TOTAL FREE ENERGY PREDICTED BY IDOCK:   -5.10 KCAL/MOL
REMARK 923 INTER-LIGAND FREE ENERGY PREDICTED BY IDOCK:   -5.28 KCAL/MOL
REMARK 924 INTRA-LIGAND FREE ENERGY PREDICTED BY IDOCK:    0.18 KCAL/MOL
REMARK 927      BINDING AFFINITY PREDICTED BY RF-SCORE:    0.00 PKD
ROOT
HETATM    1  C   UNL     1     -10.751  15.644  65.786  1.00  0.00    -0.350 C  
HETATM    2  C   UNL     1     -10.413  14.193  65.991  1.00  0.00    -0.308 A  
HETATM    3  C   UNL     1      -9.180  13.877  66.597  1.00  0.00    -0.253 A  
HETATM    4  C   UNL     1      -8.766  12.550  66.813  1.00  0.00    -0.147 A  
HETATM    5  C   UNL     1      -9.628  11.526  66.409  1.00  0.00    -0.209 A  
HETATM    6  C   UNL     1     -10.862  11.807  65.815  1.00  0.00    -0.341 A  
HETATM    7  S   UNL     1      -9.179   9.820  66.556  1.00  0.00    -0.163 S  
HETATM    8  O   UNL     1      -9.873   9.308  67.722  1.00  0.00    -0.158 OA 
HETATM    9  C   UNL     1      -7.441   9.859  66.910  1.00  0.00    -0.092 C  
HETATM   10  O   UNL     1      -9.349   9.224  65.246  1.00  0.00    -0.241 OA 
HETATM   11  C   UNL     1     -11.246  13.136  65.587  1.00  0.00    -0.283 A  
HETATM   12  C   UNL     1      -7.393  12.321  67.393  1.00  0.00    -0.151 C  
HETATM   13  C   UNL     1      -7.140  10.921  67.949  1.00  0.00    -0.081 C  
ENDROOT
BRANCH  11  14
HETATM   14  S   UNL     1     -12.783  13.371  64.723  1.00  0.00    -0.181 S  
HETATM   15  O   UNL     1     -13.630  14.310  65.419  1.00  0.00    -0.516 OA 
HETATM   16  N   UNL     1     -12.245  14.168  63.346  1.00  0.00    -1.099 N  
HETATM   17  O   UNL     1     -13.273  12.092  64.271  1.00  0.00    -0.710 OA 
HETATM   18  H1  UNL     1     -13.126  14.303  62.850  1.00  0.00     0.000 HD 
HETATM   19  H2  UNL     1     -11.299  14.442  63.079  1.00  0.00     0.000 HD 
ENDBRANCH  11  14
TORSDOF 1
ENDMDL
MODEL       43
REMARK 921   NORMALIZED FREE ENERGY PREDICTED BY IDOCK:   -4.96 KCAL/MOL
REMARK 922        TOTAL FREE ENERGY PREDICTED BY IDOCK:   -5.08 KCAL/MOL
REMARK 923 INTER-LIGAND FREE ENERGY PREDICTED BY IDOCK:   -4.98 KCAL/MOL
REMARK 924 INTRA-LIGAND FREE ENERGY PREDICTED BY IDOCK:   -0.11 KCAL/MOL
REMARK 927      BINDING AFFINITY PREDICTED BY RF-SCORE:    0.00 PKD
ROOT
HETATM    1  C   UNL     1     -11.968  15.786  69.001  1.00  0.00    -0.294 C  
HETATM    2  C   UNL     1     -10.688  16.290  68.396  1.00  0.00    -0.311 A  
HETATM    3  C   UNL     1     -10.127  17.474  68.917  1.00  0.00    -0.346 A  
HETATM    4  C   UNL     1      -8.942  18.035  68.404  1.00  0.00    -0.286 A  
HETATM    5  C   UNL     1      -8.316  17.373  67.343  1.00  0.00    -0.205 A  
HETATM    6  C   UNL     1      -8.843  16.193  66.811  1.00  0.00    -0.275 A  
HETATM    7  S   UNL     1      -6.867  18.028  66.564  1.00  0.00    -0.241 S  
HETATM    8  O   UNL     1      -5.742  17.276  67.084  1.00  0.00    -0.124 OA 
HETATM    9  C   UNL     1      -6.761  19.690  67.176  1.00  0.00    -0.198 C  
HETATM   10  O   UNL     1      -7.146  18.097  65.143  1.00  0.00    -0.375 OA 
HETATM   11  C   UNL     1     -10.036  15.662  67.321  1.00  0.00    -0.236 A  
HETATM   12  C   UNL     1      -8.472  19.347  68.979  1.00  0.00    -0.248 C  
HETATM   13  C   UNL     1      -7.024  19.719  68.668  1.00  0.00    -0.363 C  
ENDROOT
BRANCH  11  14
HETATM   14  S   UNL     1     -10.671  14.222  66.494  1.00  0.00    -0.302 S  
HETATM   15  O   UNL     1     -12.000  14.460  65.983  1.00  0.00    -0.386 OA 
HETATM   16  N   UNL     1      -9.663  14.167  65.150  1.00  0.00    -0.552 N  
HETATM   17  O   UNL     1     -10.352  13.049  67.271  1.00  0.00    -0.236 OA 
HETATM   18  H1  UNL     1     -10.028  13.341  64.675  1.00  0.00     0.000 HD 
HETATM   19  H2  UNL     1      -8.900  14.789  64.882  1.00  0.00     0.000 HD 
ENDBRANCH  11  14
TORSDOF 1
ENDMDL
MODEL       44
REMARK 921   NORMALIZED FREE ENERGY PREDICTED BY IDOCK:   -4.95 KCAL/MOL
REMARK 922        TOTAL FREE ENERGY PREDICTED BY IDOCK:   -5.08 KCAL/MOL
REMARK 923 INTER-LIGAND FREE ENERGY PREDICTED BY IDOCK:   -4.92 KCAL/MOL
REMARK 924 INTRA-LIGAND FREE ENERGY PREDICTED BY IDOCK:   -0.15 KCAL/MOL
REMARK 927      BINDING AFFINITY PREDICTED BY RF-SCORE:    0.00 PKD
ROOT
HETATM    1  C   UNL     1     -10.185  19.712  68.348  1.00  0.00    -0.553 C  
HETATM    2  C   UNL     1      -9.939  18.273  67.988  1.00  0.00    -0.362 A  
HETATM    3  C   UNL     1     -10.861  17.307  68.442  1.00  0.00    -0.273 A  
HETATM    4  C   UNL     1     -10.706  15.935  68.173  1.00  0.00    -0.302 A  
HETATM    5  C   UNL     1      -9.595  15.541  67.423  1.00  0.00    -0.213 A  
HETATM    6  C   UNL     1      -8.669  16.474  66.950  1.00  0.00    -0.233 A  
HETATM    7  S   UNL     1      -9.254  13.835  67.092  1.00  0.00    -0.252 S  
HETATM    8  O   UNL     1      -9.677  13.585  65.729  1.00  0.00    -0.235 OA 
HETATM    9  C   UNL     1     -10.339  12.957  68.187  1.00  0.00    -0.240 C  
HETATM   10  O   UNL     1      -7.893  13.584  67.525  1.00  0.00    -0.159 OA 
HETATM   11  C   UNL     1      -8.828  17.835  67.247  1.00  0.00    -0.238 A  
HETATM   12  C   UNL     1     -11.704  14.977  68.776  1.00  0.00    -0.360 C  
HETATM   13  C   UNL     1     -11.722  13.577  68.166  1.00  0.00    -0.396 C  
ENDROOT
BRANCH  11  14
HETATM   14  S   UNL     1      -7.531  18.917  66.690  1.00  0.00    -0.238 S  
HETATM   15  O   UNL     1      -6.823  19.496  67.807  1.00  0.00    -0.231 OA 
HETATM   16  N   UNL     1      -6.476  17.806  66.001  1.00  0.00    -0.256 N  
HETATM   17  O   UNL     1      -8.022  19.723  65.599  1.00  0.00    -0.386 OA 
HETATM   18  H1  UNL     1      -5.732  18.427  65.681  1.00  0.00     0.000 HD 
HETATM   19  H2  UNL     1      -6.557  16.792  65.923  1.00  0.00     0.000 HD 
ENDBRANCH  11  14
TORSDOF 1
ENDMDL
MODEL       45
REMARK 921   NORMALIZED FREE ENERGY PREDICTED BY IDOCK:   -4.93 KCAL/MOL
REMARK 922        TOTAL FREE ENERGY PREDICTED BY IDOCK:   -5.06 KCAL/MOL
REMARK 923 INTER-LIGAND FREE ENERGY PREDICTED BY IDOCK:   -4.92 KCAL/MOL
REMARK 924 INTRA-LIGAND FREE ENERGY PREDICTED BY IDOCK:   -0.13 KCAL/MOL
REMARK 927      BINDING AFFINITY PREDICTED BY RF-SCORE:    0.00 PKD
ROOT
HETATM    1  C   UNL     1      -8.924   7.907  71.090  1.00  0.00    -0.153 C  
HETATM    2  C   UNL     1      -9.563   9.052  70.356  1.00  0.00    -0.246 A  
HETATM    3  C   UNL     1      -8.730   9.911  69.608  1.00  0.00    -0.218 A  
HETATM    4  C   UNL     1      -9.232  11.021  68.904  1.00  0.00    -0.139 A  
HETATM    5  C   UNL     1     -10.609  11.256  68.958  1.00  0.00    -0.208 A  
HETATM    6  C   UNL     1     -11.462  10.418  69.681  1.00  0.00    -0.326 A  
HETATM    7  S   UNL     1     -11.342  12.667  68.178  1.00  0.00    -0.315 S  
HETATM    8  O   UNL     1     -11.944  12.193  66.947  1.00  0.00    -0.603 OA 
HETATM    9  C   UNL     1      -9.961  13.700  67.766  1.00  0.00    -0.235 C  
HETATM   10  O   UNL     1     -12.120  13.352  69.191  1.00  0.00    -0.317 OA 
HETATM   11  C   UNL     1     -10.940   9.330  70.395  1.00  0.00    -0.255 A  
HETATM   12  C   UNL     1      -8.246  11.922  68.205  1.00  0.00    -0.158 C  
HETATM   13  C   UNL     1      -8.843  12.870  67.167  1.00  0.00    -0.210 C  
ENDROOT
BRANCH  11  14
HETATM   14  S   UNL     1     -12.101   8.401  71.369  1.00  0.00    -0.301 S  
HETATM   15  O   UNL     1     -11.770   8.464  72.772  1.00  0.00    -0.367 OA 
HETATM   16  N   UNL     1     -13.484   9.337  71.179  1.00  0.00    -0.557 N  
HETATM   17  O   UNL     1     -12.380   7.149  70.708  1.00  0.00    -0.314 OA 
HETATM   18  H1  UNL     1     -14.151   8.803  71.738  1.00  0.00     0.000 HD 
HETATM   19  H2  UNL     1     -13.619  10.199  70.651  1.00  0.00     0.000 HD 
ENDBRANCH  11  14
TORSDOF 1
ENDMDL
MODEL       46
REMARK 921   NORMALIZED FREE ENERGY PREDICTED BY IDOCK:   -4.92 KCAL/MOL
REMARK 922        TOTAL FREE ENERGY PREDICTED BY IDOCK:   -5.04 KCAL/MOL
REMARK 923 INTER-LIGAND FREE ENERGY PREDICTED BY IDOCK:   -5.30 KCAL/MOL
REMARK 924 INTRA-LIGAND FREE ENERGY PREDICTED BY IDOCK:    0.26 KCAL/MOL
REMARK 927      BINDING AFFINITY PREDICTED BY RF-SCORE:    0.00 PKD
ROOT
HETATM    1  C   UNL     1      -7.080  18.429  68.837  1.00  0.00    -0.292 C  
HETATM    2  C   UNL     1      -8.090  17.512  68.207  1.00  0.00    -0.268 A  
HETATM    3  C   UNL     1      -7.797  16.133  68.157  1.00  0.00    -0.147 A  
HETATM    4  C   UNL     1      -8.670  15.199  67.570  1.00  0.00    -0.188 A  
HETATM    5  C   UNL     1      -9.867  15.679  67.030  1.00  0.00    -0.233 A  
HETATM    6  C   UNL     1     -10.191  17.037  67.073  1.00  0.00    -0.303 A  
HETATM    7  S   UNL     1     -11.004  14.608  66.195  1.00  0.00    -0.335 S  
HETATM    8  O   UNL     1     -12.079  14.337  67.129  1.00  0.00    -0.423 OA 
HETATM    9  C   UNL     1     -10.086  13.111  65.945  1.00  0.00    -0.290 C  
HETATM   10  O   UNL     1     -11.257  15.194  64.893  1.00  0.00    -0.391 OA 
HETATM   11  C   UNL     1      -9.297  17.955  67.641  1.00  0.00    -0.258 A  
HETATM   12  C   UNL     1      -8.223  13.760  67.495  1.00  0.00    -0.194 C  
HETATM   13  C   UNL     1      -9.326  12.744  67.204  1.00  0.00    -0.216 C  
ENDROOT
BRANCH  11  14
HETATM   14  S   UNL     1      -9.763  19.669  67.540  1.00  0.00    -0.377 S  
HETATM   15  O   UNL     1     -10.909  19.845  66.681  1.00  0.00    -0.443 OA 
HETATM   16  N   UNL     1     -10.313  19.934  69.105  1.00  0.00    -0.600 N  
HETATM   17  O   UNL     1      -8.575  20.475  67.399  1.00  0.00    -0.341 OA 
HETATM   18  H1  UNL     1     -10.580  20.917  69.046  1.00  0.00     0.000 HD 
HETATM   19  H2  UNL     1     -10.367  19.290  69.894  1.00  0.00     0.000 HD 
ENDBRANCH  11  14
TORSDOF 1
ENDMDL
MODEL       47
REMARK 921   NORMALIZED FREE ENERGY PREDICTED BY IDOCK:   -4.91 KCAL/MOL
REMARK 922        TOTAL FREE ENERGY PREDICTED BY IDOCK:   -5.04 KCAL/MOL
REMARK 923 INTER-LIGAND FREE ENERGY PREDICTED BY IDOCK:   -4.98 KCAL/MOL
REMARK 924 INTRA-LIGAND FREE ENERGY PREDICTED BY IDOCK:   -0.06 KCAL/MOL
REMARK 927      BINDING AFFINITY PREDICTED BY RF-SCORE:    0.00 PKD
ROOT
HETATM    1  C   UNL     1      -7.704  12.110  68.578  1.00  0.00    -0.119 C  
HETATM    2  C   UNL     1      -8.745  12.346  67.519  1.00  0.00    -0.179 A  
HETATM    3  C   UNL     1      -9.004  13.675  67.126  1.00  0.00    -0.235 A  
HETATM    4  C   UNL     1      -9.974  13.998  66.159  1.00  0.00    -0.325 A  
HETATM    5  C   UNL     1     -10.687  12.945  65.577  1.00  0.00    -0.279 A  
HETATM    6  C   UNL     1     -10.446  11.617  65.937  1.00  0.00    -0.300 A  
HETATM    7  S   UNL     1     -11.985  13.236  64.408  1.00  0.00    -0.427 S  
HETATM    8  O   UNL     1     -11.430  12.966  63.097  1.00  0.00    -0.361 OA 
HETATM    9  C   UNL     1     -12.301  14.977  64.537  1.00  0.00    -0.262 C  
HETATM   10  O   UNL     1     -13.158  12.537  64.897  1.00  0.00    -0.833 OA 
HETATM   11  C   UNL     1      -9.492  11.318  66.920  1.00  0.00    -0.177 A  
HETATM   12  C   UNL     1     -10.231  15.456  65.871  1.00  0.00    -0.365 C  
HETATM   13  C   UNL     1     -10.996  15.746  64.582  1.00  0.00    -0.333 C  
ENDROOT
BRANCH  11  14
HETATM   14  S   UNL     1      -9.349   9.605  67.379  1.00  0.00    -0.135 S  
HETATM   15  O   UNL     1     -10.107   9.323  68.575  1.00  0.00    -0.177 OA 
HETATM   16  N   UNL     1     -10.188   8.876  66.119  1.00  0.00    -0.369 N  
HETATM   17  O   UNL     1      -7.976   9.188  67.231  1.00  0.00    -0.101 OA 
HETATM   18  H1  UNL     1     -10.106   7.893  66.382  1.00  0.00     0.000 HD 
HETATM   19  H2  UNL     1     -10.651   9.298  65.314  1.00  0.00     0.000 HD 
ENDBRANCH  11  14
TORSDOF 1
ENDMDL
MODEL       48
REMARK 921   NORMALIZED FREE ENERGY PREDICTED BY IDOCK:   -4.88 KCAL/MOL
REMARK 922        TOTAL FREE ENERGY PREDICTED BY IDOCK:   -5.01 KCAL/MOL
REMARK 923 INTER-LIGAND FREE ENERGY PREDICTED BY IDOCK:   -4.86 KCAL/MOL
REMARK 924 INTRA-LIGAND FREE ENERGY PREDICTED BY IDOCK:   -0.15 KCAL/MOL
REMARK 927      BINDING AFFINITY PREDICTED BY RF-SCORE:    0.00 PKD
ROOT
HETATM    1  C   UNL     1      -6.416  16.533  67.051  1.00  0.00    -0.221 C  
HETATM    2  C   UNL     1      -7.775  15.896  67.145  1.00  0.00    -0.247 A  
HETATM    3  C   UNL     1      -7.852  14.488  67.127  1.00  0.00    -0.131 A  
HETATM    4  C   UNL     1      -9.079  13.801  67.189  1.00  0.00    -0.243 A  
HETATM    5  C   UNL     1     -10.247  14.564  67.277  1.00  0.00    -0.255 A  
HETATM    6  C   UNL     1     -10.203  15.960  67.307  1.00  0.00    -0.278 A  
HETATM    7  S   UNL     1     -11.850  13.811  67.280  1.00  0.00    -0.403 S  
HETATM    8  O   UNL     1     -12.305  13.810  68.657  1.00  0.00    -0.271 OA 
HETATM    9  C   UNL     1     -11.542  12.135  66.789  1.00  0.00    -0.345 C  
HETATM   10  O   UNL     1     -12.617  14.447  66.226  1.00  0.00    -0.355 OA 
HETATM   11  C   UNL     1      -8.973  16.626  67.221  1.00  0.00    -0.200 A  
HETATM   12  C   UNL     1      -9.055  12.297  67.079  1.00  0.00    -0.201 C  
HETATM   13  C   UNL     1     -10.333  11.586  67.521  1.00  0.00    -0.220 C  
ENDROOT
BRANCH  11  14
HETATM   14  S   UNL     1      -9.046  18.402  67.155  1.00  0.00    -0.273 S  
HETATM   15  O   UNL     1      -8.697  18.888  65.841  1.00  0.00    -0.464 OA 
HETATM   16  N   UNL     1     -10.700  18.651  67.314  1.00  0.00    -0.424 N  
HETATM   17  O   UNL     1      -8.450  18.946  68.351  1.00  0.00    -0.325 OA 
HETATM   18  H1  UNL     1     -10.742  19.670  67.276  1.00  0.00     0.000 HD 
HETATM   19  H2  UNL     1     -11.454  17.971  67.419  1.00  0.00     0.000 HD 
ENDBRANCH  11  14
TORSDOF 1
ENDMDL
MODEL       49
REMARK 921   NORMALIZED FREE ENERGY PREDICTED BY IDOCK:   -4.88 KCAL/MOL
REMARK 922        TOTAL FREE ENERGY PREDICTED BY IDOCK:   -5.01 KCAL/MOL
REMARK 923 INTER-LIGAND FREE ENERGY PREDICTED BY IDOCK:   -4.85 KCAL/MOL
REMARK 924 INTRA-LIGAND FREE ENERGY PREDICTED BY IDOCK:   -0.15 KCAL/MOL
REMARK 927      BINDING AFFINITY PREDICTED BY RF-SCORE:    0.00 PKD
ROOT
HETATM    1  C   UNL     1      -8.727   8.670  65.287  1.00  0.00    -0.200 C  
HETATM    2  C   UNL     1      -9.362  10.009  65.542  1.00  0.00    -0.271 A  
HETATM    3  C   UNL     1     -10.115  10.596  64.504  1.00  0.00    -0.421 A  
HETATM    4  C   UNL     1     -10.730  11.854  64.641  1.00  0.00    -0.356 A  
HETATM    5  C   UNL     1     -10.580  12.523  65.860  1.00  0.00    -0.265 A  
HETATM    6  C   UNL     1      -9.849  11.962  66.911  1.00  0.00    -0.217 A  
HETATM    7  S   UNL     1     -11.241  14.145  66.118  1.00  0.00    -0.333 S  
HETATM    8  O   UNL     1     -12.455  13.979  66.893  1.00  0.00    -0.364 OA 
HETATM    9  C   UNL     1     -11.685  14.696  64.491  1.00  0.00    -0.401 C  
HETATM   10  O   UNL     1     -10.148  14.977  66.583  1.00  0.00    -0.250 OA 
HETATM   11  C   UNL     1      -9.224  10.718  66.747  1.00  0.00    -0.157 A  
HETATM   12  C   UNL     1     -11.443  12.429  63.442  1.00  0.00    -0.526 C  
HETATM   13  C   UNL     1     -12.393  13.588  63.736  1.00  0.00    -0.392 C  
ENDROOT
BRANCH  11  14
HETATM   14  S   UNL     1      -8.228  10.155  68.109  1.00  0.00    -0.114 S  
HETATM   15  O   UNL     1      -6.830  10.125  67.751  1.00  0.00    -0.074 OA 
HETATM   16  N   UNL     1      -8.404  11.443  69.174  1.00  0.00    -0.377 N  
HETATM   17  O   UNL     1      -8.878   9.032  68.739  1.00  0.00    -0.135 OA 
HETATM   18  H1  UNL     1      -7.833  11.120  69.955  1.00  0.00     0.000 HD 
HETATM   19  H2  UNL     1      -8.935  12.308  69.069  1.00  0.00     0.000 HD 
ENDBRANCH  11  14
TORSDOF 1
ENDMDL
MODEL       50
REMARK 921   NORMALIZED FREE ENERGY PREDICTED BY IDOCK:   -4.86 KCAL/MOL
REMARK 922        TOTAL FREE ENERGY PREDICTED BY IDOCK:   -4.98 KCAL/MOL
REMARK 923 INTER-LIGAND FREE ENERGY PREDICTED BY IDOCK:   -4.83 KCAL/MOL
REMARK 924 INTRA-LIGAND FREE ENERGY PREDICTED BY IDOCK:   -0.15 KCAL/MOL
REMARK 927      BINDING AFFINITY PREDICTED BY RF-SCORE:    0.00 PKD
ROOT
HETATM    1  C   UNL     1     -10.185  10.743  64.677  1.00  0.00    -0.419 C  
HETATM    2  C   UNL     1     -10.368  10.314  66.106  1.00  0.00    -0.253 A  
HETATM    3  C   UNL     1     -10.071   8.977  66.442  1.00  0.00    -0.351 A  
HETATM    4  C   UNL     1     -10.229   8.476  67.748  1.00  0.00    -0.283 A  
HETATM    5  C   UNL     1     -10.693   9.357  68.730  1.00  0.00    -0.171 A  
HETATM    6  C   UNL     1     -10.987  10.690  68.430  1.00  0.00    -0.303 A  
HETATM    7  S   UNL     1     -11.008   8.819  70.387  1.00  0.00    -0.229 S  
HETATM    8  O   UNL     1      -9.882   9.260  71.186  1.00  0.00    -0.285 OA 
HETATM    9  C   UNL     1     -10.962   7.048  70.283  1.00  0.00    -0.271 C  
HETATM   10  O   UNL     1     -12.367   9.208  70.706  1.00  0.00    -0.199 OA 
HETATM   11  C   UNL     1     -10.844  11.164  67.119  1.00  0.00    -0.273 A  
HETATM   12  C   UNL     1      -9.963   7.010  67.982  1.00  0.00    -0.178 C  
HETATM   13  C   UNL     1      -9.783   6.601  69.443  1.00  0.00    -0.153 C  
ENDROOT
BRANCH  11  14
HETATM   14  S   UNL     1     -11.353  12.844  66.832  1.00  0.00    -0.330 S  
HETATM   15  O   UNL     1     -12.491  12.897  65.946  1.00  0.00    -0.527 OA 
HETATM   16  N   UNL     1     -11.933  13.256  68.354  1.00  0.00    -0.338 N  
HETATM   17  O   UNL     1     -10.185  13.664  66.622  1.00  0.00    -0.266 OA 
HETATM   18  H1  UNL     1     -12.225  14.220  68.189  1.00  0.00     0.000 HD 
HETATM   19  H2  UNL     1     -11.981  12.697  69.206  1.00  0.00     0.000 HD 
ENDBRANCH  11  14
TORSDOF 1
ENDMDL
MODEL       51
REMARK 921   NORMALIZED FREE ENERGY PREDICTED BY IDOCK:   -4.74 KCAL/MOL
REMARK 922        TOTAL FREE ENERGY PREDICTED BY IDOCK:   -4.86 KCAL/MOL
REMARK 923 INTER-LIGAND FREE ENERGY PREDICTED BY IDOCK:   -4.87 KCAL/MOL
REMARK 924 INTRA-LIGAND FREE ENERGY PREDICTED BY IDOCK:    0.01 KCAL/MOL
REMARK 927      BINDING AFFINITY PREDICTED BY RF-SCORE:    0.00 PKD
ROOT
HETATM    1  C   UNL     1     -12.198  13.908  66.087  1.00  0.00    -0.498 C  
HETATM    2  C   UNL     1     -11.223  12.792  65.835  1.00  0.00    -0.334 A  
HETATM    3  C   UNL     1     -10.829  12.541  64.504  1.00  0.00    -0.360 A  
HETATM    4  C   UNL     1      -9.937  11.506  64.166  1.00  0.00    -0.327 A  
HETATM    5  C   UNL     1      -9.433  10.717  65.205  1.00  0.00    -0.227 A  
HETATM    6  C   UNL     1      -9.797  10.947  66.535  1.00  0.00    -0.245 A  
HETATM    7  S   UNL     1      -8.369   9.337  64.891  1.00  0.00    -0.168 S  
HETATM    8  O   UNL     1      -7.021   9.775  65.198  1.00  0.00    -0.104 OA 
HETATM    9  C   UNL     1      -8.491   9.085  63.140  1.00  0.00    -0.183 C  
HETATM   10  O   UNL     1      -8.963   8.188  65.546  1.00  0.00    -0.137 OA 
HETATM   11  C   UNL     1     -10.704  11.968  66.848  1.00  0.00    -0.244 A  
HETATM   12  C   UNL     1      -9.646  11.269  62.705  1.00  0.00    -0.327 C  
HETATM   13  C   UNL     1      -8.417  10.412  62.411  1.00  0.00    -0.231 C  
ENDROOT
BRANCH  11  14
HETATM   14  S   UNL     1     -11.180  12.097  68.557  1.00  0.00    -0.285 S  
HETATM   15  O   UNL     1     -12.365  11.317  68.826  1.00  0.00    -0.518 OA 
HETATM   16  N   UNL     1      -9.912  11.277  69.294  1.00  0.00    -0.428 N  
HETATM   17  O   UNL     1     -11.059  13.470  68.981  1.00  0.00    -0.252 OA 
HETATM   18  H1  UNL     1     -10.185  11.350  70.275  1.00  0.00     0.000 HD 
HETATM   19  H2  UNL     1      -9.096  10.829  68.877  1.00  0.00     0.000 HD 
ENDBRANCH  11  14
TORSDOF 1
ENDMDL
MODEL       52
REMARK 921   NORMALIZED FREE ENERGY PREDICTED BY IDOCK:   -4.69 KCAL/MOL
REMARK 922        TOTAL FREE ENERGY PREDICTED BY IDOCK:   -4.80 KCAL/MOL
REMARK 923 INTER-LIGAND FREE ENERGY PREDICTED BY IDOCK:   -4.99 KCAL/MOL
REMARK 924 INTRA-LIGAND FREE ENERGY PREDICTED BY IDOCK:    0.19 KCAL/MOL
REMARK 927      BINDING AFFINITY PREDICTED BY RF-SCORE:    0.00 PKD
ROOT
HETATM    1  C   UNL     1      -9.911   7.010  69.366  1.00  0.00    -0.160 C  
HETATM    2  C   UNL     1     -10.242   8.310  68.688  1.00  0.00    -0.223 A  
HETATM    3  C   UNL     1      -9.778   8.511  67.371  1.00  0.00    -0.222 A  
HETATM    4  C   UNL     1     -10.020   9.702  66.662  1.00  0.00    -0.301 A  
HETATM    5  C   UNL     1     -10.752  10.704  67.305  1.00  0.00    -0.285 A  
HETATM    6  C   UNL     1     -11.234  10.532  68.605  1.00  0.00    -0.328 A  
HETATM    7  S   UNL     1     -11.048  12.274  66.541  1.00  0.00    -0.316 S  
HETATM    8  O   UNL     1     -12.411  12.244  66.047  1.00  0.00    -0.609 OA 
HETATM    9  C   UNL     1      -9.948  12.293  65.150  1.00  0.00    -0.215 C  
HETATM   10  O   UNL     1     -10.599  13.289  67.474  1.00  0.00    -0.242 OA 
HETATM   11  C   UNL     1     -10.963   9.347  69.303  1.00  0.00    -0.117 A  
HETATM   12  C   UNL     1      -9.409   9.847  65.290  1.00  0.00    -0.309 C  
HETATM   13  C   UNL     1      -9.992  10.962  64.426  1.00  0.00    -0.381 C  
ENDROOT
BRANCH  11  14
HETATM   14  S   UNL     1     -11.528   9.284  70.989  1.00  0.00    -0.346 S  
HETATM   15  O   UNL     1     -12.276   8.075  71.240  1.00  0.00    -0.304 OA 
HETATM   16  N   UNL     1     -10.067   9.099  71.799  1.00  0.00    -0.299 N  
HETATM   17  O   UNL     1     -12.028  10.582  71.371  1.00  0.00    -0.330 OA 
HETATM   18  H1  UNL     1     -10.392   9.062  72.766  1.00  0.00     0.000 HD 
HETATM   19  H2  UNL     1      -9.120   9.039  71.427  1.00  0.00     0.000 HD 
ENDBRANCH  11  14
TORSDOF 1
ENDMDL
MODEL       53
REMARK 921   NORMALIZED FREE ENERGY PREDICTED BY IDOCK:   -4.66 KCAL/MOL
REMARK 922        TOTAL FREE ENERGY PREDICTED BY IDOCK:   -4.77 KCAL/MOL
REMARK 923 INTER-LIGAND FREE ENERGY PREDICTED BY IDOCK:   -5.03 KCAL/MOL
REMARK 924 INTRA-LIGAND FREE ENERGY PREDICTED BY IDOCK:    0.26 KCAL/MOL
REMARK 927      BINDING AFFINITY PREDICTED BY RF-SCORE:    0.00 PKD
ROOT
HETATM    1  C   UNL     1      -8.484  11.409  67.313  1.00  0.00    -0.148 C  
HETATM    2  C   UNL     1      -9.587  11.097  68.287  1.00  0.00    -0.185 A  
HETATM    3  C   UNL     1      -9.339  10.132  69.285  1.00  0.00    -0.227 A  
HETATM    4  C   UNL     1     -10.314   9.759  70.228  1.00  0.00    -0.348 A  
HETATM    5  C   UNL     1     -11.562  10.384  70.156  1.00  0.00    -0.312 A  
HETATM    6  C   UNL     1     -11.835  11.352  69.185  1.00  0.00    -0.413 A  
HETATM    7  S   UNL     1     -12.890   9.936  71.238  1.00  0.00    -0.407 S  
HETATM    8  O   UNL     1     -12.956  10.963  72.259  1.00  0.00    -0.324 OA 
HETATM    9  C   UNL     1     -12.343   8.428  71.994  1.00  0.00    -0.361 C  
HETATM   10  O   UNL     1     -14.030   9.622  70.399  1.00  0.00     0.272 OA 
HETATM   11  C   UNL     1     -10.858  11.694  68.240  1.00  0.00    -0.219 A  
HETATM   12  C   UNL     1      -9.973   8.657  71.201  1.00  0.00    -0.289 C  
HETATM   13  C   UNL     1     -10.892   8.547  72.416  1.00  0.00    -0.378 C  
ENDROOT
BRANCH  11  14
HETATM   14  S   UNL     1     -11.353  12.852  66.984  1.00  0.00    -0.327 S  
HETATM   15  O   UNL     1     -12.222  12.227  66.015  1.00  0.00    -0.646 OA 
HETATM   16  N   UNL     1     -12.330  13.883  67.882  1.00  0.00    -0.453 N  
HETATM   17  O   UNL     1     -10.211  13.639  66.588  1.00  0.00    -0.266 OA 
HETATM   18  H1  UNL     1     -12.615  14.548  67.161  1.00  0.00     0.000 HD 
HETATM   19  H2  UNL     1     -12.573  13.853  68.872  1.00  0.00     0.000 HD 
ENDBRANCH  11  14
TORSDOF 1
ENDMDL
MODEL       54
REMARK 921   NORMALIZED FREE ENERGY PREDICTED BY IDOCK:   -4.64 KCAL/MOL
REMARK 922        TOTAL FREE ENERGY PREDICTED BY IDOCK:   -4.75 KCAL/MOL
REMARK 923 INTER-LIGAND FREE ENERGY PREDICTED BY IDOCK:   -4.97 KCAL/MOL
REMARK 924 INTRA-LIGAND FREE ENERGY PREDICTED BY IDOCK:    0.22 KCAL/MOL
REMARK 927      BINDING AFFINITY PREDICTED BY RF-SCORE:    0.00 PKD
ROOT
HETATM    1  C   UNL     1     -12.096  13.599  68.635  1.00  0.00    -0.325 C  
HETATM    2  C   UNL     1     -11.611  12.179  68.721  1.00  0.00    -0.380 A  
HETATM    3  C   UNL     1     -11.745  11.504  69.953  1.00  0.00    -0.420 A  
HETATM    4  C   UNL     1     -11.302  10.181  70.137  1.00  0.00    -0.372 A  
HETATM    5  C   UNL     1     -10.718   9.532  69.045  1.00  0.00    -0.202 A  
HETATM    6  C   UNL     1     -10.580  10.171  67.809  1.00  0.00    -0.304 A  
HETATM    7  S   UNL     1     -10.053   7.897  69.182  1.00  0.00    -0.200 S  
HETATM    8  O   UNL     1     -11.030   7.002  68.595  1.00  0.00    -0.177 OA 
HETATM    9  C   UNL     1      -9.996   7.598  70.930  1.00  0.00    -0.180 C  
HETATM   10  O   UNL     1      -8.686   7.956  68.700  1.00  0.00    -0.128 OA 
HETATM   11  C   UNL     1     -11.006  11.497  67.652  1.00  0.00    -0.242 A  
HETATM   12  C   UNL     1     -11.418   9.581  71.516  1.00  0.00    -0.466 C  
HETATM   13  C   UNL     1     -11.283   8.061  71.585  1.00  0.00    -0.301 C  
ENDROOT
BRANCH  11  14
HETATM   14  S   UNL     1     -10.679  12.243  66.071  1.00  0.00    -0.272 S  
HETATM   15  O   UNL     1     -10.186  11.268  65.129  1.00  0.00    -0.260 OA 
HETATM   16  N   UNL     1     -12.240  12.616  65.575  1.00  0.00    -0.460 N  
HETATM   17  O   UNL     1     -10.018  13.510  66.273  1.00  0.00    -0.285 OA 
HETATM   18  H1  UNL     1     -12.052  13.044  64.668  1.00  0.00     0.000 HD 
HETATM   19  H2  UNL     1     -13.130  12.458  66.049  1.00  0.00     0.000 HD 
ENDBRANCH  11  14
TORSDOF 1
ENDMDL
MODEL       55
REMARK 921   NORMALIZED FREE ENERGY PREDICTED BY IDOCK:   -4.63 KCAL/MOL
REMARK 922        TOTAL FREE ENERGY PREDICTED BY IDOCK:   -4.74 KCAL/MOL
REMARK 923 INTER-LIGAND FREE ENERGY PREDICTED BY IDOCK:   -4.60 KCAL/MOL
REMARK 924 INTRA-LIGAND FREE ENERGY PREDICTED BY IDOCK:   -0.14 KCAL/MOL
REMARK 927      BINDING AFFINITY PREDICTED BY RF-SCORE:    0.00 PKD
ROOT
HETATM    1  C   UNL     1     -10.631  18.566  67.653  1.00  0.00    -0.450 C  
HETATM    2  C   UNL     1     -10.259  17.111  67.599  1.00  0.00    -0.329 A  
HETATM    3  C   UNL     1     -11.247  16.159  67.930  1.00  0.00    -0.245 A  
HETATM    4  C   UNL     1     -10.989  14.776  67.928  1.00  0.00    -0.282 A  
HETATM    5  C   UNL     1      -9.703  14.355  67.576  1.00  0.00    -0.215 A  
HETATM    6  C   UNL     1      -8.706  15.272  67.234  1.00  0.00    -0.216 A  
HETATM    7  S   UNL     1      -9.241  12.645  67.617  1.00  0.00    -0.201 S  
HETATM    8  O   UNL     1      -9.263  12.178  66.245  1.00  0.00    -0.220 OA 
HETATM    9  C   UNL     1     -10.566  11.860  68.498  1.00  0.00    -0.222 C  
HETATM   10  O   UNL     1      -8.048  12.550  68.435  1.00  0.00    -0.151 OA 
HETATM   11  C   UNL     1      -8.976  16.647  67.264  1.00  0.00    -0.200 A  
HETATM   12  C   UNL     1     -12.091  13.849  68.377  1.00  0.00    -0.327 C  
HETATM   13  C   UNL     1     -11.903  12.379  68.008  1.00  0.00    -0.376 C  
ENDROOT
BRANCH  11  14
HETATM   14  S   UNL     1      -7.602  17.723  66.920  1.00  0.00    -0.223 S  
HETATM   15  O   UNL     1      -7.290  18.548  68.063  1.00  0.00    -0.238 OA 
HETATM   16  N   UNL     1      -6.353  16.605  66.805  1.00  0.00    -0.173 N  
HETATM   17  O   UNL     1      -7.755  18.280  65.598  1.00  0.00    -0.529 OA 
HETATM   18  H1  UNL     1      -5.565  17.222  66.607  1.00  0.00     0.000 HD 
HETATM   19  H2  UNL     1      -6.376  15.590  66.904  1.00  0.00     0.000 HD 
ENDBRANCH  11  14
TORSDOF 1
ENDMDL
MODEL       56
REMARK 921   NORMALIZED FREE ENERGY PREDICTED BY IDOCK:   -4.62 KCAL/MOL
REMARK 922        TOTAL FREE ENERGY PREDICTED BY IDOCK:   -4.73 KCAL/MOL
REMARK 923 INTER-LIGAND FREE ENERGY PREDICTED BY IDOCK:   -4.75 KCAL/MOL
REMARK 924 INTRA-LIGAND FREE ENERGY PREDICTED BY IDOCK:    0.03 KCAL/MOL
REMARK 927      BINDING AFFINITY PREDICTED BY RF-SCORE:    0.00 PKD
ROOT
HETATM    1  C   UNL     1     -10.735  19.655  65.504  1.00  0.00    -0.323 C  
HETATM    2  C   UNL     1     -10.384  18.278  65.994  1.00  0.00    -0.377 A  
HETATM    3  C   UNL     1     -10.911  17.170  65.300  1.00  0.00     0.031 A  
HETATM    4  C   UNL     1     -10.656  15.844  65.695  1.00  0.00    -0.393 A  
HETATM    5  C   UNL     1      -9.843  15.644  66.815  1.00  0.00    -0.244 A  
HETATM    6  C   UNL     1      -9.297  16.721  67.518  1.00  0.00    -0.231 A  
HETATM    7  S   UNL     1      -9.519  14.023  67.451  1.00  0.00    -0.233 S  
HETATM    8  O   UNL     1      -8.189  13.660  67.003  1.00  0.00    -0.146 OA 
HETATM    9  C   UNL     1     -10.694  12.988  66.618  1.00  0.00    -0.274 C  
HETATM   10  O   UNL     1      -9.869  14.045  68.858  1.00  0.00    -0.181 OA 
HETATM   11  C   UNL     1      -9.582  18.035  67.122  1.00  0.00    -0.281 A  
HETATM   12  C   UNL     1     -11.336  14.733  64.933  1.00  0.00    -0.411 C  
HETATM   13  C   UNL     1     -10.752  13.338  65.144  1.00  0.00    -0.333 C  
ENDROOT
BRANCH  11  14
HETATM   14  S   UNL     1      -8.926  19.325  68.157  1.00  0.00    -0.335 S  
HETATM   15  O   UNL     1      -9.860  19.680  69.199  1.00  0.00    -0.424 OA 
HETATM   16  N   UNL     1      -7.674  18.504  68.920  1.00  0.00    -0.270 N  
HETATM   17  O   UNL     1      -8.295  20.323  67.328  1.00  0.00    -0.329 OA 
HETATM   18  H1  UNL     1      -7.298  19.244  69.513  1.00  0.00     0.000 HD 
HETATM   19  H2  UNL     1      -7.373  17.535  68.818  1.00  0.00     0.000 HD 
ENDBRANCH  11  14
TORSDOF 1
ENDMDL
MODEL       57
REMARK 921   NORMALIZED FREE ENERGY PREDICTED BY IDOCK:   -4.61 KCAL/MOL
REMARK 922        TOTAL FREE ENERGY PREDICTED BY IDOCK:   -4.72 KCAL/MOL
REMARK 923 INTER-LIGAND FREE ENERGY PREDICTED BY IDOCK:   -4.56 KCAL/MOL
REMARK 924 INTRA-LIGAND FREE ENERGY PREDICTED BY IDOCK:   -0.15 KCAL/MOL
REMARK 927      BINDING AFFINITY PREDICTED BY RF-SCORE:    0.00 PKD
ROOT
HETATM    1  C   UNL     1     -11.947  13.376  67.536  1.00  0.00    -0.381 C  
HETATM    2  C   UNL     1     -10.825  14.376  67.532  1.00  0.00    -0.285 A  
HETATM    3  C   UNL     1     -11.148  15.739  67.702  1.00  0.00    -0.283 A  
HETATM    4  C   UNL     1     -10.169  16.750  67.692  1.00  0.00    -0.289 A  
HETATM    5  C   UNL     1      -8.837  16.365  67.512  1.00  0.00    -0.179 A  
HETATM    6  C   UNL     1      -8.484  15.022  67.352  1.00  0.00    -0.202 A  
HETATM    7  S   UNL     1      -7.532  17.556  67.402  1.00  0.00    -0.199 S  
HETATM    8  O   UNL     1      -6.867  17.562  68.690  1.00  0.00    -0.206 OA 
HETATM    9  C   UNL     1      -8.374  19.104  67.197  1.00  0.00    -0.279 C  
HETATM   10  O   UNL     1      -6.811  17.280  66.174  1.00  0.00    -0.247 OA 
HETATM   11  C   UNL     1      -9.476  14.032  67.341  1.00  0.00    -0.225 A  
HETATM   12  C   UNL     1     -10.629  18.183  67.798  1.00  0.00    -0.407 C  
HETATM   13  C   UNL     1      -9.545  19.196  68.157  1.00  0.00    -0.411 C  
ENDROOT
BRANCH  11  14
HETATM   14  S   UNL     1      -8.924  12.372  67.017  1.00  0.00    -0.213 S  
HETATM   15  O   UNL     1      -9.353  11.928  65.713  1.00  0.00    -0.226 OA 
HETATM   16  N   UNL     1      -7.265  12.615  66.899  1.00  0.00    -0.366 N  
HETATM   17  O   UNL     1      -9.119  11.568  68.199  1.00  0.00    -0.167 OA 
HETATM   18  H1  UNL     1      -6.948  11.664  66.713  1.00  0.00     0.000 HD 
HETATM   19  H2  UNL     1      -6.725  13.476  66.988  1.00  0.00     0.000 HD 
ENDBRANCH  11  14
TORSDOF 1
ENDMDL
MODEL       58
REMARK 921   NORMALIZED FREE ENERGY PREDICTED BY IDOCK:   -4.59 KCAL/MOL
REMARK 922        TOTAL FREE ENERGY PREDICTED BY IDOCK:   -4.69 KCAL/MOL
REMARK 923 INTER-LIGAND FREE ENERGY PREDICTED BY IDOCK:   -5.14 KCAL/MOL
REMARK 924 INTRA-LIGAND FREE ENERGY PREDICTED BY IDOCK:    0.45 KCAL/MOL
REMARK 927      BINDING AFFINITY PREDICTED BY RF-SCORE:    0.00 PKD
ROOT
HETATM    1  C   UNL     1     -12.350  13.307  70.222  1.00  0.00    -0.334 C  
HETATM    2  C   UNL     1     -11.683  12.164  69.509  1.00  0.00    -0.402 A  
HETATM    3  C   UNL     1     -11.023  12.433  68.291  1.00  0.00    -0.269 A  
HETATM    4  C   UNL     1     -10.388  11.426  67.541  1.00  0.00    -0.224 A  
HETATM    5  C   UNL     1     -10.420  10.122  68.044  1.00  0.00    -0.209 A  
HETATM    6  C   UNL     1     -11.057   9.825  69.252  1.00  0.00    -0.184 A  
HETATM    7  S   UNL     1      -9.725   8.763  67.148  1.00  0.00    -0.210 S  
HETATM    8  O   UNL     1      -8.447   8.470  67.766  1.00  0.00    -0.128 OA 
HETATM    9  C   UNL     1      -9.428   9.420  65.527  1.00  0.00    -0.260 C  
HETATM   10  O   UNL     1     -10.764   7.757  67.033  1.00  0.00    -0.347 OA 
HETATM   11  C   UNL     1     -11.704  10.838  69.973  1.00  0.00    -0.336 A  
HETATM   12  C   UNL     1      -9.783  11.807  66.213  1.00  0.00    -0.242 C  
HETATM   13  C   UNL     1      -8.801  10.796  65.624  1.00  0.00    -0.202 C  
ENDROOT
BRANCH  11  14
HETATM   14  S   UNL     1     -12.576  10.325  71.436  1.00  0.00    -0.467 S  
HETATM   15  O   UNL     1     -13.255  11.439  72.053  1.00  0.00    -0.503 OA 
HETATM   16  N   UNL     1     -13.780   9.368  70.760  1.00  0.00    -0.536 N  
HETATM   17  O   UNL     1     -11.741   9.427  72.196  1.00  0.00    -0.290 OA 
HETATM   18  H1  UNL     1     -14.281   9.074  71.599  1.00  0.00     0.000 HD 
HETATM   19  H2  UNL     1     -13.961   9.144  69.781  1.00  0.00     0.000 HD 
ENDBRANCH  11  14
TORSDOF 1
ENDMDL
MODEL       59
REMARK 921   NORMALIZED FREE ENERGY PREDICTED BY IDOCK:   -4.58 KCAL/MOL
REMARK 922        TOTAL FREE ENERGY PREDICTED BY IDOCK:   -4.69 KCAL/MOL
REMARK 923 INTER-LIGAND FREE ENERGY PREDICTED BY IDOCK:   -4.58 KCAL/MOL
REMARK 924 INTRA-LIGAND FREE ENERGY PREDICTED BY IDOCK:   -0.11 KCAL/MOL
REMARK 927      BINDING AFFINITY PREDICTED BY RF-SCORE:    0.00 PKD
ROOT
HETATM    1  C   UNL     1     -10.396  14.493  65.222  1.00  0.00    -0.435 C  
HETATM    2  C   UNL     1     -10.276  13.398  66.245  1.00  0.00    -0.298 A  
HETATM    3  C   UNL     1     -10.209  12.065  65.789  1.00  0.00    -0.274 A  
HETATM    4  C   UNL     1     -10.116  10.972  66.670  1.00  0.00    -0.262 A  
HETATM    5  C   UNL     1     -10.084  11.244  68.041  1.00  0.00    -0.177 A  
HETATM    6  C   UNL     1     -10.138  12.554  68.525  1.00  0.00    -0.186 A  
HETATM    7  S   UNL     1     -10.050   9.945  69.245  1.00  0.00    -0.218 S  
HETATM    8  O   UNL     1      -8.680   9.846  69.708  1.00  0.00    -0.194 OA 
HETATM    9  C   UNL     1     -10.436   8.484  68.317  1.00  0.00    -0.171 C  
HETATM   10  O   UNL     1     -11.147  10.190  70.161  1.00  0.00    -0.269 OA 
HETATM   11  C   UNL     1     -10.254  13.628  67.631  1.00  0.00    -0.239 A  
HETATM   12  C   UNL     1     -10.134   9.584  66.082  1.00  0.00    -0.326 C  
HETATM   13  C   UNL     1      -9.662   8.469  67.013  1.00  0.00    -0.266 C  
ENDROOT
BRANCH  11  14
HETATM   14  S   UNL     1     -10.428  15.240  68.362  1.00  0.00    -0.241 S  
HETATM   15  O   UNL     1     -11.803  15.679  68.330  1.00  0.00    -0.346 OA 
HETATM   16  N   UNL     1     -10.093  14.889  69.971  1.00  0.00    -0.473 N  
HETATM   17  O   UNL     1      -9.349  16.084  67.910  1.00  0.00    -0.206 OA 
HETATM   18  H1  UNL     1     -10.193  15.814  70.390  1.00  0.00     0.000 HD 
HETATM   19  H2  UNL     1      -9.855  13.998  70.407  1.00  0.00     0.000 HD 
ENDBRANCH  11  14
TORSDOF 1
ENDMDL
MODEL       60
REMARK 921   NORMALIZED FREE ENERGY PREDICTED BY IDOCK:   -4.55 KCAL/MOL
REMARK 922        TOTAL FREE ENERGY PREDICTED BY IDOCK:   -4.66 KCAL/MOL
REMARK 923 INTER-LIGAND FREE ENERGY PREDICTED BY IDOCK:   -4.57 KCAL/MOL
REMARK 924 INTRA-LIGAND FREE ENERGY PREDICTED BY IDOCK:   -0.09 KCAL/MOL
REMARK 927      BINDING AFFINITY PREDICTED BY RF-SCORE:    0.00 PKD
ROOT
HETATM    1  C   UNL     1     -12.375  13.404  66.061  1.00  0.00    -0.471 C  
HETATM    2  C   UNL     1     -11.030  13.826  66.583  1.00  0.00    -0.298 A  
HETATM    3  C   UNL     1     -10.559  15.112  66.245  1.00  0.00    -0.312 A  
HETATM    4  C   UNL     1      -9.305  15.589  66.669  1.00  0.00    -0.291 A  
HETATM    5  C   UNL     1      -8.519  14.742  67.456  1.00  0.00    -0.192 A  
HETATM    6  C   UNL     1      -8.962  13.466  67.816  1.00  0.00    -0.205 A  
HETATM    7  S   UNL     1      -6.891  15.204  67.979  1.00  0.00    -0.157 S  
HETATM    8  O   UNL     1      -7.004  15.618  69.364  1.00  0.00    -0.170 OA 
HETATM    9  C   UNL     1      -6.509  16.630  66.996  1.00  0.00    -0.196 C  
HETATM   10  O   UNL     1      -5.999  14.135  67.574  1.00  0.00    -0.337 OA 
HETATM   11  C   UNL     1     -10.204  13.000  67.365  1.00  0.00    -0.231 A  
HETATM   12  C   UNL     1      -8.862  16.947  66.183  1.00  0.00    -0.279 C  
HETATM   13  C   UNL     1      -7.697  17.570  66.950  1.00  0.00    -0.248 C  
ENDROOT
BRANCH  11  14
HETATM   14  S   UNL     1     -10.614  11.322  67.790  1.00  0.00    -0.215 S  
HETATM   15  O   UNL     1     -10.366  10.431  66.682  1.00  0.00    -0.229 OA 
HETATM   16  N   UNL     1      -9.421  10.990  68.926  1.00  0.00    -0.303 N  
HETATM   17  O   UNL     1     -11.862  11.308  68.514  1.00  0.00    -0.438 OA 
HETATM   18  H1  UNL     1      -9.656  10.028  69.169  1.00  0.00     0.000 HD 
HETATM   19  H2  UNL     1      -8.670  11.585  69.274  1.00  0.00     0.000 HD 
ENDBRANCH  11  14
TORSDOF 1
ENDMDL
MODEL       61
REMARK 921   NORMALIZED FREE ENERGY PREDICTED BY IDOCK:   -4.52 KCAL/MOL
REMARK 922        TOTAL FREE ENERGY PREDICTED BY IDOCK:   -4.63 KCAL/MOL
REMARK 923 INTER-LIGAND FREE ENERGY PREDICTED BY IDOCK:   -4.99 KCAL/MOL
REMARK 924 INTRA-LIGAND FREE ENERGY PREDICTED BY IDOCK:    0.36 KCAL/MOL
REMARK 927      BINDING AFFINITY PREDICTED BY RF-SCORE:    0.00 PKD
ROOT
HETATM    1  C   UNL     1      -9.249   8.172  65.974  1.00  0.00    -0.207 C  
HETATM    2  C   UNL     1      -9.847   7.849  67.315  1.00  0.00    -0.256 A  
HETATM    3  C   UNL     1     -10.129   8.918  68.192  1.00  0.00    -0.227 A  
HETATM    4  C   UNL     1     -10.670   8.715  69.475  1.00  0.00    -0.189 A  
HETATM    5  C   UNL     1     -10.934   7.400  69.869  1.00  0.00    -0.223 A  
HETATM    6  C   UNL     1     -10.675   6.320  69.019  1.00  0.00    -0.362 A  
HETATM    7  S   UNL     1     -11.538   7.018  71.489  1.00  0.00    -0.306 S  
HETATM    8  O   UNL     1     -12.959   6.767  71.352  1.00  0.00    -0.314 OA 
HETATM    9  C   UNL     1     -11.320   8.526  72.398  1.00  0.00    -0.342 C  
HETATM   10  O   UNL     1     -10.641   6.028  72.052  1.00  0.00    -0.209 OA 
HETATM   11  C   UNL     1     -10.115   6.541  67.754  1.00  0.00    -0.148 A  
HETATM   12  C   UNL     1     -10.856   9.919  70.364  1.00  0.00    -0.380 C  
HETATM   13  C   UNL     1     -11.772   9.711  71.568  1.00  0.00    -0.472 C  
ENDROOT
BRANCH  11  14
HETATM   14  S   UNL     1      -9.724   5.089  66.805  1.00  0.00    -0.195 S  
HETATM   15  O   UNL     1      -9.639   3.923  67.651  1.00  0.00    -0.186 OA 
HETATM   16  N   UNL     1     -11.138   4.910  65.915  1.00  0.00    -0.839 N  
HETATM   17  O   UNL     1      -8.695   5.411  65.847  1.00  0.00    -0.134 OA 
HETATM   18  H1  UNL     1     -10.914   4.077  65.370  1.00  0.00     0.000 HD 
HETATM   19  H2  UNL     1     -11.986   5.478  65.918  1.00  0.00     0.000 HD 
ENDBRANCH  11  14
TORSDOF 1
ENDMDL
MODEL       62
REMARK 921   NORMALIZED FREE ENERGY PREDICTED BY IDOCK:   -4.51 KCAL/MOL
REMARK 922        TOTAL FREE ENERGY PREDICTED BY IDOCK:   -4.61 KCAL/MOL
REMARK 923 INTER-LIGAND FREE ENERGY PREDICTED BY IDOCK:   -4.49 KCAL/MOL
REMARK 924 INTRA-LIGAND FREE ENERGY PREDICTED BY IDOCK:   -0.12 KCAL/MOL
REMARK 927      BINDING AFFINITY PREDICTED BY RF-SCORE:    0.00 PKD
ROOT
HETATM    1  C   UNL     1     -12.147  10.806  70.431  1.00  0.00    -0.443 C  
HETATM    2  C   UNL     1     -11.446  11.824  69.576  1.00  0.00    -0.363 A  
HETATM    3  C   UNL     1     -11.816  13.178  69.717  1.00  0.00    -0.386 A  
HETATM    4  C   UNL     1     -11.231  14.201  68.947  1.00  0.00    -0.294 A  
HETATM    5  C   UNL     1     -10.247  13.838  68.022  1.00  0.00    -0.248 A  
HETATM    6  C   UNL     1      -9.852  12.507  67.867  1.00  0.00    -0.207 A  
HETATM    7  S   UNL     1      -9.501  15.028  66.944  1.00  0.00    -0.250 S  
HETATM    8  O   UNL     1      -8.199  15.335  67.504  1.00  0.00    -0.150 OA 
HETATM    9  C   UNL     1     -10.532  16.463  67.102  1.00  0.00    -0.297 C  
HETATM   10  O   UNL     1      -9.649  14.524  65.592  1.00  0.00    -0.275 OA 
HETATM   11  C   UNL     1     -10.462  11.499  68.626  1.00  0.00    -0.202 A  
HETATM   12  C   UNL     1     -11.757  15.605  69.117  1.00  0.00    -0.402 C  
HETATM   13  C   UNL     1     -10.865  16.713  68.560  1.00  0.00    -0.356 C  
ENDROOT
BRANCH  11  14
HETATM   14  S   UNL     1      -9.960   9.832  68.265  1.00  0.00    -0.159 S  
HETATM   15  O   UNL     1     -10.962   9.146  67.483  1.00  0.00    -0.176 OA 
HETATM   16  N   UNL     1      -8.675  10.115  67.221  1.00  0.00    -0.129 N  
HETATM   17  O   UNL     1      -9.383   9.243  69.449  1.00  0.00    -0.153 OA 
HETATM   18  H1  UNL     1      -8.387   9.158  67.013  1.00  0.00     0.000 HD 
HETATM   19  H2  UNL     1      -8.289  10.998  66.887  1.00  0.00     0.000 HD 
ENDBRANCH  11  14
TORSDOF 1
ENDMDL
MODEL       63
REMARK 921   NORMALIZED FREE ENERGY PREDICTED BY IDOCK:   -4.50 KCAL/MOL
REMARK 922        TOTAL FREE ENERGY PREDICTED BY IDOCK:   -4.61 KCAL/MOL
REMARK 923 INTER-LIGAND FREE ENERGY PREDICTED BY IDOCK:   -4.47 KCAL/MOL
REMARK 924 INTRA-LIGAND FREE ENERGY PREDICTED BY IDOCK:   -0.14 KCAL/MOL
REMARK 927      BINDING AFFINITY PREDICTED BY RF-SCORE:    0.00 PKD
ROOT
HETATM    1  C   UNL     1     -10.742  15.582  65.663  1.00  0.00    -0.378 C  
HETATM    2  C   UNL     1      -9.744  16.319  66.511  1.00  0.00    -0.281 A  
HETATM    3  C   UNL     1      -8.823  17.170  65.866  1.00  0.00    -0.008 A  
HETATM    4  C   UNL     1      -7.838  17.886  66.572  1.00  0.00    -0.298 A  
HETATM    5  C   UNL     1      -7.796  17.736  67.961  1.00  0.00    -0.241 A  
HETATM    6  C   UNL     1      -8.701  16.908  68.631  1.00  0.00    -0.267 A  
HETATM    7  S   UNL     1      -6.551  18.523  68.944  1.00  0.00    -0.267 S  
HETATM    8  O   UNL     1      -7.176  19.679  69.556  1.00  0.00    -0.328 OA 
HETATM    9  C   UNL     1      -5.360  19.092  67.759  1.00  0.00    -0.170 C  
HETATM   10  O   UNL     1      -5.923  17.487  69.739  1.00  0.00    -0.240 OA 
HETATM   11  C   UNL     1      -9.660  16.186  67.907  1.00  0.00    -0.223 A  
HETATM   12  C   UNL     1      -6.850  18.703  65.778  1.00  0.00    -0.307 C  
HETATM   13  C   UNL     1      -6.059  19.736  66.578  1.00  0.00    -0.174 C  
ENDROOT
BRANCH  11  14
HETATM   14  S   UNL     1     -10.685  15.079  68.851  1.00  0.00    -0.250 S  
HETATM   15  O   UNL     1     -10.488  13.710  68.437  1.00  0.00    -0.235 OA 
HETATM   16  N   UNL     1      -9.969  15.210  70.365  1.00  0.00    -0.428 N  
HETATM   17  O   UNL     1     -12.001  15.652  68.987  1.00  0.00    -0.374 OA 
HETATM   18  H1  UNL     1     -10.557  14.575  70.907  1.00  0.00     0.000 HD 
HETATM   19  H2  UNL     1      -9.169  15.769  70.662  1.00  0.00     0.000 HD 
ENDBRANCH  11  14
TORSDOF 1
ENDMDL
MODEL       64
REMARK 921   NORMALIZED FREE ENERGY PREDICTED BY IDOCK:   -4.48 KCAL/MOL
REMARK 922        TOTAL FREE ENERGY PREDICTED BY IDOCK:   -4.58 KCAL/MOL
REMARK 923 INTER-LIGAND FREE ENERGY PREDICTED BY IDOCK:   -4.42 KCAL/MOL
REMARK 924 INTRA-LIGAND FREE ENERGY PREDICTED BY IDOCK:   -0.15 KCAL/MOL
REMARK 927      BINDING AFFINITY PREDICTED BY RF-SCORE:    0.00 PKD
ROOT
HETATM    1  C   UNL     1     -10.129  14.122  66.479  1.00  0.00    -0.283 C  
HETATM    2  C   UNL     1     -10.758  13.219  67.503  1.00  0.00    -0.259 A  
HETATM    3  C   UNL     1     -11.348  13.812  68.639  1.00  0.00    -0.321 A  
HETATM    4  C   UNL     1     -11.943  13.050  69.661  1.00  0.00    -0.367 A  
HETATM    5  C   UNL     1     -11.941  11.659  69.521  1.00  0.00    -0.317 A  
HETATM    6  C   UNL     1     -11.373  11.042  68.402  1.00  0.00    -0.363 A  
HETATM    7  S   UNL     1     -12.589  10.596  70.781  1.00  0.00    -0.397 S  
HETATM    8  O   UNL     1     -13.900  10.172  70.331  1.00  0.00     0.237 OA 
HETATM    9  C   UNL     1     -12.794  11.663  72.183  1.00  0.00     0.033 C  
HETATM   10  O   UNL     1     -11.547   9.639  71.102  1.00  0.00    -0.319 OA 
HETATM   11  C   UNL     1     -10.765  11.818  67.406  1.00  0.00    -0.236 A  
HETATM   12  C   UNL     1     -12.472  13.778  70.872  1.00  0.00    -0.451 C  
HETATM   13  C   UNL     1     -13.423  12.975  71.758  1.00  0.00    -0.401 C  
ENDROOT
BRANCH  11  14
HETATM   14  S   UNL     1      -9.977  10.921  66.087  1.00  0.00    -0.242 S  
HETATM   15  O   UNL     1      -8.543  11.081  66.135  1.00  0.00    -0.169 OA 
HETATM   16  N   UNL     1     -10.281   9.339  66.563  1.00  0.00    -0.266 N  
HETATM   17  O   UNL     1     -10.725  11.116  64.868  1.00  0.00    -0.302 OA 
HETATM   18  H1  UNL     1      -9.829   8.825  65.806  1.00  0.00     0.000 HD 
HETATM   19  H2  UNL     1     -10.779   8.989  67.381  1.00  0.00     0.000 HD 
ENDBRANCH  11  14
TORSDOF 1
ENDMDL
MODEL       65
REMARK 921   NORMALIZED FREE ENERGY PREDICTED BY IDOCK:   -4.43 KCAL/MOL
REMARK 922        TOTAL FREE ENERGY PREDICTED BY IDOCK:   -4.53 KCAL/MOL
REMARK 923 INTER-LIGAND FREE ENERGY PREDICTED BY IDOCK:   -4.69 KCAL/MOL
REMARK 924 INTRA-LIGAND FREE ENERGY PREDICTED BY IDOCK:    0.16 KCAL/MOL
REMARK 927      BINDING AFFINITY PREDICTED BY RF-SCORE:    0.00 PKD
ROOT
HETATM    1  C   UNL     1     -10.825  12.065  65.093  1.00  0.00    -0.347 C  
HETATM    2  C   UNL     1     -10.657  11.137  66.264  1.00  0.00    -0.309 A  
HETATM    3  C   UNL     1     -11.381  11.415  67.442  1.00  0.00    -0.359 A  
HETATM    4  C   UNL     1     -11.275  10.616  68.596  1.00  0.00    -0.337 A  
HETATM    5  C   UNL     1     -10.420   9.511  68.545  1.00  0.00    -0.217 A  
HETATM    6  C   UNL     1      -9.697   9.203  67.390  1.00  0.00    -0.211 A  
HETATM    7  S   UNL     1     -10.146   8.483  69.961  1.00  0.00    -0.197 S  
HETATM    8  O   UNL     1     -10.942   7.287  69.764  1.00  0.00    -0.248 OA 
HETATM    9  C   UNL     1     -10.842   9.405  71.307  1.00  0.00    -0.361 C  
HETATM   10  O   UNL     1      -8.712   8.419  70.164  1.00  0.00    -0.131 OA 
HETATM   11  C   UNL     1      -9.799  10.024  66.258  1.00  0.00    -0.236 A  
HETATM   12  C   UNL     1     -12.029  11.049  69.829  1.00  0.00    -0.428 C  
HETATM   13  C   UNL     1     -12.186   9.982  70.910  1.00  0.00    -0.441 C  
ENDROOT
BRANCH  11  14
HETATM   14  S   UNL     1      -8.749   9.602  64.886  1.00  0.00    -0.195 S  
HETATM   15  O   UNL     1      -9.446   9.759  63.631  1.00  0.00    -0.217 OA 
HETATM   16  N   UNL     1      -7.632  10.855  64.953  1.00  0.00    -0.337 N  
HETATM   17  O   UNL     1      -8.014   8.402  65.203  1.00  0.00    -0.119 OA 
HETATM   18  H1  UNL     1      -7.029  10.613  64.166  1.00  0.00     0.000 HD 
HETATM   19  H2  UNL     1      -7.572  11.641  65.601  1.00  0.00     0.000 HD 
ENDBRANCH  11  14
TORSDOF 1
ENDMDL
MODEL       66
REMARK 921   NORMALIZED FREE ENERGY PREDICTED BY IDOCK:   -4.43 KCAL/MOL
REMARK 922        TOTAL FREE ENERGY PREDICTED BY IDOCK:   -4.53 KCAL/MOL
REMARK 923 INTER-LIGAND FREE ENERGY PREDICTED BY IDOCK:   -4.41 KCAL/MOL
REMARK 924 INTRA-LIGAND FREE ENERGY PREDICTED BY IDOCK:   -0.12 KCAL/MOL
REMARK 927      BINDING AFFINITY PREDICTED BY RF-SCORE:    0.00 PKD
ROOT
HETATM    1  C   UNL     1      -9.958  10.072  65.081  1.00  0.00    -0.350 C  
HETATM    2  C   UNL     1     -10.014  11.329  65.903  1.00  0.00    -0.277 A  
HETATM    3  C   UNL     1     -10.187  12.557  65.230  1.00  0.00    -0.302 A  
HETATM    4  C   UNL     1     -10.231  13.787  65.911  1.00  0.00    -0.322 A  
HETATM    5  C   UNL     1     -10.103  13.766  67.303  1.00  0.00    -0.239 A  
HETATM    6  C   UNL     1      -9.941  12.565  67.999  1.00  0.00    -0.219 A  
HETATM    7  S   UNL     1     -10.064  15.258  68.256  1.00  0.00    -0.228 S  
HETATM    8  O   UNL     1     -11.379  15.406  68.847  1.00  0.00    -0.274 OA 
HETATM    9  C   UNL     1      -9.844  16.538  67.048  1.00  0.00    -0.257 C  
HETATM   10  O   UNL     1      -8.865  15.207  69.070  1.00  0.00    -0.195 OA 
HETATM   11  C   UNL     1      -9.876  11.351  67.301  1.00  0.00    -0.189 A  
HETATM   12  C   UNL     1     -10.337  15.048  65.090  1.00  0.00    -0.422 C  
HETATM   13  C   UNL     1     -10.754  16.300  65.859  1.00  0.00    -0.235 C  
ENDROOT
BRANCH  11  14
HETATM   14  S   UNL     1      -9.554   9.901  68.279  1.00  0.00    -0.141 S  
HETATM   15  O   UNL     1      -8.180   9.479  68.146  1.00  0.00    -0.112 OA 
HETATM   16  N   UNL     1      -9.694  10.534  69.829  1.00  0.00    -0.427 N  
HETATM   17  O   UNL     1     -10.652   8.977  68.132  1.00  0.00    -0.219 OA 
HETATM   18  H1  UNL     1      -9.510   9.702  70.390  1.00  0.00     0.000 HD 
HETATM   19  H2  UNL     1      -9.905  11.487  70.127  1.00  0.00     0.000 HD 
ENDBRANCH  11  14
TORSDOF 1
ENDMDL
MODEL       67
REMARK 921   NORMALIZED FREE ENERGY PREDICTED BY IDOCK:   -4.42 KCAL/MOL
REMARK 922        TOTAL FREE ENERGY PREDICTED BY IDOCK:   -4.52 KCAL/MOL
REMARK 923 INTER-LIGAND FREE ENERGY PREDICTED BY IDOCK:   -4.37 KCAL/MOL
REMARK 924 INTRA-LIGAND FREE ENERGY PREDICTED BY IDOCK:   -0.15 KCAL/MOL
REMARK 927      BINDING AFFINITY PREDICTED BY RF-SCORE:    0.00 PKD
ROOT
HETATM    1  C   UNL     1      -7.770  15.740  67.136  1.00  0.00    -0.255 C  
HETATM    2  C   UNL     1      -8.581  14.554  67.575  1.00  0.00    -0.198 A  
HETATM    3  C   UNL     1      -8.037  13.267  67.380  1.00  0.00    -0.179 A  
HETATM    4  C   UNL     1      -8.729  12.096  67.740  1.00  0.00    -0.171 A  
HETATM    5  C   UNL     1      -9.995  12.239  68.315  1.00  0.00    -0.216 A  
HETATM    6  C   UNL     1     -10.557  13.500  68.530  1.00  0.00    -0.257 A  
HETATM    7  S   UNL     1     -10.990  10.835  68.732  1.00  0.00    -0.270 S  
HETATM    8  O   UNL     1     -10.874  10.657  70.166  1.00  0.00    -0.261 OA 
HETATM    9  C   UNL     1     -10.180   9.476  67.931  1.00  0.00    -0.205 C  
HETATM   10  O   UNL     1     -12.277  11.023  68.090  1.00  0.00    -0.578 OA 
HETATM   11  C   UNL     1      -9.862  14.654  68.144  1.00  0.00    -0.224 A  
HETATM   12  C   UNL     1      -8.092  10.768  67.413  1.00  0.00    -0.112 C  
HETATM   13  C   UNL     1      -8.680   9.560  68.139  1.00  0.00    -0.120 C  
ENDROOT
BRANCH  11  14
HETATM   14  S   UNL     1     -10.721  16.197  68.362  1.00  0.00    -0.314 S  
HETATM   15  O   UNL     1     -11.031  16.803  67.090  1.00  0.00    -0.168 OA 
HETATM   16  N   UNL     1     -12.185  15.651  68.982  1.00  0.00    -0.594 N  
HETATM   17  O   UNL     1     -10.096  16.940  69.429  1.00  0.00    -0.244 OA 
HETATM   18  H1  UNL     1     -12.677  16.536  69.107  1.00  0.00     0.000 HD 
HETATM   19  H2  UNL     1     -12.495  14.699  69.178  1.00  0.00     0.000 HD 
ENDBRANCH  11  14
TORSDOF 1
ENDMDL
MODEL       68
REMARK 921   NORMALIZED FREE ENERGY PREDICTED BY IDOCK:   -4.41 KCAL/MOL
REMARK 922        TOTAL FREE ENERGY PREDICTED BY IDOCK:   -4.51 KCAL/MOL
REMARK 923 INTER-LIGAND FREE ENERGY PREDICTED BY IDOCK:   -4.36 KCAL/MOL
REMARK 924 INTRA-LIGAND FREE ENERGY PREDICTED BY IDOCK:   -0.15 KCAL/MOL
REMARK 927      BINDING AFFINITY PREDICTED BY RF-SCORE:    0.00 PKD
ROOT
HETATM    1  C   UNL     1      -9.224  14.259  66.974  1.00  0.00    -0.249 C  
HETATM    2  C   UNL     1     -10.201  14.084  68.103  1.00  0.00    -0.243 A  
HETATM    3  C   UNL     1     -10.331  15.132  69.038  1.00  0.00    -0.244 A  
HETATM    4  C   UNL     1     -11.204  15.053  70.139  1.00  0.00    -0.291 A  
HETATM    5  C   UNL     1     -11.962  13.888  70.286  1.00  0.00    -0.331 A  
HETATM    6  C   UNL     1     -11.863  12.836  69.371  1.00  0.00    -0.359 A  
HETATM    7  S   UNL     1     -13.032  13.643  71.676  1.00  0.00    -0.345 S  
HETATM    8  O   UNL     1     -14.381  13.903  71.210  1.00  0.00    -0.006 OA 
HETATM    9  C   UNL     1     -12.572  14.930  72.807  1.00  0.00    -0.385 C  
HETATM   10  O   UNL     1     -12.664  12.375  72.274  1.00  0.00    -0.060 OA 
HETATM   11  C   UNL     1     -10.971  12.924  68.293  1.00  0.00    -0.256 A  
HETATM   12  C   UNL     1     -11.207  16.195  71.125  1.00  0.00    -0.257 C  
HETATM   13  C   UNL     1     -12.405  16.244  72.070  1.00  0.00    -0.348 C  
ENDROOT
BRANCH  11  14
HETATM   14  S   UNL     1     -10.846  11.483  67.258  1.00  0.00    -0.271 S  
HETATM   15  O   UNL     1      -9.536  10.884  67.359  1.00  0.00    -0.162 OA 
HETATM   16  N   UNL     1     -11.893  10.438  68.055  1.00  0.00    -0.225 N  
HETATM   17  O   UNL     1     -11.461  11.760  65.983  1.00  0.00    -0.322 OA 
HETATM   18  H1  UNL     1     -11.821   9.611  67.461  1.00  0.00     0.000 HD 
HETATM   19  H2  UNL     1     -12.447  10.588  68.898  1.00  0.00     0.000 HD 
ENDBRANCH  11  14
TORSDOF 1
ENDMDL
MODEL       69
REMARK 921   NORMALIZED FREE ENERGY PREDICTED BY IDOCK:   -4.38 KCAL/MOL
REMARK 922        TOTAL FREE ENERGY PREDICTED BY IDOCK:   -4.47 KCAL/MOL
REMARK 923 INTER-LIGAND FREE ENERGY PREDICTED BY IDOCK:   -4.32 KCAL/MOL
REMARK 924 INTRA-LIGAND FREE ENERGY PREDICTED BY IDOCK:   -0.15 KCAL/MOL
REMARK 927      BINDING AFFINITY PREDICTED BY RF-SCORE:    0.00 PKD
ROOT
HETATM    1  C   UNL     1      -8.512   8.195  72.943  1.00  0.00    -0.259 C  
HETATM    2  C   UNL     1      -8.974   8.644  71.585  1.00  0.00    -0.305 A  
HETATM    3  C   UNL     1      -8.106   9.452  70.821  1.00  0.00    -0.157 A  
HETATM    4  C   UNL     1      -8.457   9.937  69.548  1.00  0.00    -0.184 A  
HETATM    5  C   UNL     1      -9.713   9.587  69.042  1.00  0.00    -0.170 A  
HETATM    6  C   UNL     1     -10.591   8.780  69.770  1.00  0.00    -0.227 A  
HETATM    7  S   UNL     1     -10.294  10.205  67.488  1.00  0.00    -0.248 S  
HETATM    8  O   UNL     1     -10.127   9.133  66.527  1.00  0.00    -0.273 OA 
HETATM    9  C   UNL     1      -9.154  11.503  67.084  1.00  0.00    -0.167 C  
HETATM   10  O   UNL     1     -11.587  10.814  67.732  1.00  0.00    -0.521 OA 
HETATM   11  C   UNL     1     -10.232   8.325  71.047  1.00  0.00    -0.191 A  
HETATM   12  C   UNL     1      -7.491  10.861  68.850  1.00  0.00    -0.116 C  
HETATM   13  C   UNL     1      -7.731  11.055  67.354  1.00  0.00    -0.114 C  
ENDROOT
BRANCH  11  14
HETATM   14  S   UNL     1     -11.470   7.400  71.927  1.00  0.00    -0.276 S  
HETATM   15  O   UNL     1     -12.018   8.172  73.016  1.00  0.00    -0.269 OA 
HETATM   16  N   UNL     1     -12.681   7.320  70.764  1.00  0.00    -0.604 N  
HETATM   17  O   UNL     1     -11.010   6.045  72.109  1.00  0.00    -0.242 OA 
HETATM   18  H1  UNL     1     -13.392   6.789  71.269  1.00  0.00     0.000 HD 
HETATM   19  H2  UNL     1     -12.701   7.697  69.817  1.00  0.00     0.000 HD 
ENDBRANCH  11  14
TORSDOF 1
ENDMDL
MODEL       70
REMARK 921   NORMALIZED FREE ENERGY PREDICTED BY IDOCK:   -4.37 KCAL/MOL
REMARK 922        TOTAL FREE ENERGY PREDICTED BY IDOCK:   -4.46 KCAL/MOL
REMARK 923 INTER-LIGAND FREE ENERGY PREDICTED BY IDOCK:   -4.31 KCAL/MOL
REMARK 924 INTRA-LIGAND FREE ENERGY PREDICTED BY IDOCK:   -0.15 KCAL/MOL
REMARK 927      BINDING AFFINITY PREDICTED BY RF-SCORE:    0.00 PKD
ROOT
HETATM    1  C   UNL     1      -8.970  10.603  64.177  1.00  0.00    -0.214 C  
HETATM    2  C   UNL     1      -9.684  10.735  65.493  1.00  0.00    -0.290 A  
HETATM    3  C   UNL     1      -9.211   9.978  66.585  1.00  0.00    -0.178 A  
HETATM    4  C   UNL     1      -9.825  10.019  67.851  1.00  0.00    -0.171 A  
HETATM    5  C   UNL     1     -10.937  10.852  68.007  1.00  0.00    -0.265 A  
HETATM    6  C   UNL     1     -11.424  11.622  66.947  1.00  0.00    -0.320 A  
HETATM    7  S   UNL     1     -11.839  10.922  69.530  1.00  0.00    -0.335 S  
HETATM    8  O   UNL     1     -11.421  12.137  70.202  1.00  0.00    -0.170 OA 
HETATM    9  C   UNL     1     -11.236   9.534  70.455  1.00  0.00    -0.270 C  
HETATM   10  O   UNL     1     -13.230  10.670  69.209  1.00  0.00     0.346 OA 
HETATM   11  C   UNL     1     -10.812  11.550  65.688  1.00  0.00    -0.252 A  
HETATM   12  C   UNL     1      -9.291   9.108  68.928  1.00  0.00    -0.146 C  
HETATM   13  C   UNL     1      -9.726   9.449  70.352  1.00  0.00    -0.315 C  
ENDROOT
BRANCH  11  14
HETATM   14  S   UNL     1     -11.584  12.485  64.387  1.00  0.00    -0.386 S  
HETATM   15  O   UNL     1     -12.102  11.615  63.359  1.00  0.00    -0.441 OA 
HETATM   16  N   UNL     1     -12.926  13.093  65.196  1.00  0.00    -0.671 N  
HETATM   17  O   UNL     1     -10.762  13.629  64.074  1.00  0.00    -0.235 OA 
HETATM   18  H1  UNL     1     -13.368  13.630  64.450  1.00  0.00     0.000 HD 
HETATM   19  H2  UNL     1     -13.217  12.961  66.165  1.00  0.00     0.000 HD 
ENDBRANCH  11  14
TORSDOF 1
ENDMDL
MODEL       71
REMARK 921   NORMALIZED FREE ENERGY PREDICTED BY IDOCK:   -4.30 KCAL/MOL
REMARK 922        TOTAL FREE ENERGY PREDICTED BY IDOCK:   -4.39 KCAL/MOL
REMARK 923 INTER-LIGAND FREE ENERGY PREDICTED BY IDOCK:   -4.25 KCAL/MOL
REMARK 924 INTRA-LIGAND FREE ENERGY PREDICTED BY IDOCK:   -0.14 KCAL/MOL
REMARK 927      BINDING AFFINITY PREDICTED BY RF-SCORE:    0.00 PKD
ROOT
HETATM    1  C   UNL     1      -7.085  10.570  68.648  1.00  0.00    -0.077 C  
HETATM    2  C   UNL     1      -8.198  11.549  68.395  1.00  0.00    -0.152 A  
HETATM    3  C   UNL     1      -7.868  12.803  67.841  1.00  0.00    -0.156 A  
HETATM    4  C   UNL     1      -8.836  13.791  67.586  1.00  0.00    -0.189 A  
HETATM    5  C   UNL     1     -10.167  13.494  67.897  1.00  0.00    -0.247 A  
HETATM    6  C   UNL     1     -10.527  12.256  68.437  1.00  0.00    -0.244 A  
HETATM    7  S   UNL     1     -11.458  14.688  67.695  1.00  0.00    -0.356 S  
HETATM    8  O   UNL     1     -12.155  14.342  66.472  1.00  0.00    -0.431 OA 
HETATM    9  C   UNL     1     -10.597  16.217  67.436  1.00  0.00    -0.307 C  
HETATM   10  O   UNL     1     -12.150  14.781  68.966  1.00  0.00    -0.287 OA 
HETATM   11  C   UNL     1      -9.545  11.293  68.704  1.00  0.00    -0.190 A  
HETATM   12  C   UNL     1      -8.366  15.129  67.070  1.00  0.00    -0.263 C  
HETATM   13  C   UNL     1      -9.450  16.017  66.464  1.00  0.00    -0.297 C  
ENDROOT
BRANCH  11  14
HETATM   14  S   UNL     1     -10.104   9.801  69.495  1.00  0.00    -0.233 S  
HETATM   15  O   UNL     1      -9.513   9.655  70.804  1.00  0.00    -0.219 OA 
HETATM   16  N   UNL     1     -11.720  10.177  69.758  1.00  0.00    -0.425 N  
HETATM   17  O   UNL     1     -10.102   8.726  68.534  1.00  0.00    -0.178 OA 
HETATM   18  H1  UNL     1     -12.041   9.321  70.212  1.00  0.00     0.000 HD 
HETATM   19  H2  UNL     1     -12.238  11.026  69.528  1.00  0.00     0.000 HD 
ENDBRANCH  11  14
TORSDOF 1
ENDMDL
MODEL       72
REMARK 921   NORMALIZED FREE ENERGY PREDICTED BY IDOCK:   -4.24 KCAL/MOL
REMARK 922        TOTAL FREE ENERGY PREDICTED BY IDOCK:   -4.32 KCAL/MOL
REMARK 923 INTER-LIGAND FREE ENERGY PREDICTED BY IDOCK:   -4.23 KCAL/MOL
REMARK 924 INTRA-LIGAND FREE ENERGY PREDICTED BY IDOCK:   -0.09 KCAL/MOL
REMARK 927      BINDING AFFINITY PREDICTED BY RF-SCORE:    0.00 PKD
ROOT
HETATM    1  C   UNL     1      -8.927  11.630  68.304  1.00  0.00    -0.185 C  
HETATM    2  C   UNL     1      -9.193  10.554  69.320  1.00  0.00    -0.164 A  
HETATM    3  C   UNL     1      -8.121   9.722  69.703  1.00  0.00    -0.158 A  
HETATM    4  C   UNL     1      -8.275   8.675  70.631  1.00  0.00    -0.147 A  
HETATM    5  C   UNL     1      -9.545   8.478  71.183  1.00  0.00    -0.193 A  
HETATM    6  C   UNL     1     -10.625   9.293  70.832  1.00  0.00    -0.366 A  
HETATM    7  S   UNL     1      -9.876   7.143  72.299  1.00  0.00    -0.154 S  
HETATM    8  O   UNL     1      -9.898   7.713  73.631  1.00  0.00    -0.301 OA 
HETATM    9  C   UNL     1      -8.449   6.098  72.158  1.00  0.00    -0.116 C  
HETATM   10  O   UNL     1     -11.010   6.417  71.762  1.00  0.00    -0.236 OA 
HETATM   11  C   UNL     1     -10.456  10.315  69.888  1.00  0.00    -0.256 A  
HETATM   12  C   UNL     1      -7.084   7.792  70.908  1.00  0.00    -0.053 C  
HETATM   13  C   UNL     1      -7.183   6.932  72.166  1.00  0.00    -0.082 C  
ENDROOT
BRANCH  11  14
HETATM   14  S   UNL     1     -11.922  11.214  69.434  1.00  0.00    -0.335 S  
HETATM   15  O   UNL     1     -12.147  11.154  68.010  1.00  0.00    -0.635 OA 
HETATM   16  N   UNL     1     -13.106  10.245  70.130  1.00  0.00    -0.511 N  
HETATM   17  O   UNL     1     -11.958  12.460  70.160  1.00  0.00    -0.341 OA 
HETATM   18  H1  UNL     1     -13.948  10.761  69.869  1.00  0.00     0.000 HD 
HETATM   19  H2  UNL     1     -13.011   9.381  70.664  1.00  0.00     0.000 HD 
ENDBRANCH  11  14
TORSDOF 1
ENDMDL
MODEL       73
REMARK 921   NORMALIZED FREE ENERGY PREDICTED BY IDOCK:   -4.21 KCAL/MOL
REMARK 922        TOTAL FREE ENERGY PREDICTED BY IDOCK:   -4.30 KCAL/MOL
REMARK 923 INTER-LIGAND FREE ENERGY PREDICTED BY IDOCK:   -4.16 KCAL/MOL
REMARK 924 INTRA-LIGAND FREE ENERGY PREDICTED BY IDOCK:   -0.13 KCAL/MOL
REMARK 927      BINDING AFFINITY PREDICTED BY RF-SCORE:    0.00 PKD
ROOT
HETATM    1  C   UNL     1      -9.703   4.492  69.249  1.00  0.00    -0.260 C  
HETATM    2  C   UNL     1      -9.942   5.969  69.098  1.00  0.00    -0.205 A  
HETATM    3  C   UNL     1     -10.579   6.650  70.155  1.00  0.00    -0.264 A  
HETATM    4  C   UNL     1     -10.864   8.027  70.099  1.00  0.00    -0.242 A  
HETATM    5  C   UNL     1     -10.487   8.723  68.946  1.00  0.00    -0.197 A  
HETATM    6  C   UNL     1      -9.845   8.078  67.886  1.00  0.00    -0.204 A  
HETATM    7  S   UNL     1     -10.867  10.439  68.730  1.00  0.00    -0.249 S  
HETATM    8  O   UNL     1      -9.646  11.171  69.006  1.00  0.00    -0.175 OA 
HETATM    9  C   UNL     1     -12.034  10.790  70.019  1.00  0.00    -0.347 C  
HETATM   10  O   UNL     1     -11.558  10.562  67.462  1.00  0.00    -0.421 OA 
HETATM   11  C   UNL     1      -9.590   6.701  67.951  1.00  0.00    -0.119 A  
HETATM   12  C   UNL     1     -11.623   8.642  71.249  1.00  0.00    -0.340 C  
HETATM   13  C   UNL     1     -11.580  10.167  71.324  1.00  0.00    -0.387 C  
ENDROOT
BRANCH  11  14
HETATM   14  S   UNL     1      -8.872   5.966  66.500  1.00  0.00    -0.133 S  
HETATM   15  O   UNL     1      -9.751   4.973  65.931  1.00  0.00    -0.164 OA 
HETATM   16  N   UNL     1      -8.906   7.272  65.442  1.00  0.00    -0.372 N  
HETATM   17  O   UNL     1      -7.476   5.697  66.746  1.00  0.00    -0.085 OA 
HETATM   18  H1  UNL     1      -8.494   6.851  64.609  1.00  0.00     0.000 HD 
HETATM   19  H2  UNL     1      -9.246   8.222  65.591  1.00  0.00     0.000 HD 
ENDBRANCH  11  14
TORSDOF 1
ENDMDL
MODEL       74
REMARK 921   NORMALIZED FREE ENERGY PREDICTED BY IDOCK:   -4.21 KCAL/MOL
REMARK 922        TOTAL FREE ENERGY PREDICTED BY IDOCK:   -4.30 KCAL/MOL
REMARK 923 INTER-LIGAND FREE ENERGY PREDICTED BY IDOCK:   -4.14 KCAL/MOL
REMARK 924 INTRA-LIGAND FREE ENERGY PREDICTED BY IDOCK:   -0.15 KCAL/MOL
REMARK 927      BINDING AFFINITY PREDICTED BY RF-SCORE:    0.00 PKD
ROOT
HETATM    1  C   UNL     1     -11.129   9.117  71.888  1.00  0.00    -0.385 C  
HETATM    2  C   UNL     1     -10.809   9.642  70.517  1.00  0.00    -0.371 A  
HETATM    3  C   UNL     1     -11.505  10.781  70.061  1.00  0.00    -0.412 A  
HETATM    4  C   UNL     1     -11.290  11.334  68.786  1.00  0.00    -0.335 A  
HETATM    5  C   UNL     1     -10.343  10.719  67.961  1.00  0.00    -0.182 A  
HETATM    6  C   UNL     1      -9.629   9.595  68.388  1.00  0.00    -0.154 A  
HETATM    7  S   UNL     1     -10.046  11.278  66.308  1.00  0.00    -0.238 S  
HETATM    8  O   UNL     1      -8.821  12.052  66.346  1.00  0.00    -0.192 OA 
HETATM    9  C   UNL     1     -11.396  12.379  65.974  1.00  0.00    -0.353 C  
HETATM   10  O   UNL     1     -10.191  10.125  65.440  1.00  0.00    -0.298 OA 
HETATM   11  C   UNL     1      -9.875   9.045  69.653  1.00  0.00    -0.178 A  
HETATM   12  C   UNL     1     -12.146  12.503  68.365  1.00  0.00    -0.123 C  
HETATM   13  C   UNL     1     -11.636  13.291  67.161  1.00  0.00    -0.402 C  
ENDROOT
BRANCH  11  14
HETATM   14  S   UNL     1      -8.992   7.552  70.044  1.00  0.00    -0.143 S  
HETATM   15  O   UNL     1      -9.893   6.429  70.154  1.00  0.00    -0.165 OA 
HETATM   16  N   UNL     1      -8.134   7.317  68.619  1.00  0.00    -0.123 N  
HETATM   17  O   UNL     1      -8.003   7.836  71.056  1.00  0.00    -0.087 OA 
HETATM   18  H1  UNL     1      -7.627   6.460  68.843  1.00  0.00     0.000 HD 
HETATM   19  H2  UNL     1      -8.123   7.876  67.765  1.00  0.00     0.000 HD 
ENDBRANCH  11  14
TORSDOF 1
ENDMDL
MODEL       75
REMARK 921   NORMALIZED FREE ENERGY PREDICTED BY IDOCK:   -4.21 KCAL/MOL
REMARK 922        TOTAL FREE ENERGY PREDICTED BY IDOCK:   -4.29 KCAL/MOL
REMARK 923 INTER-LIGAND FREE ENERGY PREDICTED BY IDOCK:   -4.34 KCAL/MOL
REMARK 924 INTRA-LIGAND FREE ENERGY PREDICTED BY IDOCK:    0.05 KCAL/MOL
REMARK 927      BINDING AFFINITY PREDICTED BY RF-SCORE:    0.00 PKD
ROOT
HETATM    1  C   UNL     1     -12.498  10.186  71.582  1.00  0.00    -0.506 C  
HETATM    2  C   UNL     1     -11.735   8.926  71.283  1.00  0.00    -0.370 A  
HETATM    3  C   UNL     1     -11.763   7.889  72.238  1.00  0.00    -0.408 A  
HETATM    4  C   UNL     1     -11.064   6.681  72.057  1.00  0.00    -0.289 A  
HETATM    5  C   UNL     1     -10.328   6.526  70.879  1.00  0.00    -0.207 A  
HETATM    6  C   UNL     1     -10.288   7.531  69.909  1.00  0.00    -0.224 A  
HETATM    7  S   UNL     1      -9.345   5.083  70.580  1.00  0.00    -0.170 S  
HETATM    8  O   UNL     1     -10.100   4.250  69.666  1.00  0.00    -0.168 OA 
HETATM    9  C   UNL     1      -9.279   4.271  72.156  1.00  0.00    -0.123 C  
HETATM   10  O   UNL     1      -8.007   5.542  70.263  1.00  0.00    -0.096 OA 
HETATM   11  C   UNL     1     -10.973   8.736  70.117  1.00  0.00    -0.223 A  
HETATM   12  C   UNL     1     -11.093   5.671  73.177  1.00  0.00    -0.315 C  
HETATM   13  C   UNL     1     -10.651   4.258  72.799  1.00  0.00    -0.240 C  
ENDROOT
BRANCH  11  14
HETATM   14  S   UNL     1     -10.760   9.985  68.869  1.00  0.00    -0.222 S  
HETATM   15  O   UNL     1      -9.613  10.814  69.154  1.00  0.00    -0.204 OA 
HETATM   16  N   UNL     1     -10.327   9.036  67.552  1.00  0.00    -0.248 N  
HETATM   17  O   UNL     1     -12.046  10.551  68.540  1.00  0.00    -0.329 OA 
HETATM   18  H1  UNL     1     -10.205   9.752  66.836  1.00  0.00     0.000 HD 
HETATM   19  H2  UNL     1     -10.217   8.024  67.486  1.00  0.00     0.000 HD 
ENDBRANCH  11  14
TORSDOF 1
ENDMDL
MODEL       76
REMARK 921   NORMALIZED FREE ENERGY PREDICTED BY IDOCK:   -4.18 KCAL/MOL
REMARK 922        TOTAL FREE ENERGY PREDICTED BY IDOCK:   -4.26 KCAL/MOL
REMARK 923 INTER-LIGAND FREE ENERGY PREDICTED BY IDOCK:   -4.12 KCAL/MOL
REMARK 924 INTRA-LIGAND FREE ENERGY PREDICTED BY IDOCK:   -0.14 KCAL/MOL
REMARK 927      BINDING AFFINITY PREDICTED BY RF-SCORE:    0.00 PKD
ROOT
HETATM    1  C   UNL     1      -5.784  11.317  66.708  1.00  0.00    -0.120 C  
HETATM    2  C   UNL     1      -7.269  11.533  66.797  1.00  0.00    -0.111 A  
HETATM    3  C   UNL     1      -7.734  12.808  67.182  1.00  0.00    -0.072 A  
HETATM    4  C   UNL     1      -9.104  13.102  67.312  1.00  0.00    -0.217 A  
HETATM    5  C   UNL     1     -10.017  12.079  67.039  1.00  0.00    -0.204 A  
HETATM    6  C   UNL     1      -9.588  10.808  66.646  1.00  0.00    -0.208 A  
HETATM    7  S   UNL     1     -11.760  12.309  67.248  1.00  0.00    -0.263 S  
HETATM    8  O   UNL     1     -12.311  12.517  65.923  1.00  0.00    -0.626 OA 
HETATM    9  C   UNL     1     -11.891  13.827  68.155  1.00  0.00    -0.376 C  
HETATM   10  O   UNL     1     -12.227  11.238  68.107  1.00  0.00    -0.622 OA 
HETATM   11  C   UNL     1      -8.218  10.529  66.544  1.00  0.00    -0.133 A  
HETATM   12  C   UNL     1      -9.491  14.472  67.809  1.00  0.00    -0.210 C  
HETATM   13  C   UNL     1     -10.949  14.866  67.581  1.00  0.00    -0.300 C  
ENDROOT
BRANCH  11  14
HETATM   14  S   UNL     1      -7.788   8.849  66.146  1.00  0.00    -0.103 S  
HETATM   15  O   UNL     1      -7.242   8.167  67.295  1.00  0.00    -0.081 OA 
HETATM   16  N   UNL     1      -9.313   8.189  65.899  1.00  0.00    -0.398 N  
HETATM   17  O   UNL     1      -7.133   8.819  64.861  1.00  0.00    -0.076 OA 
HETATM   18  H1  UNL     1      -9.066   7.225  65.671  1.00  0.00     0.000 HD 
HETATM   19  H2  UNL     1     -10.231   8.629  65.960  1.00  0.00     0.000 HD 
ENDBRANCH  11  14
TORSDOF 1
ENDMDL
MODEL       77
REMARK 921   NORMALIZED FREE ENERGY PREDICTED BY IDOCK:   -4.17 KCAL/MOL
REMARK 922        TOTAL FREE ENERGY PREDICTED BY IDOCK:   -4.25 KCAL/MOL
REMARK 923 INTER-LIGAND FREE ENERGY PREDICTED BY IDOCK:   -4.48 KCAL/MOL
REMARK 924 INTRA-LIGAND FREE ENERGY PREDICTED BY IDOCK:    0.23 KCAL/MOL
REMARK 927      BINDING AFFINITY PREDICTED BY RF-SCORE:    0.00 PKD
ROOT
HETATM    1  C   UNL     1      -6.513  14.757  70.108  1.00  0.00    -0.163 C  
HETATM    2  C   UNL     1      -6.861  15.842  69.128  1.00  0.00    -0.170 A  
HETATM    3  C   UNL     1      -6.472  17.163  69.433  1.00  0.00    -0.233 A  
HETATM    4  C   UNL     1      -6.770  18.249  68.588  1.00  0.00    -0.251 A  
HETATM    5  C   UNL     1      -7.471  17.982  67.408  1.00  0.00    -0.203 A  
HETATM    6  C   UNL     1      -7.862  16.682  67.073  1.00  0.00    -0.233 A  
HETATM    7  S   UNL     1      -7.971  19.278  66.310  1.00  0.00    -0.300 S  
HETATM    8  O   UNL     1      -7.035  19.266  65.203  1.00  0.00    -0.445 OA 
HETATM    9  C   UNL     1      -7.715  20.762  67.247  1.00  0.00    -0.278 C  
HETATM   10  O   UNL     1      -9.398  19.128  66.102  1.00  0.00    -0.388 OA 
HETATM   11  C   UNL     1      -7.576  15.618  67.939  1.00  0.00    -0.131 A  
HETATM   12  C   UNL     1      -6.381  19.632  69.047  1.00  0.00    -0.332 C  
HETATM   13  C   UNL     1      -6.380  20.708  67.963  1.00  0.00    -0.357 C  
ENDROOT
BRANCH  11  14
HETATM   14  S   UNL     1      -8.218  14.028  67.466  1.00  0.00    -0.195 S  
HETATM   15  O   UNL     1      -7.167  13.041  67.404  1.00  0.00    -0.152 OA 
HETATM   16  N   UNL     1      -9.130  13.645  68.825  1.00  0.00    -0.391 N  
HETATM   17  O   UNL     1      -9.166  14.200  66.393  1.00  0.00    -0.258 OA 
HETATM   18  H1  UNL     1      -9.498  12.733  68.554  1.00  0.00     0.000 HD 
HETATM   19  H2  UNL     1      -9.274  14.177  69.684  1.00  0.00     0.000 HD 
ENDBRANCH  11  14
TORSDOF 1
ENDMDL
MODEL       78
REMARK 921   NORMALIZED FREE ENERGY PREDICTED BY IDOCK:   -4.14 KCAL/MOL
REMARK 922        TOTAL FREE ENERGY PREDICTED BY IDOCK:   -4.22 KCAL/MOL
REMARK 923 INTER-LIGAND FREE ENERGY PREDICTED BY IDOCK:   -4.46 KCAL/MOL
REMARK 924 INTRA-LIGAND FREE ENERGY PREDICTED BY IDOCK:    0.24 KCAL/MOL
REMARK 927      BINDING AFFINITY PREDICTED BY RF-SCORE:    0.00 PKD
ROOT
HETATM    1  C   UNL     1      -7.668  10.897  68.621  1.00  0.00    -0.122 C  
HETATM    2  C   UNL     1      -8.711  10.195  69.445  1.00  0.00    -0.186 A  
HETATM    3  C   UNL     1      -8.277   9.350  70.488  1.00  0.00    -0.221 A  
HETATM    4  C   UNL     1      -9.177   8.635  71.301  1.00  0.00    -0.283 A  
HETATM    5  C   UNL     1     -10.543   8.789  71.049  1.00  0.00    -0.230 A  
HETATM    6  C   UNL     1     -11.005   9.626  70.029  1.00  0.00    -0.297 A  
HETATM    7  S   UNL     1     -11.763   7.877  71.953  1.00  0.00    -0.316 S  
HETATM    8  O   UNL     1     -12.318   8.789  72.934  1.00  0.00    -0.236 OA 
HETATM    9  C   UNL     1     -10.830   6.635  72.807  1.00  0.00    -0.251 C  
HETATM   10  O   UNL     1     -12.600   7.208  70.976  1.00  0.00    -0.357 OA 
HETATM   11  C   UNL     1     -10.092  10.312  69.216  1.00  0.00    -0.227 A  
HETATM   12  C   UNL     1      -8.606   7.696  72.334  1.00  0.00    -0.162 C  
HETATM   13  C   UNL     1      -9.581   7.241  73.418  1.00  0.00    -0.272 C  
ENDROOT
BRANCH  11  14
HETATM   14  S   UNL     1     -10.789  11.258  67.880  1.00  0.00    -0.248 S  
HETATM   15  O   UNL     1     -12.223  11.359  68.009  1.00  0.00    -0.607 OA 
HETATM   16  N   UNL     1     -10.185  12.785  68.235  1.00  0.00    -0.240 N  
HETATM   17  O   UNL     1     -10.161  10.864  66.643  1.00  0.00    -0.204 OA 
HETATM   18  H1  UNL     1     -10.585  13.328  67.469  1.00  0.00     0.000 HD 
HETATM   19  H2  UNL     1      -9.586  13.087  69.003  1.00  0.00     0.000 HD 
ENDBRANCH  11  14
TORSDOF 1
ENDMDL
MODEL       79
REMARK 921   NORMALIZED FREE ENERGY PREDICTED BY IDOCK:   -4.13 KCAL/MOL
REMARK 922        TOTAL FREE ENERGY PREDICTED BY IDOCK:   -4.21 KCAL/MOL
REMARK 923 INTER-LIGAND FREE ENERGY PREDICTED BY IDOCK:   -4.38 KCAL/MOL
REMARK 924 INTRA-LIGAND FREE ENERGY PREDICTED BY IDOCK:    0.17 KCAL/MOL
REMARK 927      BINDING AFFINITY PREDICTED BY RF-SCORE:    0.00 PKD
ROOT
HETATM    1  C   UNL     1     -11.607  12.538  68.641  1.00  0.00    -0.357 C  
HETATM    2  C   UNL     1     -11.234  11.135  68.248  1.00  0.00    -0.343 A  
HETATM    3  C   UNL     1     -11.248  10.139  69.247  1.00  0.00    -0.247 A  
HETATM    4  C   UNL     1     -10.896   8.803  68.981  1.00  0.00    -0.052 A  
HETATM    5  C   UNL     1     -10.528   8.476  67.672  1.00  0.00    -0.241 A  
HETATM    6  C   UNL     1     -10.514   9.438  66.659  1.00  0.00    -0.238 A  
HETATM    7  S   UNL     1      -9.988   6.846  67.239  1.00  0.00    -0.191 S  
HETATM    8  O   UNL     1     -11.110   6.197  66.589  1.00  0.00    -0.284 OA 
HETATM    9  C   UNL     1      -9.710   6.052  68.801  1.00  0.00    -0.131 C  
HETATM   10  O   UNL     1      -8.704   6.988  66.580  1.00  0.00    -0.118 OA 
HETATM   11  C   UNL     1     -10.847  10.768  66.949  1.00  0.00    -0.229 A  
HETATM   12  C   UNL     1     -10.864   7.835  70.137  1.00  0.00    -0.248 C  
HETATM   13  C   UNL     1     -10.847   6.356  69.756  1.00  0.00    -0.373 C  
ENDROOT
BRANCH  11  14
HETATM   14  S   UNL     1     -10.686  11.926  65.608  1.00  0.00    -0.289 S  
HETATM   15  O   UNL     1     -11.850  12.773  65.511  1.00  0.00    -0.374 OA 
HETATM   16  N   UNL     1      -9.451  12.906  66.192  1.00  0.00    -0.412 N  
HETATM   17  O   UNL     1     -10.139  11.248  64.458  1.00  0.00    -0.252 OA 
HETATM   18  H1  UNL     1      -9.359  13.570  65.423  1.00  0.00     0.000 HD 
HETATM   19  H2  UNL     1      -8.937  12.851  67.071  1.00  0.00     0.000 HD 
ENDBRANCH  11  14
TORSDOF 1
ENDMDL
MODEL       80
REMARK 921   NORMALIZED FREE ENERGY PREDICTED BY IDOCK:   -4.13 KCAL/MOL
REMARK 922        TOTAL FREE ENERGY PREDICTED BY IDOCK:   -4.21 KCAL/MOL
REMARK 923 INTER-LIGAND FREE ENERGY PREDICTED BY IDOCK:   -4.73 KCAL/MOL
REMARK 924 INTRA-LIGAND FREE ENERGY PREDICTED BY IDOCK:    0.52 KCAL/MOL
REMARK 927      BINDING AFFINITY PREDICTED BY RF-SCORE:    0.00 PKD
ROOT
HETATM    1  C   UNL     1     -10.848  16.915  65.361  1.00  0.00    -0.113 C  
HETATM    2  C   UNL     1     -10.269  15.594  65.784  1.00  0.00    -0.391 A  
HETATM    3  C   UNL     1      -9.141  15.602  66.630  1.00  0.00    -0.313 A  
HETATM    4  C   UNL     1      -8.517  14.418  67.063  1.00  0.00    -0.206 A  
HETATM    5  C   UNL     1      -9.056  13.203  66.630  1.00  0.00    -0.173 A  
HETATM    6  C   UNL     1     -10.179  13.161  65.799  1.00  0.00    -0.294 A  
HETATM    7  S   UNL     1      -8.306  11.653  67.044  1.00  0.00    -0.173 S  
HETATM    8  O   UNL     1      -9.097  11.085  68.118  1.00  0.00    -0.143 OA 
HETATM    9  C   UNL     1      -6.717  12.100  67.693  1.00  0.00    -0.118 C  
HETATM   10  O   UNL     1      -8.091  10.942  65.799  1.00  0.00    -0.157 OA 
HETATM   11  C   UNL     1     -10.773  14.352  65.360  1.00  0.00    -0.348 A  
HETATM   12  C   UNL     1      -7.267  14.540  67.899  1.00  0.00    -0.169 C  
HETATM   13  C   UNL     1      -6.849  13.274  68.644  1.00  0.00    -0.099 C  
ENDROOT
BRANCH  11  14
HETATM   14  S   UNL     1     -12.125  14.180  64.218  1.00  0.00    -0.384 S  
HETATM   15  O   UNL     1     -11.839  13.174  63.223  1.00  0.00    -0.504 OA 
HETATM   16  N   UNL     1     -13.297  13.515  65.222  1.00  0.00    -0.464 N  
HETATM   17  O   UNL     1     -12.613  15.489  63.859  1.00  0.00    -0.677 OA 
HETATM   18  H1  UNL     1     -14.073  13.416  64.567  1.00  0.00     0.000 HD 
HETATM   19  H2  UNL     1     -13.246  13.276  66.213  1.00  0.00     0.000 HD 
ENDBRANCH  11  14
TORSDOF 1
ENDMDL
MODEL       81
REMARK 921   NORMALIZED FREE ENERGY PREDICTED BY IDOCK:   -4.12 KCAL/MOL
REMARK 922        TOTAL FREE ENERGY PREDICTED BY IDOCK:   -4.20 KCAL/MOL
REMARK 923 INTER-LIGAND FREE ENERGY PREDICTED BY IDOCK:   -4.07 KCAL/MOL
REMARK 924 INTRA-LIGAND FREE ENERGY PREDICTED BY IDOCK:   -0.13 KCAL/MOL
REMARK 927      BINDING AFFINITY PREDICTED BY RF-SCORE:    0.00 PKD
ROOT
HETATM    1  C   UNL     1      -5.972  13.795  68.706  1.00  0.00    -0.085 C  
HETATM    2  C   UNL     1      -7.242  13.400  68.005  1.00  0.00    -0.123 A  
HETATM    3  C   UNL     1      -7.969  14.403  67.330  1.00  0.00    -0.220 A  
HETATM    4  C   UNL     1      -9.178  14.134  66.663  1.00  0.00    -0.272 A  
HETATM    5  C   UNL     1      -9.652  12.819  66.678  1.00  0.00    -0.255 A  
HETATM    6  C   UNL     1      -8.949  11.801  67.329  1.00  0.00    -0.172 A  
HETATM    7  S   UNL     1     -11.201  12.380  65.942  1.00  0.00    -0.352 S  
HETATM    8  O   UNL     1     -10.893  11.759  64.669  1.00  0.00    -0.284 OA 
HETATM    9  C   UNL     1     -11.989  13.938  65.631  1.00  0.00    -0.392 C  
HETATM   10  O   UNL     1     -11.971  11.690  66.959  1.00  0.00    -0.593 OA 
HETATM   11  C   UNL     1      -7.758  12.093  68.008  1.00  0.00    -0.134 A  
HETATM   12  C   UNL     1      -9.919  15.294  66.044  1.00  0.00    -0.344 C  
HETATM   13  C   UNL     1     -11.000  14.918  65.032  1.00  0.00    -0.432 C  
ENDROOT
BRANCH  11  14
HETATM   14  S   UNL     1      -7.009  10.744  68.894  1.00  0.00    -0.086 S  
HETATM   15  O   UNL     1      -6.939  11.027  70.307  1.00  0.00    -0.177 OA 
HETATM   16  N   UNL     1      -8.192   9.564  68.717  1.00  0.00    -0.110 N  
HETATM   17  O   UNL     1      -5.865  10.268  68.155  1.00  0.00    -0.041 OA 
HETATM   18  H1  UNL     1      -7.762   8.790  69.226  1.00  0.00     0.000 HD 
HETATM   19  H2  UNL     1      -9.090   9.608  68.236  1.00  0.00     0.000 HD 
ENDBRANCH  11  14
TORSDOF 1
ENDMDL
MODEL       82
REMARK 921   NORMALIZED FREE ENERGY PREDICTED BY IDOCK:   -4.09 KCAL/MOL
REMARK 922        TOTAL FREE ENERGY PREDICTED BY IDOCK:   -4.17 KCAL/MOL
REMARK 923 INTER-LIGAND FREE ENERGY PREDICTED BY IDOCK:   -4.45 KCAL/MOL
REMARK 924 INTRA-LIGAND FREE ENERGY PREDICTED BY IDOCK:    0.28 KCAL/MOL
REMARK 927      BINDING AFFINITY PREDICTED BY RF-SCORE:    0.00 PKD
ROOT
HETATM    1  C   UNL     1     -11.644  16.283  68.902  1.00  0.00    -0.230 C  
HETATM    2  C   UNL     1     -10.973  15.127  68.213  1.00  0.00    -0.276 A  
HETATM    3  C   UNL     1     -11.455  13.827  68.473  1.00  0.00    -0.342 A  
HETATM    4  C   UNL     1     -10.880  12.682  67.892  1.00  0.00    -0.244 A  
HETATM    5  C   UNL     1      -9.799  12.866  67.025  1.00  0.00    -0.233 A  
HETATM    6  C   UNL     1      -9.305  14.142  66.738  1.00  0.00    -0.295 A  
HETATM    7  S   UNL     1      -8.946  11.494  66.299  1.00  0.00    -0.178 S  
HETATM    8  O   UNL     1      -9.420  11.387  64.934  1.00  0.00    -0.223 OA 
HETATM    9  C   UNL     1      -9.532  10.089  67.209  1.00  0.00    -0.154 C  
HETATM   10  O   UNL     1      -7.538  11.663  66.605  1.00  0.00    -0.130 OA 
HETATM   11  C   UNL     1      -9.877  15.268  67.345  1.00  0.00    -0.217 A  
HETATM   12  C   UNL     1     -11.417  11.333  68.302  1.00  0.00    -0.378 C  
HETATM   13  C   UNL     1     -11.035  10.169  67.390  1.00  0.00    -0.295 C  
ENDROOT
BRANCH  11  14
HETATM   14  S   UNL     1      -9.096  16.828  66.996  1.00  0.00    -0.232 S  
HETATM   15  O   UNL     1      -8.212  16.723  65.860  1.00  0.00    -0.446 OA 
HETATM   16  N   UNL     1     -10.417  17.725  66.471  1.00  0.00    -0.330 N  
HETATM   17  O   UNL     1      -8.676  17.436  68.235  1.00  0.00    -0.245 OA 
HETATM   18  H1  UNL     1      -9.970  18.619  66.270  1.00  0.00     0.000 HD 
HETATM   19  H2  UNL     1     -11.395  17.450  66.378  1.00  0.00     0.000 HD 
ENDBRANCH  11  14
TORSDOF 1
ENDMDL
MODEL       83
REMARK 921   NORMALIZED FREE ENERGY PREDICTED BY IDOCK:   -4.07 KCAL/MOL
REMARK 922        TOTAL FREE ENERGY PREDICTED BY IDOCK:   -4.15 KCAL/MOL
REMARK 923 INTER-LIGAND FREE ENERGY PREDICTED BY IDOCK:   -4.00 KCAL/MOL
REMARK 924 INTRA-LIGAND FREE ENERGY PREDICTED BY IDOCK:   -0.15 KCAL/MOL
REMARK 927      BINDING AFFINITY PREDICTED BY RF-SCORE:    0.00 PKD
ROOT
HETATM    1  C   UNL     1     -12.355  14.580  66.684  1.00  0.00    -0.141 C  
HETATM    2  C   UNL     1     -10.929  14.515  67.156  1.00  0.00    -0.304 A  
HETATM    3  C   UNL     1     -10.301  15.718  67.541  1.00  0.00    -0.280 A  
HETATM    4  C   UNL     1      -8.963  15.762  67.977  1.00  0.00    -0.178 A  
HETATM    5  C   UNL     1      -8.256  14.557  68.028  1.00  0.00    -0.145 A  
HETATM    6  C   UNL     1      -8.854  13.347  67.663  1.00  0.00    -0.200 A  
HETATM    7  S   UNL     1      -6.546  14.501  68.483  1.00  0.00    -0.102 S  
HETATM    8  O   UNL     1      -6.499  14.047  69.859  1.00  0.00    -0.135 OA 
HETATM    9  C   UNL     1      -6.030  16.197  68.434  1.00  0.00    -0.107 C  
HETATM   10  O   UNL     1      -5.850  13.796  67.424  1.00  0.00    -0.353 OA 
HETATM   11  C   UNL     1     -10.180  13.328  67.210  1.00  0.00    -0.240 A  
HETATM   12  C   UNL     1      -8.362  17.110  68.285  1.00  0.00    -0.232 C  
HETATM   13  C   UNL     1      -7.068  17.083  69.096  1.00  0.00    -0.221 C  
ENDROOT
BRANCH  11  14
HETATM   14  S   UNL     1     -10.800  11.751  66.667  1.00  0.00    -0.288 S  
HETATM   15  O   UNL     1     -10.969  11.726  65.233  1.00  0.00    -0.298 OA 
HETATM   16  N   UNL     1      -9.477  10.769  66.993  1.00  0.00    -0.163 N  
HETATM   17  O   UNL     1     -11.843  11.317  67.564  1.00  0.00    -0.613 OA 
HETATM   18  H1  UNL     1      -9.832   9.865  66.682  1.00  0.00     0.000 HD 
HETATM   19  H2  UNL     1      -8.569  11.010  67.392  1.00  0.00     0.000 HD 
ENDBRANCH  11  14
TORSDOF 1
ENDMDL
MODEL       84
REMARK 921   NORMALIZED FREE ENERGY PREDICTED BY IDOCK:   -4.06 KCAL/MOL
REMARK 922        TOTAL FREE ENERGY PREDICTED BY IDOCK:   -4.13 KCAL/MOL
REMARK 923 INTER-LIGAND FREE ENERGY PREDICTED BY IDOCK:   -3.98 KCAL/MOL
REMARK 924 INTRA-LIGAND FREE ENERGY PREDICTED BY IDOCK:   -0.15 KCAL/MOL
REMARK 927      BINDING AFFINITY PREDICTED BY RF-SCORE:    0.00 PKD
ROOT
HETATM    1  C   UNL     1      -8.027  10.440  68.143  1.00  0.00    -0.110 C  
HETATM    2  C   UNL     1      -8.989   9.755  69.074  1.00  0.00    -0.154 A  
HETATM    3  C   UNL     1     -10.166  10.442  69.437  1.00  0.00    -0.257 A  
HETATM    4  C   UNL     1     -11.116   9.892  70.317  1.00  0.00    -0.368 A  
HETATM    5  C   UNL     1     -10.864   8.617  70.833  1.00  0.00    -0.239 A  
HETATM    6  C   UNL     1      -9.712   7.907  70.485  1.00  0.00    -0.174 A  
HETATM    7  S   UNL     1     -11.948   7.860  72.011  1.00  0.00    -0.336 S  
HETATM    8  O   UNL     1     -12.746   6.896  71.280  1.00  0.00    -0.370 OA 
HETATM    9  C   UNL     1     -13.008   9.182  72.536  1.00  0.00    -0.346 C  
HETATM   10  O   UNL     1     -11.132   7.470  73.145  1.00  0.00    -0.383 OA 
HETATM   11  C   UNL     1      -8.766   8.481  69.624  1.00  0.00    -0.133 A  
HETATM   12  C   UNL     1     -12.300  10.743  70.704  1.00  0.00    -0.465 C  
HETATM   13  C   UNL     1     -13.468   9.994  71.342  1.00  0.00    -0.355 C  
ENDROOT
BRANCH  11  14
HETATM   14  S   UNL     1      -7.287   7.535  69.341  1.00  0.00    -0.086 S  
HETATM   15  O   UNL     1      -6.147   8.151  69.976  1.00  0.00    -0.029 OA 
HETATM   16  N   UNL     1      -7.626   6.155  70.238  1.00  0.00    -0.093 N  
HETATM   17  O   UNL     1      -7.253   7.109  67.963  1.00  0.00    -0.086 OA 
HETATM   18  H1  UNL     1      -6.777   5.612  70.076  1.00  0.00     0.000 HD 
HETATM   19  H2  UNL     1      -8.451   5.924  70.792  1.00  0.00     0.000 HD 
ENDBRANCH  11  14
TORSDOF 1
ENDMDL
MODEL       85
REMARK 921   NORMALIZED FREE ENERGY PREDICTED BY IDOCK:   -4.05 KCAL/MOL
REMARK 922        TOTAL FREE ENERGY PREDICTED BY IDOCK:   -4.13 KCAL/MOL
REMARK 923 INTER-LIGAND FREE ENERGY PREDICTED BY IDOCK:   -3.98 KCAL/MOL
REMARK 924 INTRA-LIGAND FREE ENERGY PREDICTED BY IDOCK:   -0.15 KCAL/MOL
REMARK 927      BINDING AFFINITY PREDICTED BY RF-SCORE:    0.00 PKD
ROOT
HETATM    1  C   UNL     1      -8.283  15.281  67.802  1.00  0.00    -0.157 C  
HETATM    2  C   UNL     1      -8.620  13.924  67.249  1.00  0.00    -0.221 A  
HETATM    3  C   UNL     1      -7.709  12.871  67.471  1.00  0.00    -0.174 A  
HETATM    4  C   UNL     1      -7.927  11.572  66.976  1.00  0.00    -0.161 A  
HETATM    5  C   UNL     1      -9.097  11.341  66.246  1.00  0.00    -0.199 A  
HETATM    6  C   UNL     1     -10.024  12.362  66.018  1.00  0.00    -0.270 A  
HETATM    7  S   UNL     1      -9.437   9.768  65.507  1.00  0.00    -0.279 S  
HETATM    8  O   UNL     1     -10.399   9.106  66.366  1.00  0.00    -0.258 OA 
HETATM    9  C   UNL     1      -7.896   8.897  65.614  1.00  0.00    -0.096 C  
HETATM   10  O   UNL     1      -9.711  10.012  64.104  1.00  0.00    -0.282 OA 
HETATM   11  C   UNL     1      -9.778  13.655  66.500  1.00  0.00    -0.292 A  
HETATM   12  C   UNL     1      -6.850  10.539  67.198  1.00  0.00    -0.084 C  
HETATM   13  C   UNL     1      -7.278   9.088  66.986  1.00  0.00    -0.086 C  
ENDROOT
BRANCH  11  14
HETATM   14  S   UNL     1     -10.970  14.898  66.054  1.00  0.00    -0.337 S  
HETATM   15  O   UNL     1     -10.383  15.892  65.188  1.00  0.00    -0.473 OA 
HETATM   16  N   UNL     1     -12.008  13.998  65.086  1.00  0.00    -0.368 N  
HETATM   17  O   UNL     1     -11.736  15.261  67.221  1.00  0.00    -0.244 OA 
HETATM   18  H1  UNL     1     -12.692  14.711  64.830  1.00  0.00     0.000 HD 
HETATM   19  H2  UNL     1     -11.967  13.013  64.827  1.00  0.00     0.000 HD 
ENDBRANCH  11  14
TORSDOF 1
ENDMDL
MODEL       86
REMARK 921   NORMALIZED FREE ENERGY PREDICTED BY IDOCK:   -4.04 KCAL/MOL
REMARK 922        TOTAL FREE ENERGY PREDICTED BY IDOCK:   -4.11 KCAL/MOL
REMARK 923 INTER-LIGAND FREE ENERGY PREDICTED BY IDOCK:   -4.35 KCAL/MOL
REMARK 924 INTRA-LIGAND FREE ENERGY PREDICTED BY IDOCK:    0.23 KCAL/MOL
REMARK 927      BINDING AFFINITY PREDICTED BY RF-SCORE:    0.00 PKD
ROOT
HETATM    1  C   UNL     1     -11.406   5.811  72.344  1.00  0.00    -0.348 C  
HETATM    2  C   UNL     1     -11.136   6.967  71.421  1.00  0.00    -0.284 A  
HETATM    3  C   UNL     1     -11.863   8.159  71.620  1.00  0.00    -0.334 A  
HETATM    4  C   UNL     1     -11.695   9.288  70.796  1.00  0.00    -0.328 A  
HETATM    5  C   UNL     1     -10.766   9.201  69.756  1.00  0.00    -0.228 A  
HETATM    6  C   UNL     1     -10.023   8.037  69.540  1.00  0.00    -0.186 A  
HETATM    7  S   UNL     1     -10.529  10.529  68.608  1.00  0.00    -0.206 S  
HETATM    8  O   UNL     1      -9.315  11.212  69.009  1.00  0.00    -0.155 OA 
HETATM    9  C   UNL     1     -11.905  11.608  68.905  1.00  0.00    -0.329 C  
HETATM   10  O   UNL     1     -10.684   9.970  67.279  1.00  0.00    -0.262 OA 
HETATM   11  C   UNL     1     -10.221   6.916  70.357  1.00  0.00    -0.192 A  
HETATM   12  C   UNL     1     -12.582  10.483  71.043  1.00  0.00    -0.499 C  
HETATM   13  C   UNL     1     -12.122  11.787  70.394  1.00  0.00    -0.440 C  
ENDROOT
BRANCH  11  14
HETATM   14  S   UNL     1      -9.304   5.456  69.920  1.00  0.00    -0.147 S  
HETATM   15  O   UNL     1      -8.601   5.638  68.672  1.00  0.00    -0.104 OA 
HETATM   16  N   UNL     1      -8.125   5.460  71.118  1.00  0.00    -0.109 N  
HETATM   17  O   UNL     1     -10.117   4.292  70.173  1.00  0.00    -0.194 OA 
HETATM   18  H1  UNL     1      -7.599   4.622  70.867  1.00  0.00     0.000 HD 
HETATM   19  H2  UNL     1      -7.977   6.118  71.883  1.00  0.00     0.000 HD 
ENDBRANCH  11  14
TORSDOF 1
ENDMDL
MODEL       87
REMARK 921   NORMALIZED FREE ENERGY PREDICTED BY IDOCK:   -4.02 KCAL/MOL
REMARK 922        TOTAL FREE ENERGY PREDICTED BY IDOCK:   -4.09 KCAL/MOL
REMARK 923 INTER-LIGAND FREE ENERGY PREDICTED BY IDOCK:   -4.36 KCAL/MOL
REMARK 924 INTRA-LIGAND FREE ENERGY PREDICTED BY IDOCK:    0.27 KCAL/MOL
REMARK 927      BINDING AFFINITY PREDICTED BY RF-SCORE:    0.00 PKD
ROOT
HETATM    1  C   UNL     1     -12.021  11.201  69.041  1.00  0.00    -0.389 C  
HETATM    2  C   UNL     1     -11.092  10.827  67.920  1.00  0.00    -0.369 A  
HETATM    3  C   UNL     1     -11.258  11.471  66.676  1.00  0.00    -0.336 A  
HETATM    4  C   UNL     1     -10.451  11.174  65.562  1.00  0.00    -0.317 A  
HETATM    5  C   UNL     1      -9.453  10.208  65.721  1.00  0.00    -0.208 A  
HETATM    6  C   UNL     1      -9.257   9.559  66.944  1.00  0.00    -0.174 A  
HETATM    7  S   UNL     1      -8.431   9.695  64.369  1.00  0.00    -0.197 S  
HETATM    8  O   UNL     1      -7.156  10.365  64.536  1.00  0.00    -0.109 OA 
HETATM    9  C   UNL     1      -9.236  10.369  62.939  1.00  0.00    -0.302 C  
HETATM   10  O   UNL     1      -8.528   8.251  64.290  1.00  0.00    -0.108 OA 
HETATM   11  C   UNL     1     -10.087   9.852  68.035  1.00  0.00    -0.171 A  
HETATM   12  C   UNL     1     -10.765  11.860  64.256  1.00  0.00    -0.388 C  
HETATM   13  C   UNL     1      -9.662  11.800  63.201  1.00  0.00    -0.321 C  
ENDROOT
BRANCH  11  14
HETATM   14  S   UNL     1      -9.819   8.887  69.505  1.00  0.00    -0.185 S  
HETATM   15  O   UNL     1      -9.488   9.731  70.627  1.00  0.00    -0.196 OA 
HETATM   16  N   UNL     1     -11.377   8.326  69.794  1.00  0.00    -0.449 N  
HETATM   17  O   UNL     1      -9.038   7.721  69.171  1.00  0.00    -0.145 OA 
HETATM   18  H1  UNL     1     -11.224   7.772  70.637  1.00  0.00     0.000 HD 
HETATM   19  H2  UNL     1     -12.237   8.493  69.272  1.00  0.00     0.000 HD 
ENDBRANCH  11  14
TORSDOF 1
ENDMDL
MODEL       88
REMARK 921   NORMALIZED FREE ENERGY PREDICTED BY IDOCK:   -4.00 KCAL/MOL
REMARK 922        TOTAL FREE ENERGY PREDICTED BY IDOCK:   -4.07 KCAL/MOL
REMARK 923 INTER-LIGAND FREE ENERGY PREDICTED BY IDOCK:   -4.16 KCAL/MOL
REMARK 924 INTRA-LIGAND FREE ENERGY PREDICTED BY IDOCK:    0.10 KCAL/MOL
REMARK 927      BINDING AFFINITY PREDICTED BY RF-SCORE:    0.00 PKD
ROOT
HETATM    1  C   UNL     1      -9.954  19.203  66.099  1.00  0.00    -0.441 C  
HETATM    2  C   UNL     1      -9.293  17.943  66.584  1.00  0.00    -0.293 A  
HETATM    3  C   UNL     1      -9.928  16.713  66.313  1.00  0.00    -0.336 A  
HETATM    4  C   UNL     1      -9.397  15.482  66.743  1.00  0.00    -0.267 A  
HETATM    5  C   UNL     1      -8.195  15.506  67.456  1.00  0.00    -0.163 A  
HETATM    6  C   UNL     1      -7.536  16.708  67.731  1.00  0.00    -0.172 A  
HETATM    7  S   UNL     1      -7.475  14.029  68.116  1.00  0.00    -0.150 S  
HETATM    8  O   UNL     1      -6.396  13.658  67.221  1.00  0.00    -0.300 OA 
HETATM    9  C   UNL     1      -8.764  12.819  67.972  1.00  0.00    -0.194 C  
HETATM   10  O   UNL     1      -7.247  14.265  69.528  1.00  0.00    -0.099 OA 
HETATM   11  C   UNL     1      -8.093  17.925  67.314  1.00  0.00    -0.212 A  
HETATM   12  C   UNL     1     -10.197  14.232  66.474  1.00  0.00    -0.277 C  
HETATM   13  C   UNL     1      -9.431  12.919  66.614  1.00  0.00    -0.255 C  
ENDROOT
BRANCH  11  14
HETATM   14  S   UNL     1      -7.228  19.396  67.816  1.00  0.00    -0.257 S  
HETATM   15  O   UNL     1      -7.630  19.809  69.139  1.00  0.00    -0.312 OA 
HETATM   16  N   UNL     1      -5.666  18.797  67.975  1.00  0.00    -0.189 N  
HETATM   17  O   UNL     1      -7.183  20.321  66.710  1.00  0.00    -0.248 OA 
HETATM   18  H1  UNL     1      -5.169  19.641  68.263  1.00  0.00     0.000 HD 
HETATM   19  H2  UNL     1      -5.312  17.853  67.826  1.00  0.00     0.000 HD 
ENDBRANCH  11  14
TORSDOF 1
ENDMDL
MODEL       89
REMARK 921   NORMALIZED FREE ENERGY PREDICTED BY IDOCK:   -3.94 KCAL/MOL
REMARK 922        TOTAL FREE ENERGY PREDICTED BY IDOCK:   -4.00 KCAL/MOL
REMARK 923 INTER-LIGAND FREE ENERGY PREDICTED BY IDOCK:   -4.26 KCAL/MOL
REMARK 924 INTRA-LIGAND FREE ENERGY PREDICTED BY IDOCK:    0.26 KCAL/MOL
REMARK 927      BINDING AFFINITY PREDICTED BY RF-SCORE:    0.00 PKD
ROOT
HETATM    1  C   UNL     1      -7.862   8.074  64.516  1.00  0.00    -0.138 C  
HETATM    2  C   UNL     1      -8.684   9.110  65.232  1.00  0.00    -0.219 A  
HETATM    3  C   UNL     1      -9.574   9.895  64.470  1.00  0.00    -0.290 A  
HETATM    4  C   UNL     1     -10.370  10.902  65.046  1.00  0.00    -0.356 A  
HETATM    5  C   UNL     1     -10.261  11.108  66.425  1.00  0.00    -0.233 A  
HETATM    6  C   UNL     1      -9.396  10.340  67.209  1.00  0.00    -0.169 A  
HETATM    7  S   UNL     1     -11.153  12.400  67.245  1.00  0.00    -0.299 S  
HETATM    8  O   UNL     1     -12.282  11.771  67.901  1.00  0.00    -0.538 OA 
HETATM    9  C   UNL     1     -11.764  13.412  65.922  1.00  0.00    -0.356 C  
HETATM   10  O   UNL     1     -10.180  13.180  67.985  1.00  0.00    -0.220 OA 
HETATM   11  C   UNL     1      -8.594   9.357  66.612  1.00  0.00    -0.130 A  
HETATM   12  C   UNL     1     -11.227  11.740  64.130  1.00  0.00    -0.437 C  
HETATM   13  C   UNL     1     -12.329  12.544  64.815  1.00  0.00    -0.544 C  
ENDROOT
BRANCH  11  14
HETATM   14  S   UNL     1      -7.451   8.519  67.687  1.00  0.00    -0.094 S  
HETATM   15  O   UNL     1      -7.388   9.161  68.978  1.00  0.00    -0.071 OA 
HETATM   16  N   UNL     1      -8.262   7.068  67.932  1.00  0.00    -0.114 N  
HETATM   17  O   UNL     1      -6.261   8.183  66.944  1.00  0.00    -0.052 OA 
HETATM   18  H1  UNL     1      -7.606   6.588  68.549  1.00  0.00     0.000 HD 
HETATM   19  H2  UNL     1      -9.161   6.755  67.566  1.00  0.00     0.000 HD 
ENDBRANCH  11  14
TORSDOF 1
ENDMDL
MODEL       90
REMARK 921   NORMALIZED FREE ENERGY PREDICTED BY IDOCK:   -3.93 KCAL/MOL
REMARK 922        TOTAL FREE ENERGY PREDICTED BY IDOCK:   -4.00 KCAL/MOL
REMARK 923 INTER-LIGAND FREE ENERGY PREDICTED BY IDOCK:   -3.94 KCAL/MOL
REMARK 924 INTRA-LIGAND FREE ENERGY PREDICTED BY IDOCK:   -0.06 KCAL/MOL
REMARK 927      BINDING AFFINITY PREDICTED BY RF-SCORE:    0.00 PKD
ROOT
HETATM    1  C   UNL     1     -11.031   7.758  72.247  1.00  0.00    -0.345 C  
HETATM    2  C   UNL     1     -10.709   7.178  70.898  1.00  0.00    -0.251 A  
HETATM    3  C   UNL     1     -10.322   5.824  70.831  1.00  0.00    -0.299 A  
HETATM    4  C   UNL     1      -9.983   5.198  69.618  1.00  0.00    -0.313 A  
HETATM    5  C   UNL     1     -10.045   5.965  68.450  1.00  0.00    -0.167 A  
HETATM    6  C   UNL     1     -10.435   7.306  68.482  1.00  0.00    -0.215 A  
HETATM    7  S   UNL     1      -9.563   5.306  66.879  1.00  0.00    -0.159 S  
HETATM    8  O   UNL     1     -10.788   4.982  66.173  1.00  0.00    -0.294 OA 
HETATM    9  C   UNL     1      -8.730   3.793  67.280  1.00  0.00    -0.113 C  
HETATM   10  O   UNL     1      -8.582   6.218  66.322  1.00  0.00    -0.127 OA 
HETATM   11  C   UNL     1     -10.747   7.918  69.704  1.00  0.00    -0.218 A  
HETATM   12  C   UNL     1      -9.502   3.769  69.667  1.00  0.00    -0.258 C  
HETATM   13  C   UNL     1      -9.507   3.027  68.332  1.00  0.00    -0.211 C  
ENDROOT
BRANCH  11  14
HETATM   14  S   UNL     1     -11.120   9.656  69.638  1.00  0.00    -0.149 S  
HETATM   15  O   UNL     1      -9.959  10.449  69.965  1.00  0.00    -0.156 OA 
HETATM   16  N   UNL     1     -11.367   9.858  67.988  1.00  0.00    -0.518 N  
HETATM   17  O   UNL     1     -12.401   9.890  70.259  1.00  0.00    -0.148 OA 
HETATM   18  H1  UNL     1     -11.581  10.855  67.951  1.00  0.00     0.000 HD 
HETATM   19  H2  UNL     1     -11.317   9.173  67.234  1.00  0.00     0.000 HD 
ENDBRANCH  11  14
TORSDOF 1
ENDMDL
MODEL       91
REMARK 921   NORMALIZED FREE ENERGY PREDICTED BY IDOCK:   -3.91 KCAL/MOL
REMARK 922        TOTAL FREE ENERGY PREDICTED BY IDOCK:   -3.98 KCAL/MOL
REMARK 923 INTER-LIGAND FREE ENERGY PREDICTED BY IDOCK:   -5.14 KCAL/MOL
REMARK 924 INTRA-LIGAND FREE ENERGY PREDICTED BY IDOCK:    1.16 KCAL/MOL
REMARK 927      BINDING AFFINITY PREDICTED BY RF-SCORE:    0.00 PKD
ROOT
HETATM    1  C   UNL     1     -12.679  13.528  71.287  1.00  0.00    -0.432 C  
HETATM    2  C   UNL     1     -11.866  13.947  70.094  1.00  0.00    -0.368 A  
HETATM    3  C   UNL     1     -11.735  15.326  69.829  1.00  0.00    -0.347 A  
HETATM    4  C   UNL     1     -11.011  15.814  68.726  1.00  0.00    -0.291 A  
HETATM    5  C   UNL     1     -10.405  14.880  67.880  1.00  0.00    -0.237 A  
HETATM    6  C   UNL     1     -10.508  13.507  68.121  1.00  0.00    -0.249 A  
HETATM    7  S   UNL     1      -9.539  15.375  66.417  1.00  0.00    -0.318 S  
HETATM    8  O   UNL     1      -8.125  15.310  66.732  1.00  0.00    -0.222 OA 
HETATM    9  C   UNL     1      -9.988  17.077  66.203  1.00  0.00    -0.298 C  
HETATM   10  O   UNL     1     -10.109  14.625  65.315  1.00  0.00    -0.371 OA 
HETATM   11  C   UNL     1     -11.253  13.040  69.213  1.00  0.00    -0.199 A  
HETATM   12  C   UNL     1     -11.002  17.304  68.487  1.00  0.00    -0.146 C  
HETATM   13  C   UNL     1      -9.925  17.809  67.529  1.00  0.00    -0.324 C  
ENDROOT
BRANCH  11  14
HETATM   14  S   UNL     1     -11.409  11.274  69.357  1.00  0.00    -0.316 S  
HETATM   15  O   UNL     1     -10.132  10.661  69.635  1.00  0.00    -0.189 OA 
HETATM   16  N   UNL     1     -12.296  11.156  70.779  1.00  0.00    -0.382 N  
HETATM   17  O   UNL     1     -12.276  10.788  68.312  1.00  0.00    -0.449 OA 
HETATM   18  H1  UNL     1     -12.385  10.143  70.862  1.00  0.00     0.000 HD 
HETATM   19  H2  UNL     1     -12.647  11.893  71.391  1.00  0.00     0.000 HD 
ENDBRANCH  11  14
TORSDOF 1
ENDMDL
MODEL       92
REMARK 921   NORMALIZED FREE ENERGY PREDICTED BY IDOCK:   -3.90 KCAL/MOL
REMARK 922        TOTAL FREE ENERGY PREDICTED BY IDOCK:   -3.96 KCAL/MOL
REMARK 923 INTER-LIGAND FREE ENERGY PREDICTED BY IDOCK:   -3.91 KCAL/MOL
REMARK 924 INTRA-LIGAND FREE ENERGY PREDICTED BY IDOCK:   -0.05 KCAL/MOL
REMARK 927      BINDING AFFINITY PREDICTED BY RF-SCORE:    0.00 PKD
ROOT
HETATM    1  C   UNL     1      -9.496  14.871  69.045  1.00  0.00    -0.196 C  
HETATM    2  C   UNL     1      -9.683  14.085  67.777  1.00  0.00    -0.228 A  
HETATM    3  C   UNL     1     -10.843  14.325  67.011  1.00  0.00    -0.297 A  
HETATM    4  C   UNL     1     -11.117  13.625  65.821  1.00  0.00    -0.292 A  
HETATM    5  C   UNL     1     -10.187  12.669  65.401  1.00  0.00    -0.284 A  
HETATM    6  C   UNL     1      -9.023  12.416  66.132  1.00  0.00     0.030 A  
HETATM    7  S   UNL     1     -10.465  11.672  63.964  1.00  0.00    -0.409 S  
HETATM    8  O   UNL     1      -9.658  12.241  62.903  1.00  0.00    -0.125 OA 
HETATM    9  C   UNL     1     -12.174  11.940  63.575  1.00  0.00    -0.482 C  
HETATM   10  O   UNL     1     -10.317  10.289  64.375  1.00  0.00    -0.235 OA 
HETATM   11  C   UNL     1      -8.780  13.107  67.327  1.00  0.00    -0.210 A  
HETATM   12  C   UNL     1     -12.426  13.898  65.123  1.00  0.00    -0.479 C  
HETATM   13  C   UNL     1     -12.512  13.414  63.677  1.00  0.00    -0.316 C  
ENDROOT
BRANCH  11  14
HETATM   14  S   UNL     1      -7.326  12.624  68.231  1.00  0.00    -0.126 S  
HETATM   15  O   UNL     1      -7.650  11.671  69.265  1.00  0.00    -0.020 OA 
HETATM   16  N   UNL     1      -6.501  11.760  67.050  1.00  0.00    -0.165 N  
HETATM   17  O   UNL     1      -6.523  13.793  68.496  1.00  0.00    -0.080 OA 
HETATM   18  H1  UNL     1      -5.666  11.482  67.568  1.00  0.00     0.000 HD 
HETATM   19  H2  UNL     1      -6.761  11.565  66.083  1.00  0.00     0.000 HD 
ENDBRANCH  11  14
TORSDOF 1
ENDMDL
MODEL       93
REMARK 921   NORMALIZED FREE ENERGY PREDICTED BY IDOCK:   -3.87 KCAL/MOL
REMARK 922        TOTAL FREE ENERGY PREDICTED BY IDOCK:   -3.94 KCAL/MOL
REMARK 923 INTER-LIGAND FREE ENERGY PREDICTED BY IDOCK:   -3.79 KCAL/MOL
REMARK 924 INTRA-LIGAND FREE ENERGY PREDICTED BY IDOCK:   -0.15 KCAL/MOL
REMARK 927      BINDING AFFINITY PREDICTED BY RF-SCORE:    0.00 PKD
ROOT
HETATM    1  C   UNL     1      -7.600   7.058  66.618  1.00  0.00    -0.089 C  
HETATM    2  C   UNL     1      -8.540   8.131  67.093  1.00  0.00    -0.124 A  
HETATM    3  C   UNL     1      -8.222   9.473  66.796  1.00  0.00    -0.113 A  
HETATM    4  C   UNL     1      -9.029  10.547  67.215  1.00  0.00    -0.145 A  
HETATM    5  C   UNL     1     -10.183  10.247  67.945  1.00  0.00    -0.183 A  
HETATM    6  C   UNL     1     -10.530   8.927  68.246  1.00  0.00    -0.243 A  
HETATM    7  S   UNL     1     -11.230  11.520  68.593  1.00  0.00    -0.276 S  
HETATM    8  O   UNL     1     -12.375  11.605  67.708  1.00  0.00    -0.349 OA 
HETATM    9  C   UNL     1     -10.271  13.002  68.413  1.00  0.00    -0.245 C  
HETATM   10  O   UNL     1     -11.381  11.261  70.011  1.00  0.00    -0.269 OA 
HETATM   11  C   UNL     1      -9.702   7.873  67.839  1.00  0.00    -0.155 A  
HETATM   12  C   UNL     1      -8.555  11.948  66.917  1.00  0.00    -0.185 C  
HETATM   13  C   UNL     1      -9.614  13.041  67.048  1.00  0.00    -0.236 C  
ENDROOT
BRANCH  11  14
HETATM   14  S   UNL     1     -10.183   6.246  68.375  1.00  0.00    -0.193 S  
HETATM   15  O   UNL     1      -9.274   5.739  69.375  1.00  0.00    -0.124 OA 
HETATM   16  N   UNL     1     -11.612   6.597  69.187  1.00  0.00    -0.628 N  
HETATM   17  O   UNL     1     -10.566   5.463  67.226  1.00  0.00    -0.229 OA 
HETATM   18  H1  UNL     1     -11.888   5.664  69.494  1.00  0.00     0.000 HD 
HETATM   19  H2  UNL     1     -12.075   7.495  69.332  1.00  0.00     0.000 HD 
ENDBRANCH  11  14
TORSDOF 1
ENDMDL
MODEL       94
REMARK 921   NORMALIZED FREE ENERGY PREDICTED BY IDOCK:   -3.84 KCAL/MOL
REMARK 922        TOTAL FREE ENERGY PREDICTED BY IDOCK:   -3.91 KCAL/MOL
REMARK 923 INTER-LIGAND FREE ENERGY PREDICTED BY IDOCK:   -3.75 KCAL/MOL
REMARK 924 INTRA-LIGAND FREE ENERGY PREDICTED BY IDOCK:   -0.15 KCAL/MOL
REMARK 927      BINDING AFFINITY PREDICTED BY RF-SCORE:    0.00 PKD
ROOT
HETATM    1  C   UNL     1      -6.051  12.034  67.173  1.00  0.00    -0.155 C  
HETATM    2  C   UNL     1      -7.451  12.556  67.334  1.00  0.00    -0.153 A  
HETATM    3  C   UNL     1      -7.630  13.950  67.461  1.00  0.00    -0.190 A  
HETATM    4  C   UNL     1      -8.899  14.532  67.635  1.00  0.00    -0.189 A  
HETATM    5  C   UNL     1     -10.006  13.679  67.676  1.00  0.00    -0.239 A  
HETATM    6  C   UNL     1      -9.863  12.295  67.543  1.00  0.00    -0.193 A  
HETATM    7  S   UNL     1     -11.641  14.291  67.971  1.00  0.00    -0.350 S  
HETATM    8  O   UNL     1     -12.308  14.331  66.684  1.00  0.00    -0.446 OA 
HETATM    9  C   UNL     1     -11.386  15.957  68.524  1.00  0.00    -0.374 C  
HETATM   10  O   UNL     1     -12.180  13.534  69.085  1.00  0.00    -0.307 OA 
HETATM   11  C   UNL     1      -8.588  11.732  67.393  1.00  0.00    -0.160 A  
HETATM   12  C   UNL     1      -8.972  16.024  67.844  1.00  0.00    -0.186 C  
HETATM   13  C   UNL     1     -10.354  16.647  67.654  1.00  0.00    -0.305 C  
ENDROOT
BRANCH  11  14
HETATM   14  S   UNL     1      -8.515   9.956  67.347  1.00  0.00    -0.118 S  
HETATM   15  O   UNL     1      -7.835   9.434  68.508  1.00  0.00    -0.088 OA 
HETATM   16  N   UNL     1     -10.138   9.574  67.553  1.00  0.00    -0.190 N  
HETATM   17  O   UNL     1      -8.177   9.529  66.011  1.00  0.00    -0.113 OA 
HETATM   18  H1  UNL     1     -10.097   8.555  67.526  1.00  0.00     0.000 HD 
HETATM   19  H2  UNL     1     -10.943  10.190  67.671  1.00  0.00     0.000 HD 
ENDBRANCH  11  14
TORSDOF 1
ENDMDL
MODEL       95
REMARK 921   NORMALIZED FREE ENERGY PREDICTED BY IDOCK:   -3.81 KCAL/MOL
REMARK 922        TOTAL FREE ENERGY PREDICTED BY IDOCK:   -3.87 KCAL/MOL
REMARK 923 INTER-LIGAND FREE ENERGY PREDICTED BY IDOCK:   -3.75 KCAL/MOL
REMARK 924 INTRA-LIGAND FREE ENERGY PREDICTED BY IDOCK:   -0.12 KCAL/MOL
REMARK 927      BINDING AFFINITY PREDICTED BY RF-SCORE:    0.00 PKD
ROOT
HETATM    1  C   UNL     1     -12.470   9.585  71.930  1.00  0.00    -0.465 C  
HETATM    2  C   UNL     1     -11.613   9.010  70.837  1.00  0.00    -0.344 A  
HETATM    3  C   UNL     1     -11.305   9.832  69.733  1.00  0.00    -0.201 A  
HETATM    4  C   UNL     1     -10.528   9.378  68.651  1.00  0.00    -0.236 A  
HETATM    5  C   UNL     1     -10.050   8.065  68.700  1.00  0.00    -0.199 A  
HETATM    6  C   UNL     1     -10.330   7.229  69.785  1.00  0.00    -0.227 A  
HETATM    7  S   UNL     1      -9.131   7.360  67.360  1.00  0.00    -0.123 S  
HETATM    8  O   UNL     1      -7.737   7.385  67.757  1.00  0.00    -0.107 OA 
HETATM    9  C   UNL     1      -9.356   8.509  66.028  1.00  0.00    -0.199 C  
HETATM   10  O   UNL     1      -9.796   6.124  66.995  1.00  0.00    -0.132 OA 
HETATM   11  C   UNL     1     -11.126   7.693  70.841  1.00  0.00    -0.263 A  
HETATM   12  C   UNL     1     -10.326  10.310  67.482  1.00  0.00    -0.276 C  
HETATM   13  C   UNL     1      -9.195   9.932  66.528  1.00  0.00    -0.190 C  
ENDROOT
BRANCH  11  14
HETATM   14  S   UNL     1     -11.509   6.509  72.112  1.00  0.00    -0.302 S  
HETATM   15  O   UNL     1     -12.863   6.026  71.980  1.00  0.00     0.044 OA 
HETATM   16  N   UNL     1     -10.518   5.231  71.655  1.00  0.00    -0.222 N  
HETATM   17  O   UNL     1     -10.987   6.979  73.372  1.00  0.00    -0.304 OA 
HETATM   18  H1  UNL     1     -10.738   4.552  72.384  1.00  0.00     0.000 HD 
HETATM   19  H2  UNL     1      -9.875   5.156  70.866  1.00  0.00     0.000 HD 
ENDBRANCH  11  14
TORSDOF 1
ENDMDL
MODEL       96
REMARK 921   NORMALIZED FREE ENERGY PREDICTED BY IDOCK:   -3.77 KCAL/MOL
REMARK 922        TOTAL FREE ENERGY PREDICTED BY IDOCK:   -3.83 KCAL/MOL
REMARK 923 INTER-LIGAND FREE ENERGY PREDICTED BY IDOCK:   -3.99 KCAL/MOL
REMARK 924 INTRA-LIGAND FREE ENERGY PREDICTED BY IDOCK:    0.16 KCAL/MOL
REMARK 927      BINDING AFFINITY PREDICTED BY RF-SCORE:    0.00 PKD
ROOT
HETATM    1  C   UNL     1      -6.459  10.110  66.630  1.00  0.00    -0.073 C  
HETATM    2  C   UNL     1      -7.660  10.988  66.416  1.00  0.00    -0.135 A  
HETATM    3  C   UNL     1      -8.517  10.690  65.336  1.00  0.00    -0.162 A  
HETATM    4  C   UNL     1      -9.654  11.466  65.043  1.00  0.00    -0.250 A  
HETATM    5  C   UNL     1      -9.925  12.561  65.869  1.00  0.00    -0.257 A  
HETATM    6  C   UNL     1      -9.101  12.876  66.952  1.00  0.00    -0.224 A  
HETATM    7  S   UNL     1     -11.281  13.654  65.548  1.00  0.00    -0.298 S  
HETATM    8  O   UNL     1     -12.335  13.289  66.474  1.00  0.00    -0.358 OA 
HETATM    9  C   UNL     1     -11.803  13.226  63.907  1.00  0.00    -0.465 C  
HETATM   10  O   UNL     1     -10.738  14.998  65.503  1.00  0.00    -0.313 OA 
HETATM   11  C   UNL     1      -7.960  12.105  67.214  1.00  0.00    -0.176 A  
HETATM   12  C   UNL     1     -10.457  11.111  63.816  1.00  0.00    -0.444 C  
HETATM   13  C   UNL     1     -11.856  11.720  63.748  1.00  0.00    -0.484 C  
ENDROOT
BRANCH  11  14
HETATM   14  S   UNL     1      -6.924  12.664  68.548  1.00  0.00    -0.100 S  
HETATM   15  O   UNL     1      -6.453  11.554  69.341  1.00  0.00    -0.088 OA 
HETATM   16  N   UNL     1      -5.589  13.218  67.692  1.00  0.00    -0.105 N  
HETATM   17  O   UNL     1      -7.517  13.833  69.150  1.00  0.00    -0.059 OA 
HETATM   18  H1  UNL     1      -4.995  13.540  68.457  1.00  0.00     0.000 HD 
HETATM   19  H2  UNL     1      -5.419  13.230  66.686  1.00  0.00     0.000 HD 
ENDBRANCH  11  14
TORSDOF 1
ENDMDL
MODEL       97
REMARK 921   NORMALIZED FREE ENERGY PREDICTED BY IDOCK:   -3.71 KCAL/MOL
REMARK 922        TOTAL FREE ENERGY PREDICTED BY IDOCK:   -3.77 KCAL/MOL
REMARK 923 INTER-LIGAND FREE ENERGY PREDICTED BY IDOCK:   -3.97 KCAL/MOL
REMARK 924 INTRA-LIGAND FREE ENERGY PREDICTED BY IDOCK:    0.20 KCAL/MOL
REMARK 927      BINDING AFFINITY PREDICTED BY RF-SCORE:    0.00 PKD
ROOT
HETATM    1  C   UNL     1      -6.823  17.305  66.335  1.00  0.00    -0.300 C  
HETATM    2  C   UNL     1      -7.950  16.788  67.184  1.00  0.00    -0.210 A  
HETATM    3  C   UNL     1      -8.121  15.391  67.284  1.00  0.00    -0.228 A  
HETATM    4  C   UNL     1      -9.158  14.812  68.038  1.00  0.00    -0.179 A  
HETATM    5  C   UNL     1     -10.033  15.672  68.708  1.00  0.00    -0.213 A  
HETATM    6  C   UNL     1      -9.885  17.060  68.638  1.00  0.00    -0.290 A  
HETATM    7  S   UNL     1     -11.422  15.060  69.621  1.00  0.00    -0.315 S  
HETATM    8  O   UNL     1     -11.049  15.106  71.021  1.00  0.00    -0.304 OA 
HETATM    9  C   UNL     1     -11.547  13.360  69.129  1.00  0.00    -0.315 C  
HETATM   10  O   UNL     1     -12.594  15.752  69.122  1.00  0.00     0.028 OA 
HETATM   11  C   UNL     1      -8.859  17.618  67.862  1.00  0.00    -0.246 A  
HETATM   12  C   UNL     1      -9.301  13.311  68.011  1.00  0.00    -0.218 C  
HETATM   13  C   UNL     1     -10.176  12.715  69.112  1.00  0.00     0.233 C  
ENDROOT
BRANCH  11  14
HETATM   14  S   UNL     1      -8.834  19.394  67.755  1.00  0.00    -0.321 S  
HETATM   15  O   UNL     1      -7.533  19.916  68.098  1.00  0.00    -0.295 OA 
HETATM   16  N   UNL     1      -8.993  19.606  66.095  1.00  0.00    -0.367 N  
HETATM   17  O   UNL     1     -10.044  19.921  68.336  1.00  0.00    -0.428 OA 
HETATM   18  H1  UNL     1      -8.979  20.624  66.034  1.00  0.00     0.000 HD 
HETATM   19  H2  UNL     1      -9.080  18.909  65.355  1.00  0.00     0.000 HD 
ENDBRANCH  11  14
TORSDOF 1
ENDMDL
MODEL       98
REMARK 921   NORMALIZED FREE ENERGY PREDICTED BY IDOCK:   -3.69 KCAL/MOL
REMARK 922        TOTAL FREE ENERGY PREDICTED BY IDOCK:   -3.74 KCAL/MOL
REMARK 923 INTER-LIGAND FREE ENERGY PREDICTED BY IDOCK:   -4.07 KCAL/MOL
REMARK 924 INTRA-LIGAND FREE ENERGY PREDICTED BY IDOCK:    0.33 KCAL/MOL
REMARK 927      BINDING AFFINITY PREDICTED BY RF-SCORE:    0.00 PKD
ROOT
HETATM    1  C   UNL     1     -11.958  11.482  68.448  1.00  0.00    -0.268 C  
HETATM    2  C   UNL     1     -11.275  10.159  68.652  1.00  0.00    -0.223 A  
HETATM    3  C   UNL     1     -10.546   9.615  67.574  1.00  0.00    -0.339 A  
HETATM    4  C   UNL     1      -9.889   8.374  67.661  1.00  0.00    -0.222 A  
HETATM    5  C   UNL     1      -9.972   7.677  68.870  1.00  0.00    -0.176 A  
HETATM    6  C   UNL     1     -10.678   8.195  69.960  1.00  0.00    -0.243 A  
HETATM    7  S   UNL     1      -9.253   6.071  69.069  1.00  0.00    -0.121 S  
HETATM    8  O   UNL     1      -8.016   6.259  69.800  1.00  0.00    -0.113 OA 
HETATM    9  C   UNL     1      -8.857   5.566  67.416  1.00  0.00    -0.105 C  
HETATM   10  O   UNL     1     -10.302   5.198  69.559  1.00  0.00    -0.251 OA 
HETATM   11  C   UNL     1     -11.344   9.422  69.846  1.00  0.00    -0.093 A  
HETATM   12  C   UNL     1      -9.207   7.844  66.424  1.00  0.00    -0.241 C  
HETATM   13  C   UNL     1      -8.212   6.709  66.657  1.00  0.00    -0.112 C  
ENDROOT
BRANCH  11  14
HETATM   14  S   UNL     1     -12.303   9.928  71.256  1.00  0.00    -0.411 S  
HETATM   15  O   UNL     1     -12.569  11.346  71.221  1.00  0.00    -0.394 OA 
HETATM   16  N   UNL     1     -13.768   9.175  70.922  1.00  0.00    -0.565 N  
HETATM   17  O   UNL     1     -11.788   9.278  72.437  1.00  0.00    -0.194 OA 
HETATM   18  H1  UNL     1     -14.317   9.465  71.731  1.00  0.00     0.000 HD 
HETATM   19  H2  UNL     1     -14.033   8.591  70.129  1.00  0.00     0.000 HD 
ENDBRANCH  11  14
TORSDOF 1
ENDMDL
MODEL       99
REMARK 921   NORMALIZED FREE ENERGY PREDICTED BY IDOCK:   -3.66 KCAL/MOL
REMARK 922        TOTAL FREE ENERGY PREDICTED BY IDOCK:   -3.71 KCAL/MOL
REMARK 923 INTER-LIGAND FREE ENERGY PREDICTED BY IDOCK:   -3.93 KCAL/MOL
REMARK 924 INTRA-LIGAND FREE ENERGY PREDICTED BY IDOCK:    0.22 KCAL/MOL
REMARK 927      BINDING AFFINITY PREDICTED BY RF-SCORE:    0.00 PKD
ROOT
HETATM    1  C   UNL     1     -12.224   7.323  71.466  1.00  0.00    -0.387 C  
HETATM    2  C   UNL     1     -11.369   6.439  70.601  1.00  0.00    -0.419 A  
HETATM    3  C   UNL     1     -11.395   6.647  69.207  1.00  0.00    -0.301 A  
HETATM    4  C   UNL     1     -10.645   5.859  68.314  1.00  0.00    -0.310 A  
HETATM    5  C   UNL     1      -9.850   4.843  68.854  1.00  0.00    -0.170 A  
HETATM    6  C   UNL     1      -9.795   4.618  70.232  1.00  0.00    -0.314 A  
HETATM    7  S   UNL     1      -8.928   3.738  67.823  1.00  0.00    -0.148 S  
HETATM    8  O   UNL     1      -7.551   4.192  67.856  1.00  0.00    -0.067 OA 
HETATM    9  C   UNL     1      -9.574   4.023  66.196  1.00  0.00    -0.197 C  
HETATM   10  O   UNL     1      -9.295   2.391  68.214  1.00  0.00    -0.188 OA 
HETATM   11  C   UNL     1     -10.567   5.400  71.103  1.00  0.00    -0.206 A  
HETATM   12  C   UNL     1     -10.809   6.111  66.836  1.00  0.00    -0.411 C  
HETATM   13  C   UNL     1      -9.725   5.510  65.943  1.00  0.00    -0.058 C  
ENDROOT
BRANCH  11  14
HETATM   14  S   UNL     1     -10.504   4.951  72.823  1.00  0.00    -0.214 S  
HETATM   15  O   UNL     1      -9.502   3.940  73.060  1.00  0.00    -0.112 OA 
HETATM   16  N   UNL     1      -9.896   6.369  73.491  1.00  0.00    -0.170 N  
HETATM   17  O   UNL     1     -11.849   4.824  73.329  1.00  0.00    -0.261 OA 
HETATM   18  H1  UNL     1      -9.860   6.111  74.478  1.00  0.00     0.000 HD 
HETATM   19  H2  UNL     1      -9.635   7.243  73.036  1.00  0.00     0.000 HD 
ENDBRANCH  11  14
TORSDOF 1
ENDMDL
MODEL      100
REMARK 921   NORMALIZED FREE ENERGY PREDICTED BY IDOCK:   -3.66 KCAL/MOL
REMARK 922        TOTAL FREE ENERGY PREDICTED BY IDOCK:   -3.71 KCAL/MOL
REMARK 923 INTER-LIGAND FREE ENERGY PREDICTED BY IDOCK:   -3.56 KCAL/MOL
REMARK 924 INTRA-LIGAND FREE ENERGY PREDICTED BY IDOCK:   -0.15 KCAL/MOL
REMARK 927      BINDING AFFINITY PREDICTED BY RF-SCORE:    0.00 PKD
ROOT
HETATM    1  C   UNL     1      -7.888   8.451  68.042  1.00  0.00    -0.111 C  
HETATM    2  C   UNL     1      -9.095   8.221  68.908  1.00  0.00    -0.147 A  
HETATM    3  C   UNL     1      -9.820   9.347  69.351  1.00  0.00    -0.183 A  
HETATM    4  C   UNL     1     -10.951   9.234  70.181  1.00  0.00    -0.278 A  
HETATM    5  C   UNL     1     -11.353   7.950  70.561  1.00  0.00    -0.234 A  
HETATM    6  C   UNL     1     -10.661   6.815  70.131  1.00  0.00    -0.274 A  
HETATM    7  S   UNL     1     -12.711   7.691  71.667  1.00  0.00    -0.344 S  
HETATM    8  O   UNL     1     -13.841   7.295  70.850  1.00  0.00    -0.134 OA 
HETATM    9  C   UNL     1     -13.039   9.302  72.335  1.00  0.00    -0.406 C  
HETATM   10  O   UNL     1     -12.223   6.856  72.747  1.00  0.00     0.119 OA 
HETATM   11  C   UNL     1      -9.523   6.949  69.323  1.00  0.00    -0.147 A  
HETATM   12  C   UNL     1     -11.605  10.505  70.664  1.00  0.00    -0.445 C  
HETATM   13  C   UNL     1     -13.013  10.343  71.234  1.00  0.00    -0.517 C  
ENDROOT
BRANCH  11  14
HETATM   14  S   UNL     1      -8.659   5.445  68.930  1.00  0.00    -0.098 S  
HETATM   15  O   UNL     1      -7.340   5.437  69.516  1.00  0.00    -0.062 OA 
HETATM   16  N   UNL     1      -9.560   4.331  69.807  1.00  0.00    -0.195 N  
HETATM   17  O   UNL     1      -8.877   5.122  67.542  1.00  0.00    -0.107 OA 
HETATM   18  H1  UNL     1      -9.064   3.468  69.582  1.00  0.00     0.000 HD 
HETATM   19  H2  UNL     1     -10.377   4.477  70.401  1.00  0.00     0.000 HD 
ENDBRANCH  11  14
TORSDOF 1
ENDMDL
MODEL      101
REMARK 921   NORMALIZED FREE ENERGY PREDICTED BY IDOCK:   -3.61 KCAL/MOL
REMARK 922        TOTAL FREE ENERGY PREDICTED BY IDOCK:   -3.66 KCAL/MOL
REMARK 923 INTER-LIGAND FREE ENERGY PREDICTED BY IDOCK:   -3.50 KCAL/MOL
REMARK 924 INTRA-LIGAND FREE ENERGY PREDICTED BY IDOCK:   -0.15 KCAL/MOL
REMARK 927      BINDING AFFINITY PREDICTED BY RF-SCORE:    0.00 PKD
ROOT
HETATM    1  C   UNL     1      -5.754  14.891  67.877  1.00  0.00    -0.138 C  
HETATM    2  C   UNL     1      -7.122  14.283  68.012  1.00  0.00    -0.145 A  
HETATM    3  C   UNL     1      -8.203  15.139  68.311  1.00  0.00    -0.144 A  
HETATM    4  C   UNL     1      -9.516  14.661  68.476  1.00  0.00    -0.216 A  
HETATM    5  C   UNL     1      -9.732  13.288  68.329  1.00  0.00    -0.225 A  
HETATM    6  C   UNL     1      -8.684  12.416  68.023  1.00  0.00    -0.186 A  
HETATM    7  S   UNL     1     -11.326  12.564  68.594  1.00  0.00    -0.312 S  
HETATM    8  O   UNL     1     -11.893  12.320  67.282  1.00  0.00    -0.500 OA 
HETATM    9  C   UNL     1     -12.261  13.851  69.378  1.00  0.00    -0.292 C  
HETATM   10  O   UNL     1     -11.150  11.495  69.558  1.00  0.00    -0.244 OA 
HETATM   11  C   UNL     1      -7.379  12.908  67.884  1.00  0.00    -0.127 A  
HETATM   12  C   UNL     1     -10.584  15.648  68.876  1.00  0.00    -0.228 C  
HETATM   13  C   UNL     1     -12.023  15.175  68.680  1.00  0.00    -0.270 C  
ENDROOT
BRANCH  11  14
HETATM   14  S   UNL     1      -6.108  11.694  67.607  1.00  0.00    -0.079 S  
HETATM   15  O   UNL     1      -5.229  11.593  68.747  1.00  0.00    -0.047 OA 
HETATM   16  N   UNL     1      -7.022  10.284  67.605  1.00  0.00    -0.083 N  
HETATM   17  O   UNL     1      -5.601  11.836  66.264  1.00  0.00    -0.269 OA 
HETATM   18  H1  UNL     1      -6.294   9.587  67.446  1.00  0.00     0.000 HD 
HETATM   19  H2  UNL     1      -8.027  10.159  67.728  1.00  0.00     0.000 HD 
ENDBRANCH  11  14
TORSDOF 1
ENDMDL
MODEL      102
REMARK 921   NORMALIZED FREE ENERGY PREDICTED BY IDOCK:   -3.60 KCAL/MOL
REMARK 922        TOTAL FREE ENERGY PREDICTED BY IDOCK:   -3.65 KCAL/MOL
REMARK 923 INTER-LIGAND FREE ENERGY PREDICTED BY IDOCK:   -3.53 KCAL/MOL
REMARK 924 INTRA-LIGAND FREE ENERGY PREDICTED BY IDOCK:   -0.12 KCAL/MOL
REMARK 927      BINDING AFFINITY PREDICTED BY RF-SCORE:    0.00 PKD
ROOT
HETATM    1  C   UNL     1      -5.646  12.869  69.747  1.00  0.00    -0.103 C  
HETATM    2  C   UNL     1      -6.913  12.423  69.071  1.00  0.00    -0.071 A  
HETATM    3  C   UNL     1      -7.299  11.073  69.205  1.00  0.00    -0.113 A  
HETATM    4  C   UNL     1      -8.456  10.558  68.593  1.00  0.00    -0.138 A  
HETATM    5  C   UNL     1      -9.237  11.435  67.836  1.00  0.00    -0.164 A  
HETATM    6  C   UNL     1      -8.887  12.781  67.692  1.00  0.00    -0.189 A  
HETATM    7  S   UNL     1     -10.670  10.881  66.955  1.00  0.00    -0.263 S  
HETATM    8  O   UNL     1     -11.820  11.279  67.743  1.00  0.00    -0.610 OA 
HETATM    9  C   UNL     1     -10.546   9.112  66.997  1.00  0.00    -0.195 C  
HETATM   10  O   UNL     1     -10.508  11.303  65.577  1.00  0.00    -0.258 OA 
HETATM   11  C   UNL     1      -7.718  13.270  68.291  1.00  0.00    -0.141 A  
HETATM   12  C   UNL     1      -8.734   9.081  68.732  1.00  0.00    -0.136 C  
HETATM   13  C   UNL     1     -10.156   8.645  68.386  1.00  0.00    -0.217 C  
ENDROOT
BRANCH  11  14
HETATM   14  S   UNL     1      -7.312  14.968  67.948  1.00  0.00    -0.161 S  
HETATM   15  O   UNL     1      -6.025  15.074  67.304  1.00  0.00    -0.319 OA 
HETATM   16  N   UNL     1      -8.450  15.325  66.764  1.00  0.00    -0.264 N  
HETATM   17  O   UNL     1      -7.664  15.779  69.088  1.00  0.00    -0.189 OA 
HETATM   18  H1  UNL     1      -8.218  16.298  66.567  1.00  0.00     0.000 HD 
HETATM   19  H2  UNL     1      -9.173  14.732  66.355  1.00  0.00     0.000 HD 
ENDBRANCH  11  14
TORSDOF 1
ENDMDL
MODEL      103
REMARK 921   NORMALIZED FREE ENERGY PREDICTED BY IDOCK:   -3.59 KCAL/MOL
REMARK 922        TOTAL FREE ENERGY PREDICTED BY IDOCK:   -3.64 KCAL/MOL
REMARK 923 INTER-LIGAND FREE ENERGY PREDICTED BY IDOCK:   -3.57 KCAL/MOL
REMARK 924 INTRA-LIGAND FREE ENERGY PREDICTED BY IDOCK:   -0.07 KCAL/MOL
REMARK 927      BINDING AFFINITY PREDICTED BY RF-SCORE:    0.00 PKD
ROOT
HETATM    1  C   UNL     1      -9.668  12.954  65.461  1.00  0.00    -0.076 C  
HETATM    2  C   UNL     1      -9.655  11.523  65.920  1.00  0.00    -0.254 A  
HETATM    3  C   UNL     1      -8.884  10.596  65.188  1.00  0.00    -0.207 A  
HETATM    4  C   UNL     1      -8.825   9.232  65.528  1.00  0.00    -0.224 A  
HETATM    5  C   UNL     1      -9.561   8.806  66.638  1.00  0.00    -0.220 A  
HETATM    6  C   UNL     1     -10.327   9.701  67.389  1.00  0.00    -0.306 A  
HETATM    7  S   UNL     1      -9.627   7.101  67.111  1.00  0.00    -0.161 S  
HETATM    8  O   UNL     1      -8.726   6.948  68.236  1.00  0.00    -0.124 OA 
HETATM    9  C   UNL     1      -8.939   6.239  65.721  1.00  0.00    -0.068 C  
HETATM   10  O   UNL     1     -11.028   6.742  67.203  1.00  0.00    -0.363 OA 
HETATM   11  C   UNL     1     -10.391  11.052  67.021  1.00  0.00    -0.228 A  
HETATM   12  C   UNL     1      -8.036   8.311  64.631  1.00  0.00    -0.150 C  
HETATM   13  C   UNL     1      -7.693   6.948  65.227  1.00  0.00    -0.110 C  
ENDROOT
BRANCH  11  14
HETATM   14  S   UNL     1     -11.484  12.076  67.981  1.00  0.00    -0.344 S  
HETATM   15  O   UNL     1     -12.435  12.756  67.134  1.00  0.00    -0.239 OA 
HETATM   16  N   UNL     1     -12.360  10.904  68.807  1.00  0.00    -0.296 N  
HETATM   17  O   UNL     1     -10.720  12.776  68.984  1.00  0.00    -0.197 OA 
HETATM   18  H1  UNL     1     -12.987  11.491  69.358  1.00  0.00     0.000 HD 
HETATM   19  H2  UNL     1     -12.285   9.887  68.769  1.00  0.00     0.000 HD 
ENDBRANCH  11  14
TORSDOF 1
ENDMDL
MODEL      104
REMARK 921   NORMALIZED FREE ENERGY PREDICTED BY IDOCK:   -3.57 KCAL/MOL
REMARK 922        TOTAL FREE ENERGY PREDICTED BY IDOCK:   -3.62 KCAL/MOL
REMARK 923 INTER-LIGAND FREE ENERGY PREDICTED BY IDOCK:   -3.47 KCAL/MOL
REMARK 924 INTRA-LIGAND FREE ENERGY PREDICTED BY IDOCK:   -0.15 KCAL/MOL
REMARK 927      BINDING AFFINITY PREDICTED BY RF-SCORE:    0.00 PKD
ROOT
HETATM    1  C   UNL     1      -9.024   8.147  73.130  1.00  0.00    -0.330 C  
HETATM    2  C   UNL     1      -9.236   7.978  71.651  1.00  0.00    -0.196 A  
HETATM    3  C   UNL     1      -9.196   9.130  70.838  1.00  0.00    -0.326 A  
HETATM    4  C   UNL     1      -9.403   9.075  69.447  1.00  0.00    -0.158 A  
HETATM    5  C   UNL     1      -9.650   7.824  68.874  1.00  0.00    -0.154 A  
HETATM    6  C   UNL     1      -9.686   6.663  69.652  1.00  0.00    -0.162 A  
HETATM    7  S   UNL     1     -10.004   7.645  67.149  1.00  0.00    -0.256 S  
HETATM    8  O   UNL     1      -8.785   7.171  66.523  1.00  0.00    -0.122 OA 
HETATM    9  C   UNL     1     -10.311   9.302  66.595  1.00  0.00    -0.222 C  
HETATM   10  O   UNL     1     -11.248   6.907  67.048  1.00  0.00    -0.369 OA 
HETATM   11  C   UNL     1      -9.500   6.741  71.039  1.00  0.00    -0.164 A  
HETATM   12  C   UNL     1      -9.422  10.375  68.681  1.00  0.00    -0.167 C  
HETATM   13  C   UNL     1      -9.274  10.248  67.167  1.00  0.00    -0.163 C  
ENDROOT
BRANCH  11  14
HETATM   14  S   UNL     1      -9.678   5.218  71.941  1.00  0.00    -0.163 S  
HETATM   15  O   UNL     1     -10.870   5.234  72.756  1.00  0.00    -0.228 OA 
HETATM   16  N   UNL     1      -9.994   4.149  70.684  1.00  0.00    -0.173 N  
HETATM   17  O   UNL     1      -8.396   4.830  72.475  1.00  0.00    -0.112 OA 
HETATM   18  H1  UNL     1     -10.097   3.275  71.201  1.00  0.00     0.000 HD 
HETATM   19  H2  UNL     1     -10.064   4.324  69.681  1.00  0.00     0.000 HD 
ENDBRANCH  11  14
TORSDOF 1
ENDMDL
MODEL      105
REMARK 921   NORMALIZED FREE ENERGY PREDICTED BY IDOCK:   -3.56 KCAL/MOL
REMARK 922        TOTAL FREE ENERGY PREDICTED BY IDOCK:   -3.61 KCAL/MOL
REMARK 923 INTER-LIGAND FREE ENERGY PREDICTED BY IDOCK:   -3.78 KCAL/MOL
REMARK 924 INTRA-LIGAND FREE ENERGY PREDICTED BY IDOCK:    0.17 KCAL/MOL
REMARK 927      BINDING AFFINITY PREDICTED BY RF-SCORE:    0.00 PKD
ROOT
HETATM    1  C   UNL     1      -9.249   2.439  69.767  1.00  0.00    -0.188 C  
HETATM    2  C   UNL     1      -9.446   3.911  70.000  1.00  0.00    -0.263 A  
HETATM    3  C   UNL     1      -9.985   4.322  71.237  1.00  0.00    -0.230 A  
HETATM    4  C   UNL     1     -10.224   5.675  71.540  1.00  0.00    -0.263 A  
HETATM    5  C   UNL     1      -9.902   6.626  70.568  1.00  0.00    -0.176 A  
HETATM    6  C   UNL     1      -9.356   6.252  69.337  1.00  0.00    -0.145 A  
HETATM    7  S   UNL     1     -10.233   8.349  70.808  1.00  0.00    -0.199 S  
HETATM    8  O   UNL     1      -8.971   8.968  71.163  1.00  0.00    -0.220 OA 
HETATM    9  C   UNL     1     -11.298   8.392  72.226  1.00  0.00    -0.378 C  
HETATM   10  O   UNL     1     -11.004   8.794  69.663  1.00  0.00    -0.206 OA 
HETATM   11  C   UNL     1      -9.147   4.897  69.045  1.00  0.00    -0.111 A  
HETATM   12  C   UNL     1     -10.881   6.000  72.859  1.00  0.00    -0.291 C  
HETATM   13  C   UNL     1     -10.779   7.458  73.301  1.00  0.00    -0.441 C  
ENDROOT
BRANCH  11  14
HETATM   14  S   UNL     1      -8.554   4.530  67.408  1.00  0.00    -0.104 S  
HETATM   15  O   UNL     1      -7.469   3.580  67.450  1.00  0.00    -0.065 OA 
HETATM   16  N   UNL     1      -9.872   3.698  66.781  1.00  0.00    -0.383 N  
HETATM   17  O   UNL     1      -8.466   5.755  66.651  1.00  0.00    -0.112 OA 
HETATM   18  H1  UNL     1      -9.532   3.487  65.842  1.00  0.00     0.000 HD 
HETATM   19  H2  UNL     1     -10.765   3.466  67.218  1.00  0.00     0.000 HD 
ENDBRANCH  11  14
TORSDOF 1
ENDMDL
MODEL      106
REMARK 921   NORMALIZED FREE ENERGY PREDICTED BY IDOCK:   -3.53 KCAL/MOL
REMARK 922        TOTAL FREE ENERGY PREDICTED BY IDOCK:   -3.57 KCAL/MOL
REMARK 923 INTER-LIGAND FREE ENERGY PREDICTED BY IDOCK:   -3.42 KCAL/MOL
REMARK 924 INTRA-LIGAND FREE ENERGY PREDICTED BY IDOCK:   -0.15 KCAL/MOL
REMARK 927      BINDING AFFINITY PREDICTED BY RF-SCORE:    0.00 PKD
ROOT
HETATM    1  C   UNL     1     -11.504   8.923  70.775  1.00  0.00    -0.319 C  
HETATM    2  C   UNL     1     -10.914   7.543  70.855  1.00  0.00    -0.267 A  
HETATM    3  C   UNL     1     -11.191   6.765  71.998  1.00  0.00    -0.297 A  
HETATM    4  C   UNL     1     -10.668   5.471  72.173  1.00  0.00    -0.288 A  
HETATM    5  C   UNL     1      -9.852   4.958  71.161  1.00  0.00    -0.192 A  
HETATM    6  C   UNL     1      -9.566   5.699  70.011  1.00  0.00    -0.214 A  
HETATM    7  S   UNL     1      -9.073   3.374  71.308  1.00  0.00    -0.118 S  
HETATM    8  O   UNL     1      -9.851   2.453  70.503  1.00  0.00    -0.043 OA 
HETATM    9  C   UNL     1      -9.285   2.945  73.016  1.00  0.00    -0.089 C  
HETATM   10  O   UNL     1      -7.656   3.578  71.076  1.00  0.00    -0.045 OA 
HETATM   11  C   UNL     1     -10.078   6.996  69.866  1.00  0.00    -0.193 A  
HETATM   12  C   UNL     1     -10.959   4.757  73.469  1.00  0.00    -0.398 C  
HETATM   13  C   UNL     1     -10.700   3.252  73.464  1.00  0.00    -0.306 C  
ENDROOT
BRANCH  11  14
HETATM   14  S   UNL     1      -9.558   7.888  68.418  1.00  0.00    -0.152 S  
HETATM   15  O   UNL     1      -8.723   9.011  68.771  1.00  0.00    -0.133 OA 
HETATM   16  N   UNL     1      -8.535   6.758  67.709  1.00  0.00    -0.122 N  
HETATM   17  O   UNL     1     -10.677   8.024  67.517  1.00  0.00    -0.244 OA 
HETATM   18  H1  UNL     1      -8.236   7.269  66.878  1.00  0.00     0.000 HD 
HETATM   19  H2  UNL     1      -8.282   5.821  68.023  1.00  0.00     0.000 HD 
ENDBRANCH  11  14
TORSDOF 1
ENDMDL
MODEL      107
REMARK 921   NORMALIZED FREE ENERGY PREDICTED BY IDOCK:   -3.51 KCAL/MOL
REMARK 922        TOTAL FREE ENERGY PREDICTED BY IDOCK:   -3.55 KCAL/MOL
REMARK 923 INTER-LIGAND FREE ENERGY PREDICTED BY IDOCK:   -3.81 KCAL/MOL
REMARK 924 INTRA-LIGAND FREE ENERGY PREDICTED BY IDOCK:    0.26 KCAL/MOL
REMARK 927      BINDING AFFINITY PREDICTED BY RF-SCORE:    0.00 PKD
ROOT
HETATM    1  C   UNL     1      -9.738   5.771  66.892  1.00  0.00    -0.163 C  
HETATM    2  C   UNL     1      -9.892   5.662  68.384  1.00  0.00    -0.178 A  
HETATM    3  C   UNL     1     -10.511   6.729  69.068  1.00  0.00    -0.229 A  
HETATM    4  C   UNL     1     -10.682   6.728  70.465  1.00  0.00    -0.277 A  
HETATM    5  C   UNL     1     -10.219   5.617  71.176  1.00  0.00    -0.220 A  
HETATM    6  C   UNL     1      -9.610   4.539  70.526  1.00  0.00    -0.274 A  
HETATM    7  S   UNL     1     -10.307   5.541  72.943  1.00  0.00    -0.208 S  
HETATM    8  O   UNL     1     -11.436   4.691  73.265  1.00  0.00    -0.320 OA 
HETATM    9  C   UNL     1     -10.699   7.202  73.428  1.00  0.00    -0.368 C  
HETATM   10  O   UNL     1      -8.970   5.245  73.420  1.00  0.00    -0.120 OA 
HETATM   11  C   UNL     1      -9.429   4.570  69.136  1.00  0.00    -0.164 A  
HETATM   12  C   UNL     1     -11.281   7.954  71.107  1.00  0.00    -0.284 C  
HETATM   13  C   UNL     1     -11.786   7.768  72.536  1.00  0.00    -0.393 C  
ENDROOT
BRANCH  11  14
HETATM   14  S   UNL     1      -8.543   3.198  68.431  1.00  0.00    -0.099 S  
HETATM   15  O   UNL     1      -8.426   2.114  69.378  1.00  0.00    -0.048 OA 
HETATM   16  N   UNL     1      -9.644   2.680  67.272  1.00  0.00    -0.403 N  
HETATM   17  O   UNL     1      -7.404   3.695  67.698  1.00  0.00    -0.061 OA 
HETATM   18  H1  UNL     1      -9.136   1.893  66.868  1.00  0.00     0.000 HD 
HETATM   19  H2  UNL     1     -10.565   3.051  67.038  1.00  0.00     0.000 HD 
ENDBRANCH  11  14
TORSDOF 1
ENDMDL
MODEL      108
REMARK 921   NORMALIZED FREE ENERGY PREDICTED BY IDOCK:   -3.44 KCAL/MOL
REMARK 922        TOTAL FREE ENERGY PREDICTED BY IDOCK:   -3.48 KCAL/MOL
REMARK 923 INTER-LIGAND FREE ENERGY PREDICTED BY IDOCK:   -3.99 KCAL/MOL
REMARK 924 INTRA-LIGAND FREE ENERGY PREDICTED BY IDOCK:    0.51 KCAL/MOL
REMARK 927      BINDING AFFINITY PREDICTED BY RF-SCORE:    0.00 PKD
ROOT
HETATM    1  C   UNL     1     -10.403   9.922  66.941  1.00  0.00    -0.300 C  
HETATM    2  C   UNL     1     -10.222  11.411  66.840  1.00  0.00    -0.254 A  
HETATM    3  C   UNL     1     -10.599  12.203  67.945  1.00  0.00    -0.230 A  
HETATM    4  C   UNL     1     -10.487  13.606  67.938  1.00  0.00    -0.249 A  
HETATM    5  C   UNL     1      -9.976  14.211  66.786  1.00  0.00    -0.267 A  
HETATM    6  C   UNL     1      -9.584  13.453  65.679  1.00  0.00    -0.011 A  
HETATM    7  S   UNL     1      -9.865  15.972  66.633  1.00  0.00    -0.276 S  
HETATM    8  O   UNL     1      -8.477  16.321  66.866  1.00  0.00    -0.184 OA 
HETATM    9  C   UNL     1     -10.833  16.586  67.986  1.00  0.00    -0.337 C  
HETATM   10  O   UNL     1     -10.544  16.332  65.403  1.00  0.00    -0.433 OA 
HETATM   11  C   UNL     1      -9.725  12.059  65.697  1.00  0.00    -0.223 A  
HETATM   12  C   UNL     1     -10.995  14.364  69.139  1.00  0.00    -0.288 C  
HETATM   13  C   UNL     1     -10.521  15.811  69.251  1.00  0.00    -0.247 C  
ENDROOT
BRANCH  11  14
HETATM   14  S   UNL     1      -9.302  11.208  64.193  1.00  0.00    -0.122 S  
HETATM   15  O   UNL     1      -8.068  10.474  64.342  1.00  0.00    -0.138 OA 
HETATM   16  N   UNL     1     -10.522  10.054  64.136  1.00  0.00    -0.103 N  
HETATM   17  O   UNL     1      -9.536  12.084  63.071  1.00  0.00    -0.332 OA 
HETATM   18  H1  UNL     1     -10.279   9.566  63.273  1.00  0.00     0.000 HD 
HETATM   19  H2  UNL     1     -11.292   9.888  64.784  1.00  0.00     0.000 HD 
ENDBRANCH  11  14
TORSDOF 1
ENDMDL
MODEL      109
REMARK 921   NORMALIZED FREE ENERGY PREDICTED BY IDOCK:   -3.43 KCAL/MOL
REMARK 922        TOTAL FREE ENERGY PREDICTED BY IDOCK:   -3.47 KCAL/MOL
REMARK 923 INTER-LIGAND FREE ENERGY PREDICTED BY IDOCK:   -3.44 KCAL/MOL
REMARK 924 INTRA-LIGAND FREE ENERGY PREDICTED BY IDOCK:   -0.03 KCAL/MOL
REMARK 927      BINDING AFFINITY PREDICTED BY RF-SCORE:    0.00 PKD
ROOT
HETATM    1  C   UNL     1      -9.341   4.418  67.705  1.00  0.00    -0.190 C  
HETATM    2  C   UNL     1      -9.506   5.202  68.977  1.00  0.00    -0.186 A  
HETATM    3  C   UNL     1     -10.781   5.727  69.275  1.00  0.00    -0.386 A  
HETATM    4  C   UNL     1     -11.029   6.490  70.430  1.00  0.00    -0.353 A  
HETATM    5  C   UNL     1      -9.960   6.717  71.302  1.00  0.00    -0.180 A  
HETATM    6  C   UNL     1      -8.687   6.202  71.041  1.00  0.00    -0.132 A  
HETATM    7  S   UNL     1     -10.135   7.729  72.744  1.00  0.00    -0.310 S  
HETATM    8  O   UNL     1     -10.253   6.826  73.872  1.00  0.00    -0.304 OA 
HETATM    9  C   UNL     1     -11.692   8.546  72.513  1.00  0.00    -0.320 C  
HETATM   10  O   UNL     1      -9.094   8.737  72.681  1.00  0.00    -0.354 OA 
HETATM   11  C   UNL     1      -8.455   5.463  69.872  1.00  0.00    -0.103 A  
HETATM   12  C   UNL     1     -12.408   7.074  70.612  1.00  0.00    -0.239 C  
HETATM   13  C   UNL     1     -12.735   7.562  72.022  1.00  0.00    -0.246 C  
ENDROOT
BRANCH  11  14
HETATM   14  S   UNL     1      -6.774   4.954  69.588  1.00  0.00    -0.052 S  
HETATM   15  O   UNL     1      -6.082   5.897  68.742  1.00  0.00    -0.022 OA 
HETATM   16  N   UNL     1      -6.126   5.151  71.125  1.00  0.00    -0.021 N  
HETATM   17  O   UNL     1      -6.746   3.535  69.328  1.00  0.00    -0.036 OA 
HETATM   18  H1  UNL     1      -5.162   4.859  70.962  1.00  0.00     0.000 HD 
HETATM   19  H2  UNL     1      -6.573   5.474  71.984  1.00  0.00     0.000 HD 
ENDBRANCH  11  14
TORSDOF 1
ENDMDL
MODEL      110
REMARK 921   NORMALIZED FREE ENERGY PREDICTED BY IDOCK:   -3.42 KCAL/MOL
REMARK 922        TOTAL FREE ENERGY PREDICTED BY IDOCK:   -3.46 KCAL/MOL
REMARK 923 INTER-LIGAND FREE ENERGY PREDICTED BY IDOCK:   -3.67 KCAL/MOL
REMARK 924 INTRA-LIGAND FREE ENERGY PREDICTED BY IDOCK:    0.21 KCAL/MOL
REMARK 927      BINDING AFFINITY PREDICTED BY RF-SCORE:    0.00 PKD
ROOT
HETATM    1  C   UNL     1      -6.552  10.833  69.632  1.00  0.00    -0.114 C  
HETATM    2  C   UNL     1      -7.597  11.268  68.642  1.00  0.00    -0.129 A  
HETATM    3  C   UNL     1      -7.757  12.649  68.409  1.00  0.00    -0.133 A  
HETATM    4  C   UNL     1      -8.721  13.154  67.516  1.00  0.00    -0.201 A  
HETATM    5  C   UNL     1      -9.531  12.233  66.845  1.00  0.00    -0.217 A  
HETATM    6  C   UNL     1      -9.390  10.857  67.047  1.00  0.00    -0.180 A  
HETATM    7  S   UNL     1     -10.831  12.755  65.761  1.00  0.00    -0.279 S  
HETATM    8  O   UNL     1     -10.332  12.593  64.409  1.00  0.00    -0.340 OA 
HETATM    9  C   UNL     1     -11.001  14.489  66.093  1.00  0.00    -0.322 C  
HETATM   10  O   UNL     1     -12.043  12.098  66.209  1.00  0.00    -0.626 OA 
HETATM   11  C   UNL     1      -8.439  10.376  67.958  1.00  0.00    -0.119 A  
HETATM   12  C   UNL     1      -8.867  14.651  67.402  1.00  0.00    -0.205 C  
HETATM   13  C   UNL     1      -9.637  15.145  66.179  1.00  0.00    -0.344 C  
ENDROOT
BRANCH  11  14
HETATM   14  S   UNL     1      -8.424   8.616  68.218  1.00  0.00    -0.131 S  
HETATM   15  O   UNL     1      -9.426   7.963  67.410  1.00  0.00    -0.137 OA 
HETATM   16  N   UNL     1      -6.944   8.214  67.532  1.00  0.00    -0.074 N  
HETATM   17  O   UNL     1      -8.290   8.347  69.629  1.00  0.00    -0.118 OA 
HETATM   18  H1  UNL     1      -6.935   7.205  67.682  1.00  0.00     0.000 HD 
HETATM   19  H2  UNL     1      -6.247   8.813  67.089  1.00  0.00     0.000 HD 
ENDBRANCH  11  14
TORSDOF 1
ENDMDL
MODEL      111
REMARK 921   NORMALIZED FREE ENERGY PREDICTED BY IDOCK:   -3.35 KCAL/MOL
REMARK 922        TOTAL FREE ENERGY PREDICTED BY IDOCK:   -3.38 KCAL/MOL
REMARK 923 INTER-LIGAND FREE ENERGY PREDICTED BY IDOCK:   -3.23 KCAL/MOL
REMARK 924 INTRA-LIGAND FREE ENERGY PREDICTED BY IDOCK:   -0.15 KCAL/MOL
REMARK 927      BINDING AFFINITY PREDICTED BY RF-SCORE:    0.00 PKD
ROOT
HETATM    1  C   UNL     1      -9.435   9.138  69.915  1.00  0.00    -0.199 C  
HETATM    2  C   UNL     1      -9.493   8.089  68.840  1.00  0.00    -0.151 A  
HETATM    3  C   UNL     1      -9.287   6.744  69.212  1.00  0.00    -0.144 A  
HETATM    4  C   UNL     1      -9.302   5.694  68.275  1.00  0.00    -0.123 A  
HETATM    5  C   UNL     1      -9.537   6.020  66.936  1.00  0.00    -0.140 A  
HETATM    6  C   UNL     1      -9.754   7.342  66.537  1.00  0.00    -0.225 A  
HETATM    7  S   UNL     1      -9.498   4.793  65.660  1.00  0.00    -0.166 S  
HETATM    8  O   UNL     1     -10.878   4.485  65.340  1.00  0.00    -0.271 OA 
HETATM    9  C   UNL     1      -8.773   3.377  66.443  1.00  0.00    -0.126 C  
HETATM   10  O   UNL     1      -8.569   5.264  64.650  1.00  0.00    -0.148 OA 
HETATM   11  C   UNL     1      -9.713   8.377  67.482  1.00  0.00    -0.162 A  
HETATM   12  C   UNL     1      -8.989   4.302  68.765  1.00  0.00    -0.158 C  
HETATM   13  C   UNL     1      -9.378   3.169  67.818  1.00  0.00    -0.252 C  
ENDROOT
BRANCH  11  14
HETATM   14  S   UNL     1      -9.890  10.028  66.845  1.00  0.00    -0.207 S  
HETATM   15  O   UNL     1      -8.649  10.758  66.941  1.00  0.00    -0.129 OA 
HETATM   16  N   UNL     1     -10.112   9.707  65.211  1.00  0.00    -0.340 N  
HETATM   17  O   UNL     1     -11.138  10.583  67.309  1.00  0.00    -0.292 OA 
HETATM   18  H1  UNL     1     -10.213  10.655  64.845  1.00  0.00     0.000 HD 
HETATM   19  H2  UNL     1     -10.137   8.813  64.720  1.00  0.00     0.000 HD 
ENDBRANCH  11  14
TORSDOF 1
ENDMDL
MODEL      112
REMARK 921   NORMALIZED FREE ENERGY PREDICTED BY IDOCK:   -3.29 KCAL/MOL
REMARK 922        TOTAL FREE ENERGY PREDICTED BY IDOCK:   -3.33 KCAL/MOL
REMARK 923 INTER-LIGAND FREE ENERGY PREDICTED BY IDOCK:   -3.18 KCAL/MOL
REMARK 924 INTRA-LIGAND FREE ENERGY PREDICTED BY IDOCK:   -0.14 KCAL/MOL
REMARK 927      BINDING AFFINITY PREDICTED BY RF-SCORE:    0.00 PKD
ROOT
HETATM    1  C   UNL     1      -7.811   5.156  67.439  1.00  0.00    -0.096 C  
HETATM    2  C   UNL     1      -8.808   5.688  68.430  1.00  0.00    -0.108 A  
HETATM    3  C   UNL     1      -9.205   7.037  68.314  1.00  0.00    -0.128 A  
HETATM    4  C   UNL     1     -10.118   7.631  69.205  1.00  0.00    -0.190 A  
HETATM    5  C   UNL     1     -10.640   6.834  70.229  1.00  0.00    -0.215 A  
HETATM    6  C   UNL     1     -10.274   5.492  70.364  1.00  0.00    -0.321 A  
HETATM    7  S   UNL     1     -11.733   7.495  71.456  1.00  0.00    -0.293 S  
HETATM    8  O   UNL     1     -13.071   7.078  71.085  1.00  0.00    -0.345 OA 
HETATM    9  C   UNL     1     -11.612   9.251  71.242  1.00  0.00    -0.349 C  
HETATM   10  O   UNL     1     -11.164   7.167  72.748  1.00  0.00    -0.281 OA 
HETATM   11  C   UNL     1      -9.346   4.924  69.479  1.00  0.00    -0.130 A  
HETATM   12  C   UNL     1     -10.412   9.101  69.044  1.00  0.00    -0.238 C  
HETATM   13  C   UNL     1     -11.658   9.606  69.768  1.00  0.00    -0.022 C  
ENDROOT
BRANCH  11  14
HETATM   14  S   UNL     1      -8.870   3.244  69.814  1.00  0.00    -0.107 S  
HETATM   15  O   UNL     1      -7.468   3.157  70.143  1.00  0.00    -0.044 OA 
HETATM   16  N   UNL     1      -9.699   2.967  71.250  1.00  0.00    -0.158 N  
HETATM   17  O   UNL     1      -9.478   2.375  68.836  1.00  0.00    -0.158 OA 
HETATM   18  H1  UNL     1      -9.426   2.003  71.442  1.00  0.00     0.000 HD 
HETATM   19  H2  UNL     1     -10.306   3.591  71.782  1.00  0.00     0.000 HD 
ENDBRANCH  11  14
TORSDOF 1
ENDMDL
MODEL      113
REMARK 921   NORMALIZED FREE ENERGY PREDICTED BY IDOCK:   -3.26 KCAL/MOL
REMARK 922        TOTAL FREE ENERGY PREDICTED BY IDOCK:   -3.29 KCAL/MOL
REMARK 923 INTER-LIGAND FREE ENERGY PREDICTED BY IDOCK:   -3.16 KCAL/MOL
REMARK 924 INTRA-LIGAND FREE ENERGY PREDICTED BY IDOCK:   -0.13 KCAL/MOL
REMARK 927      BINDING AFFINITY PREDICTED BY RF-SCORE:    0.00 PKD
ROOT
HETATM    1  C   UNL     1     -11.179  10.738  69.090  1.00  0.00    -0.323 C  
HETATM    2  C   UNL     1     -10.416   9.563  68.545  1.00  0.00    -0.247 A  
HETATM    3  C   UNL     1      -9.910   9.650  67.231  1.00  0.00    -0.225 A  
HETATM    4  C   UNL     1      -9.201   8.596  66.627  1.00  0.00    -0.227 A  
HETATM    5  C   UNL     1      -8.999   7.434  67.378  1.00  0.00    -0.123 A  
HETATM    6  C   UNL     1      -9.479   7.321  68.686  1.00  0.00    -0.137 A  
HETATM    7  S   UNL     1      -8.192   6.014  66.694  1.00  0.00    -0.107 S  
HETATM    8  O   UNL     1      -6.836   6.021  67.207  1.00  0.00    -0.059 OA 
HETATM    9  C   UNL     1      -8.135   6.345  64.952  1.00  0.00    -0.120 C  
HETATM   10  O   UNL     1      -9.078   4.884  66.900  1.00  0.00    -0.116 OA 
HETATM   11  C   UNL     1     -10.202   8.374  69.262  1.00  0.00    -0.208 A  
HETATM   12  C   UNL     1      -8.776   8.759  65.189  1.00  0.00    -0.202 C  
HETATM   13  C   UNL     1      -7.710   7.779  64.703  1.00  0.00    -0.121 C  
ENDROOT
BRANCH  11  14
HETATM   14  S   UNL     1     -10.860   8.076  70.887  1.00  0.00    -0.234 S  
HETATM   15  O   UNL     1     -12.302   8.154  70.886  1.00  0.00    -0.200 OA 
HETATM   16  N   UNL     1     -10.487   6.449  71.079  1.00  0.00    -0.217 N  
HETATM   17  O   UNL     1     -10.060   8.780  71.859  1.00  0.00    -0.295 OA 
HETATM   18  H1  UNL     1     -10.865   6.278  72.012  1.00  0.00     0.000 HD 
HETATM   19  H2  UNL     1     -10.015   5.809  70.440  1.00  0.00     0.000 HD 
ENDBRANCH  11  14
TORSDOF 1
ENDMDL
MODEL      114
REMARK 921   NORMALIZED FREE ENERGY PREDICTED BY IDOCK:   -3.26 KCAL/MOL
REMARK 922        TOTAL FREE ENERGY PREDICTED BY IDOCK:   -3.29 KCAL/MOL
REMARK 923 INTER-LIGAND FREE ENERGY PREDICTED BY IDOCK:   -3.21 KCAL/MOL
REMARK 924 INTRA-LIGAND FREE ENERGY PREDICTED BY IDOCK:   -0.08 KCAL/MOL
REMARK 927      BINDING AFFINITY PREDICTED BY RF-SCORE:    0.00 PKD
ROOT
HETATM    1  C   UNL     1     -10.950  15.221  68.797  1.00  0.00    -0.260 C  
HETATM    2  C   UNL     1     -10.136  14.089  68.236  1.00  0.00    -0.246 A  
HETATM    3  C   UNL     1     -10.693  12.793  68.262  1.00  0.00    -0.257 A  
HETATM    4  C   UNL     1     -10.001  11.668  67.779  1.00  0.00    -0.191 A  
HETATM    5  C   UNL     1      -8.720  11.867  67.254  1.00  0.00    -0.171 A  
HETATM    6  C   UNL     1      -8.145  13.140  67.205  1.00  0.00    -0.151 A  
HETATM    7  S   UNL     1      -7.725  10.515  66.692  1.00  0.00    -0.128 S  
HETATM    8  O   UNL     1      -7.809  10.512  65.245  1.00  0.00    -0.151 OA 
HETATM    9  C   UNL     1      -8.563   9.076  67.305  1.00  0.00    -0.114 C  
HETATM   10  O   UNL     1      -6.453  10.612  67.381  1.00  0.00    -0.057 OA 
HETATM   11  C   UNL     1      -8.842  14.245  67.713  1.00  0.00    -0.185 A  
HETATM   12  C   UNL     1     -10.653  10.316  67.929  1.00  0.00    -0.282 C  
HETATM   13  C   UNL     1     -10.056   9.199  67.075  1.00  0.00    -0.316 C  
ENDROOT
BRANCH  11  14
HETATM   14  S   UNL     1      -7.968  15.795  67.701  1.00  0.00    -0.157 S  
HETATM   15  O   UNL     1      -7.922  16.374  69.023  1.00  0.00    -0.224 OA 
HETATM   16  N   UNL     1      -6.406  15.268  67.374  1.00  0.00    -0.091 N  
HETATM   17  O   UNL     1      -8.375  16.560  66.548  1.00  0.00    -0.231 OA 
HETATM   18  H1  UNL     1      -5.905  16.157  67.368  1.00  0.00     0.000 HD 
HETATM   19  H2  UNL     1      -6.056  14.321  67.224  1.00  0.00     0.000 HD 
ENDBRANCH  11  14
TORSDOF 1
ENDMDL
MODEL      115
REMARK 921   NORMALIZED FREE ENERGY PREDICTED BY IDOCK:   -3.23 KCAL/MOL
REMARK 922        TOTAL FREE ENERGY PREDICTED BY IDOCK:   -3.25 KCAL/MOL
REMARK 923 INTER-LIGAND FREE ENERGY PREDICTED BY IDOCK:   -3.10 KCAL/MOL
REMARK 924 INTRA-LIGAND FREE ENERGY PREDICTED BY IDOCK:   -0.15 KCAL/MOL
REMARK 927      BINDING AFFINITY PREDICTED BY RF-SCORE:    0.00 PKD
ROOT
HETATM    1  C   UNL     1      -6.468   4.543  64.945  1.00  0.00    -0.035 C  
HETATM    2  C   UNL     1      -7.402   5.330  65.822  1.00  0.00    -0.080 A  
HETATM    3  C   UNL     1      -6.840   6.193  66.786  1.00  0.00    -0.062 A  
HETATM    4  C   UNL     1      -7.632   6.955  67.665  1.00  0.00    -0.110 A  
HETATM    5  C   UNL     1      -9.021   6.839  67.557  1.00  0.00    -0.115 A  
HETATM    6  C   UNL     1      -9.608   5.999  66.606  1.00  0.00    -0.179 A  
HETATM    7  S   UNL     1     -10.114   7.686  68.663  1.00  0.00    -0.194 S  
HETATM    8  O   UNL     1     -10.623   8.836  67.942  1.00  0.00    -0.229 OA 
HETATM    9  C   UNL     1      -9.053   8.263  69.962  1.00  0.00    -0.150 C  
HETATM   10  O   UNL     1     -11.001   6.687  69.228  1.00  0.00    -0.261 OA 
HETATM   11  C   UNL     1      -8.802   5.231  65.754  1.00  0.00    -0.149 A  
HETATM   12  C   UNL     1      -6.930   7.784  68.713  1.00  0.00    -0.067 C  
HETATM   13  C   UNL     1      -7.785   8.858  69.381  1.00  0.00    -0.093 C  
ENDROOT
BRANCH  11  14
HETATM   14  S   UNL     1      -9.656   4.116  64.662  1.00  0.00    -0.167 S  
HETATM   15  O   UNL     1      -9.454   2.744  65.061  1.00  0.00    -0.149 OA 
HETATM   16  N   UNL     1     -11.253   4.475  65.039  1.00  0.00    -0.946 N  
HETATM   17  O   UNL     1      -9.466   4.549  63.299  1.00  0.00    -0.114 OA 
HETATM   18  H1  UNL     1     -11.743   3.836  64.413  1.00  0.00     0.000 HD 
HETATM   19  H2  UNL     1     -11.629   5.147  65.709  1.00  0.00     0.000 HD 
ENDBRANCH  11  14
TORSDOF 1
ENDMDL
MODEL      116
REMARK 921   NORMALIZED FREE ENERGY PREDICTED BY IDOCK:   -3.21 KCAL/MOL
REMARK 922        TOTAL FREE ENERGY PREDICTED BY IDOCK:   -3.23 KCAL/MOL
REMARK 923 INTER-LIGAND FREE ENERGY PREDICTED BY IDOCK:   -3.49 KCAL/MOL
REMARK 924 INTRA-LIGAND FREE ENERGY PREDICTED BY IDOCK:    0.26 KCAL/MOL
REMARK 927      BINDING AFFINITY PREDICTED BY RF-SCORE:    0.00 PKD
ROOT
HETATM    1  C   UNL     1     -10.016   6.762  73.836  1.00  0.00    -0.340 C  
HETATM    2  C   UNL     1      -9.884   7.661  72.639  1.00  0.00    -0.262 A  
HETATM    3  C   UNL     1     -10.864   8.656  72.444  1.00  0.00    -0.312 A  
HETATM    4  C   UNL     1     -10.837   9.532  71.343  1.00  0.00    -0.382 A  
HETATM    5  C   UNL     1      -9.788   9.396  70.429  1.00  0.00    -0.259 A  
HETATM    6  C   UNL     1      -8.796   8.426  70.600  1.00  0.00    -0.161 A  
HETATM    7  S   UNL     1      -9.696  10.388  68.965  1.00  0.00    -0.213 S  
HETATM    8  O   UNL     1      -8.712  11.421  69.226  1.00  0.00     0.108 OA 
HETATM    9  C   UNL     1     -11.294  11.150  68.857  1.00  0.00    -0.278 C  
HETATM   10  O   UNL     1      -9.564   9.477  67.845  1.00  0.00    -0.132 OA 
HETATM   11  C   UNL     1      -8.853   7.548  71.691  1.00  0.00    -0.116 A  
HETATM   12  C   UNL     1     -11.978  10.505  71.183  1.00  0.00    -0.435 C  
HETATM   13  C   UNL     1     -11.726  11.661  70.217  1.00  0.00    -0.355 C  
ENDROOT
BRANCH  11  14
HETATM   14  S   UNL     1      -7.602   6.284  71.747  1.00  0.00    -0.096 S  
HETATM   15  O   UNL     1      -7.362   5.852  73.103  1.00  0.00    -0.092 OA 
HETATM   16  N   UNL     1      -8.409   5.017  70.995  1.00  0.00    -0.115 N  
HETATM   17  O   UNL     1      -6.524   6.645  70.860  1.00  0.00    -0.049 OA 
HETATM   18  H1  UNL     1      -7.692   4.292  71.027  1.00  0.00     0.000 HD 
HETATM   19  H2  UNL     1      -9.354   4.981  70.612  1.00  0.00     0.000 HD 
ENDBRANCH  11  14
TORSDOF 1
ENDMDL
MODEL      117
REMARK 921   NORMALIZED FREE ENERGY PREDICTED BY IDOCK:   -3.16 KCAL/MOL
REMARK 922        TOTAL FREE ENERGY PREDICTED BY IDOCK:   -3.19 KCAL/MOL
REMARK 923 INTER-LIGAND FREE ENERGY PREDICTED BY IDOCK:   -3.03 KCAL/MOL
REMARK 924 INTRA-LIGAND FREE ENERGY PREDICTED BY IDOCK:   -0.15 KCAL/MOL
REMARK 927      BINDING AFFINITY PREDICTED BY RF-SCORE:    0.00 PKD
ROOT
HETATM    1  C   UNL     1      -8.013  10.460  69.362  1.00  0.00    -0.161 C  
HETATM    2  C   UNL     1      -8.381   9.130  68.765  1.00  0.00    -0.121 A  
HETATM    3  C   UNL     1      -7.541   8.594  67.767  1.00  0.00    -0.098 A  
HETATM    4  C   UNL     1      -7.812   7.366  67.136  1.00  0.00    -0.117 A  
HETATM    5  C   UNL     1      -8.958   6.669  67.533  1.00  0.00    -0.114 A  
HETATM    6  C   UNL     1      -9.805   7.170  68.526  1.00  0.00    -0.155 A  
HETATM    7  S   UNL     1      -9.443   5.156  66.752  1.00  0.00    -0.153 S  
HETATM    8  O   UNL     1      -9.050   4.085  67.647  1.00  0.00    -0.124 OA 
HETATM    9  C   UNL     1      -8.429   5.074  65.299  1.00  0.00    -0.141 C  
HETATM   10  O   UNL     1     -10.818   5.324  66.323  1.00  0.00    -0.285 OA 
HETATM   11  C   UNL     1      -9.529   8.406  69.127  1.00  0.00    -0.155 A  
HETATM   12  C   UNL     1      -6.895   6.923  66.023  1.00  0.00    -0.060 C  
HETATM   13  C   UNL     1      -6.999   5.450  65.634  1.00  0.00    -0.066 C  
ENDROOT
BRANCH  11  14
HETATM   14  S   UNL     1     -10.734   8.995  70.295  1.00  0.00    -0.239 S  
HETATM   15  O   UNL     1     -11.438  10.145  69.779  1.00  0.00    -0.250 OA 
HETATM   16  N   UNL     1     -11.838   7.728  70.268  1.00  0.00    -0.479 N  
HETATM   17  O   UNL     1     -10.157   8.986  71.617  1.00  0.00    -0.316 OA 
HETATM   18  H1  UNL     1     -12.529   8.067  70.938  1.00  0.00     0.000 HD 
HETATM   19  H2  UNL     1     -11.821   6.862  69.730  1.00  0.00     0.000 HD 
ENDBRANCH  11  14
TORSDOF 1
ENDMDL
MODEL      118
REMARK 921   NORMALIZED FREE ENERGY PREDICTED BY IDOCK:   -3.15 KCAL/MOL
REMARK 922        TOTAL FREE ENERGY PREDICTED BY IDOCK:   -3.17 KCAL/MOL
REMARK 923 INTER-LIGAND FREE ENERGY PREDICTED BY IDOCK:   -3.42 KCAL/MOL
REMARK 924 INTRA-LIGAND FREE ENERGY PREDICTED BY IDOCK:    0.24 KCAL/MOL
REMARK 927      BINDING AFFINITY PREDICTED BY RF-SCORE:    0.00 PKD
ROOT
HETATM    1  C   UNL     1      -7.772  11.636  68.515  1.00  0.00    -0.134 C  
HETATM    2  C   UNL     1      -8.443  10.292  68.562  1.00  0.00    -0.121 A  
HETATM    3  C   UNL     1      -7.626   9.142  68.603  1.00  0.00    -0.084 A  
HETATM    4  C   UNL     1      -8.160   7.841  68.628  1.00  0.00    -0.127 A  
HETATM    5  C   UNL     1      -9.552   7.709  68.616  1.00  0.00    -0.152 A  
HETATM    6  C   UNL     1     -10.388   8.828  68.585  1.00  0.00    -0.230 A  
HETATM    7  S   UNL     1     -10.334   6.121  68.563  1.00  0.00    -0.233 S  
HETATM    8  O   UNL     1     -10.787   5.838  69.911  1.00  0.00    -0.324 OA 
HETATM    9  C   UNL     1      -9.017   5.002  68.167  1.00  0.00    -0.108 C  
HETATM   10  O   UNL     1     -11.252   6.140  67.440  1.00  0.00    -0.288 OA 
HETATM   11  C   UNL     1      -9.836  10.116  68.538  1.00  0.00    -0.154 A  
HETATM   12  C   UNL     1      -7.199   6.679  68.587  1.00  0.00    -0.085 C  
HETATM   13  C   UNL     1      -7.785   5.327  68.988  1.00  0.00    -0.082 C  
ENDROOT
BRANCH  11  14
HETATM   14  S   UNL     1     -10.993  11.459  68.388  1.00  0.00    -0.237 S  
HETATM   15  O   UNL     1     -11.519  11.543  67.046  1.00  0.00    -0.441 OA 
HETATM   16  N   UNL     1     -12.253  10.891  69.343  1.00  0.00    -0.481 N  
HETATM   17  O   UNL     1     -10.469  12.615  69.075  1.00  0.00    -0.135 OA 
HETATM   18  H1  UNL     1     -12.917  11.662  69.256  1.00  0.00     0.000 HD 
HETATM   19  H2  UNL     1     -12.333  10.018  69.864  1.00  0.00     0.000 HD 
ENDBRANCH  11  14
TORSDOF 1
ENDMDL
MODEL      119
REMARK 921   NORMALIZED FREE ENERGY PREDICTED BY IDOCK:   -3.13 KCAL/MOL
REMARK 922        TOTAL FREE ENERGY PREDICTED BY IDOCK:   -3.15 KCAL/MOL
REMARK 923 INTER-LIGAND FREE ENERGY PREDICTED BY IDOCK:   -3.33 KCAL/MOL
REMARK 924 INTRA-LIGAND FREE ENERGY PREDICTED BY IDOCK:    0.18 KCAL/MOL
REMARK 927      BINDING AFFINITY PREDICTED BY RF-SCORE:    0.00 PKD
ROOT
HETATM    1  C   UNL     1     -10.579   6.105  69.578  1.00  0.00    -0.350 C  
HETATM    2  C   UNL     1     -10.185   7.120  68.541  1.00  0.00    -0.189 A  
HETATM    3  C   UNL     1     -10.787   8.394  68.596  1.00  0.00     0.027 A  
HETATM    4  C   UNL     1     -10.499   9.403  67.658  1.00  0.00    -0.328 A  
HETATM    5  C   UNL     1      -9.575   9.110  66.651  1.00  0.00    -0.203 A  
HETATM    6  C   UNL     1      -8.953   7.860  66.576  1.00  0.00    -0.192 A  
HETATM    7  S   UNL     1      -9.194  10.273  65.371  1.00  0.00    -0.212 S  
HETATM    8  O   UNL     1      -7.920  10.870  65.719  1.00  0.00    -0.150 OA 
HETATM    9  C   UNL     1     -10.455  11.511  65.523  1.00  0.00    -0.275 C  
HETATM   10  O   UNL     1      -9.395   9.590  64.107  1.00  0.00    -0.184 OA 
HETATM   11  C   UNL     1      -9.272   6.860  67.506  1.00  0.00    -0.123 A  
HETATM   12  C   UNL     1     -11.259  10.702  67.758  1.00  0.00    -0.383 C  
HETATM   13  C   UNL     1     -10.663  11.873  66.981  1.00  0.00    -0.280 C  
ENDROOT
BRANCH  11  14
HETATM   14  S   UNL     1      -8.506   5.276  67.247  1.00  0.00    -0.105 S  
HETATM   15  O   UNL     1      -8.193   4.639  68.503  1.00  0.00    -0.083 OA 
HETATM   16  N   UNL     1      -9.794   4.411  66.600  1.00  0.00    -0.216 N  
HETATM   17  O   UNL     1      -7.535   5.386  66.186  1.00  0.00    -0.080 OA 
HETATM   18  H1  UNL     1      -9.354   3.502  66.451  1.00  0.00     0.000 HD 
HETATM   19  H2  UNL     1     -10.750   4.712  66.409  1.00  0.00     0.000 HD 
ENDBRANCH  11  14
TORSDOF 1
ENDMDL
MODEL      120
REMARK 921   NORMALIZED FREE ENERGY PREDICTED BY IDOCK:   -3.08 KCAL/MOL
REMARK 922        TOTAL FREE ENERGY PREDICTED BY IDOCK:   -3.10 KCAL/MOL
REMARK 923 INTER-LIGAND FREE ENERGY PREDICTED BY IDOCK:   -3.10 KCAL/MOL
REMARK 924 INTRA-LIGAND FREE ENERGY PREDICTED BY IDOCK:   -0.00 KCAL/MOL
REMARK 927      BINDING AFFINITY PREDICTED BY RF-SCORE:    0.00 PKD
ROOT
HETATM    1  C   UNL     1     -10.893   9.989  69.354  1.00  0.00    -0.270 C  
HETATM    2  C   UNL     1     -10.322   8.632  69.050  1.00  0.00    -0.226 A  
HETATM    3  C   UNL     1     -10.414   7.634  70.042  1.00  0.00    -0.229 A  
HETATM    4  C   UNL     1      -9.891   6.341  69.858  1.00  0.00    -0.198 A  
HETATM    5  C   UNL     1      -9.269   6.058  68.639  1.00  0.00    -0.115 A  
HETATM    6  C   UNL     1      -9.172   7.022  67.632  1.00  0.00    -0.120 A  
HETATM    7  S   UNL     1      -8.505   4.491  68.326  1.00  0.00    -0.094 S  
HETATM    8  O   UNL     1      -9.426   3.739  67.497  1.00  0.00    -0.185 OA 
HETATM    9  C   UNL     1      -8.429   3.721  69.922  1.00  0.00    -0.056 C  
HETATM   10  O   UNL     1      -7.145   4.762  67.901  1.00  0.00    -0.060 OA 
HETATM   11  C   UNL     1      -9.678   8.312  67.843  1.00  0.00    -0.161 A  
HETATM   12  C   UNL     1      -9.968   5.374  71.014  1.00  0.00    -0.261 C  
HETATM   13  C   UNL     1      -9.741   3.906  70.659  1.00  0.00    -0.248 C  
ENDROOT
BRANCH  11  14
HETATM   14  S   UNL     1      -9.398   9.488  66.538  1.00  0.00    -0.184 S  
HETATM   15  O   UNL     1      -8.182  10.232  66.762  1.00  0.00    -0.121 OA 
HETATM   16  N   UNL     1      -9.076   8.454  65.253  1.00  0.00    -0.414 N  
HETATM   17  O   UNL     1     -10.642  10.142  66.214  1.00  0.00    -0.156 OA 
HETATM   18  H1  UNL     1      -8.915   9.128  64.504  1.00  0.00     0.000 HD 
HETATM   19  H2  UNL     1      -9.048   7.434  65.228  1.00  0.00     0.000 HD 
ENDBRANCH  11  14
TORSDOF 1
ENDMDL
MODEL      121
REMARK 921   NORMALIZED FREE ENERGY PREDICTED BY IDOCK:   -3.04 KCAL/MOL
REMARK 922        TOTAL FREE ENERGY PREDICTED BY IDOCK:   -3.06 KCAL/MOL
REMARK 923 INTER-LIGAND FREE ENERGY PREDICTED BY IDOCK:   -3.22 KCAL/MOL
REMARK 924 INTRA-LIGAND FREE ENERGY PREDICTED BY IDOCK:    0.16 KCAL/MOL
REMARK 927      BINDING AFFINITY PREDICTED BY RF-SCORE:    0.00 PKD
ROOT
HETATM    1  C   UNL     1      -9.019   6.371  74.555  1.00  0.00    -0.180 C  
HETATM    2  C   UNL     1      -9.240   6.490  73.073  1.00  0.00    -0.141 A  
HETATM    3  C   UNL     1      -9.202   7.776  72.496  1.00  0.00    -0.227 A  
HETATM    4  C   UNL     1      -9.418   7.991  71.122  1.00  0.00    -0.181 A  
HETATM    5  C   UNL     1      -9.670   6.873  70.321  1.00  0.00    -0.172 A  
HETATM    6  C   UNL     1      -9.704   5.585  70.861  1.00  0.00    -0.231 A  
HETATM    7  S   UNL     1     -10.035   7.030  68.595  1.00  0.00    -0.161 S  
HETATM    8  O   UNL     1      -8.821   6.684  67.883  1.00  0.00    -0.117 OA 
HETATM    9  C   UNL     1     -10.342   8.762  68.373  1.00  0.00    -0.204 C  
HETATM   10  O   UNL     1     -11.281   6.326  68.362  1.00  0.00    -0.335 OA 
HETATM   11  C   UNL     1      -9.509   5.394  72.236  1.00  0.00    -0.145 A  
HETATM   12  C   UNL     1      -9.438   9.414  70.621  1.00  0.00    -0.325 C  
HETATM   13  C   UNL     1      -9.299   9.580  69.110  1.00  0.00    -0.163 C  
ENDROOT
BRANCH  11  14
HETATM   14  S   UNL     1      -9.686   3.726  72.829  1.00  0.00    -0.146 S  
HETATM   15  O   UNL     1      -8.695   3.425  73.835  1.00  0.00    -0.087 OA 
HETATM   16  N   UNL     1     -11.150   3.841  73.645  1.00  0.00    -0.241 N  
HETATM   17  O   UNL     1      -9.927   2.848  71.710  1.00  0.00    -0.166 OA 
HETATM   18  H1  UNL     1     -11.251   2.884  73.986  1.00  0.00     0.000 HD 
HETATM   19  H2  UNL     1     -11.767   4.644  73.767  1.00  0.00     0.000 HD 
ENDBRANCH  11  14
TORSDOF 1
ENDMDL
MODEL      122
REMARK 921   NORMALIZED FREE ENERGY PREDICTED BY IDOCK:   -3.01 KCAL/MOL
REMARK 922        TOTAL FREE ENERGY PREDICTED BY IDOCK:   -3.03 KCAL/MOL
REMARK 923 INTER-LIGAND FREE ENERGY PREDICTED BY IDOCK:   -3.26 KCAL/MOL
REMARK 924 INTRA-LIGAND FREE ENERGY PREDICTED BY IDOCK:    0.23 KCAL/MOL
REMARK 927      BINDING AFFINITY PREDICTED BY RF-SCORE:    0.00 PKD
ROOT
HETATM    1  C   UNL     1     -11.361   9.861  71.114  1.00  0.00    -0.443 C  
HETATM    2  C   UNL     1     -10.362   8.752  71.295  1.00  0.00    -0.331 A  
HETATM    3  C   UNL     1     -10.287   8.126  72.557  1.00  0.00    -0.401 A  
HETATM    4  C   UNL     1      -9.371   7.093  72.830  1.00  0.00    -0.170 A  
HETATM    5  C   UNL     1      -8.521   6.688  71.796  1.00  0.00    -0.119 A  
HETATM    6  C   UNL     1      -8.578   7.282  70.532  1.00  0.00    -0.143 A  
HETATM    7  S   UNL     1      -7.275   5.455  72.047  1.00  0.00    -0.089 S  
HETATM    8  O   UNL     1      -7.788   4.225  71.476  1.00  0.00    -0.076 OA 
HETATM    9  C   UNL     1      -7.199   5.268  73.809  1.00  0.00    -0.083 C  
HETATM   10  O   UNL     1      -6.017   6.030  71.610  1.00  0.00    -0.033 OA 
HETATM   11  C   UNL     1      -9.482   8.325  70.287  1.00  0.00    -0.164 A  
HETATM   12  C   UNL     1      -9.315   6.548  74.235  1.00  0.00    -0.228 C  
HETATM   13  C   UNL     1      -8.598   5.209  74.392  1.00  0.00    -0.109 C  
ENDROOT
BRANCH  11  14
HETATM   14  S   UNL     1      -9.390   9.081  68.680  1.00  0.00    -0.136 S  
HETATM   15  O   UNL     1      -8.276   8.559  67.924  1.00  0.00    -0.117 OA 
HETATM   16  N   UNL     1     -10.771   8.450  67.961  1.00  0.00    -0.452 N  
HETATM   17  O   UNL     1      -9.625  10.498  68.808  1.00  0.00    -0.163 OA 
HETATM   18  H1  UNL     1     -10.718   8.884  67.039  1.00  0.00     0.000 HD 
HETATM   19  H2  UNL     1     -11.470   7.811  68.341  1.00  0.00     0.000 HD 
ENDBRANCH  11  14
TORSDOF 1
ENDMDL
MODEL      123
REMARK 921   NORMALIZED FREE ENERGY PREDICTED BY IDOCK:   -2.95 KCAL/MOL
REMARK 922        TOTAL FREE ENERGY PREDICTED BY IDOCK:   -2.96 KCAL/MOL
REMARK 923 INTER-LIGAND FREE ENERGY PREDICTED BY IDOCK:   -2.85 KCAL/MOL
REMARK 924 INTRA-LIGAND FREE ENERGY PREDICTED BY IDOCK:   -0.10 KCAL/MOL
REMARK 927      BINDING AFFINITY PREDICTED BY RF-SCORE:    0.00 PKD
ROOT
HETATM    1  C   UNL     1     -12.407   7.027  70.750  1.00  0.00    -0.307 C  
HETATM    2  C   UNL     1     -10.993   6.584  70.497  1.00  0.00    -0.348 A  
HETATM    3  C   UNL     1     -10.476   6.724  69.192  1.00  0.00    -0.240 A  
HETATM    4  C   UNL     1      -9.171   6.320  68.853  1.00  0.00    -0.123 A  
HETATM    5  C   UNL     1      -8.378   5.769  69.863  1.00  0.00    -0.119 A  
HETATM    6  C   UNL     1      -8.858   5.626  71.168  1.00  0.00    -0.141 A  
HETATM    7  S   UNL     1      -6.751   5.151  69.535  1.00  0.00    -0.053 S  
HETATM    8  O   UNL     1      -5.823   6.162  70.002  1.00  0.00    -0.016 OA 
HETATM    9  C   UNL     1      -6.663   5.084  67.765  1.00  0.00    -0.055 C  
HETATM   10  O   UNL     1      -6.708   3.790  70.032  1.00  0.00    -0.033 OA 
HETATM   11  C   UNL     1     -10.168   6.013  71.481  1.00  0.00    -0.204 A  
HETATM   12  C   UNL     1      -8.745   6.438  67.411  1.00  0.00    -0.106 C  
HETATM   13  C   UNL     1      -7.241   6.348  67.161  1.00  0.00    -0.075 C  
ENDROOT
BRANCH  11  14
HETATM   14  S   UNL     1     -10.709   5.681  73.143  1.00  0.00    -0.286 S  
HETATM   15  O   UNL     1     -11.880   4.839  73.149  1.00  0.00    -0.257 OA 
HETATM   16  N   UNL     1      -9.446   4.719  73.693  1.00  0.00    -0.124 N  
HETATM   17  O   UNL     1     -10.641   6.898  73.915  1.00  0.00    -0.369 OA 
HETATM   18  H1  UNL     1      -9.756   4.528  74.646  1.00  0.00     0.000 HD 
HETATM   19  H2  UNL     1      -8.603   4.410  73.208  1.00  0.00     0.000 HD 
ENDBRANCH  11  14
TORSDOF 1
ENDMDL
MODEL      124
REMARK 921   NORMALIZED FREE ENERGY PREDICTED BY IDOCK:   -2.94 KCAL/MOL
REMARK 922        TOTAL FREE ENERGY PREDICTED BY IDOCK:   -2.95 KCAL/MOL
REMARK 923 INTER-LIGAND FREE ENERGY PREDICTED BY IDOCK:   -3.15 KCAL/MOL
REMARK 924 INTRA-LIGAND FREE ENERGY PREDICTED BY IDOCK:    0.21 KCAL/MOL
REMARK 927      BINDING AFFINITY PREDICTED BY RF-SCORE:    0.00 PKD
ROOT
HETATM    1  C   UNL     1     -11.565  13.256  68.737  1.00  0.00    -0.350 C  
HETATM    2  C   UNL     1     -10.349  14.022  68.296  1.00  0.00    -0.247 A  
HETATM    3  C   UNL     1      -9.592  14.692  69.279  1.00  0.00    -0.018 A  
HETATM    4  C   UNL     1      -8.450  15.451  68.961  1.00  0.00    -0.229 A  
HETATM    5  C   UNL     1      -8.070  15.523  67.618  1.00  0.00    -0.146 A  
HETATM    6  C   UNL     1      -8.794  14.862  66.621  1.00  0.00    -0.287 A  
HETATM    7  S   UNL     1      -6.700  16.513  67.091  1.00  0.00    -0.210 S  
HETATM    8  O   UNL     1      -5.593  15.604  66.871  1.00  0.00    -0.200 OA 
HETATM    9  C   UNL     1      -6.326  17.521  68.502  1.00  0.00    -0.179 C  
HETATM   10  O   UNL     1      -7.189  17.386  66.041  1.00  0.00    -0.297 OA 
HETATM   11  C   UNL     1      -9.942  14.130  66.955  1.00  0.00    -0.260 A  
HETATM   12  C   UNL     1      -7.761  16.196  70.077  1.00  0.00     0.795 C  
HETATM   13  C   UNL     1      -6.348  16.684  69.766  1.00  0.00    -0.175 C  
ENDROOT
BRANCH  11  14
HETATM   14  S   UNL     1     -10.846  13.425  65.595  1.00  0.00    -0.287 S  
HETATM   15  O   UNL     1     -10.191  13.700  64.339  1.00  0.00    -0.393 OA 
HETATM   16  N   UNL     1     -10.615  11.786  65.886  1.00  0.00    -0.262 N  
HETATM   17  O   UNL     1     -12.255  13.664  65.788  1.00  0.00    -0.405 OA 
HETATM   18  H1  UNL     1     -11.134  11.382  65.106  1.00  0.00     0.000 HD 
HETATM   19  H2  UNL     1     -10.100  11.324  66.635  1.00  0.00     0.000 HD 
ENDBRANCH  11  14
TORSDOF 1
ENDMDL
MODEL      125
REMARK 921   NORMALIZED FREE ENERGY PREDICTED BY IDOCK:   -2.86 KCAL/MOL
REMARK 922        TOTAL FREE ENERGY PREDICTED BY IDOCK:   -2.87 KCAL/MOL
REMARK 923 INTER-LIGAND FREE ENERGY PREDICTED BY IDOCK:   -3.24 KCAL/MOL
REMARK 924 INTRA-LIGAND FREE ENERGY PREDICTED BY IDOCK:    0.38 KCAL/MOL
REMARK 927      BINDING AFFINITY PREDICTED BY RF-SCORE:    0.00 PKD
ROOT
HETATM    1  C   UNL     1      -5.914  10.824  67.489  1.00  0.00    -0.044 C  
HETATM    2  C   UNL     1      -7.342  11.123  67.850  1.00  0.00    -0.092 A  
HETATM    3  C   UNL     1      -7.955  12.249  67.262  1.00  0.00    -0.177 A  
HETATM    4  C   UNL     1      -9.280  12.622  67.553  1.00  0.00    -0.190 A  
HETATM    5  C   UNL     1      -9.995  11.830  68.456  1.00  0.00    -0.199 A  
HETATM    6  C   UNL     1      -9.419  10.702  69.048  1.00  0.00    -0.202 A  
HETATM    7  S   UNL     1     -11.640  12.248  68.959  1.00  0.00    -0.332 S  
HETATM    8  O   UNL     1     -12.534  11.383  68.214  1.00  0.00    -0.314 OA 
HETATM    9  C   UNL     1     -11.860  13.911  68.383  1.00  0.00    -0.374 C  
HETATM   10  O   UNL     1     -11.644  12.278  70.409  1.00  0.00    -0.151 OA 
HETATM   11  C   UNL     1      -8.090  10.360  68.762  1.00  0.00    -0.125 A  
HETATM   12  C   UNL     1      -9.812  13.890  66.933  1.00  0.00    -0.268 C  
HETATM   13  C   UNL     1     -11.330  14.052  66.969  1.00  0.00    -0.346 C  
ENDROOT
BRANCH  11  14
HETATM   14  S   UNL     1      -7.427   8.974  69.658  1.00  0.00    -0.080 S  
HETATM   15  O   UNL     1      -7.347   9.259  71.071  1.00  0.00    -0.172 OA 
HETATM   16  N   UNL     1      -8.677   7.865  69.482  1.00  0.00    -0.134 N  
HETATM   17  O   UNL     1      -6.311   8.427  68.927  1.00  0.00    -0.043 OA 
HETATM   18  H1  UNL     1      -8.297   7.070  69.996  1.00  0.00     0.000 HD 
HETATM   19  H2  UNL     1      -9.569   7.960  68.996  1.00  0.00     0.000 HD 
ENDBRANCH  11  14
TORSDOF 1
ENDMDL
MODEL      126
REMARK 921   NORMALIZED FREE ENERGY PREDICTED BY IDOCK:   -2.86 KCAL/MOL
REMARK 922        TOTAL FREE ENERGY PREDICTED BY IDOCK:   -2.87 KCAL/MOL
REMARK 923 INTER-LIGAND FREE ENERGY PREDICTED BY IDOCK:   -3.32 KCAL/MOL
REMARK 924 INTRA-LIGAND FREE ENERGY PREDICTED BY IDOCK:    0.45 KCAL/MOL
REMARK 927      BINDING AFFINITY PREDICTED BY RF-SCORE:    0.00 PKD
ROOT
HETATM    1  C   UNL     1     -11.212  10.060  69.991  1.00  0.00    -0.345 C  
HETATM    2  C   UNL     1     -10.601   8.702  69.789  1.00  0.00    -0.224 A  
HETATM    3  C   UNL     1      -9.684   8.537  68.730  1.00  0.00    -0.168 A  
HETATM    4  C   UNL     1      -9.075   7.300  68.448  1.00  0.00    -0.135 A  
HETATM    5  C   UNL     1      -9.402   6.213  69.265  1.00  0.00    -0.134 A  
HETATM    6  C   UNL     1     -10.299   6.347  70.328  1.00  0.00    -0.252 A  
HETATM    7  S   UNL     1      -8.760   4.592  68.956  1.00  0.00    -0.088 S  
HETATM    8  O   UNL     1      -7.686   4.384  69.907  1.00  0.00    -0.053 OA 
HETATM    9  C   UNL     1      -8.057   4.707  67.332  1.00  0.00    -0.101 C  
HETATM   10  O   UNL     1      -9.897   3.695  68.883  1.00  0.00    -0.066 OA 
HETATM   11  C   UNL     1     -10.913   7.582  70.578  1.00  0.00    -0.252 A  
HETATM   12  C   UNL     1      -8.173   7.212  67.242  1.00  0.00    -0.119 C  
HETATM   13  C   UNL     1      -7.260   5.989  67.193  1.00  0.00    -0.075 C  
ENDROOT
BRANCH  11  14
HETATM   14  S   UNL     1     -12.120   7.608  71.884  1.00  0.00    -0.306 S  
HETATM   15  O   UNL     1     -12.741   6.315  72.042  1.00  0.00    -0.226 OA 
HETATM   16  N   UNL     1     -11.125   7.808  73.223  1.00  0.00    -0.450 N  
HETATM   17  O   UNL     1     -12.898   8.820  71.787  1.00  0.00    -0.323 OA 
HETATM   18  H1  UNL     1     -11.817   7.823  73.972  1.00  0.00     0.000 HD 
HETATM   19  H2  UNL     1     -10.109   7.892  73.272  1.00  0.00     0.000 HD 
ENDBRANCH  11  14
TORSDOF 1
ENDMDL
MODEL      127
REMARK 921   NORMALIZED FREE ENERGY PREDICTED BY IDOCK:   -2.86 KCAL/MOL
REMARK 922        TOTAL FREE ENERGY PREDICTED BY IDOCK:   -2.87 KCAL/MOL
REMARK 923 INTER-LIGAND FREE ENERGY PREDICTED BY IDOCK:   -3.16 KCAL/MOL
REMARK 924 INTRA-LIGAND FREE ENERGY PREDICTED BY IDOCK:    0.30 KCAL/MOL
REMARK 927      BINDING AFFINITY PREDICTED BY RF-SCORE:    0.00 PKD
ROOT
HETATM    1  C   UNL     1     -12.271  14.909  63.716  1.00  0.00     0.216 C  
HETATM    2  C   UNL     1     -11.552  14.997  65.033  1.00  0.00    -0.332 A  
HETATM    3  C   UNL     1     -11.410  16.267  65.630  1.00  0.00     0.318 A  
HETATM    4  C   UNL     1     -10.736  16.453  66.851  1.00  0.00    -0.202 A  
HETATM    5  C   UNL     1     -10.202  15.323  67.478  1.00  0.00    -0.239 A  
HETATM    6  C   UNL     1     -10.335  14.050  66.917  1.00  0.00    -0.269 A  
HETATM    7  S   UNL     1      -9.264  15.446  68.975  1.00  0.00    -0.250 S  
HETATM    8  O   UNL     1     -10.150  15.049  70.052  1.00  0.00    -0.134 OA 
HETATM    9  C   UNL     1      -8.930  17.181  69.134  1.00  0.00    -0.014 C  
HETATM   10  O   UNL     1      -8.002  14.773  68.739  1.00  0.00    -0.138 OA 
HETATM   11  C   UNL     1     -10.990  13.888  65.688  1.00  0.00    -0.290 A  
HETATM   12  C   UNL     1     -10.568  17.863  67.361  1.00  0.00    -0.370 C  
HETATM   13  C   UNL     1     -10.178  17.987  68.832  1.00  0.00    -0.320 C  
ENDROOT
BRANCH  11  14
HETATM   14  S   UNL     1     -11.001  12.241  65.016  1.00  0.00    -0.313 S  
HETATM   15  O   UNL     1     -10.672  11.266  66.027  1.00  0.00    -0.267 OA 
HETATM   16  N   UNL     1     -12.640  12.046  64.702  1.00  0.00    -0.170 N  
HETATM   17  O   UNL     1     -10.352  12.251  63.727  1.00  0.00    -0.387 OA 
HETATM   18  H1  UNL     1     -12.646  11.101  64.316  1.00  0.00     0.000 HD 
HETATM   19  H2  UNL     1     -13.414  12.692  64.855  1.00  0.00     0.000 HD 
ENDBRANCH  11  14
TORSDOF 1
ENDMDL
MODEL      128
REMARK 921   NORMALIZED FREE ENERGY PREDICTED BY IDOCK:   -2.82 KCAL/MOL
REMARK 922        TOTAL FREE ENERGY PREDICTED BY IDOCK:   -2.82 KCAL/MOL
REMARK 923 INTER-LIGAND FREE ENERGY PREDICTED BY IDOCK:   -3.03 KCAL/MOL
REMARK 924 INTRA-LIGAND FREE ENERGY PREDICTED BY IDOCK:    0.21 KCAL/MOL
REMARK 927      BINDING AFFINITY PREDICTED BY RF-SCORE:    0.00 PKD
ROOT
HETATM    1  C   UNL     1     -10.287   9.341  68.429  1.00  0.00    -0.244 C  
HETATM    2  C   UNL     1      -9.794   7.956  68.114  1.00  0.00    -0.193 A  
HETATM    3  C   UNL     1      -9.279   7.712  66.823  1.00  0.00    -0.197 A  
HETATM    4  C   UNL     1      -8.813   6.444  66.428  1.00  0.00    -0.146 A  
HETATM    5  C   UNL     1      -8.866   5.409  67.366  1.00  0.00    -0.105 A  
HETATM    6  C   UNL     1      -9.361   5.622  68.656  1.00  0.00    -0.142 A  
HETATM    7  S   UNL     1      -8.382   3.756  66.955  1.00  0.00    -0.101 S  
HETATM    8  O   UNL     1      -7.058   3.562  67.511  1.00  0.00    -0.056 OA 
HETATM    9  C   UNL     1      -8.253   3.770  65.186  1.00  0.00    -0.097 C  
HETATM   10  O   UNL     1      -9.491   2.892  67.310  1.00  0.00    -0.174 OA 
HETATM   11  C   UNL     1      -9.842   6.887  69.023  1.00  0.00    -0.152 A  
HETATM   12  C   UNL     1      -8.360   6.270  64.999  1.00  0.00    -0.099 C  
HETATM   13  C   UNL     1      -7.529   5.019  64.722  1.00  0.00    -0.075 C  
ENDROOT
BRANCH  11  14
HETATM   14  S   UNL     1     -10.551   7.013  70.650  1.00  0.00    -0.230 S  
HETATM   15  O   UNL     1     -10.367   8.336  71.195  1.00  0.00    -0.195 OA 
HETATM   16  N   UNL     1     -12.187   6.889  70.285  1.00  0.00    -0.624 N  
HETATM   17  O   UNL     1     -10.225   5.826  71.403  1.00  0.00    -0.201 OA 
HETATM   18  H1  UNL     1     -12.594   6.961  71.218  1.00  0.00     0.000 HD 
HETATM   19  H2  UNL     1     -12.646   6.773  69.381  1.00  0.00     0.000 HD 
ENDBRANCH  11  14
TORSDOF 1
ENDMDL
MODEL      129
REMARK 921   NORMALIZED FREE ENERGY PREDICTED BY IDOCK:   -2.77 KCAL/MOL
REMARK 922        TOTAL FREE ENERGY PREDICTED BY IDOCK:   -2.77 KCAL/MOL
REMARK 923 INTER-LIGAND FREE ENERGY PREDICTED BY IDOCK:   -2.69 KCAL/MOL
REMARK 924 INTRA-LIGAND FREE ENERGY PREDICTED BY IDOCK:   -0.08 KCAL/MOL
REMARK 927      BINDING AFFINITY PREDICTED BY RF-SCORE:    0.00 PKD
ROOT
HETATM    1  C   UNL     1      -5.912  17.327  69.927  1.00  0.00    -0.230 C  
HETATM    2  C   UNL     1      -6.417  15.991  69.460  1.00  0.00    -0.187 A  
HETATM    3  C   UNL     1      -5.924  14.834  70.099  1.00  0.00    -0.148 A  
HETATM    4  C   UNL     1      -6.321  13.538  69.719  1.00  0.00    -0.087 A  
HETATM    5  C   UNL     1      -7.242  13.420  68.674  1.00  0.00    -0.107 A  
HETATM    6  C   UNL     1      -7.757  14.548  68.028  1.00  0.00    -0.138 A  
HETATM    7  S   UNL     1      -7.752  11.840  68.058  1.00  0.00    -0.133 S  
HETATM    8  O   UNL     1      -9.064  11.581  68.619  1.00  0.00    -0.178 OA 
HETATM    9  C   UNL     1      -6.598  10.702  68.778  1.00  0.00    -0.053 C  
HETATM   10  O   UNL     1      -7.526  11.853  66.626  1.00  0.00    -0.070 OA 
HETATM   11  C   UNL     1      -7.331  15.829  68.406  1.00  0.00    -0.117 A  
HETATM   12  C   UNL     1      -5.671  12.366  70.411  1.00  0.00    -0.168 C  
HETATM   13  C   UNL     1      -6.384  11.026  70.244  1.00  0.00    -0.120 C  
ENDROOT
BRANCH  11  14
HETATM   14  S   UNL     1      -7.966  17.182  67.441  1.00  0.00    -0.184 S  
HETATM   15  O   UNL     1      -6.893  17.976  66.892  1.00  0.00    -0.177 OA 
HETATM   16  N   UNL     1      -8.635  16.350  66.143  1.00  0.00    -0.332 N  
HETATM   17  O   UNL     1      -9.077  17.782  68.139  1.00  0.00    -0.259 OA 
HETATM   18  H1  UNL     1      -8.999  17.127  65.590  1.00  0.00     0.000 HD 
HETATM   19  H2  UNL     1      -8.668  15.347  65.960  1.00  0.00     0.000 HD 
ENDBRANCH  11  14
TORSDOF 1
ENDMDL
MODEL      130
REMARK 921   NORMALIZED FREE ENERGY PREDICTED BY IDOCK:   -2.75 KCAL/MOL
REMARK 922        TOTAL FREE ENERGY PREDICTED BY IDOCK:   -2.74 KCAL/MOL
REMARK 923 INTER-LIGAND FREE ENERGY PREDICTED BY IDOCK:   -2.61 KCAL/MOL
REMARK 924 INTRA-LIGAND FREE ENERGY PREDICTED BY IDOCK:   -0.14 KCAL/MOL
REMARK 927      BINDING AFFINITY PREDICTED BY RF-SCORE:    0.00 PKD
ROOT
HETATM    1  C   UNL     1      -5.599   5.917  66.036  1.00  0.00    -0.013 C  
HETATM    2  C   UNL     1      -6.697   6.933  66.186  1.00  0.00    -0.052 A  
HETATM    3  C   UNL     1      -6.345   8.237  66.593  1.00  0.00    -0.055 A  
HETATM    4  C   UNL     1      -7.303   9.250  66.781  1.00  0.00    -0.086 A  
HETATM    5  C   UNL     1      -8.643   8.930  66.543  1.00  0.00    -0.124 A  
HETATM    6  C   UNL     1      -9.022   7.650  66.128  1.00  0.00    -0.197 A  
HETATM    7  S   UNL     1      -9.942  10.100  66.823  1.00  0.00    -0.221 S  
HETATM    8  O   UNL     1     -10.321  10.618  65.523  1.00  0.00    -0.266 OA 
HETATM    9  C   UNL     1      -9.161  11.403  67.740  1.00  0.00    -0.158 C  
HETATM   10  O   UNL     1     -10.905   9.460  67.698  1.00  0.00    -0.267 OA 
HETATM   11  C   UNL     1      -8.055   6.648  65.969  1.00  0.00    -0.122 A  
HETATM   12  C   UNL     1      -6.830  10.586  67.298  1.00  0.00    -0.082 C  
HETATM   13  C   UNL     1      -7.815  11.741  67.130  1.00  0.00    -0.166 C  
ENDROOT
BRANCH  11  14
HETATM   14  S   UNL     1      -8.664   5.031  65.549  1.00  0.00    -0.147 S  
HETATM   15  O   UNL     1      -8.358   4.075  66.586  1.00  0.00    -0.103 OA 
HETATM   16  N   UNL     1     -10.322   5.291  65.637  1.00  0.00    -0.435 N  
HETATM   17  O   UNL     1      -8.382   4.764  64.159  1.00  0.00    -0.111 OA 
HETATM   18  H1  UNL     1     -10.672   4.363  65.396  1.00  0.00     0.000 HD 
HETATM   19  H2  UNL     1     -10.837   6.141  65.868  1.00  0.00     0.000 HD 
ENDBRANCH  11  14
TORSDOF 1
ENDMDL
MODEL      131
REMARK 921   NORMALIZED FREE ENERGY PREDICTED BY IDOCK:   -2.74 KCAL/MOL
REMARK 922        TOTAL FREE ENERGY PREDICTED BY IDOCK:   -2.74 KCAL/MOL
REMARK 923 INTER-LIGAND FREE ENERGY PREDICTED BY IDOCK:   -2.59 KCAL/MOL
REMARK 924 INTRA-LIGAND FREE ENERGY PREDICTED BY IDOCK:   -0.15 KCAL/MOL
REMARK 927      BINDING AFFINITY PREDICTED BY RF-SCORE:    0.00 PKD
ROOT
HETATM    1  C   UNL     1      -9.324   2.744  70.330  1.00  0.00    -0.217 C  
HETATM    2  C   UNL     1      -9.101   4.183  69.956  1.00  0.00    -0.182 A  
HETATM    3  C   UNL     1      -9.477   5.177  70.883  1.00  0.00    -0.223 A  
HETATM    4  C   UNL     1      -9.326   6.550  70.616  1.00  0.00    -0.166 A  
HETATM    5  C   UNL     1      -8.777   6.917  69.384  1.00  0.00    -0.133 A  
HETATM    6  C   UNL     1      -8.385   5.955  68.448  1.00  0.00    -0.112 A  
HETATM    7  S   UNL     1      -8.615   8.614  68.906  1.00  0.00    -0.130 S  
HETATM    8  O   UNL     1      -7.223   8.969  69.103  1.00  0.00    -0.065 OA 
HETATM    9  C   UNL     1      -9.593   9.494  70.096  1.00  0.00    -0.248 C  
HETATM   10  O   UNL     1      -9.260   8.752  67.615  1.00  0.00    -0.133 OA 
HETATM   11  C   UNL     1      -8.564   4.593  68.724  1.00  0.00    -0.085 A  
HETATM   12  C   UNL     1      -9.837   7.532  71.641  1.00  0.00    -0.185 C  
HETATM   13  C   UNL     1      -9.326   8.964  71.491  1.00  0.00    -0.335 C  
ENDROOT
BRANCH  11  14
HETATM   14  S   UNL     1      -8.135   3.465  67.417  1.00  0.00    -0.082 S  
HETATM   15  O   UNL     1      -9.314   2.858  66.847  1.00  0.00    -0.157 OA 
HETATM   16  N   UNL     1      -7.562   4.538  66.257  1.00  0.00    -0.089 N  
HETATM   17  O   UNL     1      -6.995   2.680  67.823  1.00  0.00    -0.047 OA 
HETATM   18  H1  UNL     1      -7.316   3.892  65.508  1.00  0.00     0.000 HD 
HETATM   19  H2  UNL     1      -7.483   5.555  66.293  1.00  0.00     0.000 HD 
ENDBRANCH  11  14
TORSDOF 1
ENDMDL
MODEL      132
REMARK 921   NORMALIZED FREE ENERGY PREDICTED BY IDOCK:   -2.54 KCAL/MOL
REMARK 922        TOTAL FREE ENERGY PREDICTED BY IDOCK:   -2.53 KCAL/MOL
REMARK 923 INTER-LIGAND FREE ENERGY PREDICTED BY IDOCK:   -2.61 KCAL/MOL
REMARK 924 INTRA-LIGAND FREE ENERGY PREDICTED BY IDOCK:    0.08 KCAL/MOL
REMARK 927      BINDING AFFINITY PREDICTED BY RF-SCORE:    0.00 PKD
ROOT
HETATM    1  C   UNL     1      -8.094   6.917  66.839  1.00  0.00    -0.109 C  
HETATM    2  C   UNL     1      -8.581   6.540  68.210  1.00  0.00    -0.115 A  
HETATM    3  C   UNL     1      -8.479   5.189  68.604  1.00  0.00    -0.088 A  
HETATM    4  C   UNL     1      -8.926   4.735  69.858  1.00  0.00    -0.139 A  
HETATM    5  C   UNL     1      -9.482   5.676  70.730  1.00  0.00    -0.165 A  
HETATM    6  C   UNL     1      -9.589   7.023  70.373  1.00  0.00    -0.169 A  
HETATM    7  S   UNL     1     -10.151   5.207  72.301  1.00  0.00    -0.199 S  
HETATM    8  O   UNL     1      -9.160   5.563  73.296  1.00  0.00    -0.130 OA 
HETATM    9  C   UNL     1     -10.252   3.438  72.217  1.00  0.00    -0.107 C  
HETATM   10  O   UNL     1     -11.505   5.724  72.355  1.00  0.00    -0.293 OA 
HETATM   11  C   UNL     1      -9.158   7.452  69.110  1.00  0.00    -0.134 A  
HETATM   12  C   UNL     1      -8.845   3.257  70.147  1.00  0.00    -0.149 C  
HETATM   13  C   UNL     1      -8.982   2.866  71.617  1.00  0.00    -0.140 C  
ENDROOT
BRANCH  11  14
HETATM   14  S   UNL     1      -9.446   9.164  68.722  1.00  0.00    -0.148 S  
HETATM   15  O   UNL     1      -9.924   9.317  67.369  1.00  0.00    -0.173 OA 
HETATM   16  N   UNL     1     -10.761   9.490  69.716  1.00  0.00    -0.229 N  
HETATM   17  O   UNL     1      -8.357   9.956  69.239  1.00  0.00    -0.126 OA 
HETATM   18  H1  UNL     1     -10.926  10.472  69.494  1.00  0.00     0.000 HD 
HETATM   19  H2  UNL     1     -11.257   8.876  70.362  1.00  0.00     0.000 HD 
ENDBRANCH  11  14
TORSDOF 1
ENDMDL
MODEL      133
REMARK 921   NORMALIZED FREE ENERGY PREDICTED BY IDOCK:   -2.49 KCAL/MOL
REMARK 922        TOTAL FREE ENERGY PREDICTED BY IDOCK:   -2.48 KCAL/MOL
REMARK 923 INTER-LIGAND FREE ENERGY PREDICTED BY IDOCK:   -2.79 KCAL/MOL
REMARK 924 INTRA-LIGAND FREE ENERGY PREDICTED BY IDOCK:    0.31 KCAL/MOL
REMARK 927      BINDING AFFINITY PREDICTED BY RF-SCORE:    0.00 PKD
ROOT
HETATM    1  C   UNL     1      -8.615   9.928  64.611  1.00  0.00    -0.195 C  
HETATM    2  C   UNL     1      -8.637   9.477  66.045  1.00  0.00    -0.145 A  
HETATM    3  C   UNL     1      -8.371   8.119  66.318  1.00  0.00    -0.119 A  
HETATM    4  C   UNL     1      -8.389   7.597  67.625  1.00  0.00    -0.118 A  
HETATM    5  C   UNL     1      -8.677   8.478  68.672  1.00  0.00    -0.139 A  
HETATM    6  C   UNL     1      -8.935   9.831  68.435  1.00  0.00    -0.123 A  
HETATM    7  S   UNL     1      -8.805   7.918  70.348  1.00  0.00    -0.143 S  
HETATM    8  O   UNL     1      -7.565   8.284  71.003  1.00  0.00    -0.069 OA 
HETATM    9  C   UNL     1      -8.867   6.151  70.210  1.00  0.00    -0.149 C  
HETATM   10  O   UNL     1     -10.091   8.368  70.845  1.00  0.00    -0.186 OA 
HETATM   11  C   UNL     1      -8.935  10.326  67.124  1.00  0.00    -0.135 A  
HETATM   12  C   UNL     1      -8.172   6.115  67.800  1.00  0.00    -0.117 C  
HETATM   13  C   UNL     1      -7.830   5.664  69.218  1.00  0.00    -0.089 C  
ENDROOT
BRANCH  11  14
HETATM   14  S   UNL     1      -9.387  12.036  66.931  1.00  0.00    -0.205 S  
HETATM   15  O   UNL     1     -10.015  12.544  68.127  1.00  0.00    -0.212 OA 
HETATM   16  N   UNL     1      -7.868  12.752  66.869  1.00  0.00    -0.400 N  
HETATM   17  O   UNL     1      -9.967  12.229  65.625  1.00  0.00    -0.250 OA 
HETATM   18  H1  UNL     1      -8.127  13.733  66.758  1.00  0.00     0.000 HD 
HETATM   19  H2  UNL     1      -6.943  12.325  66.925  1.00  0.00     0.000 HD 
ENDBRANCH  11  14
TORSDOF 1
ENDMDL
MODEL      134
REMARK 921   NORMALIZED FREE ENERGY PREDICTED BY IDOCK:   -2.40 KCAL/MOL
REMARK 922        TOTAL FREE ENERGY PREDICTED BY IDOCK:   -2.38 KCAL/MOL
REMARK 923 INTER-LIGAND FREE ENERGY PREDICTED BY IDOCK:   -2.56 KCAL/MOL
REMARK 924 INTRA-LIGAND FREE ENERGY PREDICTED BY IDOCK:    0.19 KCAL/MOL
REMARK 927      BINDING AFFINITY PREDICTED BY RF-SCORE:    0.00 PKD
ROOT
HETATM    1  C   UNL     1      -8.931  12.002  68.170  1.00  0.00    -0.190 C  
HETATM    2  C   UNL     1      -8.484  10.742  67.481  1.00  0.00    -0.119 A  
HETATM    3  C   UNL     1      -7.606  10.861  66.383  1.00  0.00    -0.146 A  
HETATM    4  C   UNL     1      -7.149   9.742  65.663  1.00  0.00    -0.105 A  
HETATM    5  C   UNL     1      -7.590   8.480  66.072  1.00  0.00    -0.089 A  
HETATM    6  C   UNL     1      -8.452   8.329  67.162  1.00  0.00    -0.123 A  
HETATM    7  S   UNL     1      -7.145   7.009  65.191  1.00  0.00    -0.063 S  
HETATM    8  O   UNL     1      -6.091   6.372  65.955  1.00  0.00    -0.031 OA 
HETATM    9  C   UNL     1      -6.454   7.607  63.671  1.00  0.00    -0.054 C  
HETATM   10  O   UNL     1      -8.380   6.318  64.874  1.00  0.00    -0.137 OA 
HETATM   11  C   UNL     1      -8.914   9.458  67.853  1.00  0.00    -0.123 A  
HETATM   12  C   UNL     1      -6.279   9.984  64.455  1.00  0.00    -0.131 C  
HETATM   13  C   UNL     1      -5.515   8.766  63.940  1.00  0.00    -0.061 C  
ENDROOT
BRANCH  11  14
HETATM   14  S   UNL     1     -10.094   9.154  69.149  1.00  0.00    -0.200 S  
HETATM   15  O   UNL     1      -9.700   9.809  70.373  1.00  0.00    -0.255 OA 
HETATM   16  N   UNL     1     -11.417  10.014  68.571  1.00  0.00    -0.520 N  
HETATM   17  O   UNL     1     -10.484   7.766  69.119  1.00  0.00    -0.216 OA 
HETATM   18  H1  UNL     1     -12.094   9.840  69.315  1.00  0.00     0.000 HD 
HETATM   19  H2  UNL     1     -11.516  10.559  67.715  1.00  0.00     0.000 HD 
ENDBRANCH  11  14
TORSDOF 1
ENDMDL
MODEL      135
REMARK 921   NORMALIZED FREE ENERGY PREDICTED BY IDOCK:   -2.33 KCAL/MOL
REMARK 922        TOTAL FREE ENERGY PREDICTED BY IDOCK:   -2.31 KCAL/MOL
REMARK 923 INTER-LIGAND FREE ENERGY PREDICTED BY IDOCK:   -2.62 KCAL/MOL
REMARK 924 INTRA-LIGAND FREE ENERGY PREDICTED BY IDOCK:    0.31 KCAL/MOL
REMARK 927      BINDING AFFINITY PREDICTED BY RF-SCORE:    0.00 PKD
ROOT
HETATM    1  C   UNL     1     -11.805   9.425  69.913  1.00  0.00     0.201 C  
HETATM    2  C   UNL     1     -10.562   9.375  69.070  1.00  0.00    -0.233 A  
HETATM    3  C   UNL     1     -10.675   9.689  67.699  1.00  0.00    -0.324 A  
HETATM    4  C   UNL     1      -9.572   9.650  66.826  1.00  0.00    -0.225 A  
HETATM    5  C   UNL     1      -8.331   9.291  67.360  1.00  0.00    -0.122 A  
HETATM    6  C   UNL     1      -8.185   8.984  68.716  1.00  0.00    -0.117 A  
HETATM    7  S   UNL     1      -6.892   9.130  66.341  1.00  0.00    -0.080 S  
HETATM    8  O   UNL     1      -6.106  10.331  66.543  1.00  0.00    -0.063 OA 
HETATM    9  C   UNL     1      -7.529   9.147  64.686  1.00  0.00    -0.104 C  
HETATM   10  O   UNL     1      -6.344   7.811  66.590  1.00  0.00    -0.047 OA 
HETATM   11  C   UNL     1      -9.300   9.006  69.565  1.00  0.00    -0.160 A  
HETATM   12  C   UNL     1      -9.817   9.923  65.362  1.00  0.00    -0.384 C  
HETATM   13  C   UNL     1      -8.572  10.237  64.535  1.00  0.00    -0.195 C  
ENDROOT
BRANCH  11  14
HETATM   14  S   UNL     1      -9.017   8.489  71.243  1.00  0.00    -0.212 S  
HETATM   15  O   UNL     1     -10.041   9.000  72.123  1.00  0.00    -0.296 OA 
HETATM   16  N   UNL     1      -9.304   6.838  71.112  1.00  0.00    -0.159 N  
HETATM   17  O   UNL     1      -7.614   8.621  71.550  1.00  0.00    -0.100 OA 
HETATM   18  H1  UNL     1      -9.142   6.542  72.075  1.00  0.00     0.000 HD 
HETATM   19  H2  UNL     1      -9.567   6.286  70.295  1.00  0.00     0.000 HD 
ENDBRANCH  11  14
TORSDOF 1
ENDMDL
MODEL      136
REMARK 921   NORMALIZED FREE ENERGY PREDICTED BY IDOCK:   -2.09 KCAL/MOL
REMARK 922        TOTAL FREE ENERGY PREDICTED BY IDOCK:   -2.05 KCAL/MOL
REMARK 923 INTER-LIGAND FREE ENERGY PREDICTED BY IDOCK:   -2.38 KCAL/MOL
REMARK 924 INTRA-LIGAND FREE ENERGY PREDICTED BY IDOCK:    0.33 KCAL/MOL
REMARK 927      BINDING AFFINITY PREDICTED BY RF-SCORE:    0.00 PKD
ROOT
HETATM    1  C   UNL     1     -10.240   4.888  69.973  1.00  0.00    -0.313 C  
HETATM    2  C   UNL     1      -9.559   5.755  68.950  1.00  0.00    -0.163 A  
HETATM    3  C   UNL     1     -10.292   6.822  68.390  1.00  0.00    -0.214 A  
HETATM    4  C   UNL     1      -9.748   7.675  67.412  1.00  0.00    -0.208 A  
HETATM    5  C   UNL     1      -8.432   7.440  67.003  1.00  0.00    -0.118 A  
HETATM    6  C   UNL     1      -7.677   6.397  67.546  1.00  0.00    -0.101 A  
HETATM    7  S   UNL     1      -7.671   8.398  65.722  1.00  0.00    -0.098 S  
HETATM    8  O   UNL     1      -6.801   9.352  66.381  1.00  0.00    -0.081 OA 
HETATM    9  C   UNL     1      -9.020   9.284  64.986  1.00  0.00    -0.197 C  
HETATM   10  O   UNL     1      -7.167   7.461  64.737  1.00  0.00    -0.064 OA 
HETATM   11  C   UNL     1      -8.244   5.544  68.503  1.00  0.00    -0.098 A  
HETATM   12  C   UNL     1     -10.643   8.734  66.818  1.00  0.00    -0.220 C  
HETATM   13  C   UNL     1      -9.927   9.850  66.060  1.00  0.00    -0.338 C  
ENDROOT
BRANCH  11  14
HETATM   14  S   UNL     1      -7.231   4.185  69.041  1.00  0.00    -0.055 S  
HETATM   15  O   UNL     1      -6.133   3.964  68.130  1.00  0.00    -0.029 OA 
HETATM   16  N   UNL     1      -6.551   4.837  70.432  1.00  0.00    -0.034 N  
HETATM   17  O   UNL     1      -8.080   3.107  69.486  1.00  0.00    -0.048 OA 
HETATM   18  H1  UNL     1      -5.970   4.057  70.741  1.00  0.00     0.000 HD 
HETATM   19  H2  UNL     1      -6.683   5.757  70.852  1.00  0.00     0.000 HD 
ENDBRANCH  11  14
TORSDOF 1
ENDMDL
MODEL      137
REMARK 921   NORMALIZED FREE ENERGY PREDICTED BY IDOCK:   -1.91 KCAL/MOL
REMARK 922        TOTAL FREE ENERGY PREDICTED BY IDOCK:   -1.86 KCAL/MOL
REMARK 923 INTER-LIGAND FREE ENERGY PREDICTED BY IDOCK:   -2.31 KCAL/MOL
REMARK 924 INTRA-LIGAND FREE ENERGY PREDICTED BY IDOCK:    0.45 KCAL/MOL
REMARK 927      BINDING AFFINITY PREDICTED BY RF-SCORE:    0.00 PKD
ROOT
HETATM    1  C   UNL     1      -7.083   6.158  71.443  1.00  0.00    -0.078 C  
HETATM    2  C   UNL     1      -7.747   7.050  70.432  1.00  0.00    -0.096 A  
HETATM    3  C   UNL     1      -7.098   8.250  70.076  1.00  0.00    -0.043 A  
HETATM    4  C   UNL     1      -7.650   9.159  69.155  1.00  0.00    -0.073 A  
HETATM    5  C   UNL     1      -8.883   8.836  68.581  1.00  0.00    -0.138 A  
HETATM    6  C   UNL     1      -9.547   7.649  68.906  1.00  0.00    -0.150 A  
HETATM    7  S   UNL     1      -9.710   9.940  67.472  1.00  0.00    -0.166 S  
HETATM    8  O   UNL     1      -9.483   9.431  66.134  1.00  0.00    -0.187 OA 
HETATM    9  C   UNL     1      -8.830  11.470  67.647  1.00  0.00    -0.152 C  
HETATM   10  O   UNL     1     -11.049  10.139  67.994  1.00  0.00    -0.278 OA 
HETATM   11  C   UNL     1      -8.991   6.768  69.843  1.00  0.00    -0.144 A  
HETATM   12  C   UNL     1      -6.914  10.453  68.907  1.00  0.00    -0.067 C  
HETATM   13  C   UNL     1      -7.335  11.219  67.655  1.00  0.00    -0.100 C  
ENDROOT
BRANCH  11  14
HETATM   14  S   UNL     1      -9.976   5.347  70.262  1.00  0.00    -0.251 S  
HETATM   15  O   UNL     1     -11.266   5.742  70.774  1.00  0.00    -0.252 OA 
HETATM   16  N   UNL     1     -10.262   4.707  68.735  1.00  0.00    -0.019 N  
HETATM   17  O   UNL     1      -9.149   4.381  70.944  1.00  0.00    -0.116 OA 
HETATM   18  H1  UNL     1     -10.827   3.892  68.975  1.00  0.00     0.000 HD 
HETATM   19  H2  UNL     1      -9.956   5.041  67.821  1.00  0.00     0.000 HD 
ENDBRANCH  11  14
TORSDOF 1
ENDMDL
MODEL      138
REMARK 921   NORMALIZED FREE ENERGY PREDICTED BY IDOCK:   -1.90 KCAL/MOL
REMARK 922        TOTAL FREE ENERGY PREDICTED BY IDOCK:   -1.85 KCAL/MOL
REMARK 923 INTER-LIGAND FREE ENERGY PREDICTED BY IDOCK:   -2.10 KCAL/MOL
REMARK 924 INTRA-LIGAND FREE ENERGY PREDICTED BY IDOCK:    0.25 KCAL/MOL
REMARK 927      BINDING AFFINITY PREDICTED BY RF-SCORE:    0.00 PKD
ROOT
HETATM    1  C   UNL     1      -8.727   9.678  67.128  1.00  0.00    -0.137 C  
HETATM    2  C   UNL     1      -8.702   8.219  67.487  1.00  0.00    -0.129 A  
HETATM    3  C   UNL     1      -8.882   7.277  66.453  1.00  0.00    -0.167 A  
HETATM    4  C   UNL     1      -8.893   5.890  66.693  1.00  0.00    -0.123 A  
HETATM    5  C   UNL     1      -8.712   5.456  68.010  1.00  0.00    -0.106 A  
HETATM    6  C   UNL     1      -8.522   6.365  69.055  1.00  0.00    -0.124 A  
HETATM    7  S   UNL     1      -8.789   3.741  68.443  1.00  0.00    -0.123 S  
HETATM    8  O   UNL     1      -7.420   3.292  68.601  1.00  0.00    -0.049 OA 
HETATM    9  C   UNL     1      -9.472   2.962  67.003  1.00  0.00    -0.030 C  
HETATM   10  O   UNL     1      -9.760   3.618  69.513  1.00  0.00    -0.177 OA 
HETATM   11  C   UNL     1      -8.536   7.743  68.799  1.00  0.00    -0.129 A  
HETATM   12  C   UNL     1      -9.176   4.972  65.530  1.00  0.00    -0.157 C  
HETATM   13  C   UNL     1      -8.814   3.504  65.749  1.00  0.00    -0.127 C  
ENDROOT
BRANCH  11  14
HETATM   14  S   UNL     1      -8.397   8.806  70.218  1.00  0.00    -0.151 S  
HETATM   15  O   UNL     1      -8.478   8.048  71.444  1.00  0.00    -0.108 OA 
HETATM   16  N   UNL     1      -6.794   9.294  70.084  1.00  0.00    -0.055 N  
HETATM   17  O   UNL     1      -9.189   9.992  70.002  1.00  0.00    -0.208 OA 
HETATM   18  H1  UNL     1      -6.714   9.904  70.898  1.00  0.00     0.000 HD 
HETATM   19  H2  UNL     1      -6.096   9.049  69.382  1.00  0.00     0.000 HD 
ENDBRANCH  11  14
TORSDOF 1
ENDMDL
MODEL      139
REMARK 921   NORMALIZED FREE ENERGY PREDICTED BY IDOCK:   -1.82 KCAL/MOL
REMARK 922        TOTAL FREE ENERGY PREDICTED BY IDOCK:   -1.76 KCAL/MOL
REMARK 923 INTER-LIGAND FREE ENERGY PREDICTED BY IDOCK:   -2.06 KCAL/MOL
REMARK 924 INTRA-LIGAND FREE ENERGY PREDICTED BY IDOCK:    0.30 KCAL/MOL
REMARK 927      BINDING AFFINITY PREDICTED BY RF-SCORE:    0.00 PKD
ROOT
HETATM    1  C   UNL     1      -7.457  10.378  67.158  1.00  0.00    -0.092 C  
HETATM    2  C   UNL     1      -7.726   9.386  68.255  1.00  0.00    -0.083 A  
HETATM    3  C   UNL     1      -6.660   8.572  68.692  1.00  0.00    -0.055 A  
HETATM    4  C   UNL     1      -6.818   7.602  69.698  1.00  0.00    -0.044 A  
HETATM    5  C   UNL     1      -8.084   7.463  70.274  1.00  0.00    -0.116 A  
HETATM    6  C   UNL     1      -9.158   8.261  69.871  1.00  0.00    -0.147 A  
HETATM    7  S   UNL     1      -8.421   6.221  71.491  1.00  0.00    -0.130 S  
HETATM    8  O   UNL     1      -8.424   6.891  72.777  1.00  0.00    -0.116 OA 
HETATM    9  C   UNL     1      -7.008   5.151  71.420  1.00  0.00    -0.053 C  
HETATM   10  O   UNL     1      -9.568   5.469  71.021  1.00  0.00    -0.162 OA 
HETATM   11  C   UNL     1      -8.986   9.207  68.850  1.00  0.00    -0.139 A  
HETATM   12  C   UNL     1      -5.635   6.728  70.033  1.00  0.00    -0.019 C  
HETATM   13  C   UNL     1      -5.732   5.968  71.354  1.00  0.00    -0.022 C  
ENDROOT
BRANCH  11  14
HETATM   14  S   UNL     1     -10.446  10.086  68.341  1.00  0.00    -0.217 S  
HETATM   15  O   UNL     1     -10.104  11.333  67.701  1.00  0.00    -0.176 OA 
HETATM   16  N   UNL     1     -11.004   9.077  67.118  1.00  0.00    -0.309 N  
HETATM   17  O   UNL     1     -11.433  10.014  69.391  1.00  0.00    -0.185 OA 
HETATM   18  H1  UNL     1     -11.842   9.582  66.826  1.00  0.00     0.000 HD 
HETATM   19  H2  UNL     1     -10.614   8.203  66.766  1.00  0.00     0.000 HD 
ENDBRANCH  11  14
TORSDOF 1
ENDMDL
MODEL      140
REMARK 921   NORMALIZED FREE ENERGY PREDICTED BY IDOCK:   -0.43 KCAL/MOL
REMARK 922        TOTAL FREE ENERGY PREDICTED BY IDOCK:   -0.29 KCAL/MOL
REMARK 923 INTER-LIGAND FREE ENERGY PREDICTED BY IDOCK:   -0.46 KCAL/MOL
REMARK 924 INTRA-LIGAND FREE ENERGY PREDICTED BY IDOCK:    0.16 KCAL/MOL
REMARK 927      BINDING AFFINITY PREDICTED BY RF-SCORE:    0.00 PKD
ROOT
HETATM    1  C   UNL     1      -7.941  11.465  64.945  1.00  0.00     0.873 C  
HETATM    2  C   UNL     1      -8.224  10.115  65.542  1.00  0.00    -0.156 A  
HETATM    3  C   UNL     1      -8.084   9.962  66.937  1.00  0.00    -0.113 A  
HETATM    4  C   UNL     1      -8.307   8.733  67.585  1.00  0.00    -0.114 A  
HETATM    5  C   UNL     1      -8.686   7.642  66.797  1.00  0.00    -0.133 A  
HETATM    6  C   UNL     1      -8.844   7.764  65.414  1.00  0.00     0.009 A  
HETATM    7  S   UNL     1      -8.915   6.029  67.491  1.00  0.00    -0.109 S  
HETATM    8  O   UNL     1     -10.346   5.834  67.623  1.00  0.00    -0.175 OA 
HETATM    9  C   UNL     1      -8.214   6.153  69.116  1.00  0.00    -0.113 C  
HETATM   10  O   UNL     1      -8.090   5.117  66.722  1.00  0.00    -0.107 OA 
HETATM   11  C   UNL     1      -8.594   8.991  64.784  1.00  0.00    -0.175 A  
HETATM   12  C   UNL     1      -8.049   8.656  69.069  1.00  0.00    -0.121 C  
HETATM   13  C   UNL     1      -8.650   7.445  69.779  1.00  0.00    -0.140 C  
ENDROOT
BRANCH  11  14
HETATM   14  S   UNL     1      -8.716   9.001  63.010  1.00  0.00    -0.031 S  
HETATM   15  O   UNL     1      -9.345  10.213  62.540  1.00  0.00    -0.284 OA 
HETATM   16  N   UNL     1      -7.095   9.129  62.588  1.00  0.00    -0.095 N  
HETATM   17  O   UNL     1      -9.139   7.699  62.556  1.00  0.00     0.528 OA 
HETATM   18  H1  UNL     1      -7.165   9.135  61.570  1.00  0.00     0.000 HD 
HETATM   19  H2  UNL     1      -6.269   9.186  63.185  1.00  0.00     0.000 HD 
ENDBRANCH  11  14
TORSDOF 1
ENDMDL
MODEL      141
REMARK 921   NORMALIZED FREE ENERGY PREDICTED BY IDOCK:    2.48 KCAL/MOL
REMARK 922        TOTAL FREE ENERGY PREDICTED BY IDOCK:    2.78 KCAL/MOL
REMARK 923 INTER-LIGAND FREE ENERGY PREDICTED BY IDOCK:    1.63 KCAL/MOL
REMARK 924 INTRA-LIGAND FREE ENERGY PREDICTED BY IDOCK:    1.15 KCAL/MOL
REMARK 927      BINDING AFFINITY PREDICTED BY RF-SCORE:    0.00 PKD
ROOT
HETATM    1  C   UNL     1     -12.713  13.699  70.516  1.00  0.00    -0.260 C  
HETATM    2  C   UNL     1     -12.285  14.320  69.216  1.00  0.00    -0.289 A  
HETATM    3  C   UNL     1     -12.700  13.704  68.017  1.00  0.00     0.974 A  
HETATM    4  C   UNL     1     -12.333  14.199  66.751  1.00  0.00    -0.333 A  
HETATM    5  C   UNL     1     -11.535  15.346  66.708  1.00  0.00    -0.045 A  
HETATM    6  C   UNL     1     -11.117  15.985  67.879  1.00  0.00    -0.307 A  
HETATM    7  S   UNL     1     -10.946  16.012  65.176  1.00  0.00    -0.284 S  
HETATM    8  O   UNL     1     -11.787  17.153  64.871  1.00  0.00     0.561 OA 
HETATM    9  C   UNL     1     -11.282  14.734  63.992  1.00  0.00     0.412 C  
HETATM   10  O   UNL     1      -9.507  16.136  65.296  1.00  0.00    -0.320 OA 
HETATM   11  C   UNL     1     -11.473  15.463  69.130  1.00  0.00    -0.333 A  
HETATM   12  C   UNL     1     -12.760  13.418  65.534  1.00  0.00    -0.469 C  
HETATM   13  C   UNL     1     -12.672  14.169  64.207  1.00  0.00     0.025 C  
ENDROOT
BRANCH  11  14
HETATM   14  S   UNL     1     -10.792  16.292  70.548  1.00  0.00     0.006 S  
HETATM   15  O   UNL     1     -11.292  17.643  70.650  1.00  0.00     1.481 OA 
HETATM   16  N   UNL     1     -11.527  15.434  71.792  1.00  0.00    -0.412 N  
HETATM   17  O   UNL     1      -9.384  15.992  70.642  1.00  0.00     1.221 OA 
HETATM   18  H1  UNL     1     -11.136  15.910  72.606  1.00  0.00     0.000 HD 
HETATM   19  H2  UNL     1     -12.183  14.654  71.746  1.00  0.00     0.000 HD 
ENDBRANCH  11  14
TORSDOF 1
ENDMDL
MODEL      142
REMARK 921   NORMALIZED FREE ENERGY PREDICTED BY IDOCK:    3.26 KCAL/MOL
REMARK 922        TOTAL FREE ENERGY PREDICTED BY IDOCK:    3.62 KCAL/MOL
REMARK 923 INTER-LIGAND FREE ENERGY PREDICTED BY IDOCK:    3.35 KCAL/MOL
REMARK 924 INTRA-LIGAND FREE ENERGY PREDICTED BY IDOCK:    0.27 KCAL/MOL
REMARK 927      BINDING AFFINITY PREDICTED BY RF-SCORE:    0.00 PKD
ROOT
HETATM    1  C   UNL     1     -10.996  13.431  66.856  1.00  0.00    -0.295 C  
HETATM    2  C   UNL     1     -10.133  12.205  66.960  1.00  0.00    -0.219 A  
HETATM    3  C   UNL     1      -9.706  11.588  65.766  1.00  0.00    -0.263 A  
HETATM    4  C   UNL     1      -8.913  10.425  65.762  1.00  0.00    -0.189 A  
HETATM    5  C   UNL     1      -8.544   9.886  66.997  1.00  0.00    -0.128 A  
HETATM    6  C   UNL     1      -8.942  10.480  68.198  1.00  0.00    -0.138 A  
HETATM    7  S   UNL     1      -7.616   8.382  67.115  1.00  0.00    -0.093 S  
HETATM    8  O   UNL     1      -6.246   8.762  67.398  1.00  0.00    -0.054 OA 
HETATM    9  C   UNL     1      -7.684   7.703  65.478  1.00  0.00    -0.101 C  
HETATM   10  O   UNL     1      -8.357   7.496  67.992  1.00  0.00    -0.122 OA 
HETATM   11  C   UNL     1      -9.751  11.624  68.182  1.00  0.00    -0.189 A  
HETATM   12  C   UNL     1      -8.581   9.798  64.431  1.00  0.00    -0.202 C  
HETATM   13  C   UNL     1      -7.437   8.787  64.448  1.00  0.00    -0.107 C  
ENDROOT
BRANCH  11  14
HETATM   14  S   UNL     1     -10.289  12.227  69.766  1.00  0.00     1.417 S  
HETATM   15  O   UNL     1      -9.991  11.278  70.811  1.00  0.00     2.506 OA 
HETATM   16  N   UNL     1      -9.224  13.508  69.988  1.00  0.00     1.814 N  
HETATM   17  O   UNL     1     -11.596  12.822  69.628  1.00  0.00    -0.287 OA 
HETATM   18  H1  UNL     1      -9.533  13.854  70.897  1.00  0.00     0.000 HD 
HETATM   19  H2  UNL     1      -8.476  13.846  69.383  1.00  0.00     0.000 HD 
ENDBRANCH  11  14
TORSDOF 1
ENDMDL
MODEL      143
REMARK 921   NORMALIZED FREE ENERGY PREDICTED BY IDOCK:    3.46 KCAL/MOL
REMARK 922        TOTAL FREE ENERGY PREDICTED BY IDOCK:    3.82 KCAL/MOL
REMARK 923 INTER-LIGAND FREE ENERGY PREDICTED BY IDOCK:    3.65 KCAL/MOL
REMARK 924 INTRA-LIGAND FREE ENERGY PREDICTED BY IDOCK:    0.17 KCAL/MOL
REMARK 927      BINDING AFFINITY PREDICTED BY RF-SCORE:    0.00 PKD
ROOT
HETATM    1  C   UNL     1     -11.162  17.158  64.992  1.00  0.00     0.358 C  
HETATM    2  C   UNL     1     -10.130  17.074  66.083  1.00  0.00    -0.332 A  
HETATM    3  C   UNL     1      -8.785  17.328  65.746  1.00  0.00     0.209 A  
HETATM    4  C   UNL     1      -7.746  17.254  66.692  1.00  0.00    -0.298 A  
HETATM    5  C   UNL     1      -8.086  16.921  68.006  1.00  0.00    -0.194 A  
HETATM    6  C   UNL     1      -9.411  16.674  68.374  1.00  0.00    -0.231 A  
HETATM    7  S   UNL     1      -6.854  16.720  69.263  1.00  0.00    -0.200 S  
HETATM    8  O   UNL     1      -6.874  17.931  70.060  1.00  0.00     0.222 OA 
HETATM    9  C   UNL     1      -5.325  16.663  68.365  1.00  0.00    -0.117 C  
HETATM   10  O   UNL     1      -7.066  15.414  69.856  1.00  0.00    -0.163 OA 
HETATM   11  C   UNL     1     -10.429  16.730  67.412  1.00  0.00    -0.310 A  
HETATM   12  C   UNL     1      -6.332  17.462  66.210  1.00  0.00    -0.253 C  
HETATM   13  C   UNL     1      -5.300  17.743  67.301  1.00  0.00    -0.141 C  
ENDROOT
BRANCH  11  14
HETATM   14  S   UNL     1     -12.060  16.288  67.968  1.00  0.00     1.104 S  
HETATM   15  O   UNL     1     -13.064  17.110  67.338  1.00  0.00     4.770 OA 
HETATM   16  N   UNL     1     -12.217  14.761  67.284  1.00  0.00    -0.464 N  
HETATM   17  O   UNL     1     -12.033  16.078  69.395  1.00  0.00    -0.311 OA 
HETATM   18  H1  UNL     1     -13.152  14.507  67.603  1.00  0.00     0.000 HD 
HETATM   19  H2  UNL     1     -11.560  14.234  66.708  1.00  0.00     0.000 HD 
ENDBRANCH  11  14
TORSDOF 1
ENDMDL
MODEL      144
REMARK 921   NORMALIZED FREE ENERGY PREDICTED BY IDOCK:    9.02 KCAL/MOL
REMARK 922        TOTAL FREE ENERGY PREDICTED BY IDOCK:    9.71 KCAL/MOL
REMARK 923 INTER-LIGAND FREE ENERGY PREDICTED BY IDOCK:    9.46 KCAL/MOL
REMARK 924 INTRA-LIGAND FREE ENERGY PREDICTED BY IDOCK:    0.25 KCAL/MOL
REMARK 927      BINDING AFFINITY PREDICTED BY RF-SCORE:    0.00 PKD
ROOT
HETATM    1  C   UNL     1      -9.913  16.551  71.517  1.00  0.00     4.027 C  
HETATM    2  C   UNL     1      -9.557  17.083  70.156  1.00  0.00     1.485 A  
HETATM    3  C   UNL     1     -10.426  18.022  69.562  1.00  0.00     0.437 A  
HETATM    4  C   UNL     1     -10.189  18.562  68.284  1.00  0.00    -0.412 A  
HETATM    5  C   UNL     1      -9.043  18.141  67.603  1.00  0.00    -0.259 A  
HETATM    6  C   UNL     1      -8.158  17.219  68.169  1.00  0.00    -0.229 A  
HETATM    7  S   UNL     1      -8.685  18.691  65.958  1.00  0.00     0.164 S  
HETATM    8  O   UNL     1      -7.669  19.718  66.076  1.00  0.00    -0.315 OA 
HETATM    9  C   UNL     1     -10.193  19.453  65.419  1.00  0.00     0.352 C  
HETATM   10  O   UNL     1      -8.477  17.503  65.152  1.00  0.00     0.999 OA 
HETATM   11  C   UNL     1      -8.423  16.676  69.434  1.00  0.00     0.141 A  
HETATM   12  C   UNL     1     -11.223  19.496  67.706  1.00  0.00     0.139 C  
HETATM   13  C   UNL     1     -10.760  20.333  66.515  1.00  0.00    -0.079 C  
ENDROOT
BRANCH  11  14
HETATM   14  S   UNL     1      -7.290  15.430  70.005  1.00  0.00     0.219 S  
HETATM   15  O   UNL     1      -6.383  15.032  68.955  1.00  0.00    -0.095 OA 
HETATM   16  N   UNL     1      -6.371  16.323  71.093  1.00  0.00     1.276 N  
HETATM   17  O   UNL     1      -8.009  14.463  70.799  1.00  0.00     1.609 OA 
HETATM   18  H1  UNL     1      -5.721  15.608  71.421  1.00  0.00     0.000 HD 
HETATM   19  H2  UNL     1      -6.444  17.306  71.353  1.00  0.00     0.000 HD 
ENDBRANCH  11  14
TORSDOF 1
ENDMDL
MODEL      145
REMARK 921   NORMALIZED FREE ENERGY PREDICTED BY IDOCK:   10.33 KCAL/MOL
REMARK 922        TOTAL FREE ENERGY PREDICTED BY IDOCK:   11.10 KCAL/MOL
REMARK 923 INTER-LIGAND FREE ENERGY PREDICTED BY IDOCK:   10.64 KCAL/MOL
REMARK 924 INTRA-LIGAND FREE ENERGY PREDICTED BY IDOCK:    0.46 KCAL/MOL
REMARK 927      BINDING AFFINITY PREDICTED BY RF-SCORE:    0.00 PKD
ROOT
HETATM    1  C   UNL     1     -10.615  11.798  63.837  1.00  0.00    -0.445 C  
HETATM    2  C   UNL     1      -9.806  11.358  65.025  1.00  0.00    -0.304 A  
HETATM    3  C   UNL     1      -8.400  11.392  64.921  1.00  0.00     0.565 A  
HETATM    4  C   UNL     1      -7.559  10.981  65.972  1.00  0.00    -0.042 A  
HETATM    5  C   UNL     1      -8.162  10.533  67.151  1.00  0.00    -0.123 A  
HETATM    6  C   UNL     1      -9.552  10.497  67.288  1.00  0.00    -0.188 A  
HETATM    7  S   UNL     1      -7.206   9.916  68.508  1.00  0.00    -0.077 S  
HETATM    8  O   UNL     1      -7.150  10.979  69.492  1.00  0.00    -0.126 OA 
HETATM    9  C   UNL     1      -5.582   9.695  67.828  1.00  0.00    -0.040 C  
HETATM   10  O   UNL     1      -7.731   8.604  68.832  1.00  0.00    -0.096 OA 
HETATM   11  C   UNL     1     -10.373  10.889  66.222  1.00  0.00    -0.250 A  
HETATM   12  C   UNL     1      -6.070  10.978  65.728  1.00  0.00    -0.019 C  
HETATM   13  C   UNL     1      -5.200  10.892  66.980  1.00  0.00    -0.050 C  
ENDROOT
BRANCH  11  14
HETATM   14  S   UNL     1     -12.124  10.696  66.468  1.00  0.00     3.629 S  
HETATM   15  O   UNL     1     -12.404   9.597  67.361  1.00  0.00     3.620 OA 
HETATM   16  N   UNL     1     -12.472  12.093  67.334  1.00  0.00     0.839 N  
HETATM   17  O   UNL     1     -12.800  10.840  65.202  1.00  0.00     3.744 OA 
HETATM   18  H1  UNL     1     -13.476  11.982  67.476  1.00  0.00     0.000 HD 
HETATM   19  H2  UNL     1     -11.850  12.844  67.635  1.00  0.00     0.000 HD 
ENDBRANCH  11  14
TORSDOF 1
ENDMDL
MODEL      146
REMARK 921   NORMALIZED FREE ENERGY PREDICTED BY IDOCK:   12.49 KCAL/MOL
REMARK 922        TOTAL FREE ENERGY PREDICTED BY IDOCK:   13.38 KCAL/MOL
REMARK 923 INTER-LIGAND FREE ENERGY PREDICTED BY IDOCK:   13.51 KCAL/MOL
REMARK 924 INTRA-LIGAND FREE ENERGY PREDICTED BY IDOCK:   -0.13 KCAL/MOL
REMARK 927      BINDING AFFINITY PREDICTED BY RF-SCORE:    0.00 PKD
ROOT
HETATM    1  C   UNL     1      -8.437  15.358  65.783  1.00  0.00     1.042 C  
HETATM    2  C   UNL     1      -9.227  15.494  67.055  1.00  0.00    -0.242 A  
HETATM    3  C   UNL     1      -8.575  15.222  68.275  1.00  0.00    -0.159 A  
HETATM    4  C   UNL     1      -9.235  15.303  69.515  1.00  0.00    -0.196 A  
HETATM    5  C   UNL     1     -10.583  15.673  69.512  1.00  0.00    -0.266 A  
HETATM    6  C   UNL     1     -11.255  15.958  68.320  1.00  0.00    -0.354 A  
HETATM    7  S   UNL     1     -11.536  15.728  71.003  1.00  0.00    -0.443 S  
HETATM    8  O   UNL     1     -11.637  17.125  71.378  1.00  0.00     0.494 OA 
HETATM    9  C   UNL     1     -10.520  14.898  72.197  1.00  0.00     2.090 C  
HETATM   10  O   UNL     1     -12.714  14.912  70.782  1.00  0.00    -0.322 OA 
HETATM   11  C   UNL     1     -10.586  15.850  67.093  1.00  0.00    -0.316 A  
HETATM   12  C   UNL     1      -8.468  14.911  70.754  1.00  0.00     2.145 C  
HETATM   13  C   UNL     1      -9.082  15.363  72.077  1.00  0.00     5.870 C  
ENDROOT
BRANCH  11  14
HETATM   14  S   UNL     1     -11.569  16.127  65.637  1.00  0.00     0.773 S  
HETATM   15  O   UNL     1     -11.594  14.954  64.796  1.00  0.00    -0.396 OA 
HETATM   16  N   UNL     1     -13.102  16.241  66.315  1.00  0.00     4.158 N  
HETATM   17  O   UNL     1     -11.275  17.436  65.108  1.00  0.00    -0.372 OA 
HETATM   18  H1  UNL     1     -13.666  16.400  65.479  1.00  0.00     0.000 HD 
HETATM   19  H2  UNL     1     -13.390  16.171  67.291  1.00  0.00     0.000 HD 
ENDBRANCH  11  14
TORSDOF 1
ENDMDL
MODEL      147
REMARK 921   NORMALIZED FREE ENERGY PREDICTED BY IDOCK:   24.64 KCAL/MOL
REMARK 922        TOTAL FREE ENERGY PREDICTED BY IDOCK:   26.25 KCAL/MOL
REMARK 923 INTER-LIGAND FREE ENERGY PREDICTED BY IDOCK:   25.74 KCAL/MOL
REMARK 924 INTRA-LIGAND FREE ENERGY PREDICTED BY IDOCK:    0.50 KCAL/MOL
REMARK 927      BINDING AFFINITY PREDICTED BY RF-SCORE:    0.00 PKD
ROOT
HETATM    1  C   UNL     1     -10.189  16.327  71.627  1.00  0.00     2.863 C  
HETATM    2  C   UNL     1      -9.233  16.245  70.470  1.00  0.00     2.128 A  
HETATM    3  C   UNL     1      -9.468  17.073  69.353  1.00  0.00     0.109 A  
HETATM    4  C   UNL     1      -8.641  17.053  68.215  1.00  0.00    -0.234 A  
HETATM    5  C   UNL     1      -7.552  16.177  68.218  1.00  0.00    -0.146 A  
HETATM    6  C   UNL     1      -7.286  15.351  69.314  1.00  0.00    -0.197 A  
HETATM    7  S   UNL     1      -6.491  16.007  66.810  1.00  0.00     0.515 S  
HETATM    8  O   UNL     1      -5.288  16.761  67.104  1.00  0.00    -0.131 OA 
HETATM    9  C   UNL     1      -7.366  16.834  65.507  1.00  0.00     1.725 C  
HETATM   10  O   UNL     1      -6.444  14.595  66.484  1.00  0.00     1.293 OA 
HETATM   11  C   UNL     1      -8.135  15.369  70.429  1.00  0.00     1.089 A  
HETATM   12  C   UNL     1      -9.029  17.918  67.041  1.00  0.00    -0.254 C  
HETATM   13  C   UNL     1      -7.932  18.149  66.005  1.00  0.00    -0.150 C  
ENDROOT
BRANCH  11  14
HETATM   14  S   UNL     1      -7.765  14.197  71.715  1.00  0.00     6.209 S  
HETATM   15  O   UNL     1      -7.607  12.868  71.175  1.00  0.00     4.535 OA 
HETATM   16  N   UNL     1      -6.225  14.701  72.160  1.00  0.00     0.395 N  
HETATM   17  O   UNL     1      -8.610  14.461  72.854  1.00  0.00     5.996 OA 
HETATM   18  H1  UNL     1      -6.013  14.028  72.897  1.00  0.00     0.000 HD 
HETATM   19  H2  UNL     1      -5.659  15.466  71.794  1.00  0.00     0.000 HD 
ENDBRANCH  11  14
TORSDOF 1
ENDMDL
