MODEL        1
REMARK 921   NORMALIZED FREE ENERGY PREDICTED BY IDOCK:   -6.78 KCAL/MOL
REMARK 922        TOTAL FREE ENERGY PREDICTED BY IDOCK:   -9.30 KCAL/MOL
REMARK 923 INTER-LIGAND FREE ENERGY PREDICTED BY IDOCK:   -8.37 KCAL/MOL
REMARK 924 INTRA-LIGAND FREE ENERGY PREDICTED BY IDOCK:   -0.93 KCAL/MOL
REMARK 927      BINDING AFFINITY PREDICTED BY RF-SCORE:    0.00 PKD
ROOT
HETATM    1  C   UNL     1     -11.017  16.242  68.244  1.00  0.00    -0.348 C  
HETATM    2  S   UNL     1      -9.544  15.809  69.248  1.00  0.00    -0.279 SA 
HETATM    3  C   UNL     1      -8.339  16.614  68.128  1.00  0.00    -0.193 C  
HETATM    4  CA  UNL     1      -9.148  17.711  67.399  1.00  0.00    -0.239 C  
HETATM    5  C   UNL     1      -7.817  15.541  67.154  1.00  0.00    -0.256 C  
HETATM    6  C   UNL     1      -7.148  17.081  68.969  1.00  0.00    -0.233 C  
HETATM    7  N   UNL     1     -10.524  17.193  67.216  1.00  0.00    -0.328 N  
HETATM    8  C   UNL     1      -9.205  19.074  68.111  1.00  0.00    -0.323 C  
HETATM    9  C   UNL     1     -10.780  16.333  66.178  1.00  0.00    -0.197 C  
HETATM   10  OXT UNL     1      -8.228  19.717  68.466  1.00  0.00    -0.336 OA 
HETATM   11  O   UNL     1     -10.463  19.571  68.240  1.00  0.00    -0.410 OA 
HETATM   12  CA  UNL     1     -11.468  15.295  67.093  1.00  0.00    -0.200 C  
HETATM   13  O   UNL     1     -10.401  16.371  65.028  1.00  0.00    -0.615 OA 
ENDROOT
BRANCH  12  14
HETATM   14  N   UNL     1     -10.939  13.893  67.036  1.00  0.00    -0.292 N  
HETATM   15  C   UNL     1     -11.543  12.967  66.212  1.00  0.00    -0.372 C  
HETATM   16  H   UNL     1     -10.136  13.626  67.604  1.00  0.00     0.000 HD 
HETATM   17  O   UNL     1     -12.496  13.325  65.528  1.00  0.00    -0.458 OA 
BRANCH  15  18
HETATM   18  C   UNL     1     -11.026  11.552  66.162  1.00  0.00    -0.320 A  
HETATM   19  C   UNL     1     -10.216  11.070  65.097  1.00  0.00    -0.291 A  
HETATM   20  C   UNL     1      -9.665   9.773  65.159  1.00  0.00    -0.338 A  
HETATM   21  C   UNL     1     -11.248  10.695  67.270  1.00  0.00    -0.161 A  
HETATM   22  C   UNL     1      -9.858   8.968  66.278  1.00  0.00    -0.361 A  
HETATM   23  C   UNL     1     -10.640   9.432  67.325  1.00  0.00    -0.314 A  
BRANCH  19  24
HETATM   24  O   UNL     1      -9.976  11.885  64.009  1.00  0.00    -0.295 OA 
HETATM   25  C   UNL     1      -9.493  11.222  62.834  1.00  0.00    -0.361 C  
ENDBRANCH  19  24
BRANCH  21  26
HETATM   26  O   UNL     1     -11.920  10.987  68.431  1.00  0.00    -0.565 OA 
HETATM   27  C   UNL     1     -11.188  10.857  69.647  1.00  0.00    -0.282 C  
ENDBRANCH  21  26
ENDBRANCH  15  18
ENDBRANCH  12  14
TORSDOF 4
ENDMDL
MODEL        2
REMARK 921   NORMALIZED FREE ENERGY PREDICTED BY IDOCK:   -6.67 KCAL/MOL
REMARK 922        TOTAL FREE ENERGY PREDICTED BY IDOCK:   -9.15 KCAL/MOL
REMARK 923 INTER-LIGAND FREE ENERGY PREDICTED BY IDOCK:   -8.21 KCAL/MOL
REMARK 924 INTRA-LIGAND FREE ENERGY PREDICTED BY IDOCK:   -0.94 KCAL/MOL
REMARK 927      BINDING AFFINITY PREDICTED BY RF-SCORE:    0.00 PKD
ROOT
HETATM    1  C   UNL     1     -11.100  16.158  68.223  1.00  0.00    -0.348 C  
HETATM    2  S   UNL     1      -9.604  15.892  69.249  1.00  0.00    -0.264 SA 
HETATM    3  C   UNL     1      -8.443  16.639  68.045  1.00  0.00    -0.192 C  
HETATM    4  CA  UNL     1      -9.306  17.621  67.221  1.00  0.00    -0.249 C  
HETATM    5  C   UNL     1      -7.878  15.501  67.173  1.00  0.00    -0.256 C  
HETATM    6  C   UNL     1      -7.270  17.239  68.824  1.00  0.00    -0.245 C  
HETATM    7  N   UNL     1     -10.658  17.026  67.103  1.00  0.00    -0.287 N  
HETATM    8  C   UNL     1      -9.423  19.043  67.798  1.00  0.00    -0.304 C  
HETATM    9  C   UNL     1     -10.879  16.058  66.155  1.00  0.00    -0.179 C  
HETATM   10  OXT UNL     1      -8.475  19.761  68.080  1.00  0.00    -0.314 OA 
HETATM   11  O   UNL     1     -10.701  19.493  67.892  1.00  0.00    -0.416 OA 
HETATM   12  CA  UNL     1     -11.514  15.084  67.174  1.00  0.00    -0.297 C  
HETATM   13  O   UNL     1     -10.509  16.002  65.004  1.00  0.00    -0.558 OA 
ENDROOT
BRANCH  12  14
HETATM   14  N   UNL     1     -10.920  13.709  67.247  1.00  0.00    -0.284 N  
HETATM   15  C   UNL     1     -11.429  12.702  66.454  1.00  0.00    -0.356 C  
HETATM   16  H   UNL     1     -10.144  13.520  67.880  1.00  0.00     0.000 HD 
HETATM   17  O   UNL     1     -12.350  12.966  65.689  1.00  0.00    -0.459 OA 
BRANCH  15  18
HETATM   18  C   UNL     1     -10.848  11.313  66.534  1.00  0.00    -0.319 A  
HETATM   19  C   UNL     1     -11.153  10.415  67.595  1.00  0.00    -0.293 A  
HETATM   20  C   UNL     1     -10.674   9.089  67.559  1.00  0.00    -0.239 A  
HETATM   21  C   UNL     1     -10.063  10.829  65.458  1.00  0.00    -0.274 A  
HETATM   22  C   UNL     1      -9.944   8.624  66.469  1.00  0.00    -0.353 A  
HETATM   23  C   UNL     1      -9.648   9.488  65.427  1.00  0.00    -0.342 A  
BRANCH  19  24
HETATM   24  O   UNL     1     -11.922  10.857  68.653  1.00  0.00    -0.484 OA 
HETATM   25  C   UNL     1     -11.323  10.731  69.948  1.00  0.00    -0.311 C  
ENDBRANCH  19  24
BRANCH  21  26
HETATM   26  O   UNL     1      -9.727  11.492  64.304  1.00  0.00    -0.234 OA 
HETATM   27  C   UNL     1      -9.755  10.735  63.096  1.00  0.00    -0.357 C  
ENDBRANCH  21  26
ENDBRANCH  15  18
ENDBRANCH  12  14
TORSDOF 4
ENDMDL
MODEL        3
REMARK 921   NORMALIZED FREE ENERGY PREDICTED BY IDOCK:   -6.62 KCAL/MOL
REMARK 922        TOTAL FREE ENERGY PREDICTED BY IDOCK:   -9.09 KCAL/MOL
REMARK 923 INTER-LIGAND FREE ENERGY PREDICTED BY IDOCK:   -8.13 KCAL/MOL
REMARK 924 INTRA-LIGAND FREE ENERGY PREDICTED BY IDOCK:   -0.96 KCAL/MOL
REMARK 927      BINDING AFFINITY PREDICTED BY RF-SCORE:    0.00 PKD
ROOT
HETATM    1  C   UNL     1     -10.692  15.126  68.349  1.00  0.00    -0.248 C  
HETATM    2  S   UNL     1      -9.105  15.392  69.229  1.00  0.00    -0.252 SA 
HETATM    3  C   UNL     1      -8.050  15.067  67.768  1.00  0.00    -0.149 C  
HETATM    4  CA  UNL     1      -8.944  15.403  66.552  1.00  0.00    -0.309 C  
HETATM    5  C   UNL     1      -7.656  13.578  67.797  1.00  0.00    -0.163 C  
HETATM    6  C   UNL     1      -6.762  15.880  67.922  1.00  0.00    -0.163 C  
HETATM    7  N   UNL     1     -10.333  15.032  66.913  1.00  0.00    -0.262 N  
HETATM    8  C   UNL     1      -8.910  16.871  66.093  1.00  0.00    -0.244 C  
HETATM    9  C   UNL     1     -10.718  13.719  66.815  1.00  0.00    -0.276 C  
HETATM   10  OXT UNL     1      -7.896  17.488  65.801  1.00  0.00    -0.544 OA 
HETATM   11  O   UNL     1     -10.141  17.427  65.943  1.00  0.00    -0.500 OA 
HETATM   12  CA  UNL     1     -11.286  13.689  68.252  1.00  0.00    -0.289 C  
HETATM   13  O   UNL     1     -10.487  12.905  65.948  1.00  0.00    -0.270 OA 
ENDROOT
BRANCH  12  14
HETATM   14  N   UNL     1     -10.769  12.611  69.156  1.00  0.00    -0.436 N  
HETATM   15  C   UNL     1     -11.354  11.362  69.135  1.00  0.00    -0.288 C  
HETATM   16  H   UNL     1      -9.989  12.800  69.785  1.00  0.00     0.000 HD 
HETATM   17  O   UNL     1     -12.278  11.160  68.354  1.00  0.00    -0.610 OA 
BRANCH  15  18
HETATM   18  C   UNL     1     -10.850  10.277  70.053  1.00  0.00    -0.364 A  
HETATM   19  C   UNL     1      -9.496   9.840  70.051  1.00  0.00    -0.238 A  
HETATM   20  C   UNL     1      -9.054   8.906  71.010  1.00  0.00    -0.303 A  
HETATM   21  C   UNL     1     -11.718   9.750  71.042  1.00  0.00    -0.370 A  
HETATM   22  C   UNL     1      -9.913   8.438  72.000  1.00  0.00    -0.354 A  
HETATM   23  C   UNL     1     -11.232   8.863  72.015  1.00  0.00    -0.422 A  
BRANCH  19  24
HETATM   24  O   UNL     1      -8.626  10.343  69.105  1.00  0.00    -0.149 OA 
HETATM   25  C   UNL     1      -8.354   9.478  67.995  1.00  0.00    -0.118 C  
ENDBRANCH  19  24
BRANCH  21  26
HETATM   26  O   UNL     1     -13.026  10.096  71.276  1.00  0.00    -0.358 OA 
HETATM   27  C   UNL     1     -13.766   9.251  72.154  1.00  0.00    -0.453 C  
ENDBRANCH  21  26
ENDBRANCH  15  18
ENDBRANCH  12  14
TORSDOF 4
ENDMDL
MODEL        4
REMARK 921   NORMALIZED FREE ENERGY PREDICTED BY IDOCK:   -6.53 KCAL/MOL
REMARK 922        TOTAL FREE ENERGY PREDICTED BY IDOCK:   -8.98 KCAL/MOL
REMARK 923 INTER-LIGAND FREE ENERGY PREDICTED BY IDOCK:   -8.28 KCAL/MOL
REMARK 924 INTRA-LIGAND FREE ENERGY PREDICTED BY IDOCK:   -0.70 KCAL/MOL
REMARK 927      BINDING AFFINITY PREDICTED BY RF-SCORE:    0.00 PKD
ROOT
HETATM    1  C   UNL     1      -9.560  18.453  68.502  1.00  0.00    -0.345 C  
HETATM    2  S   UNL     1      -7.986  17.573  68.837  1.00  0.00    -0.115 SA 
HETATM    3  C   UNL     1      -7.329  17.761  67.137  1.00  0.00    -0.186 C  
HETATM    4  CA  UNL     1      -8.029  19.020  66.579  1.00  0.00    -0.282 C  
HETATM    5  C   UNL     1      -7.707  16.495  66.346  1.00  0.00    -0.294 C  
HETATM    6  C   UNL     1      -5.800  17.804  67.222  1.00  0.00    -0.157 C  
HETATM    7  N   UNL     1      -9.394  19.055  67.156  1.00  0.00    -0.301 N  
HETATM    8  C   UNL     1      -7.319  20.355  66.866  1.00  0.00    -0.300 C  
HETATM    9  C   UNL     1     -10.375  18.277  66.594  1.00  0.00    -0.381 C  
HETATM   10  OXT UNL     1      -6.156  20.602  66.580  1.00  0.00    -0.186 OA 
HETATM   11  O   UNL     1      -8.132  21.305  67.398  1.00  0.00    -0.208 OA 
HETATM   12  CA  UNL     1     -10.782  17.660  67.951  1.00  0.00    -0.337 C  
HETATM   13  O   UNL     1     -10.630  18.073  65.428  1.00  0.00    -0.648 OA 
ENDROOT
BRANCH  12  14
HETATM   14  N   UNL     1     -10.792  16.163  68.032  1.00  0.00    -0.324 N  
HETATM   15  C   UNL     1     -11.714  15.528  68.838  1.00  0.00    -0.370 C  
HETATM   16  H   UNL     1     -10.120  15.617  67.494  1.00  0.00     0.000 HD 
HETATM   17  O   UNL     1     -12.521  16.212  69.458  1.00  0.00    -0.051 OA 
BRANCH  15  18
HETATM   18  C   UNL     1     -11.719  14.023  68.937  1.00  0.00    -0.375 A  
HETATM   19  C   UNL     1     -12.003  13.337  70.150  1.00  0.00    -0.318 A  
HETATM   20  C   UNL     1     -12.108  11.931  70.159  1.00  0.00    -0.382 A  
HETATM   21  C   UNL     1     -11.555  13.252  67.758  1.00  0.00    -0.342 A  
HETATM   22  C   UNL     1     -11.990  11.199  68.980  1.00  0.00    -0.389 A  
HETATM   23  C   UNL     1     -11.721  11.859  67.791  1.00  0.00    -0.362 A  
BRANCH  19  24
HETATM   24  O   UNL     1     -12.175  14.062  71.312  1.00  0.00    -0.350 OA 
HETATM   25  C   UNL     1     -13.412  13.842  72.001  1.00  0.00    -0.470 C  
ENDBRANCH  19  24
BRANCH  21  26
HETATM   26  O   UNL     1     -11.363  13.712  66.479  1.00  0.00    -0.305 OA 
HETATM   27  C   UNL     1     -12.523  13.832  65.659  1.00  0.00    -0.503 C  
ENDBRANCH  21  26
ENDBRANCH  15  18
ENDBRANCH  12  14
TORSDOF 4
ENDMDL
MODEL        5
REMARK 921   NORMALIZED FREE ENERGY PREDICTED BY IDOCK:   -6.52 KCAL/MOL
REMARK 922        TOTAL FREE ENERGY PREDICTED BY IDOCK:   -8.97 KCAL/MOL
REMARK 923 INTER-LIGAND FREE ENERGY PREDICTED BY IDOCK:   -8.11 KCAL/MOL
REMARK 924 INTRA-LIGAND FREE ENERGY PREDICTED BY IDOCK:   -0.86 KCAL/MOL
REMARK 927      BINDING AFFINITY PREDICTED BY RF-SCORE:    0.00 PKD
ROOT
HETATM    1  C   UNL     1     -10.501  18.072  67.207  1.00  0.00    -0.380 C  
HETATM    2  S   UNL     1      -9.812  18.587  68.828  1.00  0.00    -0.346 SA 
HETATM    3  C   UNL     1      -8.079  18.168  68.410  1.00  0.00    -0.303 C  
HETATM    4  CA  UNL     1      -8.008  18.265  66.869  1.00  0.00    -0.236 C  
HETATM    5  C   UNL     1      -7.810  16.735  68.909  1.00  0.00    -0.244 C  
HETATM    6  C   UNL     1      -7.161  19.103  69.202  1.00  0.00    -0.349 C  
HETATM    7  N   UNL     1      -9.321  17.825  66.342  1.00  0.00    -0.270 N  
HETATM    8  C   UNL     1      -7.674  19.659  66.310  1.00  0.00    -0.315 C  
HETATM    9  C   UNL     1      -9.578  16.481  66.231  1.00  0.00    -0.306 C  
HETATM   10  OXT UNL     1      -6.692  20.318  66.620  1.00  0.00    -0.213 OA 
HETATM   11  O   UNL     1      -8.531  20.081  65.344  1.00  0.00    -0.145 OA 
HETATM   12  CA  UNL     1     -10.922  16.588  66.987  1.00  0.00    -0.012 C  
HETATM   13  O   UNL     1      -8.866  15.585  65.835  1.00  0.00    -0.254 OA 
ENDROOT
BRANCH  12  14
HETATM   14  N   UNL     1     -11.101  15.685  68.170  1.00  0.00    -0.316 N  
HETATM   15  C   UNL     1     -11.835  14.525  68.040  1.00  0.00    -0.315 C  
HETATM   16  H   UNL     1     -10.681  15.927  69.067  1.00  0.00     0.000 HD 
HETATM   17  O   UNL     1     -12.311  14.252  66.943  1.00  0.00    -0.408 OA 
BRANCH  15  18
HETATM   18  C   UNL     1     -12.033  13.620  69.230  1.00  0.00    -0.384 A  
HETATM   19  C   UNL     1     -12.568  14.083  70.464  1.00  0.00    -0.329 A  
HETATM   20  C   UNL     1     -12.840  13.171  71.504  1.00  0.00    -0.401 A  
HETATM   21  C   UNL     1     -11.794  12.230  69.088  1.00  0.00    -0.301 A  
HETATM   22  C   UNL     1     -12.640  11.805  71.324  1.00  0.00    -0.401 A  
HETATM   23  C   UNL     1     -12.126  11.342  70.123  1.00  0.00    -0.439 A  
BRANCH  19  24
HETATM   24  O   UNL     1     -12.818  15.431  70.627  1.00  0.00    -0.432 OA 
HETATM   25  C   UNL     1     -12.141  16.057  71.724  1.00  0.00    -0.499 C  
ENDBRANCH  19  24
BRANCH  21  26
HETATM   26  O   UNL     1     -11.366  11.566  67.965  1.00  0.00    -0.250 OA 
HETATM   27  C   UNL     1     -10.997  10.198  68.129  1.00  0.00    -0.259 C  
ENDBRANCH  21  26
ENDBRANCH  15  18
ENDBRANCH  12  14
TORSDOF 4
ENDMDL
MODEL        6
REMARK 921   NORMALIZED FREE ENERGY PREDICTED BY IDOCK:   -6.50 KCAL/MOL
REMARK 922        TOTAL FREE ENERGY PREDICTED BY IDOCK:   -8.95 KCAL/MOL
REMARK 923 INTER-LIGAND FREE ENERGY PREDICTED BY IDOCK:   -8.23 KCAL/MOL
REMARK 924 INTRA-LIGAND FREE ENERGY PREDICTED BY IDOCK:   -0.72 KCAL/MOL
REMARK 927      BINDING AFFINITY PREDICTED BY RF-SCORE:    0.00 PKD
ROOT
HETATM    1  C   UNL     1      -9.357  18.219  68.512  1.00  0.00    -0.319 C  
HETATM    2  S   UNL     1      -7.834  17.205  68.645  1.00  0.00    -0.261 SA 
HETATM    3  C   UNL     1      -7.337  17.426  66.896  1.00  0.00    -0.202 C  
HETATM    4  CA  UNL     1      -7.985  18.761  66.466  1.00  0.00    -0.279 C  
HETATM    5  C   UNL     1      -7.894  16.233  66.097  1.00  0.00     0.045 C  
HETATM    6  C   UNL     1      -5.809  17.347  66.824  1.00  0.00    -0.221 C  
HETATM    7  N   UNL     1      -9.278  18.872  67.182  1.00  0.00    -0.285 N  
HETATM    8  C   UNL     1      -7.144  20.022  66.733  1.00  0.00    -0.234 C  
HETATM    9  C   UNL     1     -10.370  18.200  66.693  1.00  0.00    -0.376 C  
HETATM   10  OXT UNL     1      -5.999  20.192  66.338  1.00  0.00    -0.171 OA 
HETATM   11  O   UNL     1      -7.819  21.003  67.385  1.00  0.00    -0.282 OA 
HETATM   12  CA  UNL     1     -10.689  17.550  68.059  1.00  0.00    -0.341 C  
HETATM   13  O   UNL     1     -10.757  18.074  65.553  1.00  0.00    -0.597 OA 
ENDROOT
BRANCH  12  14
HETATM   14  N   UNL     1     -10.812  16.056  68.079  1.00  0.00    -0.324 N  
HETATM   15  C   UNL     1     -11.740  15.457  68.905  1.00  0.00    -0.359 C  
HETATM   16  H   UNL     1     -10.212  15.485  67.484  1.00  0.00     0.000 HD 
HETATM   17  O   UNL     1     -12.459  16.172  69.594  1.00  0.00    -0.083 OA 
BRANCH  15  18
HETATM   18  C   UNL     1     -11.858  13.955  68.942  1.00  0.00    -0.393 A  
HETATM   19  C   UNL     1     -11.619  13.139  67.801  1.00  0.00    -0.337 A  
HETATM   20  C   UNL     1     -11.630  11.734  67.921  1.00  0.00    -0.377 A  
HETATM   21  C   UNL     1     -12.097  13.310  70.182  1.00  0.00    -0.333 A  
HETATM   22  C   UNL     1     -11.821  11.125  69.158  1.00  0.00    -0.419 A  
HETATM   23  C   UNL     1     -12.047  11.911  70.278  1.00  0.00    -0.409 A  
BRANCH  19  24
HETATM   24  O   UNL     1     -11.376  13.739  66.582  1.00  0.00    -0.311 OA 
HETATM   25  C   UNL     1     -12.426  13.623  65.615  1.00  0.00    -0.496 C  
ENDBRANCH  19  24
BRANCH  21  26
HETATM   26  O   UNL     1     -12.264  13.899  71.411  1.00  0.00    -0.323 OA 
HETATM   27  C   UNL     1     -13.434  13.539  72.142  1.00  0.00    -0.537 C  
ENDBRANCH  21  26
ENDBRANCH  15  18
ENDBRANCH  12  14
TORSDOF 4
ENDMDL
MODEL        7
REMARK 921   NORMALIZED FREE ENERGY PREDICTED BY IDOCK:   -6.48 KCAL/MOL
REMARK 922        TOTAL FREE ENERGY PREDICTED BY IDOCK:   -8.92 KCAL/MOL
REMARK 923 INTER-LIGAND FREE ENERGY PREDICTED BY IDOCK:   -8.02 KCAL/MOL
REMARK 924 INTRA-LIGAND FREE ENERGY PREDICTED BY IDOCK:   -0.90 KCAL/MOL
REMARK 927      BINDING AFFINITY PREDICTED BY RF-SCORE:    0.00 PKD
ROOT
HETATM    1  C   UNL     1     -12.146  13.165  66.564  1.00  0.00    -0.358 C  
HETATM    2  S   UNL     1     -11.622  14.534  67.666  1.00  0.00    -0.388 SA 
HETATM    3  C   UNL     1     -10.258  15.103  66.584  1.00  0.00    -0.266 C  
HETATM    4  CA  UNL     1     -10.665  14.651  65.163  1.00  0.00    -0.414 C  
HETATM    5  C   UNL     1      -8.965  14.412  67.059  1.00  0.00    -0.257 C  
HETATM    6  C   UNL     1     -10.075  16.607  66.803  1.00  0.00    -0.293 C  
HETATM    7  N   UNL     1     -11.391  13.366  65.303  1.00  0.00    -0.293 N  
HETATM    8  C   UNL     1     -11.536  15.647  64.377  1.00  0.00    -0.262 C  
HETATM    9  C   UNL     1     -10.671  12.207  65.450  1.00  0.00    -0.284 C  
HETATM   10  OXT UNL     1     -11.241  16.814  64.164  1.00  0.00    -1.155 OA 
HETATM   11  O   UNL     1     -12.654  15.092  63.841  1.00  0.00    -0.813 OA 
HETATM   12  CA  UNL     1     -11.470  11.768  66.698  1.00  0.00    -0.267 C  
HETATM   13  O   UNL     1      -9.670  11.838  64.877  1.00  0.00    -0.238 OA 
ENDROOT
BRANCH  12  14
HETATM   14  N   UNL     1     -10.673  11.445  67.926  1.00  0.00    -0.189 N  
HETATM   15  C   UNL     1     -10.387  10.130  68.230  1.00  0.00    -0.186 C  
HETATM   16  H   UNL     1     -10.344  12.194  68.534  1.00  0.00     0.000 HD 
HETATM   17  O   UNL     1     -10.781   9.254  67.468  1.00  0.00    -0.277 OA 
BRANCH  15  18
HETATM   18  C   UNL     1      -9.600   9.797  69.471  1.00  0.00    -0.225 A  
HETATM   19  C   UNL     1     -10.199   9.218  70.625  1.00  0.00    -0.272 A  
HETATM   20  C   UNL     1      -9.396   8.820  71.714  1.00  0.00    -0.350 A  
HETATM   21  C   UNL     1      -8.191   9.949  69.459  1.00  0.00    -0.158 A  
HETATM   22  C   UNL     1      -8.010   8.937  71.659  1.00  0.00    -0.080 A  
HETATM   23  C   UNL     1      -7.416   9.492  70.536  1.00  0.00    -0.159 A  
BRANCH  19  24
HETATM   24  O   UNL     1     -11.569   9.050  70.662  1.00  0.00    -0.269 OA 
HETATM   25  C   UNL     1     -12.292  10.036  71.410  1.00  0.00    -0.415 C  
ENDBRANCH  19  24
BRANCH  21  26
HETATM   26  O   UNL     1      -7.409  10.400  68.425  1.00  0.00    -0.081 OA 
HETATM   27  C   UNL     1      -6.861  11.709  68.557  1.00  0.00    -0.073 C  
ENDBRANCH  21  26
ENDBRANCH  15  18
ENDBRANCH  12  14
TORSDOF 4
ENDMDL
MODEL        8
REMARK 921   NORMALIZED FREE ENERGY PREDICTED BY IDOCK:   -6.47 KCAL/MOL
REMARK 922        TOTAL FREE ENERGY PREDICTED BY IDOCK:   -8.91 KCAL/MOL
REMARK 923 INTER-LIGAND FREE ENERGY PREDICTED BY IDOCK:   -8.45 KCAL/MOL
REMARK 924 INTRA-LIGAND FREE ENERGY PREDICTED BY IDOCK:   -0.46 KCAL/MOL
REMARK 927      BINDING AFFINITY PREDICTED BY RF-SCORE:    0.00 PKD
ROOT
HETATM    1  C   UNL     1      -9.394  17.287  68.449  1.00  0.00    -0.275 C  
HETATM    2  S   UNL     1      -8.263  16.023  69.147  1.00  0.00    -0.218 SA 
HETATM    3  C   UNL     1      -7.741  15.356  67.523  1.00  0.00    -0.181 C  
HETATM    4  CA  UNL     1      -7.944  16.524  66.531  1.00  0.00    -0.310 C  
HETATM    5  C   UNL     1      -8.653  14.158  67.194  1.00  0.00    -0.230 C  
HETATM    6  C   UNL     1      -6.316  14.815  67.668  1.00  0.00    -0.139 C  
HETATM    7  N   UNL     1      -9.129  17.287  66.989  1.00  0.00    -0.230 N  
HETATM    8  C   UNL     1      -6.747  17.480  66.382  1.00  0.00    -0.262 C  
HETATM    9  C   UNL     1     -10.382  16.822  66.676  1.00  0.00    -0.297 C  
HETATM   10  OXT UNL     1      -5.611  17.135  66.091  1.00  0.00    -0.321 OA 
HETATM   11  O   UNL     1      -7.075  18.791  66.514  1.00  0.00    -0.203 OA 
HETATM   12  CA  UNL     1     -10.873  16.909  68.140  1.00  0.00    -0.351 C  
HETATM   13  O   UNL     1     -10.801  16.360  65.639  1.00  0.00    -0.278 OA 
ENDROOT
BRANCH  12  14
HETATM   14  N   UNL     1     -11.458  15.660  68.727  1.00  0.00    -0.356 N  
HETATM   15  C   UNL     1     -11.730  15.602  70.078  1.00  0.00    -0.357 C  
HETATM   16  H   UNL     1     -11.653  14.857  68.130  1.00  0.00     0.000 HD 
HETATM   17  O   UNL     1     -11.501  16.591  70.765  1.00  0.00    -0.302 OA 
BRANCH  15  18
HETATM   18  C   UNL     1     -12.303  14.343  70.678  1.00  0.00    -0.422 A  
HETATM   19  C   UNL     1     -11.929  13.044  70.234  1.00  0.00    -0.285 A  
HETATM   20  C   UNL     1     -12.407  11.902  70.908  1.00  0.00    -0.400 A  
HETATM   21  C   UNL     1     -13.154  14.441  71.808  1.00  0.00    -0.354 A  
HETATM   22  C   UNL     1     -13.204  12.024  72.043  1.00  0.00    -0.481 A  
HETATM   23  C   UNL     1     -13.568  13.285  72.488  1.00  0.00    -0.637 A  
BRANCH  19  24
HETATM   24  O   UNL     1     -11.095  12.918  69.141  1.00  0.00    -0.243 OA 
HETATM   25  C   UNL     1     -11.631  12.181  68.036  1.00  0.00    -0.348 C  
ENDBRANCH  19  24
BRANCH  21  26
HETATM   26  O   UNL     1     -13.564  15.584  72.448  1.00  0.00    -0.452 OA 
HETATM   27  C   UNL     1     -12.978  15.852  73.720  1.00  0.00    -0.515 C  
ENDBRANCH  21  26
ENDBRANCH  15  18
ENDBRANCH  12  14
TORSDOF 4
ENDMDL
MODEL        9
REMARK 921   NORMALIZED FREE ENERGY PREDICTED BY IDOCK:   -6.42 KCAL/MOL
REMARK 922        TOTAL FREE ENERGY PREDICTED BY IDOCK:   -8.85 KCAL/MOL
REMARK 923 INTER-LIGAND FREE ENERGY PREDICTED BY IDOCK:   -7.99 KCAL/MOL
REMARK 924 INTRA-LIGAND FREE ENERGY PREDICTED BY IDOCK:   -0.86 KCAL/MOL
REMARK 927      BINDING AFFINITY PREDICTED BY RF-SCORE:    0.00 PKD
ROOT
HETATM    1  C   UNL     1     -11.935   6.769  72.030  1.00  0.00    -0.317 C  
HETATM    2  S   UNL     1     -11.599   6.522  70.244  1.00  0.00    -0.351 SA 
HETATM    3  C   UNL     1      -9.844   6.051  70.470  1.00  0.00    -0.180 C  
HETATM    4  CA  UNL     1      -9.768   5.483  71.906  1.00  0.00    -0.162 C  
HETATM    5  C   UNL     1      -8.993   7.326  70.311  1.00  0.00    -0.151 C  
HETATM    6  C   UNL     1      -9.456   5.102  69.333  1.00  0.00    -0.198 C  
HETATM    7  N   UNL     1     -10.736   6.244  72.730  1.00  0.00    -0.231 N  
HETATM    8  C   UNL     1     -10.057   3.978  72.037  1.00  0.00    -0.157 C  
HETATM    9  C   UNL     1     -10.375   7.477  73.214  1.00  0.00    -0.357 C  
HETATM   10  OXT UNL     1      -9.475   3.099  71.419  1.00  0.00    -0.126 OA 
HETATM   11  O   UNL     1     -10.978   3.678  72.990  1.00  0.00    -0.148 OA 
HETATM   12  CA  UNL     1     -11.657   8.157  72.680  1.00  0.00    -0.375 C  
HETATM   13  O   UNL     1      -9.330   7.842  73.703  1.00  0.00    -0.278 OA 
ENDROOT
BRANCH  12  14
HETATM   14  N   UNL     1     -11.464   9.359  71.806  1.00  0.00    -0.386 N  
HETATM   15  C   UNL     1     -12.525  10.208  71.566  1.00  0.00    -0.427 C  
HETATM   16  H   UNL     1     -10.553   9.549  71.390  1.00  0.00     0.000 HD 
HETATM   17  O   UNL     1     -13.603   9.962  72.096  1.00  0.00    -0.409 OA 
BRANCH  15  18
HETATM   18  C   UNL     1     -12.343  11.410  70.675  1.00  0.00    -0.466 A  
HETATM   19  C   UNL     1     -12.680  12.728  71.089  1.00  0.00    -0.263 A  
HETATM   20  C   UNL     1     -12.381  13.828  70.259  1.00  0.00    -0.407 A  
HETATM   21  C   UNL     1     -11.700  11.250  69.421  1.00  0.00    -0.339 A  
HETATM   22  C   UNL     1     -11.708  13.650  69.053  1.00  0.00    -0.375 A  
HETATM   23  C   UNL     1     -11.368  12.370  68.644  1.00  0.00    -0.332 A  
BRANCH  19  24
HETATM   24  O   UNL     1     -13.299  12.915  72.308  1.00  0.00    -0.534 OA 
HETATM   25  C   UNL     1     -13.311  14.262  72.796  1.00  0.00    -0.525 C  
ENDBRANCH  19  24
BRANCH  21  26
HETATM   26  O   UNL     1     -11.216  10.088  68.872  1.00  0.00    -0.209 OA 
HETATM   27  C   UNL     1     -10.726  10.165  67.536  1.00  0.00    -0.290 C  
ENDBRANCH  21  26
ENDBRANCH  15  18
ENDBRANCH  12  14
TORSDOF 4
ENDMDL
MODEL       10
REMARK 921   NORMALIZED FREE ENERGY PREDICTED BY IDOCK:   -6.42 KCAL/MOL
REMARK 922        TOTAL FREE ENERGY PREDICTED BY IDOCK:   -8.85 KCAL/MOL
REMARK 923 INTER-LIGAND FREE ENERGY PREDICTED BY IDOCK:   -7.95 KCAL/MOL
REMARK 924 INTRA-LIGAND FREE ENERGY PREDICTED BY IDOCK:   -0.90 KCAL/MOL
REMARK 927      BINDING AFFINITY PREDICTED BY RF-SCORE:    0.00 PKD
ROOT
HETATM    1  C   UNL     1     -11.527  15.296  67.860  1.00  0.00    -0.316 C  
HETATM    2  S   UNL     1     -10.514  15.997  69.220  1.00  0.00    -0.280 SA 
HETATM    3  C   UNL     1      -8.931  15.917  68.303  1.00  0.00    -0.184 C  
HETATM    4  CA  UNL     1      -9.334  15.969  66.811  1.00  0.00    -0.238 C  
HETATM    5  C   UNL     1      -8.246  14.587  68.667  1.00  0.00    -0.152 C  
HETATM    6  C   UNL     1      -8.030  17.046  68.812  1.00  0.00    -0.248 C  
HETATM    7  N   UNL     1     -10.627  15.257  66.682  1.00  0.00    -0.299 N  
HETATM    8  C   UNL     1      -9.465  17.380  66.211  1.00  0.00    -0.226 C  
HETATM    9  C   UNL     1     -10.628  13.886  66.620  1.00  0.00    -0.274 C  
HETATM   10  OXT UNL     1      -8.590  18.233  66.235  1.00  0.00    -0.393 OA 
HETATM   11  O   UNL     1     -10.634  17.587  65.549  1.00  0.00    -0.612 OA 
HETATM   12  CA  UNL     1     -11.686  13.751  67.739  1.00  0.00    -0.358 C  
HETATM   13  O   UNL     1      -9.898  13.136  66.011  1.00  0.00    -0.280 OA 
ENDROOT
BRANCH  12  14
HETATM   14  N   UNL     1     -11.326  12.875  68.901  1.00  0.00    -0.271 N  
HETATM   15  C   UNL     1     -11.477  11.508  68.799  1.00  0.00    -0.287 C  
HETATM   16  H   UNL     1     -10.972  13.288  69.762  1.00  0.00     0.000 HD 
HETATM   17  O   UNL     1     -11.888  11.041  67.742  1.00  0.00    -0.605 OA 
BRANCH  15  18
HETATM   18  C   UNL     1     -11.133  10.622  69.969  1.00  0.00    -0.359 A  
HETATM   19  C   UNL     1     -12.031  10.395  71.048  1.00  0.00    -0.382 A  
HETATM   20  C   UNL     1     -11.704   9.466  72.058  1.00  0.00    -0.269 A  
HETATM   21  C   UNL     1      -9.921   9.886  69.946  1.00  0.00    -0.252 A  
HETATM   22  C   UNL     1     -10.529   8.723  71.989  1.00  0.00    -0.414 A  
HETATM   23  C   UNL     1      -9.650   8.930  70.937  1.00  0.00    -0.298 A  
BRANCH  19  24
HETATM   24  O   UNL     1     -13.222  11.091  71.092  1.00  0.00    -0.280 OA 
HETATM   25  C   UNL     1     -13.266  12.183  72.019  1.00  0.00    -0.391 C  
ENDBRANCH  19  24
BRANCH  21  26
HETATM   26  O   UNL     1      -8.961   9.887  68.964  1.00  0.00    -0.142 OA 
HETATM   27  C   UNL     1      -7.696  10.450  69.303  1.00  0.00    -0.140 C  
ENDBRANCH  21  26
ENDBRANCH  15  18
ENDBRANCH  12  14
TORSDOF 4
ENDMDL
MODEL       11
REMARK 921   NORMALIZED FREE ENERGY PREDICTED BY IDOCK:   -6.40 KCAL/MOL
REMARK 922        TOTAL FREE ENERGY PREDICTED BY IDOCK:   -8.83 KCAL/MOL
REMARK 923 INTER-LIGAND FREE ENERGY PREDICTED BY IDOCK:   -8.00 KCAL/MOL
REMARK 924 INTRA-LIGAND FREE ENERGY PREDICTED BY IDOCK:   -0.83 KCAL/MOL
REMARK 927      BINDING AFFINITY PREDICTED BY RF-SCORE:    0.00 PKD
ROOT
HETATM    1  C   UNL     1     -11.907   6.693  71.910  1.00  0.00    -0.332 C  
HETATM    2  S   UNL     1     -11.407   6.412  70.168  1.00  0.00    -0.415 SA 
HETATM    3  C   UNL     1      -9.675   5.966  70.564  1.00  0.00    -0.175 C  
HETATM    4  CA  UNL     1      -9.726   5.429  72.012  1.00  0.00    -0.161 C  
HETATM    5  C   UNL     1      -8.825   7.246  70.455  1.00  0.00    -0.153 C  
HETATM    6  C   UNL     1      -9.176   4.998  69.487  1.00  0.00    -0.167 C  
HETATM    7  N   UNL     1     -10.773   6.196  72.728  1.00  0.00    -0.227 N  
HETATM    8  C   UNL     1     -10.013   3.923  72.149  1.00  0.00    -0.173 C  
HETATM    9  C   UNL     1     -10.469   7.442  73.216  1.00  0.00    -0.374 C  
HETATM   10  OXT UNL     1      -9.368   3.038  71.606  1.00  0.00    -0.105 OA 
HETATM   11  O   UNL     1     -11.014   3.633  73.020  1.00  0.00    -0.148 OA 
HETATM   12  CA  UNL     1     -11.702   8.097  72.553  1.00  0.00    -0.394 C  
HETATM   13  O   UNL     1      -9.476   7.829  73.790  1.00  0.00    -0.284 OA 
ENDROOT
BRANCH  12  14
HETATM   14  N   UNL     1     -11.441   9.283  71.674  1.00  0.00    -0.378 N  
HETATM   15  C   UNL     1     -12.431  10.225  71.484  1.00  0.00    -0.422 C  
HETATM   16  H   UNL     1     -10.536   9.393  71.218  1.00  0.00     0.000 HD 
HETATM   17  O   UNL     1     -13.502  10.073  72.062  1.00  0.00    -0.407 OA 
BRANCH  15  18
HETATM   18  C   UNL     1     -12.181  11.411  70.589  1.00  0.00    -0.484 A  
HETATM   19  C   UNL     1     -11.666  11.280  69.269  1.00  0.00    -0.334 A  
HETATM   20  C   UNL     1     -11.562  12.413  68.436  1.00  0.00    -0.373 A  
HETATM   21  C   UNL     1     -12.584  12.701  71.021  1.00  0.00    -0.262 A  
HETATM   22  C   UNL     1     -12.007  13.659  68.866  1.00  0.00    -0.392 A  
HETATM   23  C   UNL     1     -12.517  13.796  70.147  1.00  0.00    -0.332 A  
BRANCH  19  24
HETATM   24  O   UNL     1     -11.274  10.036  68.819  1.00  0.00    -0.205 OA 
HETATM   25  C   UNL     1     -10.563  10.025  67.575  1.00  0.00    -0.280 C  
ENDBRANCH  19  24
BRANCH  21  26
HETATM   26  O   UNL     1     -13.181  13.034  72.212  1.00  0.00    -0.471 OA 
HETATM   27  C   UNL     1     -14.159  14.070  72.171  1.00  0.00    -0.547 C  
ENDBRANCH  21  26
ENDBRANCH  15  18
ENDBRANCH  12  14
TORSDOF 4
ENDMDL
MODEL       12
REMARK 921   NORMALIZED FREE ENERGY PREDICTED BY IDOCK:   -6.38 KCAL/MOL
REMARK 922        TOTAL FREE ENERGY PREDICTED BY IDOCK:   -8.80 KCAL/MOL
REMARK 923 INTER-LIGAND FREE ENERGY PREDICTED BY IDOCK:   -7.90 KCAL/MOL
REMARK 924 INTRA-LIGAND FREE ENERGY PREDICTED BY IDOCK:   -0.90 KCAL/MOL
REMARK 927      BINDING AFFINITY PREDICTED BY RF-SCORE:    0.00 PKD
ROOT
HETATM    1  C   UNL     1      -9.702  13.475  66.377  1.00  0.00    -0.289 C  
HETATM    2  S   UNL     1     -10.190  12.696  64.789  1.00  0.00    -0.254 SA 
HETATM    3  C   UNL     1     -11.817  13.532  64.689  1.00  0.00    -0.394 C  
HETATM    4  CA  UNL     1     -11.646  14.831  65.510  1.00  0.00    -0.301 C  
HETATM    5  C   UNL     1     -12.866  12.592  65.313  1.00  0.00    -0.025 C  
HETATM    6  C   UNL     1     -12.176  13.696  63.210  1.00  0.00    -0.096 C  
HETATM    7  N   UNL     1     -10.721  14.524  66.627  1.00  0.00    -0.300 N  
HETATM    8  C   UNL     1     -11.115  16.044  64.726  1.00  0.00    -0.365 C  
HETATM    9  C   UNL     1     -11.213  13.898  67.746  1.00  0.00    -0.293 C  
HETATM   10  OXT UNL     1     -11.619  16.490  63.706  1.00  0.00    -1.109 OA 
HETATM   11  O   UNL     1     -10.060  16.660  65.320  1.00  0.00    -0.575 OA 
HETATM   12  CA  UNL     1     -10.118  12.807  67.721  1.00  0.00    -0.224 C  
HETATM   13  O   UNL     1     -12.242  14.092  68.354  1.00  0.00    -0.332 OA 
ENDROOT
BRANCH  12  14
HETATM   14  N   UNL     1     -10.589  11.384  67.727  1.00  0.00    -0.187 N  
HETATM   15  C   UNL     1      -9.885  10.434  68.437  1.00  0.00    -0.162 C  
HETATM   16  H   UNL     1     -11.425  11.119  67.208  1.00  0.00     0.000 HD 
HETATM   17  O   UNL     1      -8.893  10.788  69.066  1.00  0.00    -0.162 OA 
BRANCH  15  18
HETATM   18  C   UNL     1     -10.343   8.998  68.434  1.00  0.00    -0.242 A  
HETATM   19  C   UNL     1     -10.385   8.209  67.251  1.00  0.00    -0.303 A  
HETATM   20  C   UNL     1     -10.711   6.839  67.325  1.00  0.00    -0.423 A  
HETATM   21  C   UNL     1     -10.630   8.361  69.669  1.00  0.00    -0.219 A  
HETATM   22  C   UNL     1     -10.943   6.227  68.553  1.00  0.00    -0.421 A  
HETATM   23  C   UNL     1     -10.897   6.984  69.713  1.00  0.00    -0.276 A  
BRANCH  19  24
HETATM   24  O   UNL     1     -10.103   8.801  66.036  1.00  0.00    -0.228 OA 
HETATM   25  C   UNL     1      -8.787   8.560  65.522  1.00  0.00    -0.154 C  
ENDBRANCH  19  24
BRANCH  21  26
HETATM   26  O   UNL     1     -10.563   8.908  70.926  1.00  0.00    -0.204 OA 
HETATM   27  C   UNL     1     -11.785   8.990  71.656  1.00  0.00    -0.361 C  
ENDBRANCH  21  26
ENDBRANCH  15  18
ENDBRANCH  12  14
TORSDOF 4
ENDMDL
MODEL       13
REMARK 921   NORMALIZED FREE ENERGY PREDICTED BY IDOCK:   -6.33 KCAL/MOL
REMARK 922        TOTAL FREE ENERGY PREDICTED BY IDOCK:   -8.73 KCAL/MOL
REMARK 923 INTER-LIGAND FREE ENERGY PREDICTED BY IDOCK:   -7.78 KCAL/MOL
REMARK 924 INTRA-LIGAND FREE ENERGY PREDICTED BY IDOCK:   -0.96 KCAL/MOL
REMARK 927      BINDING AFFINITY PREDICTED BY RF-SCORE:    0.00 PKD
ROOT
HETATM    1  C   UNL     1      -9.127  11.731  66.339  1.00  0.00    -0.213 C  
HETATM    2  S   UNL     1      -8.611  11.577  68.092  1.00  0.00    -0.161 SA 
HETATM    3  C   UNL     1     -10.225  10.945  68.684  1.00  0.00    -0.189 C  
HETATM    4  CA  UNL     1     -10.866  10.277  67.446  1.00  0.00    -0.277 C  
HETATM    5  C   UNL     1     -11.047  12.151  69.177  1.00  0.00    -0.263 C  
HETATM    6  C   UNL     1      -9.967  10.046  69.896  1.00  0.00    -0.280 C  
HETATM    7  N   UNL     1     -10.448  11.060  66.260  1.00  0.00    -0.255 N  
HETATM    8  C   UNL     1     -10.506   8.796  67.234  1.00  0.00    -0.283 C  
HETATM    9  C   UNL     1     -11.115  12.222  65.960  1.00  0.00    -0.309 C  
HETATM   10  OXT UNL     1     -10.659   7.915  68.068  1.00  0.00    -0.200 OA 
HETATM   11  O   UNL     1     -10.075   8.512  65.978  1.00  0.00    -0.154 OA 
HETATM   12  CA  UNL     1      -9.810  13.042  65.850  1.00  0.00    -0.237 C  
HETATM   13  O   UNL     1     -12.301  12.463  65.980  1.00  0.00    -0.627 OA 
ENDROOT
BRANCH  12  14
HETATM   14  N   UNL     1      -9.723  14.281  66.690  1.00  0.00    -0.276 N  
HETATM   15  C   UNL     1      -9.935  15.516  66.113  1.00  0.00    -0.309 C  
HETATM   16  H   UNL     1      -9.507  14.211  67.684  1.00  0.00     0.000 HD 
HETATM   17  O   UNL     1     -10.211  15.565  64.919  1.00  0.00    -0.374 OA 
BRANCH  15  18
HETATM   18  C   UNL     1      -9.833  16.766  66.949  1.00  0.00    -0.269 A  
HETATM   19  C   UNL     1     -10.625  16.976  68.112  1.00  0.00    -0.369 A  
HETATM   20  C   UNL     1     -10.406  18.111  68.921  1.00  0.00    -0.217 A  
HETATM   21  C   UNL     1      -8.831  17.722  66.644  1.00  0.00    -0.264 A  
HETATM   22  C   UNL     1      -9.385  19.010  68.626  1.00  0.00    -0.428 A  
HETATM   23  C   UNL     1      -8.603  18.811  67.499  1.00  0.00    -0.292 A  
BRANCH  19  24
HETATM   24  O   UNL     1     -11.602  16.058  68.439  1.00  0.00    -0.364 OA 
HETATM   25  C   UNL     1     -11.684  15.709  69.826  1.00  0.00    -0.357 C  
ENDBRANCH  19  24
BRANCH  21  26
HETATM   26  O   UNL     1      -7.909  17.670  65.628  1.00  0.00    -0.533 OA 
HETATM   27  C   UNL     1      -6.794  18.552  65.728  1.00  0.00    -0.275 C  
ENDBRANCH  21  26
ENDBRANCH  15  18
ENDBRANCH  12  14
TORSDOF 4
ENDMDL
MODEL       14
REMARK 921   NORMALIZED FREE ENERGY PREDICTED BY IDOCK:   -6.31 KCAL/MOL
REMARK 922        TOTAL FREE ENERGY PREDICTED BY IDOCK:   -8.72 KCAL/MOL
REMARK 923 INTER-LIGAND FREE ENERGY PREDICTED BY IDOCK:   -7.79 KCAL/MOL
REMARK 924 INTRA-LIGAND FREE ENERGY PREDICTED BY IDOCK:   -0.93 KCAL/MOL
REMARK 927      BINDING AFFINITY PREDICTED BY RF-SCORE:    0.00 PKD
ROOT
HETATM    1  C   UNL     1     -12.276  13.019  66.218  1.00  0.00    -0.320 C  
HETATM    2  S   UNL     1     -11.784  14.239  67.496  1.00  0.00    -0.392 SA 
HETATM    3  C   UNL     1     -10.353  14.892  66.557  1.00  0.00    -0.293 C  
HETATM    4  CA  UNL     1     -10.693  14.616  65.075  1.00  0.00    -0.430 C  
HETATM    5  C   UNL     1      -9.101  14.118  67.013  1.00  0.00    -0.255 C  
HETATM    6  C   UNL     1     -10.151  16.356  66.956  1.00  0.00    -0.272 C  
HETATM    7  N   UNL     1     -11.451  13.343  65.028  1.00  0.00    -0.304 N  
HETATM    8  C   UNL     1     -11.500  15.717  64.365  1.00  0.00    -0.263 C  
HETATM    9  C   UNL     1     -10.764  12.156  65.077  1.00  0.00    -0.297 C  
HETATM   10  OXT UNL     1     -11.171  16.893  64.303  1.00  0.00    -1.204 OA 
HETATM   11  O   UNL     1     -12.599  15.257  63.713  1.00  0.00    -0.733 OA 
HETATM   12  CA  UNL     1     -11.637  11.599  66.224  1.00  0.00    -0.043 C  
HETATM   13  O   UNL     1      -9.742  11.828  64.516  1.00  0.00    -0.223 OA 
ENDROOT
BRANCH  12  14
HETATM   14  N   UNL     1     -10.913  11.117  67.445  1.00  0.00    -0.272 N  
HETATM   15  C   UNL     1     -10.533   9.794  67.538  1.00  0.00    -0.251 C  
HETATM   16  H   UNL     1     -10.703  11.764  68.205  1.00  0.00     0.000 HD 
HETATM   17  O   UNL     1     -10.784   9.045  66.600  1.00  0.00    -0.159 OA 
BRANCH  15  18
HETATM   18  C   UNL     1      -9.819   9.299  68.770  1.00  0.00    -0.174 A  
HETATM   19  C   UNL     1      -8.465   8.863  68.747  1.00  0.00    -0.131 A  
HETATM   20  C   UNL     1      -7.813   8.520  69.950  1.00  0.00    -0.096 A  
HETATM   21  C   UNL     1     -10.472   9.379  70.026  1.00  0.00    -0.234 A  
HETATM   22  C   UNL     1      -8.460   8.652  71.175  1.00  0.00    -0.211 A  
HETATM   23  C   UNL     1      -9.777   9.083  71.209  1.00  0.00    -0.371 A  
BRANCH  19  24
HETATM   24  O   UNL     1      -7.802   8.783  67.540  1.00  0.00    -0.100 OA 
HETATM   25  C   UNL     1      -7.472   7.459  67.102  1.00  0.00    -0.106 C  
ENDBRANCH  19  24
BRANCH  21  26
HETATM   26  O   UNL     1     -11.735   9.851  70.283  1.00  0.00    -0.253 OA 
HETATM   27  C   UNL     1     -12.191   9.765  71.631  1.00  0.00    -0.404 C  
ENDBRANCH  21  26
ENDBRANCH  15  18
ENDBRANCH  12  14
TORSDOF 4
ENDMDL
MODEL       15
REMARK 921   NORMALIZED FREE ENERGY PREDICTED BY IDOCK:   -6.28 KCAL/MOL
REMARK 922        TOTAL FREE ENERGY PREDICTED BY IDOCK:   -8.67 KCAL/MOL
REMARK 923 INTER-LIGAND FREE ENERGY PREDICTED BY IDOCK:   -7.71 KCAL/MOL
REMARK 924 INTRA-LIGAND FREE ENERGY PREDICTED BY IDOCK:   -0.96 KCAL/MOL
REMARK 927      BINDING AFFINITY PREDICTED BY RF-SCORE:    0.00 PKD
ROOT
HETATM    1  C   UNL     1      -9.561  13.542  66.610  1.00  0.00    -0.278 C  
HETATM    2  S   UNL     1      -9.968  12.730  65.017  1.00  0.00    -0.087 SA 
HETATM    3  C   UNL     1     -11.607  13.527  64.840  1.00  0.00    -0.335 C  
HETATM    4  CA  UNL     1     -11.498  14.840  65.648  1.00  0.00    -0.327 C  
HETATM    5  C   UNL     1     -12.659  12.571  65.435  1.00  0.00    -0.157 C  
HETATM    6  C   UNL     1     -11.911  13.661  63.345  1.00  0.00    -0.202 C  
HETATM    7  N   UNL     1     -10.613  14.570  66.805  1.00  0.00    -0.273 N  
HETATM    8  C   UNL     1     -10.964  16.054  64.867  1.00  0.00    -0.384 C  
HETATM    9  C   UNL     1     -11.134  13.949  67.912  1.00  0.00    -0.258 C  
HETATM   10  OXT UNL     1     -11.437  16.474  63.822  1.00  0.00    -1.065 OA 
HETATM   11  O   UNL     1      -9.948  16.703  65.493  1.00  0.00    -0.552 OA 
HETATM   12  CA  UNL     1     -10.015  12.883  67.947  1.00  0.00    -0.233 C  
HETATM   13  O   UNL     1     -12.191  14.127  68.476  1.00  0.00    -0.311 OA 
ENDROOT
BRANCH  12  14
HETATM   14  N   UNL     1     -10.453  11.450  67.956  1.00  0.00    -0.182 N  
HETATM   15  C   UNL     1      -9.589  10.472  68.403  1.00  0.00    -0.160 C  
HETATM   16  H   UNL     1     -11.387  11.198  67.632  1.00  0.00     0.000 HD 
HETATM   17  O   UNL     1      -8.479  10.810  68.802  1.00  0.00    -0.135 OA 
BRANCH  15  18
HETATM   18  C   UNL     1     -10.017   9.027  68.399  1.00  0.00    -0.200 A  
HETATM   19  C   UNL     1     -10.357   8.326  69.589  1.00  0.00    -0.218 A  
HETATM   20  C   UNL     1     -10.862   7.011  69.515  1.00  0.00    -0.265 A  
HETATM   21  C   UNL     1     -10.208   8.366  67.159  1.00  0.00    -0.292 A  
HETATM   22  C   UNL     1     -11.085   6.401  68.285  1.00  0.00    -0.359 A  
HETATM   23  C   UNL     1     -10.764   7.078  67.119  1.00  0.00    -0.433 A  
BRANCH  19  24
HETATM   24  O   UNL     1     -10.188   8.948  70.810  1.00  0.00    -0.197 OA 
HETATM   25  C   UNL     1     -11.395   9.352  71.469  1.00  0.00    -0.394 C  
ENDBRANCH  19  24
BRANCH  21  26
HETATM   26  O   UNL     1     -10.028   8.883  65.900  1.00  0.00    -0.245 OA 
HETATM   27  C   UNL     1      -8.756   8.669  65.294  1.00  0.00    -0.165 C  
ENDBRANCH  21  26
ENDBRANCH  15  18
ENDBRANCH  12  14
TORSDOF 4
ENDMDL
MODEL       16
REMARK 921   NORMALIZED FREE ENERGY PREDICTED BY IDOCK:   -6.28 KCAL/MOL
REMARK 922        TOTAL FREE ENERGY PREDICTED BY IDOCK:   -8.67 KCAL/MOL
REMARK 923 INTER-LIGAND FREE ENERGY PREDICTED BY IDOCK:   -7.90 KCAL/MOL
REMARK 924 INTRA-LIGAND FREE ENERGY PREDICTED BY IDOCK:   -0.77 KCAL/MOL
REMARK 927      BINDING AFFINITY PREDICTED BY RF-SCORE:    0.00 PKD
ROOT
HETATM    1  C   UNL     1     -10.252  18.091  67.246  1.00  0.00    -0.364 C  
HETATM    2  S   UNL     1      -9.593  18.524  68.902  1.00  0.00    -0.221 SA 
HETATM    3  C   UNL     1      -7.891  17.941  68.559  1.00  0.00    -0.298 C  
HETATM    4  CA  UNL     1      -7.739  18.042  67.024  1.00  0.00    -0.216 C  
HETATM    5  C   UNL     1      -7.786  16.485  69.052  1.00  0.00    -0.226 C  
HETATM    6  C   UNL     1      -6.924  18.776  69.403  1.00  0.00    -0.180 C  
HETATM    7  N   UNL     1      -9.063  17.736  66.432  1.00  0.00    -0.258 N  
HETATM    8  C   UNL     1      -7.245  19.401  66.497  1.00  0.00    -0.229 C  
HETATM    9  C   UNL     1      -9.444  16.425  66.294  1.00  0.00    -0.317 C  
HETATM   10  OXT UNL     1      -6.220  19.959  66.859  1.00  0.00    -0.182 OA 
HETATM   11  O   UNL     1      -8.012  19.912  65.498  1.00  0.00    -0.353 OA 
HETATM   12  CA  UNL     1     -10.805  16.658  66.989  1.00  0.00    -0.091 C  
HETATM   13  O   UNL     1      -8.805  15.467  65.920  1.00  0.00    -0.254 OA 
ENDROOT
BRANCH  12  14
HETATM   14  N   UNL     1     -11.125  15.767  68.152  1.00  0.00    -0.328 N  
HETATM   15  C   UNL     1     -11.855  14.615  67.950  1.00  0.00    -0.320 C  
HETATM   16  H   UNL     1     -10.805  16.013  69.088  1.00  0.00     0.000 HD 
HETATM   17  O   UNL     1     -12.209  14.338  66.809  1.00  0.00    -0.441 OA 
BRANCH  15  18
HETATM   18  C   UNL     1     -12.195  13.723  69.117  1.00  0.00    -0.289 A  
HETATM   19  C   UNL     1     -12.063  12.308  69.064  1.00  0.00    -0.145 A  
HETATM   20  C   UNL     1     -12.284  11.533  70.221  1.00  0.00    -0.415 A  
HETATM   21  C   UNL     1     -12.545  14.313  70.359  1.00  0.00    -0.343 A  
HETATM   22  C   UNL     1     -12.581  12.138  71.439  1.00  0.00    -0.314 A  
HETATM   23  C   UNL     1     -12.704  13.517  71.504  1.00  0.00    -0.412 A  
BRANCH  19  24
HETATM   24  O   UNL     1     -11.716  11.707  67.871  1.00  0.00    -0.459 OA 
HETATM   25  C   UNL     1     -11.133  10.403  67.982  1.00  0.00    -0.298 C  
ENDBRANCH  19  24
BRANCH  21  26
HETATM   26  O   UNL     1     -12.641  15.651  70.651  1.00  0.00    -0.437 OA 
HETATM   27  C   UNL     1     -11.825  16.135  71.714  1.00  0.00    -0.506 C  
ENDBRANCH  21  26
ENDBRANCH  15  18
ENDBRANCH  12  14
TORSDOF 4
ENDMDL
MODEL       17
REMARK 921   NORMALIZED FREE ENERGY PREDICTED BY IDOCK:   -6.18 KCAL/MOL
REMARK 922        TOTAL FREE ENERGY PREDICTED BY IDOCK:   -8.55 KCAL/MOL
REMARK 923 INTER-LIGAND FREE ENERGY PREDICTED BY IDOCK:   -7.71 KCAL/MOL
REMARK 924 INTRA-LIGAND FREE ENERGY PREDICTED BY IDOCK:   -0.85 KCAL/MOL
REMARK 927      BINDING AFFINITY PREDICTED BY RF-SCORE:    0.00 PKD
ROOT
HETATM    1  C   UNL     1     -11.358  16.077  67.868  1.00  0.00    -0.218 C  
HETATM    2  S   UNL     1     -10.017  16.150  69.118  1.00  0.00    -0.262 SA 
HETATM    3  C   UNL     1      -8.667  16.359  67.899  1.00  0.00    -0.179 C  
HETATM    4  CA  UNL     1      -9.342  17.003  66.666  1.00  0.00    -0.255 C  
HETATM    5  C   UNL     1      -8.103  14.961  67.580  1.00  0.00    -0.200 C  
HETATM    6  C   UNL     1      -7.544  17.159  68.565  1.00  0.00    -0.245 C  
HETATM    7  N   UNL     1     -10.717  16.457  66.585  1.00  0.00    -0.233 N  
HETATM    8  C   UNL     1      -9.403  18.541  66.674  1.00  0.00    -0.310 C  
HETATM    9  C   UNL     1     -10.910  15.218  66.025  1.00  0.00    -0.330 C  
HETATM   10  OXT UNL     1      -8.436  19.277  66.808  1.00  0.00    -0.280 OA 
HETATM   11  O   UNL     1     -10.641  19.041  66.423  1.00  0.00    -0.415 OA 
HETATM   12  CA  UNL     1     -11.737  14.709  67.228  1.00  0.00    -0.385 C  
HETATM   13  O   UNL     1     -10.416  14.730  65.034  1.00  0.00    -0.397 OA 
ENDROOT
BRANCH  12  14
HETATM   14  N   UNL     1     -11.275  13.436  67.870  1.00  0.00    -0.263 N  
HETATM   15  C   UNL     1     -11.647  12.223  67.329  1.00  0.00    -0.357 C  
HETATM   16  H   UNL     1     -10.689  13.466  68.703  1.00  0.00     0.000 HD 
HETATM   17  O   UNL     1     -12.338  12.220  66.315  1.00  0.00    -0.556 OA 
BRANCH  15  18
HETATM   18  C   UNL     1     -11.200  10.938  67.979  1.00  0.00    -0.378 A  
HETATM   19  C   UNL     1     -10.409   9.971  67.299  1.00  0.00    -0.237 A  
HETATM   20  C   UNL     1      -9.922   8.843  67.991  1.00  0.00    -0.215 A  
HETATM   21  C   UNL     1     -11.469  10.730  69.356  1.00  0.00    -0.295 A  
HETATM   22  C   UNL     1     -10.160   8.684  69.353  1.00  0.00    -0.204 A  
HETATM   23  C   UNL     1     -10.923   9.625  70.027  1.00  0.00    -0.297 A  
BRANCH  19  24
HETATM   24  O   UNL     1     -10.125  10.151  65.960  1.00  0.00    -0.246 OA 
HETATM   25  C   UNL     1      -8.797  10.600  65.665  1.00  0.00    -0.186 C  
ENDBRANCH  19  24
BRANCH  21  26
HETATM   26  O   UNL     1     -12.131  11.572  70.214  1.00  0.00    -0.329 OA 
HETATM   27  C   UNL     1     -12.890  10.960  71.255  1.00  0.00    -0.433 C  
ENDBRANCH  21  26
ENDBRANCH  15  18
ENDBRANCH  12  14
TORSDOF 4
ENDMDL
MODEL       18
REMARK 921   NORMALIZED FREE ENERGY PREDICTED BY IDOCK:   -6.16 KCAL/MOL
REMARK 922        TOTAL FREE ENERGY PREDICTED BY IDOCK:   -8.52 KCAL/MOL
REMARK 923 INTER-LIGAND FREE ENERGY PREDICTED BY IDOCK:   -7.65 KCAL/MOL
REMARK 924 INTRA-LIGAND FREE ENERGY PREDICTED BY IDOCK:   -0.87 KCAL/MOL
REMARK 927      BINDING AFFINITY PREDICTED BY RF-SCORE:    0.00 PKD
ROOT
HETATM    1  C   UNL     1     -11.743   7.564  71.757  1.00  0.00    -0.284 C  
HETATM    2  S   UNL     1     -11.661   6.675  70.155  1.00  0.00    -0.339 SA 
HETATM    3  C   UNL     1      -9.982   5.997  70.429  1.00  0.00    -0.184 C  
HETATM    4  CA  UNL     1      -9.824   5.940  71.965  1.00  0.00    -0.157 C  
HETATM    5  C   UNL     1      -8.974   6.967  69.783  1.00  0.00    -0.141 C  
HETATM    6  C   UNL     1      -9.878   4.668  69.676  1.00  0.00    -0.293 C  
HETATM    7  N   UNL     1     -10.563   7.096  72.525  1.00  0.00    -0.226 N  
HETATM    8  C   UNL     1     -10.319   4.645  72.633  1.00  0.00    -0.196 C  
HETATM    9  C   UNL     1      -9.966   8.332  72.524  1.00  0.00    -0.303 C  
HETATM   10  OXT UNL     1      -9.952   3.519  72.330  1.00  0.00    -0.154 OA 
HETATM   11  O   UNL     1     -11.155   4.856  73.683  1.00  0.00    -0.311 OA 
HETATM   12  CA  UNL     1     -11.184   9.014  71.861  1.00  0.00    -0.368 C  
HETATM   13  O   UNL     1      -8.827   8.644  72.792  1.00  0.00    -0.374 OA 
ENDROOT
BRANCH  12  14
HETATM   14  N   UNL     1     -10.917   9.798  70.611  1.00  0.00    -0.307 N  
HETATM   15  C   UNL     1     -11.863  10.687  70.146  1.00  0.00    -0.337 C  
HETATM   16  H   UNL     1     -10.040   9.673  70.106  1.00  0.00     0.000 HD 
HETATM   17  O   UNL     1     -12.900  10.828  70.786  1.00  0.00    -0.345 OA 
BRANCH  15  18
HETATM   18  C   UNL     1     -11.608  11.466  68.881  1.00  0.00    -0.388 A  
HETATM   19  C   UNL     1     -11.203  10.844  67.667  1.00  0.00    -0.309 A  
HETATM   20  C   UNL     1     -11.092  11.605  66.485  1.00  0.00    -0.357 A  
HETATM   21  C   UNL     1     -11.896  12.854  68.853  1.00  0.00    -0.309 A  
HETATM   22  C   UNL     1     -11.424  12.957  66.473  1.00  0.00    -0.390 A  
HETATM   23  C   UNL     1     -11.828  13.571  67.649  1.00  0.00    -0.399 A  
BRANCH  19  24
HETATM   24  O   UNL     1     -10.925   9.492  67.662  1.00  0.00    -0.248 OA 
HETATM   25  C   UNL     1     -10.156   9.024  66.547  1.00  0.00    -0.283 C  
ENDBRANCH  19  24
BRANCH  21  26
HETATM   26  O   UNL     1     -12.379  13.628  69.879  1.00  0.00    -0.310 OA 
HETATM   27  C   UNL     1     -11.960  14.990  69.909  1.00  0.00    -0.334 C  
ENDBRANCH  21  26
ENDBRANCH  15  18
ENDBRANCH  12  14
TORSDOF 4
ENDMDL
MODEL       19
REMARK 921   NORMALIZED FREE ENERGY PREDICTED BY IDOCK:   -6.06 KCAL/MOL
REMARK 922        TOTAL FREE ENERGY PREDICTED BY IDOCK:   -8.40 KCAL/MOL
REMARK 923 INTER-LIGAND FREE ENERGY PREDICTED BY IDOCK:   -7.46 KCAL/MOL
REMARK 924 INTRA-LIGAND FREE ENERGY PREDICTED BY IDOCK:   -0.94 KCAL/MOL
REMARK 927      BINDING AFFINITY PREDICTED BY RF-SCORE:    0.00 PKD
ROOT
HETATM    1  C   UNL     1     -12.076  13.012  66.537  1.00  0.00    -0.341 C  
HETATM    2  S   UNL     1     -11.523  14.275  67.747  1.00  0.00    -0.347 SA 
HETATM    3  C   UNL     1     -10.169  14.925  66.698  1.00  0.00    -0.261 C  
HETATM    4  CA  UNL     1     -10.600  14.602  65.250  1.00  0.00    -0.391 C  
HETATM    5  C   UNL     1      -8.876  14.184  67.091  1.00  0.00    -0.241 C  
HETATM    6  C   UNL     1      -9.968  16.403  67.044  1.00  0.00    -0.261 C  
HETATM    7  N   UNL     1     -11.336  13.317  65.287  1.00  0.00    -0.292 N  
HETATM    8  C   UNL     1     -11.472  15.671  64.566  1.00  0.00    -0.300 C  
HETATM    9  C   UNL     1     -10.626  12.143  65.322  1.00  0.00    -0.281 C  
HETATM   10  OXT UNL     1     -11.170  16.849  64.451  1.00  0.00    -1.159 OA 
HETATM   11  O   UNL     1     -12.603  15.174  64.000  1.00  0.00    -0.791 OA 
HETATM   12  CA  UNL     1     -11.411  11.603  66.539  1.00  0.00    -0.187 C  
HETATM   13  O   UNL     1      -9.637  11.817  64.704  1.00  0.00    -0.189 OA 
ENDROOT
BRANCH  12  14
HETATM   14  N   UNL     1     -10.600  11.167  67.722  1.00  0.00    -0.197 N  
HETATM   15  C   UNL     1     -10.270   9.836  67.872  1.00  0.00    -0.194 C  
HETATM   16  H   UNL     1     -10.294  11.851  68.412  1.00  0.00     0.000 HD 
HETATM   17  O   UNL     1     -10.638   9.041  67.014  1.00  0.00    -0.261 OA 
BRANCH  15  18
HETATM   18  C   UNL     1      -9.469   9.388  69.067  1.00  0.00    -0.160 A  
HETATM   19  C   UNL     1      -8.290  10.060  69.494  1.00  0.00    -0.172 A  
HETATM   20  C   UNL     1      -7.645   9.668  70.686  1.00  0.00    -0.104 A  
HETATM   21  C   UNL     1      -9.964   8.334  69.876  1.00  0.00    -0.190 A  
HETATM   22  C   UNL     1      -8.177   8.662  71.487  1.00  0.00    -0.209 A  
HETATM   23  C   UNL     1      -9.330   8.006  71.084  1.00  0.00    -0.176 A  
BRANCH  19  24
HETATM   24  O   UNL     1      -7.789  11.095  68.731  1.00  0.00    -0.129 OA 
HETATM   25  C   UNL     1      -6.845  11.948  69.389  1.00  0.00    -0.048 C  
ENDBRANCH  19  24
BRANCH  21  26
HETATM   26  O   UNL     1     -11.121   7.618  69.698  1.00  0.00    -0.186 OA 
HETATM   27  C   UNL     1     -11.019   6.199  69.794  1.00  0.00    -0.390 C  
ENDBRANCH  21  26
ENDBRANCH  15  18
ENDBRANCH  12  14
TORSDOF 4
ENDMDL
MODEL       20
REMARK 921   NORMALIZED FREE ENERGY PREDICTED BY IDOCK:   -6.05 KCAL/MOL
REMARK 922        TOTAL FREE ENERGY PREDICTED BY IDOCK:   -8.40 KCAL/MOL
REMARK 923 INTER-LIGAND FREE ENERGY PREDICTED BY IDOCK:   -7.54 KCAL/MOL
REMARK 924 INTRA-LIGAND FREE ENERGY PREDICTED BY IDOCK:   -0.86 KCAL/MOL
REMARK 927      BINDING AFFINITY PREDICTED BY RF-SCORE:    0.00 PKD
ROOT
HETATM    1  C   UNL     1      -9.126  11.680  66.364  1.00  0.00    -0.206 C  
HETATM    2  S   UNL     1      -8.613  11.525  68.118  1.00  0.00    -0.161 SA 
HETATM    3  C   UNL     1     -10.233  10.909  68.709  1.00  0.00    -0.196 C  
HETATM    4  CA  UNL     1     -10.879  10.244  67.472  1.00  0.00    -0.298 C  
HETATM    5  C   UNL     1     -11.046  12.122  69.199  1.00  0.00    -0.263 C  
HETATM    6  C   UNL     1      -9.985  10.009  69.923  1.00  0.00    -0.280 C  
HETATM    7  N   UNL     1     -10.454  11.021  66.285  1.00  0.00    -0.255 N  
HETATM    8  C   UNL     1     -10.533   8.759  67.263  1.00  0.00    -0.283 C  
HETATM    9  C   UNL     1     -11.109  12.189  65.982  1.00  0.00    -0.313 C  
HETATM   10  OXT UNL     1     -10.694   7.881  68.097  1.00  0.00    -0.152 OA 
HETATM   11  O   UNL     1     -10.103   8.470  66.007  1.00  0.00    -0.154 OA 
HETATM   12  CA  UNL     1      -9.796  12.998  65.873  1.00  0.00    -0.237 C  
HETATM   13  O   UNL     1     -12.293  12.440  66.001  1.00  0.00    -0.627 OA 
ENDROOT
BRANCH  12  14
HETATM   14  N   UNL     1      -9.699  14.236  66.711  1.00  0.00    -0.265 N  
HETATM   15  C   UNL     1      -9.831  15.475  66.119  1.00  0.00    -0.316 C  
HETATM   16  H   UNL     1      -9.536  14.163  67.715  1.00  0.00     0.000 HD 
HETATM   17  O   UNL     1     -10.045  15.529  64.913  1.00  0.00    -0.351 OA 
BRANCH  15  18
HETATM   18  C   UNL     1      -9.718  16.726  66.954  1.00  0.00    -0.263 A  
HETATM   19  C   UNL     1      -8.816  17.779  66.637  1.00  0.00    -0.264 A  
HETATM   20  C   UNL     1      -8.834  18.975  67.384  1.00  0.00    -0.312 A  
HETATM   21  C   UNL     1     -10.623  16.925  68.027  1.00  0.00    -0.367 A  
HETATM   22  C   UNL     1      -9.763  19.165  68.403  1.00  0.00    -0.451 A  
HETATM   23  C   UNL     1     -10.652  18.148  68.715  1.00  0.00     0.009 A  
BRANCH  19  24
HETATM   24  O   UNL     1      -7.928  17.616  65.592  1.00  0.00    -0.529 OA 
HETATM   25  C   UNL     1      -6.583  18.035  65.852  1.00  0.00    -0.284 C  
ENDBRANCH  19  24
BRANCH  21  26
HETATM   26  O   UNL     1     -11.624  16.083  68.442  1.00  0.00    -0.364 OA 
HETATM   27  C   UNL     1     -11.648  15.747  69.828  1.00  0.00    -0.355 C  
ENDBRANCH  21  26
ENDBRANCH  15  18
ENDBRANCH  12  14
TORSDOF 4
ENDMDL
MODEL       21
REMARK 921   NORMALIZED FREE ENERGY PREDICTED BY IDOCK:   -6.01 KCAL/MOL
REMARK 922        TOTAL FREE ENERGY PREDICTED BY IDOCK:   -8.34 KCAL/MOL
REMARK 923 INTER-LIGAND FREE ENERGY PREDICTED BY IDOCK:   -7.54 KCAL/MOL
REMARK 924 INTRA-LIGAND FREE ENERGY PREDICTED BY IDOCK:   -0.80 KCAL/MOL
REMARK 927      BINDING AFFINITY PREDICTED BY RF-SCORE:    0.00 PKD
ROOT
HETATM    1  C   UNL     1      -9.156  15.435  66.990  1.00  0.00    -0.227 C  
HETATM    2  S   UNL     1     -10.740  16.358  67.049  1.00  0.00    -0.150 SA 
HETATM    3  C   UNL     1     -10.055  17.803  67.942  1.00  0.00    -0.342 C  
HETATM    4  CA  UNL     1      -8.550  17.809  67.589  1.00  0.00    -0.230 C  
HETATM    5  C   UNL     1     -10.291  17.577  69.448  1.00  0.00    -0.067 C  
HETATM    6  C   UNL     1     -10.863  19.038  67.537  1.00  0.00    -0.478 C  
HETATM    7  N   UNL     1      -8.125  16.396  67.454  1.00  0.00    -0.147 N  
HETATM    8  C   UNL     1      -8.174  18.580  66.311  1.00  0.00    -0.225 C  
HETATM    9  C   UNL     1      -7.842  15.675  68.587  1.00  0.00    -0.152 C  
HETATM   10  OXT UNL     1      -8.460  19.749  66.092  1.00  0.00    -0.355 OA 
HETATM   11  O   UNL     1      -7.397  17.871  65.453  1.00  0.00    -0.453 OA 
HETATM   12  CA  UNL     1      -8.764  14.504  68.175  1.00  0.00    -0.171 C  
HETATM   13  O   UNL     1      -7.229  15.998  69.579  1.00  0.00    -0.215 OA 
ENDROOT
BRANCH  12  14
HETATM   14  N   UNL     1      -9.807  14.090  69.169  1.00  0.00    -0.426 N  
HETATM   15  C   UNL     1     -10.567  12.964  68.933  1.00  0.00    -0.123 C  
HETATM   16  H   UNL     1      -9.953  14.638  70.016  1.00  0.00     0.000 HD 
HETATM   17  O   UNL     1     -10.354  12.315  67.914  1.00  0.00    -0.199 OA 
BRANCH  15  18
HETATM   18  C   UNL     1     -11.629  12.550  69.920  1.00  0.00    -0.242 A  
HETATM   19  C   UNL     1     -11.809  11.200  70.331  1.00  0.00    -0.369 A  
HETATM   20  C   UNL     1     -12.739  10.887  71.343  1.00  0.00    -0.539 A  
HETATM   21  C   UNL     1     -12.404  13.550  70.561  1.00  0.00    -0.342 A  
HETATM   22  C   UNL     1     -13.455  11.891  71.990  1.00  0.00    -0.336 A  
HETATM   23  C   UNL     1     -13.282  13.210  71.602  1.00  0.00    -0.435 A  
BRANCH  19  24
HETATM   24  O   UNL     1     -11.062  10.207  69.730  1.00  0.00    -0.246 OA 
HETATM   25  C   UNL     1     -10.217   9.452  70.608  1.00  0.00    -0.288 C  
ENDBRANCH  19  24
BRANCH  21  26
HETATM   26  O   UNL     1     -12.330  14.908  70.380  1.00  0.00    -0.307 OA 
HETATM   27  C   UNL     1     -13.158  15.714  71.215  1.00  0.00    -0.473 C  
ENDBRANCH  21  26
ENDBRANCH  15  18
ENDBRANCH  12  14
TORSDOF 4
ENDMDL
MODEL       22
REMARK 921   NORMALIZED FREE ENERGY PREDICTED BY IDOCK:   -5.96 KCAL/MOL
REMARK 922        TOTAL FREE ENERGY PREDICTED BY IDOCK:   -8.27 KCAL/MOL
REMARK 923 INTER-LIGAND FREE ENERGY PREDICTED BY IDOCK:   -7.32 KCAL/MOL
REMARK 924 INTRA-LIGAND FREE ENERGY PREDICTED BY IDOCK:   -0.95 KCAL/MOL
REMARK 927      BINDING AFFINITY PREDICTED BY RF-SCORE:    0.00 PKD
ROOT
HETATM    1  C   UNL     1     -11.787   7.545  71.838  1.00  0.00    -0.296 C  
HETATM    2  S   UNL     1     -11.737   6.721  70.200  1.00  0.00    -0.246 SA 
HETATM    3  C   UNL     1     -10.061   6.015  70.423  1.00  0.00    -0.194 C  
HETATM    4  CA  UNL     1      -9.884   5.894  71.954  1.00  0.00    -0.162 C  
HETATM    5  C   UNL     1      -9.052   7.000  69.804  1.00  0.00    -0.144 C  
HETATM    6  C   UNL     1      -9.982   4.716  69.616  1.00  0.00    -0.281 C  
HETATM    7  N   UNL     1     -10.602   7.033  72.570  1.00  0.00    -0.214 N  
HETATM    8  C   UNL     1     -10.384   4.578  72.576  1.00  0.00    -0.195 C  
HETATM    9  C   UNL     1      -9.992   8.262  72.611  1.00  0.00    -0.287 C  
HETATM   10  OXT UNL     1     -10.033   3.462  72.222  1.00  0.00    -0.152 OA 
HETATM   11  O   UNL     1     -11.204   4.754  73.644  1.00  0.00    -0.319 OA 
HETATM   12  CA  UNL     1     -11.212   8.984  71.993  1.00  0.00    -0.309 C  
HETATM   13  O   UNL     1      -8.847   8.551  72.876  1.00  0.00    -0.320 OA 
ENDROOT
BRANCH  12  14
HETATM   14  N   UNL     1     -10.953   9.814  70.773  1.00  0.00    -0.315 N  
HETATM   15  C   UNL     1     -11.987  10.520  70.194  1.00  0.00    -0.316 C  
HETATM   16  H   UNL     1     -10.017   9.857  70.372  1.00  0.00     0.000 HD 
HETATM   17  O   UNL     1     -13.098  10.463  70.711  1.00  0.00    -0.385 OA 
BRANCH  15  18
HETATM   18  C   UNL     1     -11.738  11.345  68.957  1.00  0.00    -0.409 A  
HETATM   19  C   UNL     1     -11.831  12.764  68.951  1.00  0.00    -0.308 A  
HETATM   20  C   UNL     1     -11.474  13.491  67.796  1.00  0.00    -0.349 A  
HETATM   21  C   UNL     1     -11.275  10.703  67.780  1.00  0.00    -0.313 A  
HETATM   22  C   UNL     1     -10.978  12.842  66.669  1.00  0.00    -0.300 A  
HETATM   23  C   UNL     1     -10.877  11.460  66.667  1.00  0.00    -0.339 A  
BRANCH  19  24
HETATM   24  O   UNL     1     -12.270  13.417  70.085  1.00  0.00    -0.331 OA 
HETATM   25  C   UNL     1     -12.176  14.846  70.052  1.00  0.00    -0.333 C  
ENDBRANCH  19  24
BRANCH  21  26
HETATM   26  O   UNL     1     -11.031   9.364  67.599  1.00  0.00    -0.223 OA 
HETATM   27  C   UNL     1     -10.000   9.018  66.678  1.00  0.00    -0.278 C  
ENDBRANCH  21  26
ENDBRANCH  15  18
ENDBRANCH  12  14
TORSDOF 4
ENDMDL
MODEL       23
REMARK 921   NORMALIZED FREE ENERGY PREDICTED BY IDOCK:   -5.82 KCAL/MOL
REMARK 922        TOTAL FREE ENERGY PREDICTED BY IDOCK:   -8.10 KCAL/MOL
REMARK 923 INTER-LIGAND FREE ENERGY PREDICTED BY IDOCK:   -7.22 KCAL/MOL
REMARK 924 INTRA-LIGAND FREE ENERGY PREDICTED BY IDOCK:   -0.88 KCAL/MOL
REMARK 927      BINDING AFFINITY PREDICTED BY RF-SCORE:    0.00 PKD
ROOT
HETATM    1  C   UNL     1      -9.085  14.233  67.537  1.00  0.00    -0.193 C  
HETATM    2  S   UNL     1      -9.190  15.059  69.171  1.00  0.00    -0.149 SA 
HETATM    3  C   UNL     1     -11.021  15.076  69.230  1.00  0.00    -0.264 C  
HETATM    4  CA  UNL     1     -11.456  13.896  68.330  1.00  0.00    -0.311 C  
HETATM    5  C   UNL     1     -11.495  16.430  68.671  1.00  0.00    -0.224 C  
HETATM    6  C   UNL     1     -11.449  15.016  70.699  1.00  0.00    -0.338 C  
HETATM    7  N   UNL     1     -10.470  13.798  67.229  1.00  0.00    -0.263 N  
HETATM    8  C   UNL     1     -11.571  12.534  69.036  1.00  0.00    -0.314 C  
HETATM    9  C   UNL     1     -10.586  14.643  66.153  1.00  0.00    -0.312 C  
HETATM   10  OXT UNL     1     -12.249  12.318  70.030  1.00  0.00    -0.271 OA 
HETATM   11  O   UNL     1     -10.912  11.530  68.401  1.00  0.00    -0.192 OA 
HETATM   12  CA  UNL     1      -9.110  15.093  66.238  1.00  0.00    -0.278 C  
HETATM   13  O   UNL     1     -11.572  14.987  65.541  1.00  0.00    -0.311 OA 
ENDROOT
BRANCH  12  14
HETATM   14  N   UNL     1      -8.862  16.569  66.321  1.00  0.00    -0.310 N  
HETATM   15  C   UNL     1      -7.571  17.040  66.445  1.00  0.00    -0.315 C  
HETATM   16  H   UNL     1      -9.643  17.222  66.286  1.00  0.00     0.000 HD 
HETATM   17  O   UNL     1      -6.651  16.229  66.466  1.00  0.00    -0.224 OA 
BRANCH  15  18
HETATM   18  C   UNL     1      -7.315  18.522  66.546  1.00  0.00    -0.258 A  
HETATM   19  C   UNL     1      -7.723  19.295  67.668  1.00  0.00    -0.257 A  
HETATM   20  C   UNL     1      -7.356  20.653  67.762  1.00  0.00    -0.276 A  
HETATM   21  C   UNL     1      -6.535  19.158  65.547  1.00  0.00    -0.268 A  
HETATM   22  C   UNL     1      -6.550  21.243  66.792  1.00  0.00    -0.314 A  
HETATM   23  C   UNL     1      -6.141  20.496  65.698  1.00  0.00    -0.260 A  
BRANCH  19  24
HETATM   24  O   UNL     1      -8.477  18.700  68.660  1.00  0.00    -0.325 OA 
HETATM   25  C   UNL     1      -9.673  19.397  69.029  1.00  0.00    -0.404 C  
ENDBRANCH  19  24
BRANCH  21  26
HETATM   26  O   UNL     1      -5.970  18.583  64.436  1.00  0.00    -0.288 OA 
HETATM   27  C   UNL     1      -5.649  19.455  63.355  1.00  0.00    -0.306 C  
ENDBRANCH  21  26
ENDBRANCH  15  18
ENDBRANCH  12  14
TORSDOF 4
ENDMDL
MODEL       24
REMARK 921   NORMALIZED FREE ENERGY PREDICTED BY IDOCK:   -5.81 KCAL/MOL
REMARK 922        TOTAL FREE ENERGY PREDICTED BY IDOCK:   -8.10 KCAL/MOL
REMARK 923 INTER-LIGAND FREE ENERGY PREDICTED BY IDOCK:   -7.21 KCAL/MOL
REMARK 924 INTRA-LIGAND FREE ENERGY PREDICTED BY IDOCK:   -0.88 KCAL/MOL
REMARK 927      BINDING AFFINITY PREDICTED BY RF-SCORE:    0.00 PKD
ROOT
HETATM    1  C   UNL     1     -11.513   8.258  71.024  1.00  0.00    -0.275 C  
HETATM    2  S   UNL     1     -11.660   6.683  70.095  1.00  0.00    -0.339 SA 
HETATM    3  C   UNL     1      -9.938   6.145  70.411  1.00  0.00    -0.181 C  
HETATM    4  CA  UNL     1      -9.535   6.856  71.723  1.00  0.00    -0.153 C  
HETATM    5  C   UNL     1      -9.077   6.605  69.220  1.00  0.00    -0.138 C  
HETATM    6  C   UNL     1      -9.913   4.614  70.423  1.00  0.00    -0.300 C  
HETATM    7  N   UNL     1     -10.211   8.175  71.731  1.00  0.00    -0.197 N  
HETATM    8  C   UNL     1      -9.876   6.099  73.018  1.00  0.00    -0.168 C  
HETATM    9  C   UNL     1      -9.662   9.210  71.017  1.00  0.00    -0.289 C  
HETATM   10  OXT UNL     1      -9.527   4.954  73.269  1.00  0.00    -0.124 OA 
HETATM   11  O   UNL     1     -10.541   6.851  73.933  1.00  0.00    -0.369 OA 
HETATM   12  CA  UNL     1     -10.991   9.533  70.298  1.00  0.00    -0.269 C  
HETATM   13  O   UNL     1      -8.505   9.553  70.914  1.00  0.00    -0.269 OA 
ENDROOT
BRANCH  12  14
HETATM   14  N   UNL     1     -10.952   9.569  68.799  1.00  0.00    -0.426 N  
HETATM   15  C   UNL     1     -10.637  10.745  68.151  1.00  0.00    -0.203 C  
HETATM   16  H   UNL     1     -11.157   8.728  68.262  1.00  0.00     0.000 HD 
HETATM   17  O   UNL     1     -10.378  11.735  68.827  1.00  0.00    -0.213 OA 
BRANCH  15  18
HETATM   18  C   UNL     1     -10.612  10.793  66.645  1.00  0.00    -0.291 A  
HETATM   19  C   UNL     1     -11.371  11.735  65.896  1.00  0.00    -0.263 A  
HETATM   20  C   UNL     1     -11.220  11.810  64.496  1.00  0.00    -0.368 A  
HETATM   21  C   UNL     1      -9.711   9.955  65.942  1.00  0.00    -0.262 A  
HETATM   22  C   UNL     1     -10.295  11.009  63.834  1.00  0.00    -0.436 A  
HETATM   23  C   UNL     1      -9.545  10.094  64.555  1.00  0.00    -0.376 A  
BRANCH  19  24
HETATM   24  O   UNL     1     -12.251  12.570  66.555  1.00  0.00    -0.569 OA 
HETATM   25  C   UNL     1     -12.511  13.824  65.914  1.00  0.00    -0.468 C  
ENDBRANCH  19  24
BRANCH  21  26
HETATM   26  O   UNL     1      -8.829   9.046  66.471  1.00  0.00    -0.127 OA 
HETATM   27  C   UNL     1      -8.308   8.062  65.581  1.00  0.00    -0.141 C  
ENDBRANCH  21  26
ENDBRANCH  15  18
ENDBRANCH  12  14
TORSDOF 4
ENDMDL
MODEL       25
REMARK 921   NORMALIZED FREE ENERGY PREDICTED BY IDOCK:   -5.79 KCAL/MOL
REMARK 922        TOTAL FREE ENERGY PREDICTED BY IDOCK:   -8.07 KCAL/MOL
REMARK 923 INTER-LIGAND FREE ENERGY PREDICTED BY IDOCK:   -7.42 KCAL/MOL
REMARK 924 INTRA-LIGAND FREE ENERGY PREDICTED BY IDOCK:   -0.65 KCAL/MOL
REMARK 927      BINDING AFFINITY PREDICTED BY RF-SCORE:    0.00 PKD
ROOT
HETATM    1  C   UNL     1      -8.723  11.760  66.505  1.00  0.00    -0.173 C  
HETATM    2  S   UNL     1      -8.395  10.234  67.469  1.00  0.00    -0.114 SA 
HETATM    3  C   UNL     1      -9.549   9.183  66.511  1.00  0.00    -0.227 C  
HETATM    4  CA  UNL     1      -9.640   9.859  65.123  1.00  0.00    -0.300 C  
HETATM    5  C   UNL     1     -10.904   9.188  67.242  1.00  0.00    -0.121 C  
HETATM    6  C   UNL     1      -9.020   7.746  66.543  1.00  0.00    -0.191 C  
HETATM    7  N   UNL     1      -9.530  11.320  65.340  1.00  0.00    -0.223 N  
HETATM    8  C   UNL     1      -8.581   9.412  64.100  1.00  0.00    -0.198 C  
HETATM    9  C   UNL     1     -10.641  12.021  65.738  1.00  0.00    -0.263 C  
HETATM   10  OXT UNL     1      -8.375   8.253  63.770  1.00  0.00    -0.128 OA 
HETATM   11  O   UNL     1      -7.930  10.443  63.500  1.00  0.00    -0.157 OA 
HETATM   12  CA  UNL     1      -9.900  12.692  66.917  1.00  0.00    -0.234 C  
HETATM   13  O   UNL     1     -11.788  11.937  65.359  1.00  0.00    -0.319 OA 
ENDROOT
BRANCH  12  14
HETATM   14  N   UNL     1     -10.523  12.544  68.273  1.00  0.00    -0.228 N  
HETATM   15  C   UNL     1     -11.570  13.365  68.638  1.00  0.00    -0.327 C  
HETATM   16  H   UNL     1     -10.175  11.840  68.922  1.00  0.00     0.000 HD 
HETATM   17  O   UNL     1     -11.979  14.189  67.827  1.00  0.00    -0.366 OA 
BRANCH  15  18
HETATM   18  C   UNL     1     -12.191  13.233  70.005  1.00  0.00    -0.345 A  
HETATM   19  C   UNL     1     -12.693  14.349  70.729  1.00  0.00    -0.360 A  
HETATM   20  C   UNL     1     -13.368  14.154  71.952  1.00  0.00    -0.476 A  
HETATM   21  C   UNL     1     -12.397  11.939  70.549  1.00  0.00    -0.284 A  
HETATM   22  C   UNL     1     -13.599  12.871  72.442  1.00  0.00    -0.577 A  
HETATM   23  C   UNL     1     -13.120  11.776  71.740  1.00  0.00    -0.480 A  
BRANCH  19  24
HETATM   24  O   UNL     1     -12.514  15.620  70.220  1.00  0.00    -0.410 OA 
HETATM   25  C   UNL     1     -11.380  16.335  70.727  1.00  0.00    -0.299 C  
ENDBRANCH  19  24
BRANCH  21  26
HETATM   26  O   UNL     1     -12.074  10.733  69.980  1.00  0.00    -0.302 OA 
HETATM   27  C   UNL     1     -11.800   9.655  70.872  1.00  0.00    -0.323 C  
ENDBRANCH  21  26
ENDBRANCH  15  18
ENDBRANCH  12  14
TORSDOF 4
ENDMDL
MODEL       26
REMARK 921   NORMALIZED FREE ENERGY PREDICTED BY IDOCK:   -5.77 KCAL/MOL
REMARK 922        TOTAL FREE ENERGY PREDICTED BY IDOCK:   -8.04 KCAL/MOL
REMARK 923 INTER-LIGAND FREE ENERGY PREDICTED BY IDOCK:   -7.12 KCAL/MOL
REMARK 924 INTRA-LIGAND FREE ENERGY PREDICTED BY IDOCK:   -0.93 KCAL/MOL
REMARK 927      BINDING AFFINITY PREDICTED BY RF-SCORE:    0.00 PKD
ROOT
HETATM    1  C   UNL     1     -10.965   7.592  70.425  1.00  0.00    -0.247 C  
HETATM    2  S   UNL     1     -10.436   7.734  68.674  1.00  0.00    -0.131 SA 
HETATM    3  C   UNL     1      -8.648   7.550  69.027  1.00  0.00    -0.136 C  
HETATM    4  CA  UNL     1      -8.586   6.755  70.351  1.00  0.00    -0.146 C  
HETATM    5  C   UNL     1      -8.053   8.963  69.177  1.00  0.00    -0.117 C  
HETATM    6  C   UNL     1      -7.987   6.906  67.806  1.00  0.00    -0.114 C  
HETATM    7  N   UNL     1      -9.751   7.171  71.167  1.00  0.00    -0.169 N  
HETATM    8  C   UNL     1      -8.586   5.223  70.204  1.00  0.00    -0.117 C  
HETATM    9  C   UNL     1      -9.680   8.340  71.882  1.00  0.00    -0.232 C  
HETATM   10  OXT UNL     1      -7.793   4.588  69.525  1.00  0.00    -0.058 OA 
HETATM   11  O   UNL     1      -9.509   4.598  70.980  1.00  0.00    -0.141 OA 
HETATM   12  CA  UNL     1     -11.019   8.867  71.318  1.00  0.00    -0.293 C  
HETATM   13  O   UNL     1      -8.772   8.791  72.544  1.00  0.00    -0.406 OA 
ENDROOT
BRANCH  12  14
HETATM   14  N   UNL     1     -10.991  10.222  70.678  1.00  0.00    -0.393 N  
HETATM   15  C   UNL     1     -12.175  10.875  70.406  1.00  0.00    -0.365 C  
HETATM   16  H   UNL     1     -10.101  10.659  70.444  1.00  0.00     0.000 HD 
HETATM   17  O   UNL     1     -13.230  10.330  70.716  1.00  0.00    -0.385 OA 
BRANCH  15  18
HETATM   18  C   UNL     1     -12.155  12.231  69.747  1.00  0.00    -0.298 A  
HETATM   19  C   UNL     1     -12.285  13.442  70.483  1.00  0.00    -0.352 A  
HETATM   20  C   UNL     1     -12.142  14.684  69.831  1.00  0.00    -0.385 A  
HETATM   21  C   UNL     1     -11.876  12.322  68.360  1.00  0.00    -0.304 A  
HETATM   22  C   UNL     1     -11.823  14.747  68.477  1.00  0.00    -0.340 A  
HETATM   23  C   UNL     1     -11.686  13.573  67.753  1.00  0.00    -0.394 A  
BRANCH  19  24
HETATM   24  O   UNL     1     -12.549  13.384  71.836  1.00  0.00    -0.206 OA 
HETATM   25  C   UNL     1     -13.901  13.667  72.215  1.00  0.00    -0.590 C  
ENDBRANCH  19  24
BRANCH  21  26
HETATM   26  O   UNL     1     -11.630  11.290  67.488  1.00  0.00    -0.508 OA 
HETATM   27  C   UNL     1     -11.041  11.635  66.236  1.00  0.00    -0.290 C  
ENDBRANCH  21  26
ENDBRANCH  15  18
ENDBRANCH  12  14
TORSDOF 4
ENDMDL
MODEL       27
REMARK 921   NORMALIZED FREE ENERGY PREDICTED BY IDOCK:   -5.76 KCAL/MOL
REMARK 922        TOTAL FREE ENERGY PREDICTED BY IDOCK:   -8.03 KCAL/MOL
REMARK 923 INTER-LIGAND FREE ENERGY PREDICTED BY IDOCK:   -7.32 KCAL/MOL
REMARK 924 INTRA-LIGAND FREE ENERGY PREDICTED BY IDOCK:   -0.72 KCAL/MOL
REMARK 927      BINDING AFFINITY PREDICTED BY RF-SCORE:    0.00 PKD
ROOT
HETATM    1  C   UNL     1      -6.949  16.241  67.831  1.00  0.00    -0.138 C  
HETATM    2  S   UNL     1      -6.842  17.263  66.312  1.00  0.00    -0.198 SA 
HETATM    3  C   UNL     1      -8.044  18.524  66.877  1.00  0.00    -0.245 C  
HETATM    4  CA  UNL     1      -7.983  18.465  68.421  1.00  0.00    -0.307 C  
HETATM    5  C   UNL     1      -9.431  18.121  66.341  1.00  0.00    -0.284 C  
HETATM    6  C   UNL     1      -7.676  19.858  66.224  1.00  0.00    -0.332 C  
HETATM    7  N   UNL     1      -7.730  17.054  68.796  1.00  0.00    -0.244 N  
HETATM    8  C   UNL     1      -6.921  19.366  69.075  1.00  0.00    -0.355 C  
HETATM    9  C   UNL     1      -8.780  16.171  68.818  1.00  0.00    -0.240 C  
HETATM   10  OXT UNL     1      -6.822  20.571  68.894  1.00  0.00    -0.166 OA 
HETATM   11  O   UNL     1      -6.130  18.719  69.970  1.00  0.00    -0.249 OA 
HETATM   12  CA  UNL     1      -8.041  15.136  67.939  1.00  0.00    -0.137 C  
HETATM   13  O   UNL     1      -9.906  16.316  69.240  1.00  0.00    -0.251 OA 
ENDROOT
BRANCH  12  14
HETATM   14  N   UNL     1      -8.753  14.674  66.704  1.00  0.00    -0.424 N  
HETATM   15  C   UNL     1      -9.520  13.528  66.744  1.00  0.00    -0.269 C  
HETATM   16  H   UNL     1      -8.671  15.204  65.837  1.00  0.00     0.000 HD 
HETATM   17  O   UNL     1      -9.613  12.923  67.807  1.00  0.00    -0.198 OA 
BRANCH  15  18
HETATM   18  C   UNL     1     -10.225  13.048  65.501  1.00  0.00    -0.296 A  
HETATM   19  C   UNL     1      -9.963  11.780  64.913  1.00  0.00    -0.247 A  
HETATM   20  C   UNL     1     -10.734  11.334  63.820  1.00  0.00    -0.448 A  
HETATM   21  C   UNL     1     -11.277  13.829  64.958  1.00  0.00    -0.335 A  
HETATM   22  C   UNL     1     -11.791  12.098  63.334  1.00  0.00    -0.553 A  
HETATM   23  C   UNL     1     -12.060  13.332  63.905  1.00  0.00    -0.531 A  
BRANCH  19  24
HETATM   24  O   UNL     1      -8.950  10.995  65.426  1.00  0.00    -0.198 OA 
HETATM   25  C   UNL     1      -8.204  10.241  64.462  1.00  0.00    -0.158 C  
ENDBRANCH  19  24
BRANCH  21  26
HETATM   26  O   UNL     1     -11.750  15.031  65.422  1.00  0.00    -0.287 OA 
HETATM   27  C   UNL     1     -11.498  16.176  64.611  1.00  0.00    -0.224 C  
ENDBRANCH  21  26
ENDBRANCH  15  18
ENDBRANCH  12  14
TORSDOF 4
ENDMDL
MODEL       28
REMARK 921   NORMALIZED FREE ENERGY PREDICTED BY IDOCK:   -5.75 KCAL/MOL
REMARK 922        TOTAL FREE ENERGY PREDICTED BY IDOCK:   -8.02 KCAL/MOL
REMARK 923 INTER-LIGAND FREE ENERGY PREDICTED BY IDOCK:   -7.13 KCAL/MOL
REMARK 924 INTRA-LIGAND FREE ENERGY PREDICTED BY IDOCK:   -0.88 KCAL/MOL
REMARK 927      BINDING AFFINITY PREDICTED BY RF-SCORE:    0.00 PKD
ROOT
HETATM    1  C   UNL     1      -6.842  16.148  67.642  1.00  0.00    -0.152 C  
HETATM    2  S   UNL     1      -7.100  17.311  66.247  1.00  0.00    -0.243 SA 
HETATM    3  C   UNL     1      -8.329  18.348  67.124  1.00  0.00    -0.246 C  
HETATM    4  CA  UNL     1      -8.011  18.156  68.624  1.00  0.00    -0.288 C  
HETATM    5  C   UNL     1      -9.730  17.821  66.761  1.00  0.00    -0.309 C  
HETATM    6  C   UNL     1      -8.224  19.774  66.575  1.00  0.00    -0.363 C  
HETATM    7  N   UNL     1      -7.542  16.761  68.798  1.00  0.00    -0.229 N  
HETATM    8  C   UNL     1      -6.965  19.123  69.208  1.00  0.00    -0.296 C  
HETATM    9  C   UNL     1      -8.469  15.752  68.879  1.00  0.00    -0.218 C  
HETATM   10  OXT UNL     1      -7.033  20.342  69.149  1.00  0.00    -0.196 OA 
HETATM   11  O   UNL     1      -5.972  18.504  69.896  1.00  0.00    -0.248 OA 
HETATM   12  CA  UNL     1      -7.771  14.907  67.790  1.00  0.00    -0.161 C  
HETATM   13  O   UNL     1      -9.520  15.711  69.479  1.00  0.00    -0.265 OA 
ENDROOT
BRANCH  12  14
HETATM   14  N   UNL     1      -8.617  14.472  66.632  1.00  0.00    -0.438 N  
HETATM   15  C   UNL     1      -9.405  13.345  66.745  1.00  0.00    -0.256 C  
HETATM   16  H   UNL     1      -8.611  15.007  65.764  1.00  0.00     0.000 HD 
HETATM   17  O   UNL     1      -9.404  12.734  67.808  1.00  0.00    -0.185 OA 
BRANCH  15  18
HETATM   18  C   UNL     1     -10.246  12.893  65.578  1.00  0.00    -0.299 A  
HETATM   19  C   UNL     1     -11.106  13.775  64.867  1.00  0.00    -0.362 A  
HETATM   20  C   UNL     1     -11.781  13.327  63.713  1.00  0.00    -0.475 A  
HETATM   21  C   UNL     1     -10.093  11.572  65.086  1.00  0.00    -0.268 A  
HETATM   22  C   UNL     1     -11.578  12.040  63.223  1.00  0.00    -0.409 A  
HETATM   23  C   UNL     1     -10.736  11.175  63.904  1.00  0.00    -0.407 A  
BRANCH  19  24
HETATM   24  O   UNL     1     -11.268  15.069  65.319  1.00  0.00    -0.345 OA 
HETATM   25  C   UNL     1     -11.686  16.021  64.332  1.00  0.00    -0.134 C  
ENDBRANCH  19  24
BRANCH  21  26
HETATM   26  O   UNL     1      -9.256  10.594  65.564  1.00  0.00    -0.178 OA 
HETATM   27  C   UNL     1      -8.313  10.050  64.643  1.00  0.00    -0.165 C  
ENDBRANCH  21  26
ENDBRANCH  15  18
ENDBRANCH  12  14
TORSDOF 4
ENDMDL
MODEL       29
REMARK 921   NORMALIZED FREE ENERGY PREDICTED BY IDOCK:   -5.72 KCAL/MOL
REMARK 922        TOTAL FREE ENERGY PREDICTED BY IDOCK:   -7.99 KCAL/MOL
REMARK 923 INTER-LIGAND FREE ENERGY PREDICTED BY IDOCK:   -7.05 KCAL/MOL
REMARK 924 INTRA-LIGAND FREE ENERGY PREDICTED BY IDOCK:   -0.94 KCAL/MOL
REMARK 927      BINDING AFFINITY PREDICTED BY RF-SCORE:    0.00 PKD
ROOT
HETATM    1  C   UNL     1     -10.990   7.918  70.095  1.00  0.00    -0.233 C  
HETATM    2  S   UNL     1     -10.367   8.108  68.380  1.00  0.00    -0.172 SA 
HETATM    3  C   UNL     1      -8.609   7.827  68.812  1.00  0.00    -0.129 C  
HETATM    4  CA  UNL     1      -8.650   6.976  70.102  1.00  0.00    -0.140 C  
HETATM    5  C   UNL     1      -7.960   9.203  69.052  1.00  0.00    -0.101 C  
HETATM    6  C   UNL     1      -7.915   7.204  67.598  1.00  0.00    -0.114 C  
HETATM    7  N   UNL     1      -9.836   7.411  70.877  1.00  0.00    -0.178 N  
HETATM    8  C   UNL     1      -8.710   5.453  69.888  1.00  0.00    -0.121 C  
HETATM    9  C   UNL     1      -9.750   8.545  71.645  1.00  0.00    -0.252 C  
HETATM   10  OXT UNL     1      -7.911   4.810  69.222  1.00  0.00    -0.070 OA 
HETATM   11  O   UNL     1      -9.698   4.840  70.590  1.00  0.00    -0.169 OA 
HETATM   12  CA  UNL     1     -11.034   9.156  71.038  1.00  0.00    -0.305 C  
HETATM   13  O   UNL     1      -8.858   8.926  72.369  1.00  0.00    -0.396 OA 
ENDROOT
BRANCH  12  14
HETATM   14  N   UNL     1     -10.914  10.534  70.460  1.00  0.00    -0.433 N  
HETATM   15  C   UNL     1     -12.027  11.345  70.388  1.00  0.00    -0.374 C  
HETATM   16  H   UNL     1     -10.013  10.870  70.121  1.00  0.00     0.000 HD 
HETATM   17  O   UNL     1     -13.092  10.918  70.820  1.00  0.00    -0.272 OA 
BRANCH  15  18
HETATM   18  C   UNL     1     -11.916  12.725  69.792  1.00  0.00    -0.362 A  
HETATM   19  C   UNL     1     -11.655  12.945  68.411  1.00  0.00    -0.333 A  
HETATM   20  C   UNL     1     -11.678  14.254  67.887  1.00  0.00    -0.394 A  
HETATM   21  C   UNL     1     -12.201  13.853  70.603  1.00  0.00    -0.373 A  
HETATM   22  C   UNL     1     -12.005  15.340  68.694  1.00  0.00    -0.263 A  
HETATM   23  C   UNL     1     -12.269  15.136  70.039  1.00  0.00    -0.379 A  
BRANCH  19  24
HETATM   24  O   UNL     1     -11.383  11.865  67.596  1.00  0.00    -0.261 OA 
HETATM   25  C   UNL     1     -11.480  12.114  66.188  1.00  0.00    -0.371 C  
ENDBRANCH  19  24
BRANCH  21  26
HETATM   26  O   UNL     1     -12.561  13.860  71.928  1.00  0.00    -0.300 OA 
HETATM   27  C   UNL     1     -13.943  14.056  72.217  1.00  0.00    -0.553 C  
ENDBRANCH  21  26
ENDBRANCH  15  18
ENDBRANCH  12  14
TORSDOF 4
ENDMDL
MODEL       30
REMARK 921   NORMALIZED FREE ENERGY PREDICTED BY IDOCK:   -5.68 KCAL/MOL
REMARK 922        TOTAL FREE ENERGY PREDICTED BY IDOCK:   -7.94 KCAL/MOL
REMARK 923 INTER-LIGAND FREE ENERGY PREDICTED BY IDOCK:   -7.07 KCAL/MOL
REMARK 924 INTRA-LIGAND FREE ENERGY PREDICTED BY IDOCK:   -0.87 KCAL/MOL
REMARK 927      BINDING AFFINITY PREDICTED BY RF-SCORE:    0.00 PKD
ROOT
HETATM    1  C   UNL     1     -10.415  13.399  67.051  1.00  0.00    -0.257 C  
HETATM    2  S   UNL     1     -11.845  14.189  67.886  1.00  0.00    -0.355 SA 
HETATM    3  C   UNL     1     -10.863  15.525  68.664  1.00  0.00    -0.267 C  
HETATM    4  CA  UNL     1      -9.626  15.690  67.752  1.00  0.00    -0.209 C  
HETATM    5  C   UNL     1     -10.474  15.056  70.079  1.00  0.00    -0.139 C  
HETATM    6  C   UNL     1     -11.769  16.748  68.825  1.00  0.00     0.415 C  
HETATM    7  N   UNL     1      -9.287  14.348  67.224  1.00  0.00    -0.201 N  
HETATM    8  C   UNL     1      -9.798  16.672  66.579  1.00  0.00    -0.281 C  
HETATM    9  C   UNL     1      -8.571  13.483  68.014  1.00  0.00    -0.177 C  
HETATM   10  OXT UNL     1     -10.150  17.837  66.690  1.00  0.00    -0.317 OA 
HETATM   11  O   UNL     1      -9.428  16.158  65.377  1.00  0.00    -0.394 OA 
HETATM   12  CA  UNL     1      -9.577  12.328  67.810  1.00  0.00    -0.200 C  
HETATM   13  O   UNL     1      -7.612  13.694  68.722  1.00  0.00    -0.125 OA 
ENDROOT
BRANCH  12  14
HETATM   14  N   UNL     1     -10.132  11.694  69.051  1.00  0.00    -0.403 N  
HETATM   15  C   UNL     1     -11.137  10.755  68.948  1.00  0.00    -0.253 C  
HETATM   16  H   UNL     1      -9.768  11.957  69.966  1.00  0.00     0.000 HD 
HETATM   17  O   UNL     1     -11.540  10.447  67.831  1.00  0.00    -0.406 OA 
BRANCH  15  18
HETATM   18  C   UNL     1     -11.711  10.126  70.192  1.00  0.00    -0.330 A  
HETATM   19  C   UNL     1     -12.539  10.843  71.101  1.00  0.00    -0.428 A  
HETATM   20  C   UNL     1     -13.143  10.174  72.185  1.00  0.00    -0.463 A  
HETATM   21  C   UNL     1     -11.527   8.738  70.413  1.00  0.00    -0.144 A  
HETATM   22  C   UNL     1     -12.984   8.802  72.355  1.00  0.00    -0.442 A  
HETATM   23  C   UNL     1     -12.186   8.093  71.471  1.00  0.00    -0.332 A  
BRANCH  19  24
HETATM   24  O   UNL     1     -12.742  12.194  70.906  1.00  0.00    -0.289 OA 
HETATM   25  C   UNL     1     -13.430  12.875  71.963  1.00  0.00    -0.473 C  
ENDBRANCH  19  24
BRANCH  21  26
HETATM   26  O   UNL     1     -10.846   7.849  69.620  1.00  0.00    -0.242 OA 
HETATM   27  C   UNL     1     -11.349   6.516  69.570  1.00  0.00    -0.357 C  
ENDBRANCH  21  26
ENDBRANCH  15  18
ENDBRANCH  12  14
TORSDOF 4
ENDMDL
MODEL       31
REMARK 921   NORMALIZED FREE ENERGY PREDICTED BY IDOCK:   -5.68 KCAL/MOL
REMARK 922        TOTAL FREE ENERGY PREDICTED BY IDOCK:   -7.93 KCAL/MOL
REMARK 923 INTER-LIGAND FREE ENERGY PREDICTED BY IDOCK:   -7.06 KCAL/MOL
REMARK 924 INTRA-LIGAND FREE ENERGY PREDICTED BY IDOCK:   -0.87 KCAL/MOL
REMARK 927      BINDING AFFINITY PREDICTED BY RF-SCORE:    0.00 PKD
ROOT
HETATM    1  C   UNL     1     -10.891   8.242  69.861  1.00  0.00    -0.213 C  
HETATM    2  S   UNL     1     -10.476   8.609  68.112  1.00  0.00    -0.148 SA 
HETATM    3  C   UNL     1      -8.668   8.409  68.327  1.00  0.00    -0.143 C  
HETATM    4  CA  UNL     1      -8.516   7.456  69.535  1.00  0.00    -0.133 C  
HETATM    5  C   UNL     1      -8.074   9.801  68.615  1.00  0.00    -0.105 C  
HETATM    6  C   UNL     1      -8.082   7.932  66.996  1.00  0.00    -0.116 C  
HETATM    7  N   UNL     1      -9.629   7.749  70.467  1.00  0.00    -0.167 N  
HETATM    8  C   UNL     1      -8.515   5.955  69.196  1.00  0.00    -0.112 C  
HETATM    9  C   UNL     1      -9.521   8.821  71.318  1.00  0.00    -0.250 C  
HETATM   10  OXT UNL     1      -7.762   5.421  68.395  1.00  0.00    -0.080 OA 
HETATM   11  O   UNL     1      -9.382   5.224  69.945  1.00  0.00    -0.130 OA 
HETATM   12  CA  UNL     1     -10.897   9.394  70.908  1.00  0.00    -0.322 C  
HETATM   13  O   UNL     1      -8.576   9.200  71.972  1.00  0.00    -0.321 OA 
ENDROOT
BRANCH  12  14
HETATM   14  N   UNL     1     -10.919  10.819  70.443  1.00  0.00    -0.445 N  
HETATM   15  C   UNL     1     -12.093  11.541  70.503  1.00  0.00    -0.378 C  
HETATM   16  H   UNL     1     -10.070  11.253  70.082  1.00  0.00     0.000 HD 
HETATM   17  O   UNL     1     -13.093  10.996  70.959  1.00  0.00    -0.313 OA 
BRANCH  15  18
HETATM   18  C   UNL     1     -12.127  12.969  70.021  1.00  0.00    -0.367 A  
HETATM   19  C   UNL     1     -12.490  14.054  70.867  1.00  0.00    -0.369 A  
HETATM   20  C   UNL     1     -12.392  15.380  70.397  1.00  0.00    -0.443 A  
HETATM   21  C   UNL     1     -11.666  13.268  68.715  1.00  0.00    -0.329 A  
HETATM   22  C   UNL     1     -11.892  15.651  69.126  1.00  0.00    -0.378 A  
HETATM   23  C   UNL     1     -11.528  14.601  68.297  1.00  0.00    -0.337 A  
BRANCH  19  24
HETATM   24  O   UNL     1     -12.936  13.792  72.147  1.00  0.00    -0.352 OA 
HETATM   25  C   UNL     1     -13.318  14.940  72.915  1.00  0.00    -0.479 C  
ENDBRANCH  19  24
BRANCH  21  26
HETATM   26  O   UNL     1     -11.188  12.389  67.775  1.00  0.00    -0.241 OA 
HETATM   27  C   UNL     1     -11.716  12.509  66.456  1.00  0.00    -0.391 C  
ENDBRANCH  21  26
ENDBRANCH  15  18
ENDBRANCH  12  14
TORSDOF 4
ENDMDL
MODEL       32
REMARK 921   NORMALIZED FREE ENERGY PREDICTED BY IDOCK:   -5.67 KCAL/MOL
REMARK 922        TOTAL FREE ENERGY PREDICTED BY IDOCK:   -7.92 KCAL/MOL
REMARK 923 INTER-LIGAND FREE ENERGY PREDICTED BY IDOCK:   -6.92 KCAL/MOL
REMARK 924 INTRA-LIGAND FREE ENERGY PREDICTED BY IDOCK:   -1.00 KCAL/MOL
REMARK 927      BINDING AFFINITY PREDICTED BY RF-SCORE:    0.00 PKD
ROOT
HETATM    1  C   UNL     1     -11.535   8.236  70.902  1.00  0.00    -0.274 C  
HETATM    2  S   UNL     1     -11.635   6.713  69.884  1.00  0.00    -0.260 SA 
HETATM    3  C   UNL     1      -9.922   6.169  70.235  1.00  0.00    -0.183 C  
HETATM    4  CA  UNL     1      -9.574   6.810  71.597  1.00  0.00    -0.162 C  
HETATM    5  C   UNL     1      -9.021   6.699  69.103  1.00  0.00    -0.131 C  
HETATM    6  C   UNL     1      -9.886   4.639  70.165  1.00  0.00    -0.306 C  
HETATM    7  N   UNL     1     -10.260   8.122  71.652  1.00  0.00    -0.194 N  
HETATM    8  C   UNL     1      -9.957   5.981  72.836  1.00  0.00    -0.174 C  
HETATM    9  C   UNL     1      -9.693   9.198  71.016  1.00  0.00    -0.289 C  
HETATM   10  OXT UNL     1      -9.608   4.827  73.038  1.00  0.00    -0.131 OA 
HETATM   11  O   UNL     1     -10.661   6.678  73.765  1.00  0.00    -0.296 OA 
HETATM   12  CA  UNL     1     -10.997   9.552  70.266  1.00  0.00    -0.269 C  
HETATM   13  O   UNL     1      -8.536   9.553  70.975  1.00  0.00    -0.284 OA 
ENDROOT
BRANCH  12  14
HETATM   14  N   UNL     1     -10.902   9.670  68.774  1.00  0.00    -0.353 N  
HETATM   15  C   UNL     1     -10.611  10.890  68.202  1.00  0.00    -0.198 C  
HETATM   16  H   UNL     1     -11.053   8.851  68.186  1.00  0.00     0.000 HD 
HETATM   17  O   UNL     1     -10.417  11.852  68.938  1.00  0.00    -0.202 OA 
BRANCH  15  18
HETATM   18  C   UNL     1     -10.530  11.020  66.702  1.00  0.00    -0.307 A  
HETATM   19  C   UNL     1      -9.697  10.187  65.905  1.00  0.00    -0.232 A  
HETATM   20  C   UNL     1      -9.748  10.274  64.499  1.00  0.00    -0.395 A  
HETATM   21  C   UNL     1     -11.402  11.920  66.038  1.00  0.00    -0.316 A  
HETATM   22  C   UNL     1     -10.645  11.132  63.869  1.00  0.00    -0.431 A  
HETATM   23  C   UNL     1     -11.467  11.942  64.636  1.00  0.00    -0.345 A  
BRANCH  19  24
HETATM   24  O   UNL     1      -8.844   9.296  66.524  1.00  0.00    -0.128 OA 
HETATM   25  C   UNL     1      -8.354   8.233  65.698  1.00  0.00    -0.148 C  
ENDBRANCH  19  24
BRANCH  21  26
HETATM   26  O   UNL     1     -12.342  12.744  66.605  1.00  0.00    -0.456 OA 
HETATM   27  C   UNL     1     -12.074  14.144  66.567  1.00  0.00    -0.454 C  
ENDBRANCH  21  26
ENDBRANCH  15  18
ENDBRANCH  12  14
TORSDOF 4
ENDMDL
MODEL       33
REMARK 921   NORMALIZED FREE ENERGY PREDICTED BY IDOCK:   -5.63 KCAL/MOL
REMARK 922        TOTAL FREE ENERGY PREDICTED BY IDOCK:   -7.88 KCAL/MOL
REMARK 923 INTER-LIGAND FREE ENERGY PREDICTED BY IDOCK:   -7.14 KCAL/MOL
REMARK 924 INTRA-LIGAND FREE ENERGY PREDICTED BY IDOCK:   -0.73 KCAL/MOL
REMARK 927      BINDING AFFINITY PREDICTED BY RF-SCORE:    0.00 PKD
ROOT
HETATM    1  C   UNL     1      -8.453  10.886  68.285  1.00  0.00    -0.134 C  
HETATM    2  S   UNL     1      -8.353   9.935  69.850  1.00  0.00    -0.153 SA 
HETATM    3  C   UNL     1      -9.405   8.553  69.270  1.00  0.00    -0.154 C  
HETATM    4  CA  UNL     1      -9.254   8.559  67.731  1.00  0.00    -0.135 C  
HETATM    5  C   UNL     1     -10.852   8.850  69.706  1.00  0.00    -0.207 C  
HETATM    6  C   UNL     1      -8.963   7.281  70.000  1.00  0.00    -0.142 C  
HETATM    7  N   UNL     1      -9.100   9.972  67.312  1.00  0.00    -0.138 N  
HETATM    8  C   UNL     1      -8.080   7.732  67.179  1.00  0.00    -0.118 C  
HETATM    9  C   UNL     1     -10.220  10.757  67.191  1.00  0.00    -0.213 C  
HETATM   10  OXT UNL     1      -7.888   6.548  67.417  1.00  0.00    -0.109 OA 
HETATM   11  O   UNL     1      -7.294   8.412  66.305  1.00  0.00    -0.083 OA 
HETATM   12  CA  UNL     1      -9.628  11.885  68.066  1.00  0.00    -0.193 C  
HETATM   13  O   UNL     1     -11.300  10.497  66.711  1.00  0.00    -0.153 OA 
ENDROOT
BRANCH  12  14
HETATM   14  N   UNL     1     -10.452  12.328  69.238  1.00  0.00    -0.426 N  
HETATM   15  C   UNL     1     -11.538  13.154  69.036  1.00  0.00    -0.312 C  
HETATM   16  H   UNL     1     -10.211  12.020  70.179  1.00  0.00     0.000 HD 
HETATM   17  O   UNL     1     -11.813  13.492  67.890  1.00  0.00    -0.339 OA 
BRANCH  15  18
HETATM   18  C   UNL     1     -12.362  13.617  70.211  1.00  0.00    -0.392 A  
HETATM   19  C   UNL     1     -12.857  12.722  71.199  1.00  0.00    -0.226 A  
HETATM   20  C   UNL     1     -13.522  13.222  72.338  1.00  0.00    -0.670 A  
HETATM   21  C   UNL     1     -12.555  15.007  70.416  1.00  0.00    -0.350 A  
HETATM   22  C   UNL     1     -13.658  14.593  72.539  1.00  0.00    -0.572 A  
HETATM   23  C   UNL     1     -13.172  15.474  71.586  1.00  0.00    -0.575 A  
BRANCH  19  24
HETATM   24  O   UNL     1     -12.677  11.364  71.031  1.00  0.00    -0.374 OA 
HETATM   25  C   UNL     1     -13.254  10.533  72.045  1.00  0.00    -0.378 C  
ENDBRANCH  19  24
BRANCH  21  26
HETATM   26  O   UNL     1     -12.087  16.038  69.640  1.00  0.00    -0.276 OA 
HETATM   27  C   UNL     1     -10.723  16.410  69.820  1.00  0.00    -0.324 C  
ENDBRANCH  21  26
ENDBRANCH  15  18
ENDBRANCH  12  14
TORSDOF 4
ENDMDL
MODEL       34
REMARK 921   NORMALIZED FREE ENERGY PREDICTED BY IDOCK:   -5.61 KCAL/MOL
REMARK 922        TOTAL FREE ENERGY PREDICTED BY IDOCK:   -7.84 KCAL/MOL
REMARK 923 INTER-LIGAND FREE ENERGY PREDICTED BY IDOCK:   -7.04 KCAL/MOL
REMARK 924 INTRA-LIGAND FREE ENERGY PREDICTED BY IDOCK:   -0.80 KCAL/MOL
REMARK 927      BINDING AFFINITY PREDICTED BY RF-SCORE:    0.00 PKD
ROOT
HETATM    1  C   UNL     1      -8.313  10.934  67.979  1.00  0.00    -0.122 C  
HETATM    2  S   UNL     1      -7.913  10.122  69.574  1.00  0.00    -0.166 SA 
HETATM    3  C   UNL     1      -8.860   8.594  69.224  1.00  0.00    -0.137 C  
HETATM    4  CA  UNL     1      -8.900   8.499  67.681  1.00  0.00    -0.136 C  
HETATM    5  C   UNL     1     -10.267   8.768  69.825  1.00  0.00    -0.205 C  
HETATM    6  C   UNL     1      -8.188   7.438  69.968  1.00  0.00    -0.131 C  
HETATM    7  N   UNL     1      -8.964   9.883  67.158  1.00  0.00    -0.138 N  
HETATM    8  C   UNL     1      -7.714   7.762  67.034  1.00  0.00    -0.104 C  
HETATM    9  C   UNL     1     -10.173  10.532  67.135  1.00  0.00    -0.223 C  
HETATM   10  OXT UNL     1      -7.358   6.628  67.318  1.00  0.00    -0.086 OA 
HETATM   11  O   UNL     1      -7.125   8.454  66.024  1.00  0.00    -0.067 OA 
HETATM   12  CA  UNL     1      -9.614  11.781  67.853  1.00  0.00    -0.187 C  
HETATM   13  O   UNL     1     -11.267  10.121  66.816  1.00  0.00    -0.010 OA 
ENDROOT
BRANCH  12  14
HETATM   14  N   UNL     1     -10.335  12.222  69.091  1.00  0.00    -0.426 N  
HETATM   15  C   UNL     1     -11.488  12.971  68.982  1.00  0.00    -0.303 C  
HETATM   16  H   UNL     1      -9.974  11.970  70.011  1.00  0.00     0.000 HD 
HETATM   17  O   UNL     1     -11.907  13.242  67.861  1.00  0.00    -0.337 OA 
BRANCH  15  18
HETATM   18  C   UNL     1     -12.209  13.431  70.223  1.00  0.00    -0.405 A  
HETATM   19  C   UNL     1     -12.603  14.784  70.423  1.00  0.00    -0.346 A  
HETATM   20  C   UNL     1     -13.376  15.136  71.548  1.00  0.00    -0.533 A  
HETATM   21  C   UNL     1     -12.622  12.470  71.180  1.00  0.00    -0.253 A  
HETATM   22  C   UNL     1     -13.809  14.167  72.448  1.00  0.00    -0.638 A  
HETATM   23  C   UNL     1     -13.437  12.845  72.259  1.00  0.00    -0.631 A  
BRANCH  19  24
HETATM   24  O   UNL     1     -12.221  15.740  69.503  1.00  0.00    -0.325 OA 
HETATM   25  C   UNL     1     -11.024  16.461  69.821  1.00  0.00    -0.341 C  
ENDBRANCH  19  24
BRANCH  21  26
HETATM   26  O   UNL     1     -12.428  11.112  71.137  1.00  0.00    -0.382 OA 
HETATM   27  C   UNL     1     -13.276  10.315  71.961  1.00  0.00    -0.411 C  
ENDBRANCH  21  26
ENDBRANCH  15  18
ENDBRANCH  12  14
TORSDOF 4
ENDMDL
MODEL       35
REMARK 921   NORMALIZED FREE ENERGY PREDICTED BY IDOCK:   -5.61 KCAL/MOL
REMARK 922        TOTAL FREE ENERGY PREDICTED BY IDOCK:   -7.84 KCAL/MOL
REMARK 923 INTER-LIGAND FREE ENERGY PREDICTED BY IDOCK:   -6.96 KCAL/MOL
REMARK 924 INTRA-LIGAND FREE ENERGY PREDICTED BY IDOCK:   -0.89 KCAL/MOL
REMARK 927      BINDING AFFINITY PREDICTED BY RF-SCORE:    0.00 PKD
ROOT
HETATM    1  C   UNL     1     -11.905  12.524  68.171  1.00  0.00    -0.317 C  
HETATM    2  S   UNL     1     -10.826  13.908  68.704  1.00  0.00    -0.267 SA 
HETATM    3  C   UNL     1      -9.812  13.923  67.179  1.00  0.00    -0.241 C  
HETATM    4  CA  UNL     1     -10.729  13.326  66.088  1.00  0.00    -0.279 C  
HETATM    5  C   UNL     1      -8.573  13.043  67.433  1.00  0.00    -0.199 C  
HETATM    6  C   UNL     1      -9.314  15.353  66.954  1.00  0.00    -0.255 C  
HETATM    7  N   UNL     1     -11.578  12.301  66.741  1.00  0.00    -0.372 N  
HETATM    8  C   UNL     1     -11.625  14.337  65.351  1.00  0.00    -0.346 C  
HETATM    9  C   UNL     1     -11.058  11.051  66.967  1.00  0.00    -0.244 C  
HETATM   10  OXT UNL     1     -11.221  15.339  64.779  1.00  0.00    -0.405 OA 
HETATM   11  O   UNL     1     -12.934  13.977  65.303  1.00  0.00    -0.743 OA 
HETATM   12  CA  UNL     1     -11.471  11.056  68.457  1.00  0.00    -0.309 C  
HETATM   13  O   UNL     1     -10.377  10.353  66.250  1.00  0.00    -0.236 OA 
ENDROOT
BRANCH  12  14
HETATM   14  N   UNL     1     -10.386  10.785  69.455  1.00  0.00    -0.383 N  
HETATM   15  C   UNL     1     -10.105   9.486  69.825  1.00  0.00    -0.216 C  
HETATM   16  H   UNL     1      -9.858  11.558  69.859  1.00  0.00     0.000 HD 
HETATM   17  O   UNL     1     -10.746   8.578  69.307  1.00  0.00    -0.213 OA 
BRANCH  15  18
HETATM   18  C   UNL     1      -9.027   9.208  70.841  1.00  0.00    -0.298 A  
HETATM   19  C   UNL     1      -9.293   8.577  72.088  1.00  0.00    -0.283 A  
HETATM   20  C   UNL     1      -8.230   8.236  72.949  1.00  0.00    -0.227 A  
HETATM   21  C   UNL     1      -7.675   9.469  70.503  1.00  0.00    -0.157 A  
HETATM   22  C   UNL     1      -6.908   8.461  72.574  1.00  0.00    -0.104 A  
HETATM   23  C   UNL     1      -6.637   9.068  71.358  1.00  0.00    -0.081 A  
BRANCH  19  24
HETATM   24  O   UNL     1     -10.600   8.303  72.440  1.00  0.00    -0.293 OA 
HETATM   25  C   UNL     1     -10.783   7.173  73.302  1.00  0.00    -0.361 C  
ENDBRANCH  19  24
BRANCH  21  26
HETATM   26  O   UNL     1      -7.193   9.986  69.326  1.00  0.00    -0.064 OA 
HETATM   27  C   UNL     1      -6.680   9.054  68.377  1.00  0.00    -0.060 C  
ENDBRANCH  21  26
ENDBRANCH  15  18
ENDBRANCH  12  14
TORSDOF 4
ENDMDL
MODEL       36
REMARK 921   NORMALIZED FREE ENERGY PREDICTED BY IDOCK:   -5.59 KCAL/MOL
REMARK 922        TOTAL FREE ENERGY PREDICTED BY IDOCK:   -7.83 KCAL/MOL
REMARK 923 INTER-LIGAND FREE ENERGY PREDICTED BY IDOCK:   -6.96 KCAL/MOL
REMARK 924 INTRA-LIGAND FREE ENERGY PREDICTED BY IDOCK:   -0.86 KCAL/MOL
REMARK 927      BINDING AFFINITY PREDICTED BY RF-SCORE:    0.00 PKD
ROOT
HETATM    1  C   UNL     1     -10.291  16.801  68.273  1.00  0.00    -0.319 C  
HETATM    2  S   UNL     1      -8.565  16.480  68.804  1.00  0.00    -0.259 SA 
HETATM    3  C   UNL     1      -7.797  17.494  67.486  1.00  0.00    -0.199 C  
HETATM    4  CA  UNL     1      -8.876  18.533  67.105  1.00  0.00    -0.270 C  
HETATM    5  C   UNL     1      -7.462  16.557  66.310  1.00  0.00    -0.094 C  
HETATM    6  C   UNL     1      -6.471  18.042  68.020  1.00  0.00    -0.188 C  
HETATM    7  N   UNL     1     -10.193  17.869  67.247  1.00  0.00    -0.343 N  
HETATM    8  C   UNL     1      -8.866  19.830  67.934  1.00  0.00    -0.321 C  
HETATM    9  C   UNL     1     -10.640  17.055  66.236  1.00  0.00    -0.185 C  
HETATM   10  OXT UNL     1      -7.895  20.559  68.077  1.00  0.00    -0.162 OA 
HETATM   11  O   UNL     1     -10.081  20.165  68.440  1.00  0.00    -0.406 OA 
HETATM   12  CA  UNL     1     -10.948  15.885  67.199  1.00  0.00    -0.214 C  
HETATM   13  O   UNL     1     -10.597  17.213  65.037  1.00  0.00    -0.704 OA 
ENDROOT
BRANCH  12  14
HETATM   14  N   UNL     1     -10.323  14.563  66.869  1.00  0.00    -0.262 N  
HETATM   15  C   UNL     1     -11.092  13.561  66.315  1.00  0.00    -0.300 C  
HETATM   16  H   UNL     1      -9.333  14.404  67.054  1.00  0.00     0.000 HD 
HETATM   17  O   UNL     1     -12.276  13.790  66.087  1.00  0.00    -0.422 OA 
BRANCH  15  18
HETATM   18  C   UNL     1     -10.474  12.224  65.996  1.00  0.00    -0.284 A  
HETATM   19  C   UNL     1      -9.766  11.458  66.963  1.00  0.00    -0.190 A  
HETATM   20  C   UNL     1      -9.309  10.163  66.643  1.00  0.00    -0.195 A  
HETATM   21  C   UNL     1     -10.704  11.642  64.724  1.00  0.00    -0.309 A  
HETATM   22  C   UNL     1      -9.587   9.595  65.403  1.00  0.00    -0.361 A  
HETATM   23  C   UNL     1     -10.283  10.330  64.456  1.00  0.00    -0.161 A  
BRANCH  19  24
HETATM   24  O   UNL     1      -9.535  11.996  68.213  1.00  0.00    -0.194 OA 
HETATM   25  C   UNL     1      -8.170  11.982  68.650  1.00  0.00    -0.052 C  
ENDBRANCH  19  24
BRANCH  21  26
HETATM   26  O   UNL     1     -11.431  12.165  63.684  1.00  0.00    -0.412 OA 
HETATM   27  C   UNL     1     -12.731  11.619  63.471  1.00  0.00    -0.156 C  
ENDBRANCH  21  26
ENDBRANCH  15  18
ENDBRANCH  12  14
TORSDOF 4
ENDMDL
MODEL       37
REMARK 921   NORMALIZED FREE ENERGY PREDICTED BY IDOCK:   -5.58 KCAL/MOL
REMARK 922        TOTAL FREE ENERGY PREDICTED BY IDOCK:   -7.82 KCAL/MOL
REMARK 923 INTER-LIGAND FREE ENERGY PREDICTED BY IDOCK:   -6.87 KCAL/MOL
REMARK 924 INTRA-LIGAND FREE ENERGY PREDICTED BY IDOCK:   -0.95 KCAL/MOL
REMARK 927      BINDING AFFINITY PREDICTED BY RF-SCORE:    0.00 PKD
ROOT
HETATM    1  C   UNL     1      -8.685  11.653  66.505  1.00  0.00    -0.182 C  
HETATM    2  S   UNL     1      -8.528  10.199  67.613  1.00  0.00    -0.117 SA 
HETATM    3  C   UNL     1      -9.238   9.005  66.419  1.00  0.00    -0.188 C  
HETATM    4  CA  UNL     1      -8.965   9.626  65.030  1.00  0.00    -0.212 C  
HETATM    5  C   UNL     1     -10.746   8.891  66.712  1.00  0.00    -0.098 C  
HETATM    6  C   UNL     1      -8.617   7.633  66.695  1.00  0.00    -0.134 C  
HETATM    7  N   UNL     1      -9.058  11.097  65.181  1.00  0.00    -0.182 N  
HETATM    8  C   UNL     1      -7.611   9.261  64.397  1.00  0.00    -0.115 C  
HETATM    9  C   UNL     1     -10.296  11.689  65.187  1.00  0.00    -0.279 C  
HETATM   10  OXT UNL     1      -7.210   8.121  64.215  1.00  0.00    -0.082 OA 
HETATM   11  O   UNL     1      -6.905  10.335  63.959  1.00  0.00    -0.124 OA 
HETATM   12  CA  UNL     1     -10.011  12.469  66.491  1.00  0.00    -0.244 C  
HETATM   13  O   UNL     1     -11.262  11.475  64.489  1.00  0.00    -0.305 OA 
ENDROOT
BRANCH  12  14
HETATM   14  N   UNL     1     -10.999  12.298  67.605  1.00  0.00    -0.233 N  
HETATM   15  C   UNL     1     -10.879  13.060  68.749  1.00  0.00    -0.244 C  
HETATM   16  H   UNL     1     -11.757  11.622  67.518  1.00  0.00     0.000 HD 
HETATM   17  O   UNL     1      -9.968  13.878  68.815  1.00  0.00    -0.213 OA 
BRANCH  15  18
HETATM   18  C   UNL     1     -11.859  12.882  69.880  1.00  0.00    -0.373 A  
HETATM   19  C   UNL     1     -12.133  11.613  70.464  1.00  0.00    -0.366 A  
HETATM   20  C   UNL     1     -12.970  11.521  71.594  1.00  0.00    -0.499 A  
HETATM   21  C   UNL     1     -12.447  14.028  70.473  1.00  0.00    -0.359 A  
HETATM   22  C   UNL     1     -13.497  12.666  72.187  1.00  0.00    -0.561 A  
HETATM   23  C   UNL     1     -13.231  13.907  71.630  1.00  0.00    -0.446 A  
BRANCH  19  24
HETATM   24  O   UNL     1     -11.569  10.481  69.912  1.00  0.00    -0.263 OA 
HETATM   25  C   UNL     1     -11.259   9.431  70.837  1.00  0.00    -0.325 C  
ENDBRANCH  19  24
BRANCH  21  26
HETATM   26  O   UNL     1     -12.249  15.341  70.127  1.00  0.00    -0.329 OA 
HETATM   27  C   UNL     1     -11.577  16.162  71.079  1.00  0.00    -0.393 C  
ENDBRANCH  21  26
ENDBRANCH  15  18
ENDBRANCH  12  14
TORSDOF 4
ENDMDL
MODEL       38
REMARK 921   NORMALIZED FREE ENERGY PREDICTED BY IDOCK:   -5.58 KCAL/MOL
REMARK 922        TOTAL FREE ENERGY PREDICTED BY IDOCK:   -7.81 KCAL/MOL
REMARK 923 INTER-LIGAND FREE ENERGY PREDICTED BY IDOCK:   -7.04 KCAL/MOL
REMARK 924 INTRA-LIGAND FREE ENERGY PREDICTED BY IDOCK:   -0.77 KCAL/MOL
REMARK 927      BINDING AFFINITY PREDICTED BY RF-SCORE:    0.00 PKD
ROOT
HETATM    1  C   UNL     1     -12.268  13.043  65.830  1.00  0.00    -0.453 C  
HETATM    2  S   UNL     1     -11.824  14.060  67.290  1.00  0.00    -0.416 SA 
HETATM    3  C   UNL     1     -10.438  14.931  66.468  1.00  0.00    -0.297 C  
HETATM    4  CA  UNL     1     -10.780  14.885  64.961  1.00  0.00    -0.431 C  
HETATM    5  C   UNL     1      -9.144  14.158  66.787  1.00  0.00    -0.266 C  
HETATM    6  C   UNL     1     -10.306  16.318  67.102  1.00  0.00    -0.285 C  
HETATM    7  N   UNL     1     -11.473  13.600  64.708  1.00  0.00    -0.339 N  
HETATM    8  C   UNL     1     -11.649  16.045  64.445  1.00  0.00    -0.212 C  
HETATM    9  C   UNL     1     -10.727  12.458  64.558  1.00  0.00    -0.321 C  
HETATM   10  OXT UNL     1     -11.381  17.231  64.577  1.00  0.00    -1.007 OA 
HETATM   11  O   UNL     1     -12.731  15.642  63.728  1.00  0.00    -0.611 OA 
HETATM   12  CA  UNL     1     -11.558  11.676  65.600  1.00  0.00    -0.016 C  
HETATM   13  O   UNL     1      -9.696  12.280  63.949  1.00  0.00    -0.209 OA 
ENDROOT
BRANCH  12  14
HETATM   14  N   UNL     1     -10.797  11.037  66.723  1.00  0.00    -0.268 N  
HETATM   15  C   UNL     1     -10.038   9.912  66.483  1.00  0.00    -0.232 C  
HETATM   16  H   UNL     1     -10.842  11.434  67.662  1.00  0.00     0.000 HD 
HETATM   17  O   UNL     1      -9.990   9.471  65.339  1.00  0.00    -0.284 OA 
BRANCH  15  18
HETATM   18  C   UNL     1      -9.284   9.255  67.611  1.00  0.00    -0.139 A  
HETATM   19  C   UNL     1      -9.575   7.938  68.062  1.00  0.00    -0.151 A  
HETATM   20  C   UNL     1      -8.763   7.331  69.042  1.00  0.00    -0.132 A  
HETATM   21  C   UNL     1      -8.161   9.917  68.170  1.00  0.00    -0.109 A  
HETATM   22  C   UNL     1      -7.639   7.983  69.542  1.00  0.00    -0.101 A  
HETATM   23  C   UNL     1      -7.342   9.263  69.102  1.00  0.00    -0.071 A  
BRANCH  19  24
HETATM   24  O   UNL     1     -10.657   7.266  67.530  1.00  0.00    -0.238 OA 
HETATM   25  C   UNL     1     -10.343   6.093  66.769  1.00  0.00    -0.231 C  
ENDBRANCH  19  24
BRANCH  21  26
HETATM   26  O   UNL     1      -7.656  11.145  67.820  1.00  0.00    -0.095 OA 
HETATM   27  C   UNL     1      -6.584  11.153  66.880  1.00  0.00    -0.124 C  
ENDBRANCH  21  26
ENDBRANCH  15  18
ENDBRANCH  12  14
TORSDOF 4
ENDMDL
MODEL       39
REMARK 921   NORMALIZED FREE ENERGY PREDICTED BY IDOCK:   -5.57 KCAL/MOL
REMARK 922        TOTAL FREE ENERGY PREDICTED BY IDOCK:   -7.80 KCAL/MOL
REMARK 923 INTER-LIGAND FREE ENERGY PREDICTED BY IDOCK:   -6.87 KCAL/MOL
REMARK 924 INTRA-LIGAND FREE ENERGY PREDICTED BY IDOCK:   -0.93 KCAL/MOL
REMARK 927      BINDING AFFINITY PREDICTED BY RF-SCORE:    0.00 PKD
ROOT
HETATM    1  C   UNL     1     -11.791  12.401  66.919  1.00  0.00    -0.307 C  
HETATM    2  S   UNL     1     -11.669  13.676  68.232  1.00  0.00    -0.379 SA 
HETATM    3  C   UNL     1     -10.134  14.436  67.582  1.00  0.00    -0.222 C  
HETATM    4  CA  UNL     1     -10.142  14.112  66.071  1.00  0.00    -0.316 C  
HETATM    5  C   UNL     1      -8.944  13.777  68.305  1.00  0.00    -0.186 C  
HETATM    6  C   UNL     1     -10.137  15.917  67.969  1.00  0.00    -0.230 C  
HETATM    7  N   UNL     1     -10.769  12.779  65.911  1.00  0.00    -0.267 N  
HETATM    8  C   UNL     1     -10.874  15.131  65.180  1.00  0.00    -0.422 C  
HETATM    9  C   UNL     1     -10.013  11.656  66.134  1.00  0.00    -0.221 C  
HETATM   10  OXT UNL     1     -10.635  16.329  65.150  1.00  0.00    -0.576 OA 
HETATM   11  O   UNL     1     -11.776  14.570  64.333  1.00  0.00    -0.404 OA 
HETATM   12  CA  UNL     1     -11.053  11.041  67.098  1.00  0.00    -0.267 C  
HETATM   13  O   UNL     1      -8.875  11.409  65.801  1.00  0.00    -0.189 OA 
ENDROOT
BRANCH  12  14
HETATM   14  N   UNL     1     -10.557  10.639  68.454  1.00  0.00    -0.186 N  
HETATM   15  C   UNL     1     -10.420   9.302  68.764  1.00  0.00    -0.210 C  
HETATM   16  H   UNL     1     -10.322  11.351  69.145  1.00  0.00     0.000 HD 
HETATM   17  O   UNL     1     -10.693   8.471  67.904  1.00  0.00    -0.187 OA 
BRANCH  15  18
HETATM   18  C   UNL     1      -9.937   8.890  70.131  1.00  0.00    -0.207 A  
HETATM   19  C   UNL     1      -8.571   8.975  70.518  1.00  0.00    -0.201 A  
HETATM   20  C   UNL     1      -8.193   8.686  71.846  1.00  0.00    -0.167 A  
HETATM   21  C   UNL     1     -10.886   8.517  71.116  1.00  0.00    -0.243 A  
HETATM   22  C   UNL     1      -9.149   8.368  72.806  1.00  0.00    -0.299 A  
HETATM   23  C   UNL     1     -10.484   8.290  72.441  1.00  0.00    -0.404 A  
BRANCH  19  24
HETATM   24  O   UNL     1      -7.626   9.343  69.582  1.00  0.00    -0.079 OA 
HETATM   25  C   UNL     1      -6.940  10.573  69.846  1.00  0.00    -0.150 C  
ENDBRANCH  19  24
BRANCH  21  26
HETATM   26  O   UNL     1     -12.251   8.458  70.981  1.00  0.00    -0.266 OA 
HETATM   27  C   UNL     1     -12.856   7.175  71.126  1.00  0.00    -0.288 C  
ENDBRANCH  21  26
ENDBRANCH  15  18
ENDBRANCH  12  14
TORSDOF 4
ENDMDL
MODEL       40
REMARK 921   NORMALIZED FREE ENERGY PREDICTED BY IDOCK:   -5.54 KCAL/MOL
REMARK 922        TOTAL FREE ENERGY PREDICTED BY IDOCK:   -7.76 KCAL/MOL
REMARK 923 INTER-LIGAND FREE ENERGY PREDICTED BY IDOCK:   -6.97 KCAL/MOL
REMARK 924 INTRA-LIGAND FREE ENERGY PREDICTED BY IDOCK:   -0.79 KCAL/MOL
REMARK 927      BINDING AFFINITY PREDICTED BY RF-SCORE:    0.00 PKD
ROOT
HETATM    1  C   UNL     1     -11.225  14.233  67.186  1.00  0.00    -0.322 C  
HETATM    2  S   UNL     1      -9.782  13.542  66.288  1.00  0.00    -0.248 SA 
HETATM    3  C   UNL     1      -9.086  12.673  67.742  1.00  0.00    -0.192 C  
HETATM    4  CA  UNL     1     -10.297  12.414  68.667  1.00  0.00    -0.182 C  
HETATM    5  C   UNL     1      -8.053  13.610  68.397  1.00  0.00    -0.146 C  
HETATM    6  C   UNL     1      -8.327  11.442  67.241  1.00  0.00    -0.149 C  
HETATM    7  N   UNL     1     -11.222  13.561  68.509  1.00  0.00    -0.261 N  
HETATM    8  C   UNL     1     -11.059  11.103  68.406  1.00  0.00    -0.247 C  
HETATM    9  C   UNL     1     -10.966  14.723  69.193  1.00  0.00    -0.267 C  
HETATM   10  OXT UNL     1     -10.550   9.992  68.390  1.00  0.00    -0.198 OA 
HETATM   11  O   UNL     1     -12.402  11.266  68.281  1.00  0.00    -0.542 OA 
HETATM   12  CA  UNL     1     -11.090  15.598  67.925  1.00  0.00    -0.324 C  
HETATM   13  O   UNL     1     -10.602  14.885  70.336  1.00  0.00    -0.107 OA 
ENDROOT
BRANCH  12  14
HETATM   14  N   UNL     1      -9.931  16.497  67.614  1.00  0.00    -0.249 N  
HETATM   15  C   UNL     1      -9.775  17.677  68.311  1.00  0.00    -0.315 C  
HETATM   16  H   UNL     1      -9.261  16.237  66.891  1.00  0.00     0.000 HD 
HETATM   17  O   UNL     1     -10.587  17.951  69.188  1.00  0.00    -0.168 OA 
BRANCH  15  18
HETATM   18  C   UNL     1      -8.622  18.594  67.993  1.00  0.00    -0.321 A  
HETATM   19  C   UNL     1      -8.805  19.890  67.436  1.00  0.00    -0.336 A  
HETATM   20  C   UNL     1      -7.699  20.750  67.267  1.00  0.00    -0.332 A  
HETATM   21  C   UNL     1      -7.309  18.210  68.369  1.00  0.00    -0.270 A  
HETATM   22  C   UNL     1      -6.428  20.368  67.687  1.00  0.00    -0.298 A  
HETATM   23  C   UNL     1      -6.240  19.110  68.238  1.00  0.00    -0.242 A  
BRANCH  19  24
HETATM   24  O   UNL     1     -10.072  20.294  67.068  1.00  0.00    -0.442 OA 
HETATM   25  C   UNL     1     -10.434  20.030  65.707  1.00  0.00    -0.364 C  
ENDBRANCH  19  24
BRANCH  21  26
HETATM   26  O   UNL     1      -6.925  17.051  68.996  1.00  0.00    -0.209 OA 
HETATM   27  C   UNL     1      -5.857  17.153  69.935  1.00  0.00    -0.236 C  
ENDBRANCH  21  26
ENDBRANCH  15  18
ENDBRANCH  12  14
TORSDOF 4
ENDMDL
MODEL       41
REMARK 921   NORMALIZED FREE ENERGY PREDICTED BY IDOCK:   -5.51 KCAL/MOL
REMARK 922        TOTAL FREE ENERGY PREDICTED BY IDOCK:   -7.72 KCAL/MOL
REMARK 923 INTER-LIGAND FREE ENERGY PREDICTED BY IDOCK:   -6.80 KCAL/MOL
REMARK 924 INTRA-LIGAND FREE ENERGY PREDICTED BY IDOCK:   -0.93 KCAL/MOL
REMARK 927      BINDING AFFINITY PREDICTED BY RF-SCORE:    0.00 PKD
ROOT
HETATM    1  C   UNL     1      -9.219  14.055  68.441  1.00  0.00    -0.196 C  
HETATM    2  S   UNL     1      -8.127  15.046  67.350  1.00  0.00    -0.207 SA 
HETATM    3  C   UNL     1      -9.463  16.130  66.722  1.00  0.00    -0.238 C  
HETATM    4  CA  UNL     1     -10.538  16.118  67.833  1.00  0.00    -0.309 C  
HETATM    5  C   UNL     1      -9.986  15.517  65.410  1.00  0.00    -0.339 C  
HETATM    6  C   UNL     1      -8.848  17.489  66.375  1.00  0.00    -0.269 C  
HETATM    7  N   UNL     1     -10.520  14.768  68.445  1.00  0.00    -0.238 N  
HETATM    8  C   UNL     1     -10.365  17.179  68.933  1.00  0.00    -0.348 C  
HETATM    9  C   UNL     1     -11.179  13.742  67.814  1.00  0.00    -0.288 C  
HETATM   10  OXT UNL     1     -10.265  18.381  68.733  1.00  0.00    -0.379 OA 
HETATM   11  O   UNL     1     -10.422  16.676  70.194  1.00  0.00    -0.115 OA 
HETATM   12  CA  UNL     1      -9.951  12.806  67.867  1.00  0.00    -0.229 C  
HETATM   13  O   UNL     1     -12.266  13.731  67.280  1.00  0.00    -0.375 OA 
ENDROOT
BRANCH  12  14
HETATM   14  N   UNL     1      -9.500  12.216  66.565  1.00  0.00    -0.226 N  
HETATM   15  C   UNL     1     -10.022  11.011  66.143  1.00  0.00    -0.231 C  
HETATM   16  H   UNL     1      -8.810  12.702  65.994  1.00  0.00     0.000 HD 
HETATM   17  O   UNL     1     -10.864  10.459  66.844  1.00  0.00    -0.236 OA 
BRANCH  15  18
HETATM   18  C   UNL     1      -9.561  10.403  64.843  1.00  0.00    -0.348 A  
HETATM   19  C   UNL     1      -9.668  11.085  63.599  1.00  0.00    -0.324 A  
HETATM   20  C   UNL     1      -9.115  10.518  62.432  1.00  0.00    -0.313 A  
HETATM   21  C   UNL     1      -8.885   9.157  64.863  1.00  0.00    -0.173 A  
HETATM   22  C   UNL     1      -8.415   9.316  62.486  1.00  0.00    -0.206 A  
HETATM   23  C   UNL     1      -8.299   8.647  63.694  1.00  0.00    -0.115 A  
BRANCH  19  24
HETATM   24  O   UNL     1     -10.314  12.304  63.550  1.00  0.00    -0.429 OA 
HETATM   25  C   UNL     1     -11.740  12.243  63.418  1.00  0.00    -0.457 C  
ENDBRANCH  19  24
BRANCH  21  26
HETATM   26  O   UNL     1      -8.596   8.381  65.958  1.00  0.00    -0.129 OA 
HETATM   27  C   UNL     1      -7.330   8.593  66.579  1.00  0.00    -0.081 C  
ENDBRANCH  21  26
ENDBRANCH  15  18
ENDBRANCH  12  14
TORSDOF 4
ENDMDL
MODEL       42
REMARK 921   NORMALIZED FREE ENERGY PREDICTED BY IDOCK:   -5.49 KCAL/MOL
REMARK 922        TOTAL FREE ENERGY PREDICTED BY IDOCK:   -7.70 KCAL/MOL
REMARK 923 INTER-LIGAND FREE ENERGY PREDICTED BY IDOCK:   -6.72 KCAL/MOL
REMARK 924 INTRA-LIGAND FREE ENERGY PREDICTED BY IDOCK:   -0.98 KCAL/MOL
REMARK 927      BINDING AFFINITY PREDICTED BY RF-SCORE:    0.00 PKD
ROOT
HETATM    1  C   UNL     1      -9.617  15.588  69.662  1.00  0.00    -0.262 C  
HETATM    2  S   UNL     1      -8.051  15.311  68.748  1.00  0.00    -0.180 SA 
HETATM    3  C   UNL     1      -8.631  16.086  67.193  1.00  0.00    -0.194 C  
HETATM    4  CA  UNL     1      -9.730  17.080  67.631  1.00  0.00    -0.257 C  
HETATM    5  C   UNL     1      -9.191  14.969  66.293  1.00  0.00    -0.324 C  
HETATM    6  C   UNL     1      -7.414  16.679  66.476  1.00  0.00    -0.306 C  
HETATM    7  N   UNL     1     -10.426  16.479  68.794  1.00  0.00    -0.287 N  
HETATM    8  C   UNL     1      -9.238  18.490  68.003  1.00  0.00    -0.297 C  
HETATM    9  C   UNL     1     -11.391  15.529  68.574  1.00  0.00    -0.351 C  
HETATM   10  OXT UNL     1      -8.566  19.208  67.277  1.00  0.00    -0.276 OA 
HETATM   11  O   UNL     1      -9.696  18.931  69.203  1.00  0.00    -0.319 OA 
HETATM   12  CA  UNL     1     -10.758  14.532  69.571  1.00  0.00    -0.146 C  
HETATM   13  O   UNL     1     -12.273  15.496  67.745  1.00  0.00     0.204 OA 
ENDROOT
BRANCH  12  14
HETATM   14  N   UNL     1     -10.457  13.159  69.049  1.00  0.00    -0.432 N  
HETATM   15  C   UNL     1     -11.348  12.131  69.275  1.00  0.00    -0.266 C  
HETATM   16  H   UNL     1      -9.598  12.986  68.529  1.00  0.00     0.000 HD 
HETATM   17  O   UNL     1     -12.382  12.375  69.887  1.00  0.00    -0.175 OA 
BRANCH  15  18
HETATM   18  C   UNL     1     -11.045  10.745  68.766  1.00  0.00    -0.312 A  
HETATM   19  C   UNL     1     -10.809  10.468  67.391  1.00  0.00    -0.291 A  
HETATM   20  C   UNL     1     -10.415   9.175  66.987  1.00  0.00    -0.311 A  
HETATM   21  C   UNL     1     -10.866   9.690  69.698  1.00  0.00    -0.244 A  
HETATM   22  C   UNL     1     -10.201   8.169  67.925  1.00  0.00    -0.274 A  
HETATM   23  C   UNL     1     -10.421   8.431  69.269  1.00  0.00    -0.223 A  
BRANCH  19  24
HETATM   24  O   UNL     1     -10.967  11.477  66.463  1.00  0.00    -0.282 OA 
HETATM   25  C   UNL     1     -10.049  11.455  65.363  1.00  0.00    -0.261 C  
ENDBRANCH  19  24
BRANCH  21  26
HETATM   26  O   UNL     1     -10.956   9.760  71.066  1.00  0.00    -0.320 OA 
HETATM   27  C   UNL     1     -10.201   8.806  71.808  1.00  0.00    -0.338 C  
ENDBRANCH  21  26
ENDBRANCH  15  18
ENDBRANCH  12  14
TORSDOF 4
ENDMDL
MODEL       43
REMARK 921   NORMALIZED FREE ENERGY PREDICTED BY IDOCK:   -5.49 KCAL/MOL
REMARK 922        TOTAL FREE ENERGY PREDICTED BY IDOCK:   -7.70 KCAL/MOL
REMARK 923 INTER-LIGAND FREE ENERGY PREDICTED BY IDOCK:   -6.86 KCAL/MOL
REMARK 924 INTRA-LIGAND FREE ENERGY PREDICTED BY IDOCK:   -0.84 KCAL/MOL
REMARK 927      BINDING AFFINITY PREDICTED BY RF-SCORE:    0.00 PKD
ROOT
HETATM    1  C   UNL     1      -8.559   8.117  70.625  1.00  0.00    -0.130 C  
HETATM    2  S   UNL     1      -8.491   8.289  72.450  1.00  0.00    -0.183 SA 
HETATM    3  C   UNL     1      -9.650   6.912  72.788  1.00  0.00    -0.146 C  
HETATM    4  CA  UNL     1      -9.533   5.985  71.557  1.00  0.00    -0.149 C  
HETATM    5  C   UNL     1     -11.062   7.511  72.925  1.00  0.00    -0.426 C  
HETATM    6  C   UNL     1      -9.282   6.304  74.145  1.00  0.00    -0.164 C  
HETATM    7  N   UNL     1      -9.290   6.850  70.379  1.00  0.00    -0.159 N  
HETATM    8  C   UNL     1      -8.433   4.912  71.639  1.00  0.00    -0.122 C  
HETATM    9  C   UNL     1     -10.355   7.481  69.785  1.00  0.00    -0.221 C  
HETATM   10  OXT UNL     1      -8.319   4.097  72.543  1.00  0.00    -0.097 OA 
HETATM   11  O   UNL     1      -7.621   4.876  70.551  1.00  0.00    -0.060 OA 
HETATM   12  CA  UNL     1      -9.666   8.864  69.824  1.00  0.00    -0.175 C  
HETATM   13  O   UNL     1     -11.461   7.061  69.530  1.00  0.00    -0.147 OA 
ENDROOT
BRANCH  12  14
HETATM   14  N   UNL     1     -10.431   9.977  70.476  1.00  0.00    -0.382 N  
HETATM   15  C   UNL     1     -11.311  10.732  69.728  1.00  0.00    -0.300 C  
HETATM   16  H   UNL     1     -10.301  10.175  71.467  1.00  0.00     0.000 HD 
HETATM   17  O   UNL     1     -11.459  10.456  68.543  1.00  0.00    -0.248 OA 
BRANCH  15  18
HETATM   18  C   UNL     1     -12.071  11.862  70.374  1.00  0.00    -0.421 A  
HETATM   19  C   UNL     1     -12.808  11.700  71.579  1.00  0.00    -0.364 A  
HETATM   20  C   UNL     1     -13.403  12.817  72.200  1.00  0.00    -0.593 A  
HETATM   21  C   UNL     1     -11.955  13.169  69.835  1.00  0.00    -0.317 A  
HETATM   22  C   UNL     1     -13.237  14.097  71.677  1.00  0.00    -0.426 A  
HETATM   23  C   UNL     1     -12.514  14.267  70.507  1.00  0.00    -0.428 A  
BRANCH  19  24
HETATM   24  O   UNL     1     -12.930  10.440  72.131  1.00  0.00    -0.429 OA 
HETATM   25  C   UNL     1     -13.910   9.591  71.522  1.00  0.00    -0.194 C  
ENDBRANCH  19  24
BRANCH  21  26
HETATM   26  O   UNL     1     -11.226  13.560  68.740  1.00  0.00    -0.247 OA 
HETATM   27  C   UNL     1     -11.848  14.483  67.850  1.00  0.00    -0.336 C  
ENDBRANCH  21  26
ENDBRANCH  15  18
ENDBRANCH  12  14
TORSDOF 4
ENDMDL
MODEL       44
REMARK 921   NORMALIZED FREE ENERGY PREDICTED BY IDOCK:   -5.47 KCAL/MOL
REMARK 922        TOTAL FREE ENERGY PREDICTED BY IDOCK:   -7.68 KCAL/MOL
REMARK 923 INTER-LIGAND FREE ENERGY PREDICTED BY IDOCK:   -6.81 KCAL/MOL
REMARK 924 INTRA-LIGAND FREE ENERGY PREDICTED BY IDOCK:   -0.86 KCAL/MOL
REMARK 927      BINDING AFFINITY PREDICTED BY RF-SCORE:    0.00 PKD
ROOT
HETATM    1  C   UNL     1      -9.242   9.547  70.148  1.00  0.00    -0.244 C  
HETATM    2  S   UNL     1     -11.016   9.126  70.348  1.00  0.00    -0.258 SA 
HETATM    3  C   UNL     1     -10.783   7.323  70.124  1.00  0.00    -0.244 C  
HETATM    4  CA  UNL     1      -9.320   7.057  70.547  1.00  0.00    -0.159 C  
HETATM    5  C   UNL     1     -11.019   7.002  68.636  1.00  0.00    -0.144 C  
HETATM    6  C   UNL     1     -11.873   6.601  70.922  1.00  0.00    -0.434 C  
HETATM    7  N   UNL     1      -8.528   8.246  70.155  1.00  0.00    -0.124 N  
HETATM    8  C   UNL     1      -9.106   6.771  72.044  1.00  0.00    -0.138 C  
HETATM    9  C   UNL     1      -8.114   8.371  68.852  1.00  0.00    -0.114 C  
HETATM   10  OXT UNL     1      -9.683   5.899  72.677  1.00  0.00    -0.154 OA 
HETATM   11  O   UNL     1      -8.129   7.526  72.611  1.00  0.00    -0.102 OA 
HETATM   12  CA  UNL     1      -8.670   9.807  68.723  1.00  0.00    -0.128 C  
HETATM   13  O   UNL     1      -7.656   7.539  68.101  1.00  0.00    -0.108 OA 
ENDROOT
BRANCH  12  14
HETATM   14  N   UNL     1      -9.608  10.064  67.582  1.00  0.00    -0.147 N  
HETATM   15  C   UNL     1      -9.640  11.308  66.988  1.00  0.00    -0.178 C  
HETATM   16  H   UNL     1     -10.221   9.321  67.247  1.00  0.00     0.000 HD 
HETATM   17  O   UNL     1      -8.876  12.174  67.403  1.00  0.00    -0.167 OA 
BRANCH  15  18
HETATM   18  C   UNL     1     -10.593  11.578  65.852  1.00  0.00    -0.318 A  
HETATM   19  C   UNL     1     -11.676  12.494  65.962  1.00  0.00    -0.417 A  
HETATM   20  C   UNL     1     -12.465  12.794  64.832  1.00  0.00    -0.563 A  
HETATM   21  C   UNL     1     -10.340  10.995  64.584  1.00  0.00    -0.345 A  
HETATM   22  C   UNL     1     -12.168  12.245  63.588  1.00  0.00    -0.665 A  
HETATM   23  C   UNL     1     -11.110  11.358  63.469  1.00  0.00    -0.373 A  
BRANCH  19  24
HETATM   24  O   UNL     1     -11.940  13.083  67.182  1.00  0.00    -0.371 OA 
HETATM   25  C   UNL     1     -11.787  14.507  67.227  1.00  0.00    -0.392 C  
ENDBRANCH  19  24
BRANCH  21  26
HETATM   26  O   UNL     1      -9.305  10.161  64.240  1.00  0.00    -0.254 OA 
HETATM   27  C   UNL     1      -9.075   9.965  62.846  1.00  0.00    -0.273 C  
ENDBRANCH  21  26
ENDBRANCH  15  18
ENDBRANCH  12  14
TORSDOF 4
ENDMDL
MODEL       45
REMARK 921   NORMALIZED FREE ENERGY PREDICTED BY IDOCK:   -5.44 KCAL/MOL
REMARK 922        TOTAL FREE ENERGY PREDICTED BY IDOCK:   -7.64 KCAL/MOL
REMARK 923 INTER-LIGAND FREE ENERGY PREDICTED BY IDOCK:   -6.76 KCAL/MOL
REMARK 924 INTRA-LIGAND FREE ENERGY PREDICTED BY IDOCK:   -0.88 KCAL/MOL
REMARK 927      BINDING AFFINITY PREDICTED BY RF-SCORE:    0.00 PKD
ROOT
HETATM    1  C   UNL     1      -9.834  15.698  69.672  1.00  0.00    -0.280 C  
HETATM    2  S   UNL     1      -8.210  15.494  68.845  1.00  0.00    -0.220 SA 
HETATM    3  C   UNL     1      -8.763  16.158  67.230  1.00  0.00    -0.183 C  
HETATM    4  CA  UNL     1      -9.949  17.089  67.571  1.00  0.00    -0.274 C  
HETATM    5  C   UNL     1      -9.201  14.965  66.359  1.00  0.00    -0.317 C  
HETATM    6  C   UNL     1      -7.556  16.803  66.543  1.00  0.00    -0.334 C  
HETATM    7  N   UNL     1     -10.658  16.491  68.727  1.00  0.00    -0.300 N  
HETATM    8  C   UNL     1      -9.573  18.545  67.899  1.00  0.00    -0.300 C  
HETATM    9  C   UNL     1     -11.544  15.466  68.507  1.00  0.00    -0.359 C  
HETATM   10  OXT UNL     1      -8.917  19.277  67.172  1.00  0.00    -0.286 OA 
HETATM   11  O   UNL     1     -10.119  19.004  69.055  1.00  0.00    -0.403 OA 
HETATM   12  CA  UNL     1     -10.893  14.561  69.578  1.00  0.00    -0.184 C  
HETATM   13  O   UNL     1     -12.379  15.335  67.641  1.00  0.00     0.256 OA 
ENDROOT
BRANCH  12  14
HETATM   14  N   UNL     1     -10.474  13.192  69.135  1.00  0.00    -0.437 N  
HETATM   15  C   UNL     1     -11.338  12.128  69.290  1.00  0.00    -0.266 C  
HETATM   16  H   UNL     1      -9.554  13.047  68.721  1.00  0.00     0.000 HD 
HETATM   17  O   UNL     1     -12.444  12.337  69.774  1.00  0.00    -0.056 OA 
BRANCH  15  18
HETATM   18  C   UNL     1     -10.916  10.745  68.861  1.00  0.00    -0.289 A  
HETATM   19  C   UNL     1     -10.766   9.671  69.781  1.00  0.00    -0.245 A  
HETATM   20  C   UNL     1     -10.483   8.372  69.311  1.00  0.00    -0.223 A  
HETATM   21  C   UNL     1     -10.778  10.462  67.479  1.00  0.00    -0.287 A  
HETATM   22  C   UNL     1     -10.398   8.109  67.947  1.00  0.00    -0.280 A  
HETATM   23  C   UNL     1     -10.551   9.148  67.041  1.00  0.00    -0.266 A  
BRANCH  19  24
HETATM   24  O   UNL     1     -10.902   9.915  71.133  1.00  0.00    -0.309 OA 
HETATM   25  C   UNL     1     -10.920   8.754  71.973  1.00  0.00    -0.368 C  
ENDBRANCH  19  24
BRANCH  21  26
HETATM   26  O   UNL     1     -10.966  11.323  66.427  1.00  0.00    -0.279 OA 
HETATM   27  C   UNL     1     -10.145  11.124  65.279  1.00  0.00    -0.276 C  
ENDBRANCH  21  26
ENDBRANCH  15  18
ENDBRANCH  12  14
TORSDOF 4
ENDMDL
MODEL       46
REMARK 921   NORMALIZED FREE ENERGY PREDICTED BY IDOCK:   -5.41 KCAL/MOL
REMARK 922        TOTAL FREE ENERGY PREDICTED BY IDOCK:   -7.60 KCAL/MOL
REMARK 923 INTER-LIGAND FREE ENERGY PREDICTED BY IDOCK:   -6.69 KCAL/MOL
REMARK 924 INTRA-LIGAND FREE ENERGY PREDICTED BY IDOCK:   -0.92 KCAL/MOL
REMARK 927      BINDING AFFINITY PREDICTED BY RF-SCORE:    0.00 PKD
ROOT
HETATM    1  C   UNL     1     -10.273   8.884  69.300  1.00  0.00    -0.209 C  
HETATM    2  S   UNL     1     -10.283   7.804  67.818  1.00  0.00    -0.226 SA 
HETATM    3  C   UNL     1      -8.485   7.454  67.857  1.00  0.00    -0.122 C  
HETATM    4  CA  UNL     1      -8.078   7.641  69.337  1.00  0.00    -0.127 C  
HETATM    5  C   UNL     1      -7.789   8.475  66.937  1.00  0.00    -0.092 C  
HETATM    6  C   UNL     1      -8.258   6.067  67.250  1.00  0.00    -0.106 C  
HETATM    7  N   UNL     1      -8.920   8.728  69.889  1.00  0.00    -0.147 N  
HETATM    8  C   UNL     1      -8.213   6.390  70.222  1.00  0.00    -0.125 C  
HETATM    9  C   UNL     1      -8.570  10.032  69.643  1.00  0.00    -0.184 C  
HETATM   10  OXT UNL     1      -7.697   5.307  69.984  1.00  0.00    -0.073 OA 
HETATM   11  O   UNL     1      -8.897   6.606  71.376  1.00  0.00    -0.138 OA 
HETATM   12  CA  UNL     1      -9.983  10.406  69.140  1.00  0.00    -0.223 C  
HETATM   13  O   UNL     1      -7.480  10.560  69.665  1.00  0.00    -0.143 OA 
ENDROOT
BRANCH  12  14
HETATM   14  N   UNL     1     -10.067  11.039  67.784  1.00  0.00    -0.175 N  
HETATM   15  C   UNL     1     -11.272  11.537  67.335  1.00  0.00    -0.304 C  
HETATM   16  H   UNL     1      -9.236  11.099  67.195  1.00  0.00     0.000 HD 
HETATM   17  O   UNL     1     -12.247  11.466  68.074  1.00  0.00    -0.607 OA 
BRANCH  15  18
HETATM   18  C   UNL     1     -11.367  12.160  65.965  1.00  0.00    -0.410 A  
HETATM   19  C   UNL     1     -10.964  11.477  64.784  1.00  0.00    -0.273 A  
HETATM   20  C   UNL     1     -11.183  12.062  63.520  1.00  0.00    -0.526 A  
HETATM   21  C   UNL     1     -11.991  13.425  65.822  1.00  0.00    -0.407 A  
HETATM   22  C   UNL     1     -11.840  13.283  63.403  1.00  0.00    -0.415 A  
HETATM   23  C   UNL     1     -12.243  13.953  64.547  1.00  0.00    -0.451 A  
BRANCH  19  24
HETATM   24  O   UNL     1     -10.361  10.240  64.892  1.00  0.00    -0.283 OA 
HETATM   25  C   UNL     1      -9.292   9.991  63.970  1.00  0.00    -0.270 C  
ENDBRANCH  19  24
BRANCH  21  26
HETATM   26  O   UNL     1     -12.529  14.208  66.813  1.00  0.00    -0.396 OA 
HETATM   27  C   UNL     1     -11.638  15.095  67.486  1.00  0.00    -0.257 C  
ENDBRANCH  21  26
ENDBRANCH  15  18
ENDBRANCH  12  14
TORSDOF 4
ENDMDL
MODEL       47
REMARK 921   NORMALIZED FREE ENERGY PREDICTED BY IDOCK:   -5.41 KCAL/MOL
REMARK 922        TOTAL FREE ENERGY PREDICTED BY IDOCK:   -7.60 KCAL/MOL
REMARK 923 INTER-LIGAND FREE ENERGY PREDICTED BY IDOCK:   -6.84 KCAL/MOL
REMARK 924 INTRA-LIGAND FREE ENERGY PREDICTED BY IDOCK:   -0.77 KCAL/MOL
REMARK 927      BINDING AFFINITY PREDICTED BY RF-SCORE:    0.00 PKD
ROOT
HETATM    1  C   UNL     1      -8.746   7.376  70.518  1.00  0.00    -0.147 C  
HETATM    2  S   UNL     1      -8.700   7.976  72.251  1.00  0.00    -0.182 SA 
HETATM    3  C   UNL     1     -10.073   6.911  72.830  1.00  0.00    -0.177 C  
HETATM    4  CA  UNL     1     -10.072   5.704  71.864  1.00  0.00    -0.189 C  
HETATM    5  C   UNL     1     -11.375   7.728  72.727  1.00  0.00    -0.446 C  
HETATM    6  C   UNL     1      -9.844   6.606  74.313  1.00  0.00    -0.353 C  
HETATM    7  N   UNL     1      -9.663   6.209  70.532  1.00  0.00    -0.171 N  
HETATM    8  C   UNL     1      -9.160   4.533  72.269  1.00  0.00    -0.125 C  
HETATM    9  C   UNL     1     -10.596   6.826  69.738  1.00  0.00    -0.228 C  
HETATM   10  OXT UNL     1      -9.202   3.957  73.346  1.00  0.00    -0.104 OA 
HETATM   11  O   UNL     1      -8.335   4.113  71.276  1.00  0.00    -0.078 OA 
HETATM   12  CA  UNL     1      -9.697   8.059  69.492  1.00  0.00    -0.170 C  
HETATM   13  O   UNL     1     -11.748   6.526  69.518  1.00  0.00    -0.329 OA 
ENDROOT
BRANCH  12  14
HETATM   14  N   UNL     1     -10.292   9.398  69.810  1.00  0.00    -0.209 N  
HETATM   15  C   UNL     1     -10.937  10.112  68.822  1.00  0.00    -0.223 C  
HETATM   16  H   UNL     1     -10.219   9.779  70.753  1.00  0.00     0.000 HD 
HETATM   17  O   UNL     1     -11.024   9.618  67.703  1.00  0.00    -0.268 OA 
BRANCH  15  18
HETATM   18  C   UNL     1     -11.523  11.466  69.131  1.00  0.00    -0.365 A  
HETATM   19  C   UNL     1     -12.049  11.800  70.410  1.00  0.00    -0.352 A  
HETATM   20  C   UNL     1     -12.478  13.116  70.677  1.00  0.00    -0.363 A  
HETATM   21  C   UNL     1     -11.444  12.493  68.156  1.00  0.00    -0.319 A  
HETATM   22  C   UNL     1     -12.347  14.117  69.719  1.00  0.00    -0.350 A  
HETATM   23  C   UNL     1     -11.829  13.805  68.472  1.00  0.00    -0.406 A  
BRANCH  19  24
HETATM   24  O   UNL     1     -12.131  10.823  71.382  1.00  0.00    -0.307 OA 
HETATM   25  C   UNL     1     -13.389  10.731  72.062  1.00  0.00    -0.298 C  
ENDBRANCH  19  24
BRANCH  21  26
HETATM   26  O   UNL     1     -10.897  12.411  66.900  1.00  0.00    -0.239 OA 
HETATM   27  C   UNL     1     -11.802  12.473  65.800  1.00  0.00    -0.437 C  
ENDBRANCH  21  26
ENDBRANCH  15  18
ENDBRANCH  12  14
TORSDOF 4
ENDMDL
MODEL       48
REMARK 921   NORMALIZED FREE ENERGY PREDICTED BY IDOCK:   -5.39 KCAL/MOL
REMARK 922        TOTAL FREE ENERGY PREDICTED BY IDOCK:   -7.58 KCAL/MOL
REMARK 923 INTER-LIGAND FREE ENERGY PREDICTED BY IDOCK:   -7.01 KCAL/MOL
REMARK 924 INTRA-LIGAND FREE ENERGY PREDICTED BY IDOCK:   -0.57 KCAL/MOL
REMARK 927      BINDING AFFINITY PREDICTED BY RF-SCORE:    0.00 PKD
ROOT
HETATM    1  C   UNL     1     -10.424  17.280  68.238  1.00  0.00    -0.385 C  
HETATM    2  S   UNL     1      -8.751  16.915  68.896  1.00  0.00    -0.159 SA 
HETATM    3  C   UNL     1      -7.873  17.310  67.338  1.00  0.00    -0.180 C  
HETATM    4  CA  UNL     1      -8.801  18.303  66.601  1.00  0.00    -0.284 C  
HETATM    5  C   UNL     1      -7.699  15.996  66.552  1.00  0.00    -0.167 C  
HETATM    6  C   UNL     1      -6.472  17.813  67.697  1.00  0.00    -0.187 C  
HETATM    7  N   UNL     1     -10.196  17.917  66.918  1.00  0.00    -0.342 N  
HETATM    8  C   UNL     1      -8.589  19.787  66.949  1.00  0.00    -0.329 C  
HETATM    9  C   UNL     1     -10.775  16.884  66.225  1.00  0.00    -0.096 C  
HETATM   10  OXT UNL     1      -7.522  20.378  66.868  1.00  0.00    -0.282 OA 
HETATM   11  O   UNL     1      -9.734  20.441  67.278  1.00  0.00    -0.419 OA 
HETATM   12  CA  UNL     1     -11.227  16.159  67.513  1.00  0.00    -0.094 C  
HETATM   13  O   UNL     1     -10.734  16.624  65.043  1.00  0.00    -0.677 OA 
ENDROOT
BRANCH  12  14
HETATM   14  N   UNL     1     -10.803  14.729  67.662  1.00  0.00    -0.278 N  
HETATM   15  C   UNL     1     -11.557  13.869  68.434  1.00  0.00    -0.332 C  
HETATM   16  H   UNL     1      -9.961  14.393  67.196  1.00  0.00     0.000 HD 
HETATM   17  O   UNL     1     -12.575  14.299  68.966  1.00  0.00    -0.076 OA 
BRANCH  15  18
HETATM   18  C   UNL     1     -11.128  12.434  68.601  1.00  0.00    -0.297 A  
HETATM   19  C   UNL     1     -11.457  11.666  69.753  1.00  0.00    -0.264 A  
HETATM   20  C   UNL     1     -11.130  10.295  69.805  1.00  0.00    -0.340 A  
HETATM   21  C   UNL     1     -10.476  11.777  67.527  1.00  0.00    -0.202 A  
HETATM   22  C   UNL     1     -10.532   9.662  68.719  1.00  0.00    -0.238 A  
HETATM   23  C   UNL     1     -10.215  10.399  67.590  1.00  0.00    -0.240 A  
BRANCH  19  24
HETATM   24  O   UNL     1     -12.099  12.277  70.811  1.00  0.00    -0.340 OA 
HETATM   25  C   UNL     1     -12.926  11.422  71.610  1.00  0.00    -0.418 C  
ENDBRANCH  19  24
BRANCH  21  26
HETATM   26  O   UNL     1     -10.149  12.302  66.302  1.00  0.00    -0.224 OA 
HETATM   27  C   UNL     1      -9.361  11.482  65.441  1.00  0.00    -0.159 C  
ENDBRANCH  21  26
ENDBRANCH  15  18
ENDBRANCH  12  14
TORSDOF 4
ENDMDL
MODEL       49
REMARK 921   NORMALIZED FREE ENERGY PREDICTED BY IDOCK:   -5.39 KCAL/MOL
REMARK 922        TOTAL FREE ENERGY PREDICTED BY IDOCK:   -7.58 KCAL/MOL
REMARK 923 INTER-LIGAND FREE ENERGY PREDICTED BY IDOCK:   -6.94 KCAL/MOL
REMARK 924 INTRA-LIGAND FREE ENERGY PREDICTED BY IDOCK:   -0.64 KCAL/MOL
REMARK 927      BINDING AFFINITY PREDICTED BY RF-SCORE:    0.00 PKD
ROOT
HETATM    1  C   UNL     1      -9.135  13.748  67.163  1.00  0.00    -0.239 C  
HETATM    2  S   UNL     1      -9.376  14.259  68.908  1.00  0.00     0.024 SA 
HETATM    3  C   UNL     1     -11.206  14.250  68.831  1.00  0.00    -0.264 C  
HETATM    4  CA  UNL     1     -11.549  13.253  67.701  1.00  0.00    -0.346 C  
HETATM    5  C   UNL     1     -11.667  15.681  68.494  1.00  0.00    -0.339 C  
HETATM    6  C   UNL     1     -11.739  13.919  70.227  1.00  0.00    -0.294 C  
HETATM    7  N   UNL     1     -10.484  13.366  66.677  1.00  0.00    -0.277 N  
HETATM    8  C   UNL     1     -11.686  11.783  68.136  1.00  0.00    -0.307 C  
HETATM    9  C   UNL     1     -10.540  14.393  65.769  1.00  0.00    -0.318 C  
HETATM   10  OXT UNL     1     -12.430  11.383  69.019  1.00  0.00    -0.364 OA 
HETATM   11  O   UNL     1     -10.961  10.919  67.379  1.00  0.00    -0.260 OA 
HETATM   12  CA  UNL     1      -9.083  14.831  66.045  1.00  0.00    -0.026 C  
HETATM   13  O   UNL     1     -11.486  14.837  65.157  1.00  0.00    -0.350 OA 
ENDROOT
BRANCH  12  14
HETATM   14  N   UNL     1      -8.873  16.269  66.414  1.00  0.00    -0.282 N  
HETATM   15  C   UNL     1      -7.601  16.727  66.684  1.00  0.00    -0.276 C  
HETATM   16  H   UNL     1      -9.668  16.905  66.467  1.00  0.00     0.000 HD 
HETATM   17  O   UNL     1      -6.664  15.941  66.594  1.00  0.00    -0.197 OA 
BRANCH  15  18
HETATM   18  C   UNL     1      -7.384  18.168  67.072  1.00  0.00    -0.226 A  
HETATM   19  C   UNL     1      -8.259  19.212  66.660  1.00  0.00    -0.293 A  
HETATM   20  C   UNL     1      -8.075  20.522  67.148  1.00  0.00    -0.358 A  
HETATM   21  C   UNL     1      -6.343  18.491  67.978  1.00  0.00    -0.197 A  
HETATM   22  C   UNL     1      -7.074  20.805  68.073  1.00  0.00    -0.195 A  
HETATM   23  C   UNL     1      -6.221  19.793  68.487  1.00  0.00    -0.294 A  
BRANCH  19  24
HETATM   24  O   UNL     1      -9.287  18.925  65.784  1.00  0.00    -0.394 OA 
HETATM   25  C   UNL     1     -10.587  19.370  66.190  1.00  0.00    -0.477 C  
ENDBRANCH  19  24
BRANCH  21  26
HETATM   26  O   UNL     1      -5.449  17.630  68.564  1.00  0.00    -0.150 OA 
HETATM   27  C   UNL     1      -5.612  17.386  69.959  1.00  0.00    -0.240 C  
ENDBRANCH  21  26
ENDBRANCH  15  18
ENDBRANCH  12  14
TORSDOF 4
ENDMDL
MODEL       50
REMARK 921   NORMALIZED FREE ENERGY PREDICTED BY IDOCK:   -5.38 KCAL/MOL
REMARK 922        TOTAL FREE ENERGY PREDICTED BY IDOCK:   -7.57 KCAL/MOL
REMARK 923 INTER-LIGAND FREE ENERGY PREDICTED BY IDOCK:   -6.72 KCAL/MOL
REMARK 924 INTRA-LIGAND FREE ENERGY PREDICTED BY IDOCK:   -0.85 KCAL/MOL
REMARK 927      BINDING AFFINITY PREDICTED BY RF-SCORE:    0.00 PKD
ROOT
HETATM    1  C   UNL     1     -10.376   8.963  68.524  1.00  0.00    -0.198 C  
HETATM    2  S   UNL     1     -10.041   8.750  66.733  1.00  0.00    -0.288 SA 
HETATM    3  C   UNL     1      -8.261   8.375  66.942  1.00  0.00    -0.103 C  
HETATM    4  CA  UNL     1      -8.143   7.800  68.372  1.00  0.00    -0.124 C  
HETATM    5  C   UNL     1      -7.483   9.696  66.788  1.00  0.00    -0.094 C  
HETATM    6  C   UNL     1      -7.830   7.459  65.794  1.00  0.00    -0.108 C  
HETATM    7  N   UNL     1      -9.145   8.500  69.210  1.00  0.00    -0.152 N  
HETATM    8  C   UNL     1      -8.347   6.280  68.493  1.00  0.00    -0.115 C  
HETATM    9  C   UNL     1      -8.849   9.746  69.702  1.00  0.00    -0.211 C  
HETATM   10  OXT UNL     1      -7.722   5.440  67.862  1.00  0.00    -0.090 OA 
HETATM   11  O   UNL     1      -9.243   5.922  69.449  1.00  0.00    -0.129 OA 
HETATM   12  CA  UNL     1     -10.170  10.359  69.183  1.00  0.00    -0.222 C  
HETATM   13  O   UNL     1      -7.821  10.165  70.187  1.00  0.00    -0.170 OA 
ENDROOT
BRANCH  12  14
HETATM   14  N   UNL     1     -10.051  11.577  68.318  1.00  0.00    -0.193 N  
HETATM   15  C   UNL     1     -11.190  12.184  67.831  1.00  0.00    -0.272 C  
HETATM   16  H   UNL     1      -9.132  11.956  68.091  1.00  0.00     0.000 HD 
HETATM   17  O   UNL     1     -12.281  11.716  68.138  1.00  0.00    -0.537 OA 
BRANCH  15  18
HETATM   18  C   UNL     1     -11.077  13.400  66.947  1.00  0.00    -0.309 A  
HETATM   19  C   UNL     1     -10.213  14.490  67.250  1.00  0.00    -0.255 A  
HETATM   20  C   UNL     1     -10.060  15.547  66.330  1.00  0.00    -0.312 A  
HETATM   21  C   UNL     1     -11.761  13.418  65.705  1.00  0.00    -0.349 A  
HETATM   22  C   UNL     1     -10.706  15.520  65.097  1.00  0.00    -0.460 A  
HETATM   23  C   UNL     1     -11.544  14.459  64.789  1.00  0.00    -0.410 A  
BRANCH  19  24
HETATM   24  O   UNL     1      -9.529  14.495  68.448  1.00  0.00    -0.197 OA 
HETATM   25  C   UNL     1      -9.725  15.654  69.267  1.00  0.00    -0.271 C  
ENDBRANCH  19  24
BRANCH  21  26
HETATM   26  O   UNL     1     -12.567  12.439  65.181  1.00  0.00    -0.622 OA 
HETATM   27  C   UNL     1     -12.388  12.129  63.801  1.00  0.00    -0.532 C  
ENDBRANCH  21  26
ENDBRANCH  15  18
ENDBRANCH  12  14
TORSDOF 4
ENDMDL
MODEL       51
REMARK 921   NORMALIZED FREE ENERGY PREDICTED BY IDOCK:   -5.38 KCAL/MOL
REMARK 922        TOTAL FREE ENERGY PREDICTED BY IDOCK:   -7.57 KCAL/MOL
REMARK 923 INTER-LIGAND FREE ENERGY PREDICTED BY IDOCK:   -6.71 KCAL/MOL
REMARK 924 INTRA-LIGAND FREE ENERGY PREDICTED BY IDOCK:   -0.86 KCAL/MOL
REMARK 927      BINDING AFFINITY PREDICTED BY RF-SCORE:    0.00 PKD
ROOT
HETATM    1  C   UNL     1     -10.109   8.242  67.084  1.00  0.00    -0.264 C  
HETATM    2  S   UNL     1      -8.722   8.369  65.891  1.00  0.00    -0.174 SA 
HETATM    3  C   UNL     1      -7.438   8.663  67.164  1.00  0.00    -0.088 C  
HETATM    4  CA  UNL     1      -8.001   8.018  68.451  1.00  0.00    -0.120 C  
HETATM    5  C   UNL     1      -7.267  10.187  67.313  1.00  0.00    -0.089 C  
HETATM    6  C   UNL     1      -6.112   8.107  66.638  1.00  0.00    -0.053 C  
HETATM    7  N   UNL     1      -9.472   8.196  68.423  1.00  0.00    -0.141 N  
HETATM    8  C   UNL     1      -7.670   6.527  68.642  1.00  0.00    -0.102 C  
HETATM    9  C   UNL     1     -10.004   9.400  68.810  1.00  0.00    -0.179 C  
HETATM   10  OXT UNL     1      -6.542   6.056  68.632  1.00  0.00    -0.053 OA 
HETATM   11  O   UNL     1      -8.753   5.758  68.923  1.00  0.00    -0.111 OA 
HETATM   12  CA  UNL     1     -10.861   9.531  67.530  1.00  0.00    -0.170 C  
HETATM   13  O   UNL     1      -9.710  10.114  69.743  1.00  0.00    -0.230 OA 
ENDROOT
BRANCH  12  14
HETATM   14  N   UNL     1     -10.698  10.794  66.740  1.00  0.00    -0.251 N  
HETATM   15  C   UNL     1     -11.459  11.901  67.055  1.00  0.00    -0.316 C  
HETATM   16  H   UNL     1     -10.029  10.836  65.973  1.00  0.00     0.000 HD 
HETATM   17  O   UNL     1     -12.243  11.824  67.996  1.00  0.00    -0.518 OA 
BRANCH  15  18
HETATM   18  C   UNL     1     -11.313  13.170  66.255  1.00  0.00    -0.348 A  
HETATM   19  C   UNL     1     -12.109  13.448  65.108  1.00  0.00    -0.409 A  
HETATM   20  C   UNL     1     -12.011  14.700  64.467  1.00  0.00    -0.473 A  
HETATM   21  C   UNL     1     -10.439  14.184  66.720  1.00  0.00    -0.277 A  
HETATM   22  C   UNL     1     -11.180  15.696  64.971  1.00  0.00    -0.335 A  
HETATM   23  C   UNL     1     -10.406  15.438  66.091  1.00  0.00    -0.325 A  
BRANCH  19  24
HETATM   24  O   UNL     1     -12.975  12.481  64.637  1.00  0.00    -0.803 OA 
HETATM   25  C   UNL     1     -12.585  11.846  63.414  1.00  0.00    -0.431 C  
ENDBRANCH  19  24
BRANCH  21  26
HETATM   26  O   UNL     1      -9.654  14.159  67.846  1.00  0.00    -0.211 OA 
HETATM   27  C   UNL     1     -10.041  15.015  68.919  1.00  0.00    -0.234 C  
ENDBRANCH  21  26
ENDBRANCH  15  18
ENDBRANCH  12  14
TORSDOF 4
ENDMDL
MODEL       52
REMARK 921   NORMALIZED FREE ENERGY PREDICTED BY IDOCK:   -5.38 KCAL/MOL
REMARK 922        TOTAL FREE ENERGY PREDICTED BY IDOCK:   -7.57 KCAL/MOL
REMARK 923 INTER-LIGAND FREE ENERGY PREDICTED BY IDOCK:   -7.11 KCAL/MOL
REMARK 924 INTRA-LIGAND FREE ENERGY PREDICTED BY IDOCK:   -0.46 KCAL/MOL
REMARK 927      BINDING AFFINITY PREDICTED BY RF-SCORE:    0.00 PKD
ROOT
HETATM    1  C   UNL     1      -9.532  13.414  66.731  1.00  0.00    -0.261 C  
HETATM    2  S   UNL     1      -9.778  13.924  68.476  1.00  0.00    -0.164 SA 
HETATM    3  C   UNL     1     -11.578  13.589  68.493  1.00  0.00    -0.333 C  
HETATM    4  CA  UNL     1     -11.791  12.514  67.402  1.00  0.00    -0.312 C  
HETATM    5  C   UNL     1     -12.302  14.905  68.151  1.00  0.00     0.173 C  
HETATM    6  C   UNL     1     -11.977  13.209  69.921  1.00  0.00    -0.387 C  
HETATM    7  N   UNL     1     -10.812  12.785  66.323  1.00  0.00    -0.271 N  
HETATM    8  C   UNL     1     -11.643  11.057  67.873  1.00  0.00    -0.226 C  
HETATM    9  C   UNL     1     -11.093  13.759  65.398  1.00  0.00    -0.302 C  
HETATM   10  OXT UNL     1     -12.262  10.558  68.802  1.00  0.00    -0.286 OA 
HETATM   11  O   UNL     1     -10.812  10.313  67.098  1.00  0.00    -0.262 OA 
HETATM   12  CA  UNL     1      -9.726  14.456  65.590  1.00  0.00    -0.224 C  
HETATM   13  O   UNL     1     -12.130  14.010  64.827  1.00  0.00    -0.393 OA 
ENDROOT
BRANCH  12  14
HETATM   14  N   UNL     1      -9.759  15.918  65.919  1.00  0.00    -0.334 N  
HETATM   15  C   UNL     1      -8.599  16.560  66.298  1.00  0.00    -0.332 C  
HETATM   16  H   UNL     1     -10.635  16.435  65.864  1.00  0.00     0.000 HD 
HETATM   17  O   UNL     1      -7.557  15.913  66.338  1.00  0.00    -0.114 OA 
BRANCH  15  18
HETATM   18  C   UNL     1      -8.627  18.026  66.646  1.00  0.00    -0.281 A  
HETATM   19  C   UNL     1      -7.753  18.974  66.044  1.00  0.00    -0.229 A  
HETATM   20  C   UNL     1      -7.902  20.348  66.321  1.00  0.00    -0.151 A  
HETATM   21  C   UNL     1      -9.638  18.511  67.515  1.00  0.00    -0.287 A  
HETATM   22  C   UNL     1      -8.931  20.804  67.140  1.00  0.00    -0.277 A  
HETATM   23  C   UNL     1      -9.792  19.890  67.726  1.00  0.00    -0.530 A  
BRANCH  19  24
HETATM   24  O   UNL     1      -6.765  18.531  65.188  1.00  0.00    -0.517 OA 
HETATM   25  C   UNL     1      -6.017  19.557  64.524  1.00  0.00    -0.274 C  
ENDBRANCH  19  24
BRANCH  21  26
HETATM   26  O   UNL     1     -10.630  17.788  68.128  1.00  0.00    -0.378 OA 
HETATM   27  C   UNL     1     -10.369  17.334  69.454  1.00  0.00    -0.158 C  
ENDBRANCH  21  26
ENDBRANCH  15  18
ENDBRANCH  12  14
TORSDOF 4
ENDMDL
MODEL       53
REMARK 921   NORMALIZED FREE ENERGY PREDICTED BY IDOCK:   -5.34 KCAL/MOL
REMARK 922        TOTAL FREE ENERGY PREDICTED BY IDOCK:   -7.52 KCAL/MOL
REMARK 923 INTER-LIGAND FREE ENERGY PREDICTED BY IDOCK:   -6.51 KCAL/MOL
REMARK 924 INTRA-LIGAND FREE ENERGY PREDICTED BY IDOCK:   -1.01 KCAL/MOL
REMARK 927      BINDING AFFINITY PREDICTED BY RF-SCORE:    0.00 PKD
ROOT
HETATM    1  C   UNL     1     -11.796  12.338  68.304  1.00  0.00    -0.310 C  
HETATM    2  S   UNL     1     -10.562  13.636  68.702  1.00  0.00    -0.231 SA 
HETATM    3  C   UNL     1      -9.637  13.470  67.130  1.00  0.00    -0.241 C  
HETATM    4  CA  UNL     1     -10.666  12.910  66.122  1.00  0.00    -0.272 C  
HETATM    5  C   UNL     1      -8.475  12.488  67.372  1.00  0.00    -0.181 C  
HETATM    6  C   UNL     1      -9.019  14.831  66.798  1.00  0.00    -0.292 C  
HETATM    7  N   UNL     1     -11.571  12.009  66.875  1.00  0.00    -0.343 N  
HETATM    8  C   UNL     1     -11.501  13.964  65.374  1.00  0.00    -0.312 C  
HETATM    9  C   UNL     1     -11.160  10.728  67.147  1.00  0.00    -0.227 C  
HETATM   10  OXT UNL     1     -11.036  14.890  64.726  1.00  0.00    -0.391 OA 
HETATM   11  O   UNL     1     -12.839  13.731  65.413  1.00  0.00    -0.650 OA 
HETATM   12  CA  UNL     1     -11.488  10.851  68.652  1.00  0.00    -0.311 C  
HETATM   13  O   UNL     1     -10.589   9.930  66.438  1.00  0.00    -0.161 OA 
ENDROOT
BRANCH  12  14
HETATM   14  N   UNL     1     -10.380  10.528  69.609  1.00  0.00    -0.347 N  
HETATM   15  C   UNL     1     -10.168   9.221  69.994  1.00  0.00    -0.215 C  
HETATM   16  H   UNL     1      -9.786  11.272  69.974  1.00  0.00     0.000 HD 
HETATM   17  O   UNL     1     -10.888   8.347  69.523  1.00  0.00    -0.210 OA 
BRANCH  15  18
HETATM   18  C   UNL     1      -9.066   8.891  70.968  1.00  0.00    -0.303 A  
HETATM   19  C   UNL     1      -7.698   9.182  70.705  1.00  0.00    -0.141 A  
HETATM   20  C   UNL     1      -6.724   8.958  71.699  1.00  0.00    -0.067 A  
HETATM   21  C   UNL     1      -9.404   8.382  72.248  1.00  0.00    -0.286 A  
HETATM   22  C   UNL     1      -7.086   8.502  72.964  1.00  0.00    -0.055 A  
HETATM   23  C   UNL     1      -8.417   8.223  73.233  1.00  0.00    -0.267 A  
BRANCH  19  24
HETATM   24  O   UNL     1      -7.341   9.686  69.471  1.00  0.00    -0.069 OA 
HETATM   25  C   UNL     1      -5.996  10.168  69.366  1.00  0.00    -0.037 C  
ENDBRANCH  19  24
BRANCH  21  26
HETATM   26  O   UNL     1     -10.659   8.118  72.737  1.00  0.00    -0.332 OA 
HETATM   27  C   UNL     1     -11.081   6.756  72.719  1.00  0.00    -0.257 C  
ENDBRANCH  21  26
ENDBRANCH  15  18
ENDBRANCH  12  14
TORSDOF 4
ENDMDL
MODEL       54
REMARK 921   NORMALIZED FREE ENERGY PREDICTED BY IDOCK:   -5.33 KCAL/MOL
REMARK 922        TOTAL FREE ENERGY PREDICTED BY IDOCK:   -7.51 KCAL/MOL
REMARK 923 INTER-LIGAND FREE ENERGY PREDICTED BY IDOCK:   -6.69 KCAL/MOL
REMARK 924 INTRA-LIGAND FREE ENERGY PREDICTED BY IDOCK:   -0.82 KCAL/MOL
REMARK 927      BINDING AFFINITY PREDICTED BY RF-SCORE:    0.00 PKD
ROOT
HETATM    1  C   UNL     1     -11.282  14.404  67.109  1.00  0.00    -0.328 C  
HETATM    2  S   UNL     1      -9.886  13.725  66.132  1.00  0.00    -0.275 SA 
HETATM    3  C   UNL     1      -9.167  12.768  67.518  1.00  0.00    -0.191 C  
HETATM    4  CA  UNL     1     -10.355  12.491  68.467  1.00  0.00    -0.222 C  
HETATM    5  C   UNL     1      -8.091  13.646  68.185  1.00  0.00    -0.156 C  
HETATM    6  C   UNL     1      -8.455  11.545  66.932  1.00  0.00    -0.165 C  
HETATM    7  N   UNL     1     -11.255  13.666  68.396  1.00  0.00    -0.261 N  
HETATM    8  C   UNL     1     -11.158  11.213  68.166  1.00  0.00    -0.264 C  
HETATM    9  C   UNL     1     -10.949  14.786  69.128  1.00  0.00    -0.267 C  
HETATM   10  OXT UNL     1     -10.678  10.093  68.078  1.00  0.00    -0.223 OA 
HETATM   11  O   UNL     1     -12.499  11.414  68.092  1.00  0.00    -0.240 OA 
HETATM   12  CA  UNL     1     -11.089  15.726  67.909  1.00  0.00    -0.326 C  
HETATM   13  O   UNL     1     -10.546  14.882  70.266  1.00  0.00    -0.128 OA 
ENDROOT
BRANCH  12  14
HETATM   14  N   UNL     1      -9.919  16.612  67.607  1.00  0.00    -0.257 N  
HETATM   15  C   UNL     1      -9.721  17.761  68.345  1.00  0.00    -0.333 C  
HETATM   16  H   UNL     1      -9.271  16.367  66.859  1.00  0.00     0.000 HD 
HETATM   17  O   UNL     1     -10.507  18.018  69.251  1.00  0.00    -0.180 OA 
BRANCH  15  18
HETATM   18  C   UNL     1      -8.555  18.665  68.036  1.00  0.00    -0.321 A  
HETATM   19  C   UNL     1      -7.205  18.281  68.270  1.00  0.00    -0.259 A  
HETATM   20  C   UNL     1      -6.150  19.119  67.854  1.00  0.00    -0.218 A  
HETATM   21  C   UNL     1      -8.792  19.897  67.375  1.00  0.00    -0.336 A  
HETATM   22  C   UNL     1      -6.406  20.301  67.166  1.00  0.00    -0.239 A  
HETATM   23  C   UNL     1      -7.718  20.680  66.926  1.00  0.00    -0.274 A  
BRANCH  19  24
HETATM   24  O   UNL     1      -6.944  17.083  68.904  1.00  0.00    -0.196 OA 
HETATM   25  C   UNL     1      -5.679  16.999  69.571  1.00  0.00    -0.193 C  
ENDBRANCH  19  24
BRANCH  21  26
HETATM   26  O   UNL     1     -10.000  20.413  66.977  1.00  0.00    -0.450 OA 
HETATM   27  C   UNL     1     -10.570  19.869  65.788  1.00  0.00    -0.385 C  
ENDBRANCH  21  26
ENDBRANCH  15  18
ENDBRANCH  12  14
TORSDOF 4
ENDMDL
MODEL       55
REMARK 921   NORMALIZED FREE ENERGY PREDICTED BY IDOCK:   -5.32 KCAL/MOL
REMARK 922        TOTAL FREE ENERGY PREDICTED BY IDOCK:   -7.49 KCAL/MOL
REMARK 923 INTER-LIGAND FREE ENERGY PREDICTED BY IDOCK:   -6.87 KCAL/MOL
REMARK 924 INTRA-LIGAND FREE ENERGY PREDICTED BY IDOCK:   -0.62 KCAL/MOL
REMARK 927      BINDING AFFINITY PREDICTED BY RF-SCORE:    0.00 PKD
ROOT
HETATM    1  C   UNL     1      -9.350  13.899  68.361  1.00  0.00    -0.201 C  
HETATM    2  S   UNL     1      -8.137  14.869  67.386  1.00  0.00    -0.208 SA 
HETATM    3  C   UNL     1      -9.383  15.983  66.636  1.00  0.00    -0.243 C  
HETATM    4  CA  UNL     1     -10.561  15.990  67.636  1.00  0.00    -0.309 C  
HETATM    5  C   UNL     1      -9.788  15.384  65.275  1.00  0.00    -0.239 C  
HETATM    6  C   UNL     1      -8.709  17.329  66.356  1.00  0.00    -0.285 C  
HETATM    7  N   UNL     1     -10.631  14.639  68.240  1.00  0.00    -0.231 N  
HETATM    8  C   UNL     1     -10.474  17.045  68.753  1.00  0.00    -0.347 C  
HETATM    9  C   UNL     1     -11.246  13.629  67.544  1.00  0.00    -0.294 C  
HETATM   10  OXT UNL     1     -10.331  18.245  68.569  1.00  0.00    -0.372 OA 
HETATM   11  O   UNL     1     -10.665  16.540  69.999  1.00  0.00    -0.312 OA 
HETATM   12  CA  UNL     1     -10.048  12.667  67.713  1.00  0.00    -0.220 C  
HETATM   13  O   UNL     1     -12.275  13.641  66.906  1.00  0.00    -0.399 OA 
ENDROOT
BRANCH  12  14
HETATM   14  N   UNL     1      -9.484  12.070  66.458  1.00  0.00    -0.222 N  
HETATM   15  C   UNL     1      -9.902  10.822  66.046  1.00  0.00    -0.235 C  
HETATM   16  H   UNL     1      -8.795  12.585  65.912  1.00  0.00     0.000 HD 
HETATM   17  O   UNL     1     -10.747  10.237  66.715  1.00  0.00    -0.217 OA 
BRANCH  15  18
HETATM   18  C   UNL     1      -9.328  10.209  64.794  1.00  0.00    -0.324 A  
HETATM   19  C   UNL     1      -8.566   9.008  64.810  1.00  0.00    -0.175 A  
HETATM   20  C   UNL     1      -8.152   8.418  63.598  1.00  0.00    -0.142 A  
HETATM   21  C   UNL     1      -9.653  10.775  63.535  1.00  0.00    -0.320 A  
HETATM   22  C   UNL     1      -8.523   8.967  62.374  1.00  0.00    -0.212 A  
HETATM   23  C   UNL     1      -9.272  10.133  62.347  1.00  0.00    -0.320 A  
BRANCH  19  24
HETATM   24  O   UNL     1      -8.242   8.430  66.021  1.00  0.00    -0.102 OA 
HETATM   25  C   UNL     1      -8.340   7.002  66.070  1.00  0.00    -0.134 C  
ENDBRANCH  19  24
BRANCH  21  26
HETATM   26  O   UNL     1     -10.442  11.871  63.291  1.00  0.00    -0.414 OA 
HETATM   27  C   UNL     1     -11.805  11.785  63.700  1.00  0.00    -0.393 C  
ENDBRANCH  21  26
ENDBRANCH  15  18
ENDBRANCH  12  14
TORSDOF 4
ENDMDL
MODEL       56
REMARK 921   NORMALIZED FREE ENERGY PREDICTED BY IDOCK:   -5.30 KCAL/MOL
REMARK 922        TOTAL FREE ENERGY PREDICTED BY IDOCK:   -7.47 KCAL/MOL
REMARK 923 INTER-LIGAND FREE ENERGY PREDICTED BY IDOCK:   -6.68 KCAL/MOL
REMARK 924 INTRA-LIGAND FREE ENERGY PREDICTED BY IDOCK:   -0.79 KCAL/MOL
REMARK 927      BINDING AFFINITY PREDICTED BY RF-SCORE:    0.00 PKD
ROOT
HETATM    1  C   UNL     1      -8.493   7.221  68.622  1.00  0.00    -0.129 C  
HETATM    2  S   UNL     1      -8.557   6.612  70.352  1.00  0.00    -0.144 SA 
HETATM    3  C   UNL     1      -9.872   5.377  70.042  1.00  0.00    -0.207 C  
HETATM    4  CA  UNL     1      -9.750   5.036  68.540  1.00  0.00    -0.154 C  
HETATM    5  C   UNL     1     -11.224   6.038  70.373  1.00  0.00    -0.380 C  
HETATM    6  C   UNL     1      -9.680   4.221  71.028  1.00  0.00    -0.260 C  
HETATM    7  N   UNL     1      -9.326   6.272  67.843  1.00  0.00    -0.115 N  
HETATM    8  C   UNL     1      -8.774   3.896  68.198  1.00  0.00    -0.102 C  
HETATM    9  C   UNL     1     -10.269   7.221  67.536  1.00  0.00    -0.221 C  
HETATM   10  OXT UNL     1      -8.817   2.773  68.678  1.00  0.00    -0.085 OA 
HETATM   11  O   UNL     1      -7.884   4.212  67.221  1.00  0.00    -0.090 OA 
HETATM   12  CA  UNL     1      -9.450   8.366  68.175  1.00  0.00    -0.138 C  
HETATM   13  O   UNL     1     -11.388   7.087  67.093  1.00  0.00    -0.240 OA 
ENDROOT
BRANCH  12  14
HETATM   14  N   UNL     1     -10.149   9.195  69.209  1.00  0.00    -0.187 N  
HETATM   15  C   UNL     1     -10.983  10.220  68.815  1.00  0.00    -0.243 C  
HETATM   16  H   UNL     1     -10.008   9.003  70.200  1.00  0.00     0.000 HD 
HETATM   17  O   UNL     1     -11.146  10.415  67.615  1.00  0.00    -0.310 OA 
BRANCH  15  18
HETATM   18  C   UNL     1     -11.676  11.069  69.850  1.00  0.00    -0.424 A  
HETATM   19  C   UNL     1     -11.744  12.487  69.758  1.00  0.00    -0.285 A  
HETATM   20  C   UNL     1     -12.505  13.221  70.692  1.00  0.00    -0.373 A  
HETATM   21  C   UNL     1     -12.395  10.435  70.896  1.00  0.00    -0.381 A  
HETATM   22  C   UNL     1     -13.239  12.572  71.681  1.00  0.00    -0.381 A  
HETATM   23  C   UNL     1     -13.185  11.191  71.775  1.00  0.00    -0.486 A  
BRANCH  19  24
HETATM   24  O   UNL     1     -11.062  13.131  68.745  1.00  0.00    -0.250 OA 
HETATM   25  C   UNL     1     -11.866  13.930  67.869  1.00  0.00    -0.378 C  
ENDBRANCH  19  24
BRANCH  21  26
HETATM   26  O   UNL     1     -12.534   9.087  71.116  1.00  0.00    -0.297 OA 
HETATM   27  C   UNL     1     -13.681   8.673  71.854  1.00  0.00    -0.421 C  
ENDBRANCH  21  26
ENDBRANCH  15  18
ENDBRANCH  12  14
TORSDOF 4
ENDMDL
MODEL       57
REMARK 921   NORMALIZED FREE ENERGY PREDICTED BY IDOCK:   -5.30 KCAL/MOL
REMARK 922        TOTAL FREE ENERGY PREDICTED BY IDOCK:   -7.47 KCAL/MOL
REMARK 923 INTER-LIGAND FREE ENERGY PREDICTED BY IDOCK:   -6.55 KCAL/MOL
REMARK 924 INTRA-LIGAND FREE ENERGY PREDICTED BY IDOCK:   -0.91 KCAL/MOL
REMARK 927      BINDING AFFINITY PREDICTED BY RF-SCORE:    0.00 PKD
ROOT
HETATM    1  C   UNL     1      -9.356   9.678  70.146  1.00  0.00    -0.251 C  
HETATM    2  S   UNL     1     -10.999   8.863  70.171  1.00  0.00    -0.198 SA 
HETATM    3  C   UNL     1     -10.388   7.243  69.572  1.00  0.00    -0.225 C  
HETATM    4  CA  UNL     1      -8.901   7.201  69.992  1.00  0.00    -0.142 C  
HETATM    5  C   UNL     1     -10.554   7.217  68.041  1.00  0.00    -0.247 C  
HETATM    6  C   UNL     1     -11.296   6.152  70.146  1.00  0.00    -0.433 C  
HETATM    7  N   UNL     1      -8.381   8.586  69.902  1.00  0.00    -0.120 N  
HETATM    8  C   UNL     1      -8.627   6.643  71.399  1.00  0.00    -0.125 C  
HETATM    9  C   UNL     1      -8.007   9.079  68.677  1.00  0.00    -0.102 C  
HETATM   10  OXT UNL     1      -9.003   5.552  71.802  1.00  0.00    -0.135 OA 
HETATM   11  O   UNL     1      -7.831   7.440  72.159  1.00  0.00    -0.087 OA 
HETATM   12  CA  UNL     1      -8.857  10.360  68.838  1.00  0.00    -0.161 C  
HETATM   13  O   UNL     1      -7.385   8.548  67.785  1.00  0.00    -0.089 OA 
ENDROOT
BRANCH  12  14
HETATM   14  N   UNL     1      -9.832  10.661  67.739  1.00  0.00    -0.164 N  
HETATM   15  C   UNL     1      -9.490  11.556  66.747  1.00  0.00    -0.189 C  
HETATM   16  H   UNL     1     -10.744  10.207  67.726  1.00  0.00     0.000 HD 
HETATM   17  O   UNL     1      -8.378  12.072  66.781  1.00  0.00    -0.181 OA 
BRANCH  15  18
HETATM   18  C   UNL     1     -10.472  11.875  65.649  1.00  0.00    -0.302 A  
HETATM   19  C   UNL     1     -10.290  11.438  64.307  1.00  0.00    -0.328 A  
HETATM   20  C   UNL     1     -11.296  11.666  63.346  1.00  0.00    -0.380 A  
HETATM   21  C   UNL     1     -11.686  12.532  65.976  1.00  0.00    -0.417 A  
HETATM   22  C   UNL     1     -12.498  12.271  63.702  1.00  0.00    -0.647 A  
HETATM   23  C   UNL     1     -12.689  12.694  65.008  1.00  0.00    -0.403 A  
BRANCH  19  24
HETATM   24  O   UNL     1      -9.121  10.789  63.962  1.00  0.00    -0.199 OA 
HETATM   25  C   UNL     1      -9.135  10.125  62.693  1.00  0.00    -0.290 C  
ENDBRANCH  19  24
BRANCH  21  26
HETATM   26  O   UNL     1     -12.099  12.955  67.214  1.00  0.00    -0.346 OA 
HETATM   27  C   UNL     1     -11.911  14.335  67.518  1.00  0.00    -0.395 C  
ENDBRANCH  21  26
ENDBRANCH  15  18
ENDBRANCH  12  14
TORSDOF 4
ENDMDL
MODEL       58
REMARK 921   NORMALIZED FREE ENERGY PREDICTED BY IDOCK:   -5.30 KCAL/MOL
REMARK 922        TOTAL FREE ENERGY PREDICTED BY IDOCK:   -7.46 KCAL/MOL
REMARK 923 INTER-LIGAND FREE ENERGY PREDICTED BY IDOCK:   -6.92 KCAL/MOL
REMARK 924 INTRA-LIGAND FREE ENERGY PREDICTED BY IDOCK:   -0.54 KCAL/MOL
REMARK 927      BINDING AFFINITY PREDICTED BY RF-SCORE:    0.00 PKD
ROOT
HETATM    1  C   UNL     1     -10.954  15.705  66.439  1.00  0.00    -0.197 C  
HETATM    2  S   UNL     1      -9.451  14.829  65.859  1.00  0.00    -0.147 SA 
HETATM    3  C   UNL     1      -9.865  13.239  66.669  1.00  0.00    -0.276 C  
HETATM    4  CA  UNL     1     -11.406  13.249  66.795  1.00  0.00    -0.327 C  
HETATM    5  C   UNL     1      -9.176  13.221  68.046  1.00  0.00    -0.217 C  
HETATM    6  C   UNL     1      -9.250  12.109  65.839  1.00  0.00    -0.069 C  
HETATM    7  N   UNL     1     -11.817  14.653  67.031  1.00  0.00    -0.374 N  
HETATM    8  C   UNL     1     -12.172  12.688  65.585  1.00  0.00    -0.411 C  
HETATM    9  C   UNL     1     -11.724  15.171  68.298  1.00  0.00    -0.314 C  
HETATM   10  OXT UNL     1     -11.996  11.580  65.100  1.00  0.00    -0.056 OA 
HETATM   11  O   UNL     1     -13.157  13.507  65.133  1.00  0.00    -0.737 OA 
HETATM   12  CA  UNL     1     -10.943  16.418  67.823  1.00  0.00    -0.261 C  
HETATM   13  O   UNL     1     -12.012  14.672  69.363  1.00  0.00    -0.302 OA 
ENDROOT
BRANCH  12  14
HETATM   14  N   UNL     1      -9.637  16.692  68.506  1.00  0.00    -0.233 N  
HETATM   15  C   UNL     1      -8.811  17.688  68.027  1.00  0.00    -0.257 C  
HETATM   16  H   UNL     1      -9.360  16.145  69.320  1.00  0.00     0.000 HD 
HETATM   17  O   UNL     1      -9.181  18.341  67.057  1.00  0.00    -0.262 OA 
BRANCH  15  18
HETATM   18  C   UNL     1      -7.488  17.958  68.698  1.00  0.00    -0.280 A  
HETATM   19  C   UNL     1      -6.972  19.272  68.872  1.00  0.00    -0.338 A  
HETATM   20  C   UNL     1      -5.787  19.475  69.609  1.00  0.00    -0.290 A  
HETATM   21  C   UNL     1      -6.780  16.881  69.289  1.00  0.00    -0.238 A  
HETATM   22  C   UNL     1      -5.136  18.407  70.219  1.00  0.00    -0.227 A  
HETATM   23  C   UNL     1      -5.634  17.123  70.063  1.00  0.00    -0.234 A  
BRANCH  19  24
HETATM   24  O   UNL     1      -7.645  20.341  68.314  1.00  0.00    -0.226 OA 
HETATM   25  C   UNL     1      -6.906  21.102  67.351  1.00  0.00    -0.339 C  
ENDBRANCH  19  24
BRANCH  21  26
HETATM   26  O   UNL     1      -7.143  15.558  69.317  1.00  0.00    -0.156 OA 
HETATM   27  C   UNL     1      -6.425  14.714  70.214  1.00  0.00    -0.149 C  
ENDBRANCH  21  26
ENDBRANCH  15  18
ENDBRANCH  12  14
TORSDOF 4
ENDMDL
MODEL       59
REMARK 921   NORMALIZED FREE ENERGY PREDICTED BY IDOCK:   -5.28 KCAL/MOL
REMARK 922        TOTAL FREE ENERGY PREDICTED BY IDOCK:   -7.44 KCAL/MOL
REMARK 923 INTER-LIGAND FREE ENERGY PREDICTED BY IDOCK:   -6.73 KCAL/MOL
REMARK 924 INTRA-LIGAND FREE ENERGY PREDICTED BY IDOCK:   -0.71 KCAL/MOL
REMARK 927      BINDING AFFINITY PREDICTED BY RF-SCORE:    0.00 PKD
ROOT
HETATM    1  C   UNL     1      -8.398   8.073  68.994  1.00  0.00    -0.129 C  
HETATM    2  S   UNL     1      -8.766   7.302  70.617  1.00  0.00    -0.148 SA 
HETATM    3  C   UNL     1      -9.943   6.067  69.949  1.00  0.00    -0.176 C  
HETATM    4  CA  UNL     1      -9.519   5.874  68.475  1.00  0.00    -0.121 C  
HETATM    5  C   UNL     1     -11.360   6.660  70.066  1.00  0.00    -0.440 C  
HETATM    6  C   UNL     1      -9.893   4.829  70.848  1.00  0.00    -0.279 C  
HETATM    7  N   UNL     1      -9.023   7.181  67.986  1.00  0.00    -0.128 N  
HETATM    8  C   UNL     1      -8.446   4.797  68.232  1.00  0.00    -0.098 C  
HETATM    9  C   UNL     1      -9.930   8.130  67.586  1.00  0.00    -0.185 C  
HETATM   10  OXT UNL     1      -8.532   3.633  68.594  1.00  0.00    -0.079 OA 
HETATM   11  O   UNL     1      -7.400   5.227  67.480  1.00  0.00    -0.076 OA 
HETATM   12  CA  UNL     1      -9.300   9.230  68.471  1.00  0.00    -0.142 C  
HETATM   13  O   UNL     1     -10.936   8.010  66.923  1.00  0.00    -0.154 OA 
ENDROOT
BRANCH  12  14
HETATM   14  N   UNL     1     -10.220   9.939  69.418  1.00  0.00    -0.202 N  
HETATM   15  C   UNL     1     -10.920  11.048  68.990  1.00  0.00    -0.233 C  
HETATM   16  H   UNL     1     -10.328   9.604  70.374  1.00  0.00     0.000 HD 
HETATM   17  O   UNL     1     -10.783  11.416  67.828  1.00  0.00    -0.191 OA 
BRANCH  15  18
HETATM   18  C   UNL     1     -11.835  11.776  69.942  1.00  0.00    -0.423 A  
HETATM   19  C   UNL     1     -12.534  11.114  70.989  1.00  0.00    -0.403 A  
HETATM   20  C   UNL     1     -13.284  11.861  71.921  1.00  0.00    -0.467 A  
HETATM   21  C   UNL     1     -11.916  13.190  69.877  1.00  0.00    -0.317 A  
HETATM   22  C   UNL     1     -13.311  13.251  71.865  1.00  0.00    -0.540 A  
HETATM   23  C   UNL     1     -12.627  13.907  70.853  1.00  0.00    -0.431 A  
BRANCH  19  24
HETATM   24  O   UNL     1     -12.467   9.738  71.081  1.00  0.00    -0.314 OA 
HETATM   25  C   UNL     1     -13.174   9.157  72.184  1.00  0.00    -0.458 C  
ENDBRANCH  19  24
BRANCH  21  26
HETATM   26  O   UNL     1     -11.258  14.026  69.010  1.00  0.00    -0.254 OA 
HETATM   27  C   UNL     1     -11.566  15.415  69.099  1.00  0.00    -0.339 C  
ENDBRANCH  21  26
ENDBRANCH  15  18
ENDBRANCH  12  14
TORSDOF 4
ENDMDL
MODEL       60
REMARK 921   NORMALIZED FREE ENERGY PREDICTED BY IDOCK:   -5.28 KCAL/MOL
REMARK 922        TOTAL FREE ENERGY PREDICTED BY IDOCK:   -7.44 KCAL/MOL
REMARK 923 INTER-LIGAND FREE ENERGY PREDICTED BY IDOCK:   -6.48 KCAL/MOL
REMARK 924 INTRA-LIGAND FREE ENERGY PREDICTED BY IDOCK:   -0.96 KCAL/MOL
REMARK 927      BINDING AFFINITY PREDICTED BY RF-SCORE:    0.00 PKD
ROOT
HETATM    1  C   UNL     1     -10.113   8.780  68.373  1.00  0.00    -0.190 C  
HETATM    2  S   UNL     1      -9.587   9.619  66.828  1.00  0.00    -0.184 SA 
HETATM    3  C   UNL     1      -7.795   9.534  67.197  1.00  0.00    -0.095 C  
HETATM    4  CA  UNL     1      -7.643   8.321  68.143  1.00  0.00    -0.098 C  
HETATM    5  C   UNL     1      -7.396  10.853  67.885  1.00  0.00    -0.088 C  
HETATM    6  C   UNL     1      -7.040   9.469  65.867  1.00  0.00    -0.096 C  
HETATM    7  N   UNL     1      -8.863   8.264  68.983  1.00  0.00    -0.143 N  
HETATM    8  C   UNL     1      -7.437   6.963  67.449  1.00  0.00    -0.097 C  
HETATM    9  C   UNL     1      -8.957   9.087  70.077  1.00  0.00    -0.175 C  
HETATM   10  OXT UNL     1      -6.557   6.722  66.635  1.00  0.00    -0.042 OA 
HETATM   11  O   UNL     1      -8.276   5.990  67.889  1.00  0.00    -0.111 OA 
HETATM   12  CA  UNL     1     -10.348   9.620  69.663  1.00  0.00    -0.227 C  
HETATM   13  O   UNL     1      -8.125   9.368  70.910  1.00  0.00    -0.256 OA 
ENDROOT
BRANCH  12  14
HETATM   14  N   UNL     1     -10.494  11.109  69.562  1.00  0.00    -0.439 N  
HETATM   15  C   UNL     1     -11.746  11.681  69.651  1.00  0.00    -0.350 C  
HETATM   16  H   UNL     1      -9.671  11.696  69.427  1.00  0.00     0.000 HD 
HETATM   17  O   UNL     1     -12.713  10.949  69.831  1.00  0.00    -0.240 OA 
BRANCH  15  18
HETATM   18  C   UNL     1     -11.901  13.176  69.533  1.00  0.00    -0.383 A  
HETATM   19  C   UNL     1     -12.297  13.993  70.629  1.00  0.00    -0.375 A  
HETATM   20  C   UNL     1     -12.314  15.396  70.494  1.00  0.00    -0.452 A  
HETATM   21  C   UNL     1     -11.526  13.818  68.326  1.00  0.00    -0.312 A  
HETATM   22  C   UNL     1     -11.897  16.005  69.314  1.00  0.00    -0.264 A  
HETATM   23  C   UNL     1     -11.502  15.218  68.243  1.00  0.00    -0.359 A  
BRANCH  19  24
HETATM   24  O   UNL     1     -12.660  13.396  71.819  1.00  0.00    -0.249 OA 
HETATM   25  C   UNL     1     -13.977  13.707  72.291  1.00  0.00    -0.563 C  
ENDBRANCH  19  24
BRANCH  21  26
HETATM   26  O   UNL     1     -11.035  13.232  67.186  1.00  0.00    -0.265 OA 
HETATM   27  C   UNL     1     -11.951  13.058  66.107  1.00  0.00    -0.427 C  
ENDBRANCH  21  26
ENDBRANCH  15  18
ENDBRANCH  12  14
TORSDOF 4
ENDMDL
MODEL       61
REMARK 921   NORMALIZED FREE ENERGY PREDICTED BY IDOCK:   -5.22 KCAL/MOL
REMARK 922        TOTAL FREE ENERGY PREDICTED BY IDOCK:   -7.37 KCAL/MOL
REMARK 923 INTER-LIGAND FREE ENERGY PREDICTED BY IDOCK:   -6.60 KCAL/MOL
REMARK 924 INTRA-LIGAND FREE ENERGY PREDICTED BY IDOCK:   -0.77 KCAL/MOL
REMARK 927      BINDING AFFINITY PREDICTED BY RF-SCORE:    0.00 PKD
ROOT
HETATM    1  C   UNL     1     -10.236  17.162  68.116  1.00  0.00    -0.332 C  
HETATM    2  S   UNL     1      -8.442  17.000  68.463  1.00  0.00    -0.261 SA 
HETATM    3  C   UNL     1      -7.911  18.107  67.104  1.00  0.00    -0.220 C  
HETATM    4  CA  UNL     1      -9.116  19.044  66.862  1.00  0.00    -0.303 C  
HETATM    5  C   UNL     1      -7.611  17.228  65.875  1.00  0.00    -0.063 C  
HETATM    6  C   UNL     1      -6.595  18.771  67.520  1.00  0.00    -0.202 C  
HETATM    7  N   UNL     1     -10.344  18.253  67.115  1.00  0.00    -0.368 N  
HETATM    8  C   UNL     1      -9.145  20.320  67.722  1.00  0.00    -0.255 C  
HETATM    9  C   UNL     1     -10.813  17.418  66.132  1.00  0.00     0.040 C  
HETATM   10  OXT UNL     1      -8.238  21.137  67.788  1.00  0.00     0.026 OA 
HETATM   11  O   UNL     1     -10.329  20.527  68.355  1.00  0.00    -0.195 OA 
HETATM   12  CA  UNL     1     -10.909  16.207  67.087  1.00  0.00    -0.216 C  
HETATM   13  O   UNL     1     -10.907  17.602  64.939  1.00  0.00    -0.831 OA 
ENDROOT
BRANCH  12  14
HETATM   14  N   UNL     1     -10.199  14.957  66.660  1.00  0.00    -0.256 N  
HETATM   15  C   UNL     1     -10.913  13.926  66.086  1.00  0.00    -0.293 C  
HETATM   16  H   UNL     1      -9.192  14.870  66.794  1.00  0.00     0.000 HD 
HETATM   17  O   UNL     1     -12.120  14.070  65.922  1.00  0.00    -0.384 OA 
BRANCH  15  18
HETATM   18  C   UNL     1     -10.208  12.661  65.670  1.00  0.00    -0.290 A  
HETATM   19  C   UNL     1     -10.286  12.140  64.348  1.00  0.00    -0.319 A  
HETATM   20  C   UNL     1      -9.514  11.018  63.984  1.00  0.00    -0.278 A  
HETATM   21  C   UNL     1      -9.335  12.022  66.586  1.00  0.00    -0.219 A  
HETATM   22  C   UNL     1      -8.629  10.437  64.887  1.00  0.00    -0.190 A  
HETATM   23  C   UNL     1      -8.539  10.942  66.175  1.00  0.00    -0.170 A  
BRANCH  19  24
HETATM   24  O   UNL     1     -11.122  12.746  63.432  1.00  0.00    -0.408 OA 
HETATM   25  C   UNL     1     -12.389  12.106  63.234  1.00  0.00    -0.436 C  
ENDBRANCH  19  24
BRANCH  21  26
HETATM   26  O   UNL     1      -9.045  12.408  67.871  1.00  0.00    -0.176 OA 
HETATM   27  C   UNL     1      -8.998  11.378  68.856  1.00  0.00    -0.006 C  
ENDBRANCH  21  26
ENDBRANCH  15  18
ENDBRANCH  12  14
TORSDOF 4
ENDMDL
MODEL       62
REMARK 921   NORMALIZED FREE ENERGY PREDICTED BY IDOCK:   -5.22 KCAL/MOL
REMARK 922        TOTAL FREE ENERGY PREDICTED BY IDOCK:   -7.37 KCAL/MOL
REMARK 923 INTER-LIGAND FREE ENERGY PREDICTED BY IDOCK:   -6.39 KCAL/MOL
REMARK 924 INTRA-LIGAND FREE ENERGY PREDICTED BY IDOCK:   -0.98 KCAL/MOL
REMARK 927      BINDING AFFINITY PREDICTED BY RF-SCORE:    0.00 PKD
ROOT
HETATM    1  C   UNL     1     -10.358   8.921  66.860  1.00  0.00    -0.262 C  
HETATM    2  S   UNL     1      -9.925  10.088  65.513  1.00  0.00    -0.259 SA 
HETATM    3  C   UNL     1      -8.118   9.813  65.631  1.00  0.00    -0.120 C  
HETATM    4  CA  UNL     1      -7.972   8.395  66.231  1.00  0.00    -0.099 C  
HETATM    5  C   UNL     1      -7.540  10.893  66.565  1.00  0.00    -0.142 C  
HETATM    6  C   UNL     1      -7.511  10.040  64.244  1.00  0.00    -0.137 C  
HETATM    7  N   UNL     1      -9.099   8.199  67.172  1.00  0.00    -0.136 N  
HETATM    8  C   UNL     1      -7.954   7.244  65.209  1.00  0.00    -0.127 C  
HETATM    9  C   UNL     1      -9.011   8.727  68.436  1.00  0.00    -0.141 C  
HETATM   10  OXT UNL     1      -7.186   7.165  64.261  1.00  0.00    -0.062 OA 
HETATM   11  O   UNL     1      -8.823   6.241  65.498  1.00  0.00    -0.127 OA 
HETATM   12  CA  UNL     1     -10.387   9.424  68.334  1.00  0.00    -0.205 C  
HETATM   13  O   UNL     1      -8.077   8.744  69.206  1.00  0.00    -0.106 OA 
ENDROOT
BRANCH  12  14
HETATM   14  N   UNL     1     -10.416  10.897  68.614  1.00  0.00    -0.184 N  
HETATM   15  C   UNL     1     -11.620  11.521  68.866  1.00  0.00    -0.320 C  
HETATM   16  H   UNL     1      -9.550  11.434  68.618  1.00  0.00     0.000 HD 
HETATM   17  O   UNL     1     -12.642  10.844  68.872  1.00  0.00    -0.338 OA 
BRANCH  15  18
HETATM   18  C   UNL     1     -11.658  13.005  69.132  1.00  0.00    -0.368 A  
HETATM   19  C   UNL     1     -11.274  13.968  68.158  1.00  0.00    -0.275 A  
HETATM   20  C   UNL     1     -11.441  15.343  68.421  1.00  0.00    -0.365 A  
HETATM   21  C   UNL     1     -12.210  13.474  70.351  1.00  0.00    -0.356 A  
HETATM   22  C   UNL     1     -12.027  15.778  69.606  1.00  0.00    -0.332 A  
HETATM   23  C   UNL     1     -12.412  14.847  70.558  1.00  0.00    -0.419 A  
BRANCH  19  24
HETATM   24  O   UNL     1     -10.742  13.540  66.959  1.00  0.00    -0.273 OA 
HETATM   25  C   UNL     1      -9.554  14.218  66.532  1.00  0.00    -0.297 C  
ENDBRANCH  19  24
BRANCH  21  26
HETATM   26  O   UNL     1     -12.720  12.723  71.381  1.00  0.00    -0.351 OA 
HETATM   27  C   UNL     1     -13.421  13.428  72.403  1.00  0.00    -0.584 C  
ENDBRANCH  21  26
ENDBRANCH  15  18
ENDBRANCH  12  14
TORSDOF 4
ENDMDL
MODEL       63
REMARK 921   NORMALIZED FREE ENERGY PREDICTED BY IDOCK:   -5.19 KCAL/MOL
REMARK 922        TOTAL FREE ENERGY PREDICTED BY IDOCK:   -7.33 KCAL/MOL
REMARK 923 INTER-LIGAND FREE ENERGY PREDICTED BY IDOCK:   -6.64 KCAL/MOL
REMARK 924 INTRA-LIGAND FREE ENERGY PREDICTED BY IDOCK:   -0.69 KCAL/MOL
REMARK 927      BINDING AFFINITY PREDICTED BY RF-SCORE:    0.00 PKD
ROOT
HETATM    1  C   UNL     1      -9.196  13.265  66.812  1.00  0.00    -0.233 C  
HETATM    2  S   UNL     1     -10.545  12.691  65.710  1.00  0.00    -0.278 SA 
HETATM    3  C   UNL     1     -11.667  14.090  66.083  1.00  0.00    -0.384 C  
HETATM    4  CA  UNL     1     -10.733  15.243  66.515  1.00  0.00    -0.311 C  
HETATM    5  C   UNL     1     -12.602  13.649  67.225  1.00  0.00     0.231 C  
HETATM    6  C   UNL     1     -12.542  14.338  64.851  1.00  0.00    -0.339 C  
HETATM    7  N   UNL     1      -9.587  14.634  67.230  1.00  0.00    -0.217 N  
HETATM    8  C   UNL     1     -10.208  16.132  65.374  1.00  0.00    -0.264 C  
HETATM    9  C   UNL     1      -9.737  14.280  68.548  1.00  0.00    -0.225 C  
HETATM   10  OXT UNL     1     -10.913  16.710  64.560  1.00  0.00    -0.885 OA 
HETATM   11  O   UNL     1      -8.862  16.307  65.391  1.00  0.00    -0.104 OA 
HETATM   12  CA  UNL     1      -9.201  12.849  68.313  1.00  0.00    -0.187 C  
HETATM   13  O   UNL     1     -10.276  14.874  69.454  1.00  0.00    -0.216 OA 
ENDROOT
BRANCH  12  14
HETATM   14  N   UNL     1     -10.077  11.721  68.767  1.00  0.00    -0.352 N  
HETATM   15  C   UNL     1      -9.506  10.580  69.293  1.00  0.00    -0.173 C  
HETATM   16  H   UNL     1     -11.090  11.796  68.688  1.00  0.00     0.000 HD 
HETATM   17  O   UNL     1      -8.285  10.528  69.393  1.00  0.00    -0.158 OA 
BRANCH  15  18
HETATM   18  C   UNL     1     -10.381   9.435  69.737  1.00  0.00    -0.240 A  
HETATM   19  C   UNL     1     -10.015   8.074  69.546  1.00  0.00    -0.186 A  
HETATM   20  C   UNL     1     -10.815   7.045  70.084  1.00  0.00    -0.285 A  
HETATM   21  C   UNL     1     -11.557   9.711  70.479  1.00  0.00    -0.272 A  
HETATM   22  C   UNL     1     -11.939   7.341  70.850  1.00  0.00    -0.342 A  
HETATM   23  C   UNL     1     -12.300   8.665  71.047  1.00  0.00    -0.169 A  
BRANCH  19  24
HETATM   24  O   UNL     1      -8.870   7.776  68.834  1.00  0.00    -0.135 OA 
HETATM   25  C   UNL     1      -7.922   6.941  69.509  1.00  0.00    -0.125 C  
ENDBRANCH  19  24
BRANCH  21  26
HETATM   26  O   UNL     1     -12.042  10.940  70.850  1.00  0.00    -0.332 OA 
HETATM   27  C   UNL     1     -13.114  10.951  71.790  1.00  0.00    -0.459 C  
ENDBRANCH  21  26
ENDBRANCH  15  18
ENDBRANCH  12  14
TORSDOF 4
ENDMDL
MODEL       64
REMARK 921   NORMALIZED FREE ENERGY PREDICTED BY IDOCK:   -5.18 KCAL/MOL
REMARK 922        TOTAL FREE ENERGY PREDICTED BY IDOCK:   -7.32 KCAL/MOL
REMARK 923 INTER-LIGAND FREE ENERGY PREDICTED BY IDOCK:   -6.36 KCAL/MOL
REMARK 924 INTRA-LIGAND FREE ENERGY PREDICTED BY IDOCK:   -0.95 KCAL/MOL
REMARK 927      BINDING AFFINITY PREDICTED BY RF-SCORE:    0.00 PKD
ROOT
HETATM    1  C   UNL     1     -10.655  10.939  66.267  1.00  0.00    -0.214 C  
HETATM    2  S   UNL     1     -11.886  11.921  67.208  1.00  0.00    -0.013 SA 
HETATM    3  C   UNL     1     -10.849  13.426  67.314  1.00  0.00    -0.269 C  
HETATM    4  CA  UNL     1      -9.900  13.340  66.097  1.00  0.00    -0.280 C  
HETATM    5  C   UNL     1     -10.079  13.372  68.647  1.00  0.00    -0.162 C  
HETATM    6  C   UNL     1     -11.779  14.641  67.377  1.00  0.00    -0.413 C  
HETATM    7  N   UNL     1      -9.599  11.906  65.876  1.00  0.00    -0.234 N  
HETATM    8  C   UNL     1     -10.439  13.955  64.793  1.00  0.00    -0.429 C  
HETATM    9  C   UNL     1      -8.641  11.299  66.649  1.00  0.00    -0.167 C  
HETATM   10  OXT UNL     1     -10.844  15.103  64.679  1.00  0.00    -0.377 OA 
HETATM   11  O   UNL     1     -10.346  13.130  63.719  1.00  0.00    -0.311 OA 
HETATM   12  CA  UNL     1      -9.570  10.126  67.034  1.00  0.00    -0.171 C  
HETATM   13  O   UNL     1      -7.554  11.705  66.995  1.00  0.00    -0.144 OA 
ENDROOT
BRANCH  12  14
HETATM   14  N   UNL     1      -9.742   9.859  68.499  1.00  0.00    -0.151 N  
HETATM   15  C   UNL     1     -10.274   8.657  68.917  1.00  0.00    -0.207 C  
HETATM   16  H   UNL     1      -9.468  10.563  69.183  1.00  0.00     0.000 HD 
HETATM   17  O   UNL     1     -10.576   7.824  68.070  1.00  0.00    -0.201 OA 
BRANCH  15  18
HETATM   18  C   UNL     1     -10.464   8.388  70.388  1.00  0.00    -0.228 A  
HETATM   19  C   UNL     1     -11.545   8.936  71.133  1.00  0.00    -0.300 A  
HETATM   20  C   UNL     1     -11.741   8.558  72.477  1.00  0.00    -0.390 A  
HETATM   21  C   UNL     1      -9.612   7.459  71.038  1.00  0.00    -0.161 A  
HETATM   22  C   UNL     1     -10.919   7.610  73.079  1.00  0.00    -0.457 A  
HETATM   23  C   UNL     1      -9.867   7.064  72.360  1.00  0.00    -0.172 A  
BRANCH  19  24
HETATM   24  O   UNL     1     -12.396   9.837  70.524  1.00  0.00    -0.214 OA 
HETATM   25  C   UNL     1     -12.958  10.835  71.385  1.00  0.00    -0.432 C  
ENDBRANCH  19  24
BRANCH  21  26
HETATM   26  O   UNL     1      -8.572   6.753  70.486  1.00  0.00    -0.139 OA 
HETATM   27  C   UNL     1      -8.770   5.352  70.310  1.00  0.00    -0.127 C  
ENDBRANCH  21  26
ENDBRANCH  15  18
ENDBRANCH  12  14
TORSDOF 4
ENDMDL
MODEL       65
REMARK 921   NORMALIZED FREE ENERGY PREDICTED BY IDOCK:   -5.18 KCAL/MOL
REMARK 922        TOTAL FREE ENERGY PREDICTED BY IDOCK:   -7.31 KCAL/MOL
REMARK 923 INTER-LIGAND FREE ENERGY PREDICTED BY IDOCK:   -6.31 KCAL/MOL
REMARK 924 INTRA-LIGAND FREE ENERGY PREDICTED BY IDOCK:   -1.01 KCAL/MOL
REMARK 927      BINDING AFFINITY PREDICTED BY RF-SCORE:    0.00 PKD
ROOT
HETATM    1  C   UNL     1     -10.391   8.273  68.858  1.00  0.00    -0.215 C  
HETATM    2  S   UNL     1     -10.238   7.808  67.091  1.00  0.00    -0.322 SA 
HETATM    3  C   UNL     1      -8.437   7.482  67.162  1.00  0.00    -0.121 C  
HETATM    4  CA  UNL     1      -8.159   7.118  68.638  1.00  0.00    -0.124 C  
HETATM    5  C   UNL     1      -7.711   8.773  66.741  1.00  0.00    -0.094 C  
HETATM    6  C   UNL     1      -8.107   6.414  66.115  1.00  0.00    -0.117 C  
HETATM    7  N   UNL     1      -9.085   7.922  69.470  1.00  0.00    -0.149 N  
HETATM    8  C   UNL     1      -8.315   5.629  68.993  1.00  0.00    -0.100 C  
HETATM    9  C   UNL     1      -8.769   9.228  69.746  1.00  0.00    -0.162 C  
HETATM   10  OXT UNL     1      -7.739   4.712  68.425  1.00  0.00    -0.078 OA 
HETATM   11  O   UNL     1      -9.098   5.404  70.080  1.00  0.00    -0.125 OA 
HETATM   12  CA  UNL     1     -10.150   9.750  69.289  1.00  0.00    -0.198 C  
HETATM   13  O   UNL     1      -7.706   9.720  70.056  1.00  0.00    -0.137 OA 
ENDROOT
BRANCH  12  14
HETATM   14  N   UNL     1     -10.149  10.833  68.253  1.00  0.00    -0.165 N  
HETATM   15  C   UNL     1     -11.327  11.477  67.935  1.00  0.00    -0.303 C  
HETATM   16  H   UNL     1      -9.282  11.093  67.785  1.00  0.00     0.000 HD 
HETATM   17  O   UNL     1     -12.350  11.154  68.529  1.00  0.00    -0.561 OA 
BRANCH  15  18
HETATM   18  C   UNL     1     -11.336  12.556  66.882  1.00  0.00    -0.383 A  
HETATM   19  C   UNL     1     -11.459  13.937  67.202  1.00  0.00    -0.347 A  
HETATM   20  C   UNL     1     -11.346  14.910  66.188  1.00  0.00    -0.307 A  
HETATM   21  C   UNL     1     -11.093  12.205  65.530  1.00  0.00    -0.316 A  
HETATM   22  C   UNL     1     -11.060  14.543  64.876  1.00  0.00    -0.401 A  
HETATM   23  C   UNL     1     -10.931  13.201  64.555  1.00  0.00    -0.392 A  
BRANCH  19  24
HETATM   24  O   UNL     1     -11.688  14.308  68.511  1.00  0.00    -0.304 OA 
HETATM   25  C   UNL     1     -11.662  15.718  68.768  1.00  0.00    -0.378 C  
ENDBRANCH  19  24
BRANCH  21  26
HETATM   26  O   UNL     1     -10.859  10.952  65.021  1.00  0.00    -0.208 OA 
HETATM   27  C   UNL     1      -9.665  10.780  64.261  1.00  0.00    -0.302 C  
ENDBRANCH  21  26
ENDBRANCH  15  18
ENDBRANCH  12  14
TORSDOF 4
ENDMDL
MODEL       66
REMARK 921   NORMALIZED FREE ENERGY PREDICTED BY IDOCK:   -5.15 KCAL/MOL
REMARK 922        TOTAL FREE ENERGY PREDICTED BY IDOCK:   -7.28 KCAL/MOL
REMARK 923 INTER-LIGAND FREE ENERGY PREDICTED BY IDOCK:   -6.55 KCAL/MOL
REMARK 924 INTRA-LIGAND FREE ENERGY PREDICTED BY IDOCK:   -0.73 KCAL/MOL
REMARK 927      BINDING AFFINITY PREDICTED BY RF-SCORE:    0.00 PKD
ROOT
HETATM    1  C   UNL     1     -10.601   7.357  68.720  1.00  0.00    -0.168 C  
HETATM    2  S   UNL     1     -10.908   6.481  67.138  1.00  0.00    -0.405 SA 
HETATM    3  C   UNL     1      -9.139   6.330  66.687  1.00  0.00    -0.144 C  
HETATM    4  CA  UNL     1      -8.383   6.370  68.035  1.00  0.00    -0.115 C  
HETATM    5  C   UNL     1      -8.781   7.531  65.792  1.00  0.00    -0.142 C  
HETATM    6  C   UNL     1      -8.971   5.066  65.840  1.00  0.00    -0.141 C  
HETATM    7  N   UNL     1      -9.135   7.277  68.933  1.00  0.00    -0.133 N  
HETATM    8  C   UNL     1      -8.193   5.008  68.727  1.00  0.00    -0.084 C  
HETATM    9  C   UNL     1      -8.958   8.633  68.810  1.00  0.00    -0.138 C  
HETATM   10  OXT UNL     1      -7.675   4.029  68.209  1.00  0.00    -0.066 OA 
HETATM   11  O   UNL     1      -8.574   4.999  70.030  1.00  0.00    -0.096 OA 
HETATM   12  CA  UNL     1     -10.477   8.910  68.727  1.00  0.00    -0.200 C  
HETATM   13  O   UNL     1      -7.942   9.271  68.647  1.00  0.00    -0.098 OA 
ENDROOT
BRANCH  12  14
HETATM   14  N   UNL     1     -10.952   9.697  67.543  1.00  0.00    -0.421 N  
HETATM   15  C   UNL     1     -10.798  11.068  67.527  1.00  0.00    -0.263 C  
HETATM   16  H   UNL     1     -11.387   9.221  66.753  1.00  0.00     0.000 HD 
HETATM   17  O   UNL     1     -10.254  11.608  68.484  1.00  0.00    -0.200 OA 
BRANCH  15  18
HETATM   18  C   UNL     1     -11.288  11.868  66.347  1.00  0.00    -0.400 A  
HETATM   19  C   UNL     1     -12.020  13.079  66.493  1.00  0.00    -0.391 A  
HETATM   20  C   UNL     1     -12.353  13.846  65.358  1.00  0.00    -0.494 A  
HETATM   21  C   UNL     1     -10.909  11.473  65.039  1.00  0.00    -0.274 A  
HETATM   22  C   UNL     1     -11.929  13.462  64.088  1.00  0.00    -0.505 A  
HETATM   23  C   UNL     1     -11.209  12.287  63.936  1.00  0.00    -0.488 A  
BRANCH  19  24
HETATM   24  O   UNL     1     -12.396  13.492  67.756  1.00  0.00    -0.237 OA 
HETATM   25  C   UNL     1     -11.882  14.764  68.168  1.00  0.00    -0.287 C  
ENDBRANCH  19  24
BRANCH  21  26
HETATM   26  O   UNL     1     -10.135  10.397  64.682  1.00  0.00    -0.345 OA 
HETATM   27  C   UNL     1      -9.490  10.463  63.412  1.00  0.00    -0.315 C  
ENDBRANCH  21  26
ENDBRANCH  15  18
ENDBRANCH  12  14
TORSDOF 4
ENDMDL
MODEL       67
REMARK 921   NORMALIZED FREE ENERGY PREDICTED BY IDOCK:   -5.12 KCAL/MOL
REMARK 922        TOTAL FREE ENERGY PREDICTED BY IDOCK:   -7.24 KCAL/MOL
REMARK 923 INTER-LIGAND FREE ENERGY PREDICTED BY IDOCK:   -6.32 KCAL/MOL
REMARK 924 INTRA-LIGAND FREE ENERGY PREDICTED BY IDOCK:   -0.92 KCAL/MOL
REMARK 927      BINDING AFFINITY PREDICTED BY RF-SCORE:    0.00 PKD
ROOT
HETATM    1  C   UNL     1      -8.780  16.770  68.177  1.00  0.00    -0.219 C  
HETATM    2  S   UNL     1      -8.418  17.583  66.573  1.00  0.00    -0.264 SA 
HETATM    3  C   UNL     1     -10.082  18.324  66.386  1.00  0.00    -0.396 C  
HETATM    4  CA  UNL     1     -10.620  18.460  67.828  1.00  0.00    -0.391 C  
HETATM    5  C   UNL     1     -10.934  17.356  65.543  1.00  0.00     0.133 C  
HETATM    6  C   UNL     1      -9.937  19.618  65.580  1.00  0.00    -0.137 C  
HETATM    7  N   UNL     1     -10.095  17.310  68.602  1.00  0.00    -0.321 N  
HETATM    8  C   UNL     1     -10.256  19.770  68.549  1.00  0.00    -0.433 C  
HETATM    9  C   UNL     1     -10.724  16.094  68.497  1.00  0.00    -0.300 C  
HETATM   10  OXT UNL     1     -10.487  20.890  68.119  1.00  0.00     0.154 OA 
HETATM   11  O   UNL     1      -9.721  19.585  69.784  1.00  0.00    -0.085 OA 
HETATM   12  CA  UNL     1      -9.407  15.344  68.192  1.00  0.00    -0.197 C  
HETATM   13  O   UNL     1     -11.905  15.831  68.479  1.00  0.00    -0.363 OA 
ENDROOT
BRANCH  12  14
HETATM   14  N   UNL     1      -9.382  14.510  66.947  1.00  0.00    -0.234 N  
HETATM   15  C   UNL     1      -9.817  13.202  66.991  1.00  0.00    -0.244 C  
HETATM   16  H   UNL     1      -9.045  14.908  66.071  1.00  0.00     0.000 HD 
HETATM   17  O   UNL     1     -10.234  12.758  68.055  1.00  0.00    -0.215 OA 
BRANCH  15  18
HETATM   18  C   UNL     1      -9.779  12.353  65.746  1.00  0.00    -0.210 A  
HETATM   19  C   UNL     1      -9.150  11.077  65.707  1.00  0.00    -0.202 A  
HETATM   20  C   UNL     1      -9.246  10.276  64.551  1.00  0.00    -0.295 A  
HETATM   21  C   UNL     1     -10.498  12.775  64.598  1.00  0.00    -0.350 A  
HETATM   22  C   UNL     1      -9.996  10.693  63.455  1.00  0.00    -0.329 A  
HETATM   23  C   UNL     1     -10.619  11.930  63.485  1.00  0.00    -0.507 A  
BRANCH  19  24
HETATM   24  O   UNL     1      -8.451  10.636  66.813  1.00  0.00    -0.129 OA 
HETATM   25  C   UNL     1      -8.957   9.447  67.431  1.00  0.00    -0.124 C  
ENDBRANCH  19  24
BRANCH  21  26
HETATM   26  O   UNL     1     -11.243  13.919  64.454  1.00  0.00    -0.373 OA 
HETATM   27  C   UNL     1     -12.633  13.822  64.753  1.00  0.00    -0.290 C  
ENDBRANCH  21  26
ENDBRANCH  15  18
ENDBRANCH  12  14
TORSDOF 4
ENDMDL
MODEL       68
REMARK 921   NORMALIZED FREE ENERGY PREDICTED BY IDOCK:   -5.10 KCAL/MOL
REMARK 922        TOTAL FREE ENERGY PREDICTED BY IDOCK:   -7.21 KCAL/MOL
REMARK 923 INTER-LIGAND FREE ENERGY PREDICTED BY IDOCK:   -6.21 KCAL/MOL
REMARK 924 INTRA-LIGAND FREE ENERGY PREDICTED BY IDOCK:   -1.00 KCAL/MOL
REMARK 927      BINDING AFFINITY PREDICTED BY RF-SCORE:    0.00 PKD
ROOT
HETATM    1  C   UNL     1      -7.445  16.552  67.658  1.00  0.00    -0.144 C  
HETATM    2  S   UNL     1      -8.201  17.106  66.081  1.00  0.00    -0.160 SA 
HETATM    3  C   UNL     1      -9.805  17.580  66.826  1.00  0.00    -0.306 C  
HETATM    4  CA  UNL     1      -9.477  17.901  68.302  1.00  0.00    -0.300 C  
HETATM    5  C   UNL     1     -10.756  16.375  66.697  1.00  0.00    -0.173 C  
HETATM    6  C   UNL     1     -10.399  18.717  65.990  1.00  0.00    -0.467 C  
HETATM    7  N   UNL     1      -8.389  16.985  68.718  1.00  0.00    -0.253 N  
HETATM    8  C   UNL     1      -9.059  19.354  68.586  1.00  0.00    -0.372 C  
HETATM    9  C   UNL     1      -8.702  15.699  69.081  1.00  0.00    -0.251 C  
HETATM   10  OXT UNL     1      -9.715  20.340  68.284  1.00  0.00    -0.280 OA 
HETATM   11  O   UNL     1      -7.910  19.463  69.302  1.00  0.00    -0.293 OA 
HETATM   12  CA  UNL     1      -7.647  15.083  68.134  1.00  0.00    -0.111 C  
HETATM   13  O   UNL     1      -9.614  15.286  69.762  1.00  0.00    -0.231 OA 
ENDROOT
BRANCH  12  14
HETATM   14  N   UNL     1      -8.137  14.051  67.164  1.00  0.00    -0.343 N  
HETATM   15  C   UNL     1      -8.157  12.722  67.531  1.00  0.00    -0.180 C  
HETATM   16  H   UNL     1      -8.455  14.330  66.236  1.00  0.00     0.000 HD 
HETATM   17  O   UNL     1      -7.785  12.420  68.661  1.00  0.00    -0.118 OA 
BRANCH  15  18
HETATM   18  C   UNL     1      -8.633  11.676  66.555  1.00  0.00    -0.164 A  
HETATM   19  C   UNL     1      -9.957  11.660  66.036  1.00  0.00    -0.228 A  
HETATM   20  C   UNL     1     -10.314  10.729  65.039  1.00  0.00    -0.357 A  
HETATM   21  C   UNL     1      -7.702  10.741  66.035  1.00  0.00    -0.139 A  
HETATM   22  C   UNL     1      -9.371   9.852  64.511  1.00  0.00    -0.336 A  
HETATM   23  C   UNL     1      -8.075   9.865  65.004  1.00  0.00    -0.140 A  
BRANCH  19  24
HETATM   24  O   UNL     1     -10.882  12.564  66.518  1.00  0.00    -0.247 OA 
HETATM   25  C   UNL     1     -11.863  13.008  65.573  1.00  0.00    -0.395 C  
ENDBRANCH  19  24
BRANCH  21  26
HETATM   26  O   UNL     1      -6.365  10.641  66.329  1.00  0.00    -0.098 OA 
HETATM   27  C   UNL     1      -5.455  10.799  65.243  1.00  0.00    -0.124 C  
ENDBRANCH  21  26
ENDBRANCH  15  18
ENDBRANCH  12  14
TORSDOF 4
ENDMDL
MODEL       69
REMARK 921   NORMALIZED FREE ENERGY PREDICTED BY IDOCK:   -5.08 KCAL/MOL
REMARK 922        TOTAL FREE ENERGY PREDICTED BY IDOCK:   -7.19 KCAL/MOL
REMARK 923 INTER-LIGAND FREE ENERGY PREDICTED BY IDOCK:   -6.32 KCAL/MOL
REMARK 924 INTRA-LIGAND FREE ENERGY PREDICTED BY IDOCK:   -0.87 KCAL/MOL
REMARK 927      BINDING AFFINITY PREDICTED BY RF-SCORE:    0.00 PKD
ROOT
HETATM    1  C   UNL     1     -10.695   8.738  69.162  1.00  0.00    -0.131 C  
HETATM    2  S   UNL     1     -10.405   8.266  67.414  1.00  0.00    -0.288 SA 
HETATM    3  C   UNL     1      -8.691   7.678  67.684  1.00  0.00    -0.122 C  
HETATM    4  CA  UNL     1      -8.644   7.269  69.174  1.00  0.00    -0.133 C  
HETATM    5  C   UNL     1      -7.740   8.851  67.380  1.00  0.00    -0.096 C  
HETATM    6  C   UNL     1      -8.399   6.579  66.659  1.00  0.00    -0.113 C  
HETATM    7  N   UNL     1      -9.535   8.195  69.912  1.00  0.00    -0.160 N  
HETATM    8  C   UNL     1      -9.056   5.817  69.474  1.00  0.00    -0.130 C  
HETATM    9  C   UNL     1      -9.067   9.440  70.253  1.00  0.00    -0.245 C  
HETATM   10  OXT UNL     1      -8.556   4.829  68.956  1.00  0.00    -0.081 OA 
HETATM   11  O   UNL     1      -9.986   5.704  70.458  1.00  0.00    -0.183 OA 
HETATM   12  CA  UNL     1     -10.294  10.161  69.651  1.00  0.00    -0.247 C  
HETATM   13  O   UNL     1      -7.988   9.768  70.694  1.00  0.00    -0.272 OA 
ENDROOT
BRANCH  12  14
HETATM   14  N   UNL     1     -10.014  11.239  68.647  1.00  0.00    -0.202 N  
HETATM   15  C   UNL     1     -11.063  11.908  68.051  1.00  0.00    -0.240 C  
HETATM   16  H   UNL     1      -9.052  11.476  68.406  1.00  0.00     0.000 HD 
HETATM   17  O   UNL     1     -12.207  11.612  68.377  1.00  0.00    -0.498 OA 
BRANCH  15  18
HETATM   18  C   UNL     1     -10.789  12.981  67.029  1.00  0.00    -0.278 A  
HETATM   19  C   UNL     1     -10.801  12.727  65.629  1.00  0.00    -0.273 A  
HETATM   20  C   UNL     1     -10.653  13.791  64.716  1.00  0.00    -0.444 A  
HETATM   21  C   UNL     1     -10.630  14.323  67.460  1.00  0.00    -0.261 A  
HETATM   22  C   UNL     1     -10.546  15.105  65.163  1.00  0.00    -0.447 A  
HETATM   23  C   UNL     1     -10.540  15.364  66.524  1.00  0.00    -0.306 A  
BRANCH  19  24
HETATM   24  O   UNL     1     -10.962  11.431  65.180  1.00  0.00    -0.267 OA 
HETATM   25  C   UNL     1      -9.933  10.947  64.309  1.00  0.00    -0.333 C  
ENDBRANCH  19  24
BRANCH  21  26
HETATM   26  O   UNL     1     -10.674  14.797  68.748  1.00  0.00    -0.237 OA 
HETATM   27  C   UNL     1     -11.900  15.389  69.172  1.00  0.00    -0.335 C  
ENDBRANCH  21  26
ENDBRANCH  15  18
ENDBRANCH  12  14
TORSDOF 4
ENDMDL
MODEL       70
REMARK 921   NORMALIZED FREE ENERGY PREDICTED BY IDOCK:   -5.05 KCAL/MOL
REMARK 922        TOTAL FREE ENERGY PREDICTED BY IDOCK:   -7.16 KCAL/MOL
REMARK 923 INTER-LIGAND FREE ENERGY PREDICTED BY IDOCK:   -6.27 KCAL/MOL
REMARK 924 INTRA-LIGAND FREE ENERGY PREDICTED BY IDOCK:   -0.89 KCAL/MOL
REMARK 927      BINDING AFFINITY PREDICTED BY RF-SCORE:    0.00 PKD
ROOT
HETATM    1  C   UNL     1      -8.091  10.694  66.612  1.00  0.00    -0.136 C  
HETATM    2  S   UNL     1      -6.984  10.915  68.058  1.00  0.00    -0.074 SA 
HETATM    3  C   UNL     1      -7.402   9.308  68.832  1.00  0.00    -0.074 C  
HETATM    4  CA  UNL     1      -7.858   8.411  67.659  1.00  0.00    -0.107 C  
HETATM    5  C   UNL     1      -8.540   9.557  69.840  1.00  0.00    -0.217 C  
HETATM    6  C   UNL     1      -6.185   8.834  69.629  1.00  0.00    -0.036 C  
HETATM    7  N   UNL     1      -8.548   9.284  66.680  1.00  0.00    -0.126 N  
HETATM    8  C   UNL     1      -6.736   7.633  66.947  1.00  0.00    -0.067 C  
HETATM    9  C   UNL     1      -9.857   9.631  66.905  1.00  0.00    -0.200 C  
HETATM   10  OXT UNL     1      -5.943   6.887  67.503  1.00  0.00    -0.025 OA 
HETATM   11  O   UNL     1      -6.748   7.770  65.596  1.00  0.00    -0.045 OA 
HETATM   12  CA  UNL     1      -9.580  11.139  66.708  1.00  0.00    -0.191 C  
HETATM   13  O   UNL     1     -10.783   8.955  67.292  1.00  0.00    -0.273 OA 
ENDROOT
BRANCH  12  14
HETATM   14  N   UNL     1     -10.011  12.051  67.818  1.00  0.00    -0.191 N  
HETATM   15  C   UNL     1     -11.281  12.588  67.807  1.00  0.00    -0.269 C  
HETATM   16  H   UNL     1      -9.368  12.272  68.577  1.00  0.00     0.000 HD 
HETATM   17  O   UNL     1     -12.037  12.287  66.890  1.00  0.00    -0.583 OA 
BRANCH  15  18
HETATM   18  C   UNL     1     -11.716  13.518  68.911  1.00  0.00    -0.379 A  
HETATM   19  C   UNL     1     -12.072  13.054  70.208  1.00  0.00    -0.314 A  
HETATM   20  C   UNL     1     -12.359  13.977  71.235  1.00  0.00    -0.436 A  
HETATM   21  C   UNL     1     -11.655  14.919  68.699  1.00  0.00    -0.318 A  
HETATM   22  C   UNL     1     -12.247  15.347  71.015  1.00  0.00    -0.431 A  
HETATM   23  C   UNL     1     -11.892  15.810  69.757  1.00  0.00    -0.352 A  
BRANCH  19  24
HETATM   24  O   UNL     1     -12.132  11.696  70.445  1.00  0.00    -0.355 OA 
HETATM   25  C   UNL     1     -12.920  11.300  71.574  1.00  0.00    -0.415 C  
ENDBRANCH  19  24
BRANCH  21  26
HETATM   26  O   UNL     1     -11.253  15.575  67.562  1.00  0.00    -0.322 OA 
HETATM   27  C   UNL     1     -10.565  16.811  67.743  1.00  0.00    -0.341 C  
ENDBRANCH  21  26
ENDBRANCH  15  18
ENDBRANCH  12  14
TORSDOF 4
ENDMDL
MODEL       71
REMARK 921   NORMALIZED FREE ENERGY PREDICTED BY IDOCK:   -4.99 KCAL/MOL
REMARK 922        TOTAL FREE ENERGY PREDICTED BY IDOCK:   -7.08 KCAL/MOL
REMARK 923 INTER-LIGAND FREE ENERGY PREDICTED BY IDOCK:   -6.07 KCAL/MOL
REMARK 924 INTRA-LIGAND FREE ENERGY PREDICTED BY IDOCK:   -1.01 KCAL/MOL
REMARK 927      BINDING AFFINITY PREDICTED BY RF-SCORE:    0.00 PKD
ROOT
HETATM    1  C   UNL     1      -8.698  14.730  67.140  1.00  0.00    -0.221 C  
HETATM    2  S   UNL     1      -9.666  13.880  65.835  1.00  0.00    -0.156 SA 
HETATM    3  C   UNL     1     -11.222  14.787  66.168  1.00  0.00    -0.337 C  
HETATM    4  CA  UNL     1     -10.773  16.124  66.802  1.00  0.00    -0.235 C  
HETATM    5  C   UNL     1     -12.058  13.940  67.145  1.00  0.00    -0.422 C  
HETATM    6  C   UNL     1     -12.009  14.877  64.857  1.00  0.00    -0.306 C  
HETATM    7  N   UNL     1      -9.563  15.841  67.608  1.00  0.00    -0.220 N  
HETATM    8  C   UNL     1     -10.471  17.259  65.808  1.00  0.00    -0.229 C  
HETATM    9  C   UNL     1      -9.709  15.310  68.865  1.00  0.00    -0.220 C  
HETATM   10  OXT UNL     1     -11.249  17.666  64.957  1.00  0.00    -0.571 OA 
HETATM   11  O   UNL     1      -9.269  17.858  66.009  1.00  0.00    -0.509 OA 
HETATM   12  CA  UNL     1      -8.705  14.167  68.592  1.00  0.00    -0.126 C  
HETATM   13  O   UNL     1     -10.499  15.590  69.739  1.00  0.00    -0.263 OA 
ENDROOT
BRANCH  12  14
HETATM   14  N   UNL     1      -9.191  12.771  68.844  1.00  0.00    -0.372 N  
HETATM   15  C   UNL     1      -8.297  11.721  68.827  1.00  0.00    -0.009 C  
HETATM   16  H   UNL     1     -10.179  12.599  69.027  1.00  0.00     0.000 HD 
HETATM   17  O   UNL     1      -7.112  11.964  68.623  1.00  0.00    -0.089 OA 
BRANCH  15  18
HETATM   18  C   UNL     1      -8.782  10.314  69.063  1.00  0.00    -0.164 A  
HETATM   19  C   UNL     1      -9.671   9.650  68.172  1.00  0.00    -0.146 A  
HETATM   20  C   UNL     1     -10.000   8.295  68.380  1.00  0.00    -0.211 A  
HETATM   21  C   UNL     1      -8.246   9.570  70.145  1.00  0.00    -0.177 A  
HETATM   22  C   UNL     1      -9.424   7.573  69.422  1.00  0.00    -0.155 A  
HETATM   23  C   UNL     1      -8.551   8.208  70.291  1.00  0.00    -0.131 A  
BRANCH  19  24
HETATM   24  O   UNL     1     -10.202  10.347  67.105  1.00  0.00    -0.201 OA 
HETATM   25  C   UNL     1      -9.764   9.921  65.809  1.00  0.00    -0.266 C  
ENDBRANCH  19  24
BRANCH  21  26
HETATM   26  O   UNL     1      -7.314   9.985  71.063  1.00  0.00    -0.260 OA 
HETATM   27  C   UNL     1      -5.968   9.568  70.846  1.00  0.00    -0.073 C  
ENDBRANCH  21  26
ENDBRANCH  15  18
ENDBRANCH  12  14
TORSDOF 4
ENDMDL
MODEL       72
REMARK 921   NORMALIZED FREE ENERGY PREDICTED BY IDOCK:   -4.98 KCAL/MOL
REMARK 922        TOTAL FREE ENERGY PREDICTED BY IDOCK:   -7.08 KCAL/MOL
REMARK 923 INTER-LIGAND FREE ENERGY PREDICTED BY IDOCK:   -6.18 KCAL/MOL
REMARK 924 INTRA-LIGAND FREE ENERGY PREDICTED BY IDOCK:   -0.89 KCAL/MOL
REMARK 927      BINDING AFFINITY PREDICTED BY RF-SCORE:    0.00 PKD
ROOT
HETATM    1  C   UNL     1     -10.453  16.418  67.984  1.00  0.00    -0.303 C  
HETATM    2  S   UNL     1      -8.771  16.705  68.658  1.00  0.00    -0.255 SA 
HETATM    3  C   UNL     1      -8.217  17.764  67.270  1.00  0.00    -0.215 C  
HETATM    4  CA  UNL     1      -9.516  18.372  66.693  1.00  0.00    -0.313 C  
HETATM    5  C   UNL     1      -7.502  16.861  66.248  1.00  0.00    -0.282 C  
HETATM    6  C   UNL     1      -7.177  18.749  67.811  1.00  0.00    -0.247 C  
HETATM    7  N   UNL     1     -10.579  17.351  66.837  1.00  0.00    -0.267 N  
HETATM    8  C   UNL     1      -9.978  19.687  67.347  1.00  0.00    -0.385 C  
HETATM    9  C   UNL     1     -10.660  16.338  65.914  1.00  0.00    -0.297 C  
HETATM   10  OXT UNL     1      -9.290  20.691  67.454  1.00  0.00    -0.402 OA 
HETATM   11  O   UNL     1     -11.281  19.680  67.728  1.00  0.00    -0.137 OA 
HETATM   12  CA  UNL     1     -10.695  15.237  66.998  1.00  0.00    -0.313 C  
HETATM   13  O   UNL     1     -10.548  16.377  64.709  1.00  0.00    -0.676 OA 
ENDROOT
BRANCH  12  14
HETATM   14  N   UNL     1      -9.672  14.147  66.881  1.00  0.00    -0.260 N  
HETATM   15  C   UNL     1      -9.683  13.100  67.779  1.00  0.00    -0.218 C  
HETATM   16  H   UNL     1      -8.972  14.180  66.141  1.00  0.00     0.000 HD 
HETATM   17  O   UNL     1     -10.550  13.080  68.646  1.00  0.00    -0.249 OA 
BRANCH  15  18
HETATM   18  C   UNL     1      -8.647  12.009  67.677  1.00  0.00    -0.163 A  
HETATM   19  C   UNL     1      -8.990  10.644  67.472  1.00  0.00    -0.135 A  
HETATM   20  C   UNL     1      -7.978   9.683  67.268  1.00  0.00    -0.106 A  
HETATM   21  C   UNL     1      -7.273  12.359  67.663  1.00  0.00    -0.130 A  
HETATM   22  C   UNL     1      -6.639  10.059  67.212  1.00  0.00    -0.069 A  
HETATM   23  C   UNL     1      -6.294  11.388  67.403  1.00  0.00    -0.082 A  
BRANCH  19  24
HETATM   24  O   UNL     1     -10.321  10.275  67.472  1.00  0.00    -0.200 OA 
HETATM   25  C   UNL     1     -10.574   8.875  67.639  1.00  0.00    -0.224 C  
ENDBRANCH  19  24
BRANCH  21  26
HETATM   26  O   UNL     1      -6.730  13.617  67.754  1.00  0.00    -0.142 OA 
HETATM   27  C   UNL     1      -5.346  13.697  68.084  1.00  0.00    -0.109 C  
ENDBRANCH  21  26
ENDBRANCH  15  18
ENDBRANCH  12  14
TORSDOF 4
ENDMDL
MODEL       73
REMARK 921   NORMALIZED FREE ENERGY PREDICTED BY IDOCK:   -4.96 KCAL/MOL
REMARK 922        TOTAL FREE ENERGY PREDICTED BY IDOCK:   -7.05 KCAL/MOL
REMARK 923 INTER-LIGAND FREE ENERGY PREDICTED BY IDOCK:   -6.20 KCAL/MOL
REMARK 924 INTRA-LIGAND FREE ENERGY PREDICTED BY IDOCK:   -0.85 KCAL/MOL
REMARK 927      BINDING AFFINITY PREDICTED BY RF-SCORE:    0.00 PKD
ROOT
HETATM    1  C   UNL     1      -8.071  11.111  66.503  1.00  0.00    -0.163 C  
HETATM    2  S   UNL     1      -7.997   9.953  67.924  1.00  0.00    -0.105 SA 
HETATM    3  C   UNL     1      -9.369   8.889  67.341  1.00  0.00    -0.136 C  
HETATM    4  CA  UNL     1      -9.391   9.077  65.806  1.00  0.00    -0.236 C  
HETATM    5  C   UNL     1     -10.667   9.395  68.000  1.00  0.00    -0.246 C  
HETATM    6  C   UNL     1      -9.122   7.469  67.857  1.00  0.00    -0.130 C  
HETATM    7  N   UNL     1      -8.997  10.478  65.530  1.00  0.00    -0.175 N  
HETATM    8  C   UNL     1      -8.482   8.124  65.011  1.00  0.00    -0.099 C  
HETATM    9  C   UNL     1      -9.936  11.471  65.651  1.00  0.00    -0.236 C  
HETATM   10  OXT UNL     1      -8.513   6.904  65.087  1.00  0.00    -0.116 OA 
HETATM   11  O   UNL     1      -7.674   8.754  64.120  1.00  0.00    -0.116 OA 
HETATM   12  CA  UNL     1      -9.032  12.335  66.558  1.00  0.00    -0.161 C  
HETATM   13  O   UNL     1     -11.094  11.490  65.295  1.00  0.00    -0.271 OA 
ENDROOT
BRANCH  12  14
HETATM   14  N   UNL     1      -9.612  12.764  67.872  1.00  0.00    -0.205 N  
HETATM   15  C   UNL     1     -10.392  13.899  67.938  1.00  0.00    -0.240 C  
HETATM   16  H   UNL     1      -9.431  12.218  68.714  1.00  0.00     0.000 HD 
HETATM   17  O   UNL     1     -10.607  14.523  66.905  1.00  0.00    -0.274 OA 
BRANCH  15  18
HETATM   18  C   UNL     1     -10.965  14.345  69.259  1.00  0.00    -0.281 A  
HETATM   19  C   UNL     1     -10.735  15.642  69.795  1.00  0.00    -0.306 A  
HETATM   20  C   UNL     1     -11.390  16.045  70.977  1.00  0.00    -0.423 A  
HETATM   21  C   UNL     1     -11.868  13.492  69.944  1.00  0.00    -0.316 A  
HETATM   22  C   UNL     1     -12.307  15.208  71.606  1.00  0.00    -0.415 A  
HETATM   23  C   UNL     1     -12.544  13.944  71.087  1.00  0.00    -0.446 A  
BRANCH  19  24
HETATM   24  O   UNL     1      -9.868  16.497  69.145  1.00  0.00    -0.257 OA 
HETATM   25  C   UNL     1     -10.470  17.651  68.546  1.00  0.00    -0.337 C  
ENDBRANCH  19  24
BRANCH  21  26
HETATM   26  O   UNL     1     -12.295  12.246  69.559  1.00  0.00    -0.125 OA 
HETATM   27  C   UNL     1     -12.257  11.220  70.548  1.00  0.00    -0.383 C  
ENDBRANCH  21  26
ENDBRANCH  15  18
ENDBRANCH  12  14
TORSDOF 4
ENDMDL
MODEL       74
REMARK 921   NORMALIZED FREE ENERGY PREDICTED BY IDOCK:   -4.96 KCAL/MOL
REMARK 922        TOTAL FREE ENERGY PREDICTED BY IDOCK:   -7.04 KCAL/MOL
REMARK 923 INTER-LIGAND FREE ENERGY PREDICTED BY IDOCK:   -6.21 KCAL/MOL
REMARK 924 INTRA-LIGAND FREE ENERGY PREDICTED BY IDOCK:   -0.83 KCAL/MOL
REMARK 927      BINDING AFFINITY PREDICTED BY RF-SCORE:    0.00 PKD
ROOT
HETATM    1  C   UNL     1      -8.937   9.015  71.169  1.00  0.00    -0.235 C  
HETATM    2  S   UNL     1     -10.694   8.736  71.614  1.00  0.00    -0.352 SA 
HETATM    3  C   UNL     1     -10.753   7.017  70.984  1.00  0.00    -0.233 C  
HETATM    4  CA  UNL     1      -9.291   6.520  71.055  1.00  0.00    -0.160 C  
HETATM    5  C   UNL     1     -11.272   7.067  69.534  1.00  0.00    -0.185 C  
HETATM    6  C   UNL     1     -11.785   6.244  71.809  1.00  0.00    -0.355 C  
HETATM    7  N   UNL     1      -8.418   7.683  70.772  1.00  0.00    -0.124 N  
HETATM    8  C   UNL     1      -8.874   5.882  72.392  1.00  0.00    -0.134 C  
HETATM    9  C   UNL     1      -8.211   8.059  69.468  1.00  0.00    -0.122 C  
HETATM   10  OXT UNL     1      -9.454   4.950  72.931  1.00  0.00    -0.133 OA 
HETATM   11  O   UNL     1      -7.723   6.388  72.905  1.00  0.00    -0.101 OA 
HETATM   12  CA  UNL     1      -8.577   9.534  69.745  1.00  0.00    -0.192 C  
HETATM   13  O   UNL     1      -8.002   7.378  68.488  1.00  0.00    -0.119 OA 
ENDROOT
BRANCH  12  14
HETATM   14  N   UNL     1      -9.647  10.134  68.883  1.00  0.00    -0.175 N  
HETATM   15  C   UNL     1      -9.434  11.356  68.279  1.00  0.00    -0.187 C  
HETATM   16  H   UNL     1     -10.528   9.642  68.743  1.00  0.00     0.000 HD 
HETATM   17  O   UNL     1      -8.356  11.915  68.452  1.00  0.00    -0.159 OA 
BRANCH  15  18
HETATM   18  C   UNL     1     -10.511  11.973  67.424  1.00  0.00    -0.239 A  
HETATM   19  C   UNL     1     -11.165  13.187  67.773  1.00  0.00    -0.277 A  
HETATM   20  C   UNL     1     -12.081  13.779  66.880  1.00  0.00    -0.454 A  
HETATM   21  C   UNL     1     -10.808  11.396  66.163  1.00  0.00    -0.255 A  
HETATM   22  C   UNL     1     -12.321  13.218  65.629  1.00  0.00    -0.521 A  
HETATM   23  C   UNL     1     -11.684  12.040  65.275  1.00  0.00    -0.312 A  
BRANCH  19  24
HETATM   24  O   UNL     1     -10.889  13.776  68.991  1.00  0.00    -0.249 OA 
HETATM   25  C   UNL     1     -11.996  13.872  69.896  1.00  0.00    -0.341 C  
ENDBRANCH  19  24
BRANCH  21  26
HETATM   26  O   UNL     1     -10.233  10.286  65.596  1.00  0.00    -0.273 OA 
HETATM   27  C   UNL     1      -9.688  10.441  64.288  1.00  0.00    -0.326 C  
ENDBRANCH  21  26
ENDBRANCH  15  18
ENDBRANCH  12  14
TORSDOF 4
ENDMDL
MODEL       75
REMARK 921   NORMALIZED FREE ENERGY PREDICTED BY IDOCK:   -4.95 KCAL/MOL
REMARK 922        TOTAL FREE ENERGY PREDICTED BY IDOCK:   -7.04 KCAL/MOL
REMARK 923 INTER-LIGAND FREE ENERGY PREDICTED BY IDOCK:   -6.04 KCAL/MOL
REMARK 924 INTRA-LIGAND FREE ENERGY PREDICTED BY IDOCK:   -1.00 KCAL/MOL
REMARK 927      BINDING AFFINITY PREDICTED BY RF-SCORE:    0.00 PKD
ROOT
HETATM    1  C   UNL     1      -8.202   8.645  68.656  1.00  0.00    -0.121 C  
HETATM    2  S   UNL     1      -8.473   9.464  70.275  1.00  0.00    -0.222 SA 
HETATM    3  C   UNL     1     -10.053   8.608  70.629  1.00  0.00    -0.198 C  
HETATM    4  CA  UNL     1      -9.977   7.289  69.827  1.00  0.00    -0.183 C  
HETATM    5  C   UNL     1     -11.197   9.515  70.136  1.00  0.00    -0.275 C  
HETATM    6  C   UNL     1     -10.196   8.484  72.148  1.00  0.00    -0.403 C  
HETATM    7  N   UNL     1      -9.227   7.575  68.582  1.00  0.00    -0.144 N  
HETATM    8  C   UNL     1      -9.319   6.107  70.560  1.00  0.00    -0.161 C  
HETATM    9  C   UNL     1      -9.883   8.161  67.528  1.00  0.00    -0.177 C  
HETATM   10  OXT UNL     1      -9.665   5.684  71.654  1.00  0.00    -0.156 OA 
HETATM   11  O   UNL     1      -8.348   5.488  69.840  1.00  0.00    -0.102 OA 
HETATM   12  CA  UNL     1      -8.816   9.267  67.367  1.00  0.00    -0.117 C  
HETATM   13  O   UNL     1     -10.985   7.935  67.079  1.00  0.00    -0.219 OA 
ENDROOT
BRANCH  12  14
HETATM   14  N   UNL     1      -9.309  10.683  67.389  1.00  0.00    -0.143 N  
HETATM   15  C   UNL     1      -9.583  11.331  66.203  1.00  0.00    -0.214 C  
HETATM   16  H   UNL     1      -9.440  11.165  68.278  1.00  0.00     0.000 HD 
HETATM   17  O   UNL     1      -9.432  10.717  65.152  1.00  0.00    -0.198 OA 
BRANCH  15  18
HETATM   18  C   UNL     1     -10.062  12.760  66.217  1.00  0.00    -0.267 A  
HETATM   19  C   UNL     1      -9.223  13.846  66.592  1.00  0.00    -0.236 A  
HETATM   20  C   UNL     1      -9.689  15.172  66.475  1.00  0.00    -0.290 A  
HETATM   21  C   UNL     1     -11.358  13.059  65.726  1.00  0.00    -0.301 A  
HETATM   22  C   UNL     1     -10.947  15.442  65.946  1.00  0.00    -0.293 A  
HETATM   23  C   UNL     1     -11.770  14.392  65.571  1.00  0.00    -0.352 A  
BRANCH  19  24
HETATM   24  O   UNL     1      -7.954  13.585  67.066  1.00  0.00    -0.101 OA 
HETATM   25  C   UNL     1      -7.759  13.810  68.468  1.00  0.00    -0.138 C  
ENDBRANCH  19  24
BRANCH  21  26
HETATM   26  O   UNL     1     -12.289  12.178  65.233  1.00  0.00    -0.513 OA 
HETATM   27  C   UNL     1     -12.498  12.187  63.823  1.00  0.00    -0.514 C  
ENDBRANCH  21  26
ENDBRANCH  15  18
ENDBRANCH  12  14
TORSDOF 4
ENDMDL
MODEL       76
REMARK 921   NORMALIZED FREE ENERGY PREDICTED BY IDOCK:   -4.95 KCAL/MOL
REMARK 922        TOTAL FREE ENERGY PREDICTED BY IDOCK:   -7.03 KCAL/MOL
REMARK 923 INTER-LIGAND FREE ENERGY PREDICTED BY IDOCK:   -6.06 KCAL/MOL
REMARK 924 INTRA-LIGAND FREE ENERGY PREDICTED BY IDOCK:   -0.97 KCAL/MOL
REMARK 927      BINDING AFFINITY PREDICTED BY RF-SCORE:    0.00 PKD
ROOT
HETATM    1  C   UNL     1      -9.239  14.296  66.804  1.00  0.00    -0.264 C  
HETATM    2  S   UNL     1      -9.619  13.230  65.360  1.00  0.00     0.231 SA 
HETATM    3  C   UNL     1     -11.357  13.787  65.198  1.00  0.00    -0.311 C  
HETATM    4  CA  UNL     1     -11.379  15.201  65.821  1.00  0.00    -0.238 C  
HETATM    5  C   UNL     1     -12.240  12.799  65.984  1.00  0.00    -0.380 C  
HETATM    6  C   UNL     1     -11.755  13.677  63.724  1.00  0.00    -0.292 C  
HETATM    7  N   UNL     1     -10.405  15.204  66.938  1.00  0.00    -0.267 N  
HETATM    8  C   UNL     1     -11.052  16.354  64.856  1.00  0.00    -0.239 C  
HETATM    9  C   UNL     1     -10.780  14.679  68.150  1.00  0.00    -0.242 C  
HETATM   10  OXT UNL     1     -11.632  16.566  63.801  1.00  0.00    -1.109 OA 
HETATM   11  O   UNL     1     -10.098  17.203  65.320  1.00  0.00    -0.507 OA 
HETATM   12  CA  UNL     1      -9.530  13.775  68.242  1.00  0.00    -0.214 C  
HETATM   13  O   UNL     1     -11.820  14.800  68.759  1.00  0.00    -0.308 OA 
ENDROOT
BRANCH  12  14
HETATM   14  N   UNL     1      -9.774  12.313  68.466  1.00  0.00    -0.340 N  
HETATM   15  C   UNL     1      -8.741  11.503  68.889  1.00  0.00     0.039 C  
HETATM   16  H   UNL     1     -10.701  11.918  68.305  1.00  0.00     0.000 HD 
HETATM   17  O   UNL     1      -7.643  12.012  69.091  1.00  0.00    -0.001 OA 
BRANCH  15  18
HETATM   18  C   UNL     1      -8.975  10.029  69.100  1.00  0.00    -0.172 A  
HETATM   19  C   UNL     1      -9.985   9.531  69.970  1.00  0.00    -0.237 A  
HETATM   20  C   UNL     1     -10.236   8.145  70.041  1.00  0.00    -0.202 A  
HETATM   21  C   UNL     1      -8.251   9.095  68.318  1.00  0.00    -0.116 A  
HETATM   22  C   UNL     1      -9.544   7.252  69.228  1.00  0.00    -0.156 A  
HETATM   23  C   UNL     1      -8.564   7.728  68.371  1.00  0.00    -0.128 A  
BRANCH  19  24
HETATM   24  O   UNL     1     -10.712  10.418  70.738  1.00  0.00    -0.123 OA 
HETATM   25  C   UNL     1     -12.119  10.160  70.815  1.00  0.00    -0.343 C  
ENDBRANCH  19  24
BRANCH  21  26
HETATM   26  O   UNL     1      -7.303   9.363  67.361  1.00  0.00    -0.086 OA 
HETATM   27  C   UNL     1      -5.939   9.278  67.766  1.00  0.00    -0.053 C  
ENDBRANCH  21  26
ENDBRANCH  15  18
ENDBRANCH  12  14
TORSDOF 4
ENDMDL
MODEL       77
REMARK 921   NORMALIZED FREE ENERGY PREDICTED BY IDOCK:   -4.86 KCAL/MOL
REMARK 922        TOTAL FREE ENERGY PREDICTED BY IDOCK:   -6.93 KCAL/MOL
REMARK 923 INTER-LIGAND FREE ENERGY PREDICTED BY IDOCK:   -6.24 KCAL/MOL
REMARK 924 INTRA-LIGAND FREE ENERGY PREDICTED BY IDOCK:   -0.69 KCAL/MOL
REMARK 927      BINDING AFFINITY PREDICTED BY RF-SCORE:    0.00 PKD
ROOT
HETATM    1  C   UNL     1      -7.754  16.453  66.532  1.00  0.00    -0.260 C  
HETATM    2  S   UNL     1      -9.487  17.026  66.350  1.00  0.00    -0.265 SA 
HETATM    3  C   UNL     1      -9.463  18.097  67.836  1.00  0.00    -0.281 C  
HETATM    4  CA  UNL     1      -7.975  18.471  68.030  1.00  0.00    -0.276 C  
HETATM    5  C   UNL     1     -10.007  17.272  69.017  1.00  0.00    -0.272 C  
HETATM    6  C   UNL     1     -10.438  19.254  67.603  1.00  0.00    -0.557 C  
HETATM    7  N   UNL     1      -7.170  17.304  67.598  1.00  0.00    -0.159 N  
HETATM    8  C   UNL     1      -7.504  19.725  67.273  1.00  0.00    -0.250 C  
HETATM    9  C   UNL     1      -7.005  16.252  68.464  1.00  0.00    -0.143 C  
HETATM   10  OXT UNL     1      -8.024  20.828  67.359  1.00  0.00    -0.327 OA 
HETATM   11  O   UNL     1      -6.374  19.533  66.545  1.00  0.00    -0.183 OA 
HETATM   12  CA  UNL     1      -7.445  15.207  67.414  1.00  0.00    -0.210 C  
HETATM   13  O   UNL     1      -6.774  16.255  69.653  1.00  0.00    -0.206 OA 
ENDROOT
BRANCH  12  14
HETATM   14  N   UNL     1      -8.559  14.285  67.810  1.00  0.00    -0.166 N  
HETATM   15  C   UNL     1      -8.379  12.920  67.727  1.00  0.00    -0.178 C  
HETATM   16  H   UNL     1      -9.445  14.665  68.140  1.00  0.00     0.000 HD 
HETATM   17  O   UNL     1      -7.294  12.494  67.345  1.00  0.00    -0.138 OA 
BRANCH  15  18
HETATM   18  C   UNL     1      -9.500  11.987  68.109  1.00  0.00    -0.200 A  
HETATM   19  C   UNL     1      -9.293  10.830  68.911  1.00  0.00    -0.175 A  
HETATM   20  C   UNL     1     -10.395  10.058  69.334  1.00  0.00    -0.245 A  
HETATM   21  C   UNL     1     -10.832  12.329  67.764  1.00  0.00    -0.221 A  
HETATM   22  C   UNL     1     -11.696  10.440  69.021  1.00  0.00    -0.167 A  
HETATM   23  C   UNL     1     -11.909  11.570  68.247  1.00  0.00    -0.327 A  
BRANCH  19  24
HETATM   24  O   UNL     1      -8.008  10.477  69.269  1.00  0.00    -0.142 OA 
HETATM   25  C   UNL     1      -7.903   9.441  70.253  1.00  0.00    -0.156 C  
ENDBRANCH  19  24
BRANCH  21  26
HETATM   26  O   UNL     1     -11.258  13.439  67.078  1.00  0.00    -0.289 OA 
HETATM   27  C   UNL     1     -12.071  13.211  65.929  1.00  0.00    -0.444 C  
ENDBRANCH  21  26
ENDBRANCH  15  18
ENDBRANCH  12  14
TORSDOF 4
ENDMDL
MODEL       78
REMARK 921   NORMALIZED FREE ENERGY PREDICTED BY IDOCK:   -4.85 KCAL/MOL
REMARK 922        TOTAL FREE ENERGY PREDICTED BY IDOCK:   -6.92 KCAL/MOL
REMARK 923 INTER-LIGAND FREE ENERGY PREDICTED BY IDOCK:   -6.19 KCAL/MOL
REMARK 924 INTRA-LIGAND FREE ENERGY PREDICTED BY IDOCK:   -0.73 KCAL/MOL
REMARK 927      BINDING AFFINITY PREDICTED BY RF-SCORE:    0.00 PKD
ROOT
HETATM    1  C   UNL     1      -9.076  16.547  65.841  1.00  0.00    -0.153 C  
HETATM    2  S   UNL     1     -10.459  17.585  66.453  1.00  0.00    -0.221 SA 
HETATM    3  C   UNL     1      -9.469  18.437  67.737  1.00  0.00    -0.280 C  
HETATM    4  CA  UNL     1      -8.013  18.370  67.224  1.00  0.00    -0.236 C  
HETATM    5  C   UNL     1      -9.649  17.664  69.057  1.00  0.00    -0.140 C  
HETATM    6  C   UNL     1     -10.062  19.834  67.945  1.00  0.00    -0.558 C  
HETATM    7  N   UNL     1      -7.861  17.084  66.503  1.00  0.00    -0.266 N  
HETATM    8  C   UNL     1      -7.582  19.526  66.303  1.00  0.00    -0.291 C  
HETATM    9  C   UNL     1      -7.645  15.937  67.225  1.00  0.00    -0.203 C  
HETATM   10  OXT UNL     1      -7.663  20.712  66.588  1.00  0.00    -0.221 OA 
HETATM   11  O   UNL     1      -7.001  19.116  65.146  1.00  0.00    -0.467 OA 
HETATM   12  CA  UNL     1      -8.787  15.174  66.517  1.00  0.00    -0.277 C  
HETATM   13  O   UNL     1      -6.923  15.745  68.178  1.00  0.00    -0.109 OA 
ENDROOT
BRANCH  12  14
HETATM   14  N   UNL     1      -9.826  14.550  67.400  1.00  0.00    -0.225 N  
HETATM   15  C   UNL     1      -9.583  13.322  67.979  1.00  0.00    -0.220 C  
HETATM   16  H   UNL     1     -10.708  15.031  67.571  1.00  0.00     0.000 HD 
HETATM   17  O   UNL     1      -8.504  12.778  67.768  1.00  0.00    -0.153 OA 
BRANCH  15  18
HETATM   18  C   UNL     1     -10.629  12.681  68.855  1.00  0.00    -0.157 A  
HETATM   19  C   UNL     1     -11.442  13.430  69.750  1.00  0.00    -0.166 A  
HETATM   20  C   UNL     1     -12.483  12.796  70.459  1.00  0.00    -0.280 A  
HETATM   21  C   UNL     1     -10.904  11.298  68.704  1.00  0.00    -0.204 A  
HETATM   22  C   UNL     1     -12.764  11.447  70.258  1.00  0.00    -0.120 A  
HETATM   23  C   UNL     1     -11.982  10.710  69.383  1.00  0.00    -0.298 A  
BRANCH  19  24
HETATM   24  O   UNL     1     -11.202  14.780  69.911  1.00  0.00    -0.256 OA 
HETATM   25  C   UNL     1     -11.466  15.303  71.219  1.00  0.00    -0.380 C  
ENDBRANCH  19  24
BRANCH  21  26
HETATM   26  O   UNL     1     -10.305  10.416  67.840  1.00  0.00    -0.170 OA 
HETATM   27  C   UNL     1     -10.749   9.063  67.892  1.00  0.00    -0.138 C  
ENDBRANCH  21  26
ENDBRANCH  15  18
ENDBRANCH  12  14
TORSDOF 4
ENDMDL
MODEL       79
REMARK 921   NORMALIZED FREE ENERGY PREDICTED BY IDOCK:   -4.85 KCAL/MOL
REMARK 922        TOTAL FREE ENERGY PREDICTED BY IDOCK:   -6.91 KCAL/MOL
REMARK 923 INTER-LIGAND FREE ENERGY PREDICTED BY IDOCK:   -6.34 KCAL/MOL
REMARK 924 INTRA-LIGAND FREE ENERGY PREDICTED BY IDOCK:   -0.57 KCAL/MOL
REMARK 927      BINDING AFFINITY PREDICTED BY RF-SCORE:    0.00 PKD
ROOT
HETATM    1  C   UNL     1      -9.033  12.024  67.508  1.00  0.00    -0.174 C  
HETATM    2  S   UNL     1      -8.080  10.926  66.389  1.00  0.00    -0.165 SA 
HETATM    3  C   UNL     1      -9.540  10.338  65.454  1.00  0.00    -0.251 C  
HETATM    4  CA  UNL     1     -10.585  11.467  65.599  1.00  0.00    -0.258 C  
HETATM    5  C   UNL     1     -10.016   9.026  66.106  1.00  0.00    -0.311 C  
HETATM    6  C   UNL     1      -9.087   9.998  64.031  1.00  0.00    -0.296 C  
HETATM    7  N   UNL     1     -10.405  12.060  66.945  1.00  0.00    -0.211 N  
HETATM    8  C   UNL     1     -10.510  12.578  64.537  1.00  0.00    -0.341 C  
HETATM    9  C   UNL     1     -10.958  11.428  68.031  1.00  0.00    -0.237 C  
HETATM   10  OXT UNL     1     -10.550  12.393  63.330  1.00  0.00    -0.410 OA 
HETATM   11  O   UNL     1     -10.487  13.832  65.058  1.00  0.00    -0.356 OA 
HETATM   12  CA  UNL     1      -9.631  11.446  68.825  1.00  0.00    -0.129 C  
HETATM   13  O   UNL     1     -12.046  10.912  68.158  1.00  0.00    -0.563 OA 
ENDROOT
BRANCH  12  14
HETATM   14  N   UNL     1      -9.143  10.128  69.346  1.00  0.00    -0.199 N  
HETATM   15  C   UNL     1      -9.848   9.481  70.339  1.00  0.00    -0.271 C  
HETATM   16  H   UNL     1      -8.292   9.712  68.968  1.00  0.00     0.000 HD 
HETATM   17  O   UNL     1     -10.877   9.999  70.759  1.00  0.00    -0.312 OA 
BRANCH  15  18
HETATM   18  C   UNL     1      -9.353   8.164  70.879  1.00  0.00    -0.173 A  
HETATM   19  C   UNL     1      -9.984   6.925  70.575  1.00  0.00    -0.183 A  
HETATM   20  C   UNL     1      -9.411   5.714  71.012  1.00  0.00    -0.181 A  
HETATM   21  C   UNL     1      -8.145   8.130  71.621  1.00  0.00    -0.124 A  
HETATM   22  C   UNL     1      -8.200   5.704  71.698  1.00  0.00    -0.119 A  
HETATM   23  C   UNL     1      -7.573   6.904  71.994  1.00  0.00    -0.093 A  
BRANCH  19  24
HETATM   24  O   UNL     1     -11.157   6.927  69.847  1.00  0.00    -0.266 OA 
HETATM   25  C   UNL     1     -11.096   6.273  68.574  1.00  0.00    -0.308 C  
ENDBRANCH  19  24
BRANCH  21  26
HETATM   26  O   UNL     1      -7.335   9.190  71.947  1.00  0.00    -0.334 OA 
HETATM   27  C   UNL     1      -6.216   9.428  71.097  1.00  0.00    -0.077 C  
ENDBRANCH  21  26
ENDBRANCH  15  18
ENDBRANCH  12  14
TORSDOF 4
ENDMDL
MODEL       80
REMARK 921   NORMALIZED FREE ENERGY PREDICTED BY IDOCK:   -4.85 KCAL/MOL
REMARK 922        TOTAL FREE ENERGY PREDICTED BY IDOCK:   -6.91 KCAL/MOL
REMARK 923 INTER-LIGAND FREE ENERGY PREDICTED BY IDOCK:   -6.03 KCAL/MOL
REMARK 924 INTRA-LIGAND FREE ENERGY PREDICTED BY IDOCK:   -0.88 KCAL/MOL
REMARK 927      BINDING AFFINITY PREDICTED BY RF-SCORE:    0.00 PKD
ROOT
HETATM    1  C   UNL     1      -9.033  11.932  67.744  1.00  0.00    -0.173 C  
HETATM    2  S   UNL     1      -8.139  10.897  66.522  1.00  0.00    -0.158 SA 
HETATM    3  C   UNL     1      -9.604  10.584  65.469  1.00  0.00    -0.230 C  
HETATM    4  CA  UNL     1     -10.541  11.786  65.728  1.00  0.00    -0.268 C  
HETATM    5  C   UNL     1     -10.234   9.255  65.925  1.00  0.00    -0.054 C  
HETATM    6  C   UNL     1      -9.120  10.386  64.029  1.00  0.00    -0.271 C  
HETATM    7  N   UNL     1     -10.368  12.179  67.146  1.00  0.00    -0.213 N  
HETATM    8  C   UNL     1     -10.311  13.011  64.826  1.00  0.00    -0.336 C  
HETATM    9  C   UNL     1     -11.028  11.471  68.119  1.00  0.00    -0.228 C  
HETATM   10  OXT UNL     1     -10.312  12.987  63.604  1.00  0.00    -0.305 OA 
HETATM   11  O   UNL     1     -10.191  14.179  65.509  1.00  0.00    -0.320 OA 
HETATM   12  CA  UNL     1      -9.745  11.253  68.952  1.00  0.00    -0.127 C  
HETATM   13  O   UNL     1     -12.166  11.057  68.140  1.00  0.00    -0.578 OA 
ENDROOT
BRANCH  12  14
HETATM   14  N   UNL     1      -9.410   9.836  69.310  1.00  0.00    -0.179 N  
HETATM   15  C   UNL     1      -9.931   9.279  70.459  1.00  0.00    -0.249 C  
HETATM   16  H   UNL     1      -8.798   9.287  68.706  1.00  0.00     0.000 HD 
HETATM   17  O   UNL     1     -10.678   9.960  71.153  1.00  0.00    -0.283 OA 
BRANCH  15  18
HETATM   18  C   UNL     1      -9.585   7.860  70.833  1.00  0.00    -0.172 A  
HETATM   19  C   UNL     1      -8.986   7.521  72.078  1.00  0.00    -0.125 A  
HETATM   20  C   UNL     1      -8.791   6.168  72.423  1.00  0.00    -0.136 A  
HETATM   21  C   UNL     1      -9.976   6.803  69.973  1.00  0.00    -0.176 A  
HETATM   22  C   UNL     1      -9.226   5.147  71.583  1.00  0.00    -0.174 A  
HETATM   23  C   UNL     1      -9.817   5.467  70.371  1.00  0.00    -0.270 A  
BRANCH  19  24
HETATM   24  O   UNL     1      -8.603   8.529  72.939  1.00  0.00    -0.345 OA 
HETATM   25  C   UNL     1      -8.277   8.114  74.271  1.00  0.00    -0.231 C  
ENDBRANCH  19  24
BRANCH  21  26
HETATM   26  O   UNL     1     -10.642   6.903  68.776  1.00  0.00    -0.202 OA 
HETATM   27  C   UNL     1     -10.586   5.768  67.914  1.00  0.00    -0.231 C  
ENDBRANCH  21  26
ENDBRANCH  15  18
ENDBRANCH  12  14
TORSDOF 4
ENDMDL
MODEL       81
REMARK 921   NORMALIZED FREE ENERGY PREDICTED BY IDOCK:   -4.83 KCAL/MOL
REMARK 922        TOTAL FREE ENERGY PREDICTED BY IDOCK:   -6.89 KCAL/MOL
REMARK 923 INTER-LIGAND FREE ENERGY PREDICTED BY IDOCK:   -5.86 KCAL/MOL
REMARK 924 INTRA-LIGAND FREE ENERGY PREDICTED BY IDOCK:   -1.03 KCAL/MOL
REMARK 927      BINDING AFFINITY PREDICTED BY RF-SCORE:    0.00 PKD
ROOT
HETATM    1  C   UNL     1      -9.398  12.342  68.091  1.00  0.00    -0.205 C  
HETATM    2  S   UNL     1      -9.312  13.264  66.507  1.00  0.00    -0.166 SA 
HETATM    3  C   UNL     1     -11.088  13.710  66.480  1.00  0.00    -0.305 C  
HETATM    4  CA  UNL     1     -11.521  13.698  67.964  1.00  0.00    -0.310 C  
HETATM    5  C   UNL     1     -11.828  12.640  65.656  1.00  0.00    -0.488 C  
HETATM    6  C   UNL     1     -11.232  15.039  65.732  1.00  0.00    -0.318 C  
HETATM    7  N   UNL     1     -10.747  12.629  68.638  1.00  0.00    -0.245 N  
HETATM    8  C   UNL     1     -11.328  15.024  68.721  1.00  0.00    -0.291 C  
HETATM    9  C   UNL     1     -11.164  11.327  68.519  1.00  0.00    -0.252 C  
HETATM   10  OXT UNL     1     -11.782  16.102  68.365  1.00  0.00    -0.320 OA 
HETATM   11  O   UNL     1     -10.670  14.889  69.901  1.00  0.00    -0.239 OA 
HETATM   12  CA  UNL     1      -9.768  10.829  68.081  1.00  0.00    -0.159 C  
HETATM   13  O   UNL     1     -12.281  10.863  68.576  1.00  0.00    -0.535 OA 
ENDROOT
BRANCH  12  14
HETATM   14  N   UNL     1      -9.704  10.059  66.796  1.00  0.00    -0.181 N  
HETATM   15  C   UNL     1      -8.529   9.433  66.432  1.00  0.00    -0.126 C  
HETATM   16  H   UNL     1     -10.524   9.997  66.194  1.00  0.00     0.000 HD 
HETATM   17  O   UNL     1      -7.566   9.510  67.187  1.00  0.00    -0.091 OA 
BRANCH  15  18
HETATM   18  C   UNL     1      -8.452   8.670  65.135  1.00  0.00    -0.197 A  
HETATM   19  C   UNL     1      -8.453   9.314  63.866  1.00  0.00    -0.190 A  
HETATM   20  C   UNL     1      -8.262   8.560  62.690  1.00  0.00    -0.185 A  
HETATM   21  C   UNL     1      -8.250   7.267  65.169  1.00  0.00    -0.110 A  
HETATM   22  C   UNL     1      -8.018   7.191  62.752  1.00  0.00    -0.107 A  
HETATM   23  C   UNL     1      -8.008   6.555  63.984  1.00  0.00    -0.081 A  
BRANCH  19  24
HETATM   24  O   UNL     1      -8.640  10.680  63.803  1.00  0.00    -0.166 OA 
HETATM   25  C   UNL     1      -9.722  11.118  62.972  1.00  0.00    -0.359 C  
ENDBRANCH  19  24
BRANCH  21  26
HETATM   26  O   UNL     1      -8.128   6.467  66.277  1.00  0.00    -0.107 OA 
HETATM   27  C   UNL     1      -8.977   5.323  66.340  1.00  0.00    -0.128 C  
ENDBRANCH  21  26
ENDBRANCH  15  18
ENDBRANCH  12  14
TORSDOF 4
ENDMDL
MODEL       82
REMARK 921   NORMALIZED FREE ENERGY PREDICTED BY IDOCK:   -4.82 KCAL/MOL
REMARK 922        TOTAL FREE ENERGY PREDICTED BY IDOCK:   -6.87 KCAL/MOL
REMARK 923 INTER-LIGAND FREE ENERGY PREDICTED BY IDOCK:   -6.10 KCAL/MOL
REMARK 924 INTRA-LIGAND FREE ENERGY PREDICTED BY IDOCK:   -0.77 KCAL/MOL
REMARK 927      BINDING AFFINITY PREDICTED BY RF-SCORE:    0.00 PKD
ROOT
HETATM    1  C   UNL     1      -9.881   9.908  66.181  1.00  0.00    -0.260 C  
HETATM    2  S   UNL     1      -8.083  10.270  66.191  1.00  0.00    -0.138 SA 
HETATM    3  C   UNL     1      -7.830   9.800  67.942  1.00  0.00    -0.090 C  
HETATM    4  CA  UNL     1      -8.962   8.794  68.250  1.00  0.00    -0.141 C  
HETATM    5  C   UNL     1      -7.951  11.078  68.793  1.00  0.00    -0.144 C  
HETATM    6  C   UNL     1      -6.394   9.288  68.094  1.00  0.00    -0.054 C  
HETATM    7  N   UNL     1     -10.147   9.215  67.466  1.00  0.00    -0.212 N  
HETATM    8  C   UNL     1      -8.641   7.321  67.939  1.00  0.00    -0.120 C  
HETATM    9  C   UNL     1     -10.937  10.229  67.946  1.00  0.00    -0.292 C  
HETATM   10  OXT UNL     1      -7.676   6.710  68.375  1.00  0.00    -0.102 OA 
HETATM   11  O   UNL     1      -9.589   6.700  67.190  1.00  0.00    -0.129 OA 
HETATM   12  CA  UNL     1     -10.890  11.012  66.614  1.00  0.00    -0.225 C  
HETATM   13  O   UNL     1     -11.327  10.442  69.072  1.00  0.00    -0.242 OA 
ENDROOT
BRANCH  12  14
HETATM   14  N   UNL     1     -10.440  12.440  66.689  1.00  0.00    -0.228 N  
HETATM   15  C   UNL     1     -11.350  13.429  66.999  1.00  0.00    -0.317 C  
HETATM   16  H   UNL     1      -9.465  12.679  66.513  1.00  0.00     0.000 HD 
HETATM   17  O   UNL     1     -12.512  13.107  67.224  1.00  0.00    -0.192 OA 
BRANCH  15  18
HETATM   18  C   UNL     1     -10.907  14.869  67.060  1.00  0.00    -0.315 A  
HETATM   19  C   UNL     1     -10.670  15.647  65.894  1.00  0.00    -0.329 A  
HETATM   20  C   UNL     1     -10.371  17.021  66.009  1.00  0.00    -0.324 A  
HETATM   21  C   UNL     1     -10.838  15.517  68.319  1.00  0.00    -0.292 A  
HETATM   22  C   UNL     1     -10.354  17.645  67.253  1.00  0.00    -0.354 A  
HETATM   23  C   UNL     1     -10.592  16.897  68.396  1.00  0.00    -0.365 A  
BRANCH  19  24
HETATM   24  O   UNL     1     -10.738  15.044  64.654  1.00  0.00    -0.365 OA 
HETATM   25  C   UNL     1     -12.057  14.880  64.118  1.00  0.00    -0.267 C  
ENDBRANCH  19  24
BRANCH  21  26
HETATM   26  O   UNL     1     -11.114  14.980  69.552  1.00  0.00    -0.252 OA 
HETATM   27  C   UNL     1     -12.405  15.246  70.094  1.00  0.00    -0.353 C  
ENDBRANCH  21  26
ENDBRANCH  15  18
ENDBRANCH  12  14
TORSDOF 4
ENDMDL
MODEL       83
REMARK 921   NORMALIZED FREE ENERGY PREDICTED BY IDOCK:   -4.75 KCAL/MOL
REMARK 922        TOTAL FREE ENERGY PREDICTED BY IDOCK:   -6.79 KCAL/MOL
REMARK 923 INTER-LIGAND FREE ENERGY PREDICTED BY IDOCK:   -5.80 KCAL/MOL
REMARK 924 INTRA-LIGAND FREE ENERGY PREDICTED BY IDOCK:   -0.99 KCAL/MOL
REMARK 927      BINDING AFFINITY PREDICTED BY RF-SCORE:    0.00 PKD
ROOT
HETATM    1  C   UNL     1      -8.889   6.916  69.499  1.00  0.00    -0.133 C  
HETATM    2  S   UNL     1      -9.542   7.228  71.185  1.00  0.00    -0.159 SA 
HETATM    3  C   UNL     1     -10.898   6.003  71.064  1.00  0.00    -0.282 C  
HETATM    4  CA  UNL     1     -10.409   4.972  70.022  1.00  0.00    -0.233 C  
HETATM    5  C   UNL     1     -12.160   6.747  70.589  1.00  0.00    -0.371 C  
HETATM    6  C   UNL     1     -11.187   5.474  72.472  1.00  0.00    -0.330 C  
HETATM    7  N   UNL     1      -9.608   5.711  69.018  1.00  0.00    -0.129 N  
HETATM    8  C   UNL     1      -9.576   3.807  70.584  1.00  0.00    -0.189 C  
HETATM    9  C   UNL     1     -10.256   6.393  68.019  1.00  0.00    -0.164 C  
HETATM   10  OXT UNL     1      -9.938   3.061  71.482  1.00  0.00    -0.155 OA 
HETATM   11  O   UNL     1      -8.405   3.604  69.926  1.00  0.00    -0.052 OA 
HETATM   12  CA  UNL     1      -9.477   7.701  68.289  1.00  0.00    -0.145 C  
HETATM   13  O   UNL     1     -11.208   6.064  67.347  1.00  0.00    -0.228 OA 
ENDROOT
BRANCH  12  14
HETATM   14  N   UNL     1     -10.297   8.932  68.532  1.00  0.00    -0.198 N  
HETATM   15  C   UNL     1      -9.680  10.163  68.598  1.00  0.00    -0.163 C  
HETATM   16  H   UNL     1     -11.308   8.859  68.648  1.00  0.00     0.000 HD 
HETATM   17  O   UNL     1      -8.465  10.219  68.436  1.00  0.00    -0.117 OA 
BRANCH  15  18
HETATM   18  C   UNL     1     -10.496  11.404  68.858  1.00  0.00    -0.219 A  
HETATM   19  C   UNL     1     -10.552  12.490  67.941  1.00  0.00    -0.218 A  
HETATM   20  C   UNL     1     -11.422  13.573  68.181  1.00  0.00    -0.338 A  
HETATM   21  C   UNL     1     -11.338  11.451  69.999  1.00  0.00    -0.176 A  
HETATM   22  C   UNL     1     -12.273  13.575  69.283  1.00  0.00    -0.257 A  
HETATM   23  C   UNL     1     -12.231  12.518  70.179  1.00  0.00    -0.307 A  
BRANCH  19  24
HETATM   24  O   UNL     1      -9.750  12.467  66.818  1.00  0.00    -0.212 OA 
HETATM   25  C   UNL     1     -10.439  12.336  65.569  1.00  0.00    -0.264 C  
ENDBRANCH  19  24
BRANCH  21  26
HETATM   26  O   UNL     1     -11.503  10.481  70.956  1.00  0.00    -0.300 OA 
HETATM   27  C   UNL     1     -12.787  10.397  71.569  1.00  0.00    -0.464 C  
ENDBRANCH  21  26
ENDBRANCH  15  18
ENDBRANCH  12  14
TORSDOF 4
ENDMDL
MODEL       84
REMARK 921   NORMALIZED FREE ENERGY PREDICTED BY IDOCK:   -4.67 KCAL/MOL
REMARK 922        TOTAL FREE ENERGY PREDICTED BY IDOCK:   -6.69 KCAL/MOL
REMARK 923 INTER-LIGAND FREE ENERGY PREDICTED BY IDOCK:   -5.73 KCAL/MOL
REMARK 924 INTRA-LIGAND FREE ENERGY PREDICTED BY IDOCK:   -0.96 KCAL/MOL
REMARK 927      BINDING AFFINITY PREDICTED BY RF-SCORE:    0.00 PKD
ROOT
HETATM    1  C   UNL     1      -8.455  10.697  68.439  1.00  0.00    -0.132 C  
HETATM    2  S   UNL     1     -10.128  10.040  68.073  1.00  0.00    -0.177 SA 
HETATM    3  C   UNL     1      -9.552   8.788  66.866  1.00  0.00    -0.190 C  
HETATM    4  CA  UNL     1      -8.090   8.491  67.270  1.00  0.00    -0.105 C  
HETATM    5  C   UNL     1      -9.643   9.416  65.462  1.00  0.00    -0.328 C  
HETATM    6  C   UNL     1     -10.530   7.610  66.901  1.00  0.00    -0.388 C  
HETATM    7  N   UNL     1      -7.513   9.754  67.787  1.00  0.00    -0.090 N  
HETATM    8  C   UNL     1      -7.908   7.380  68.319  1.00  0.00    -0.122 C  
HETATM    9  C   UNL     1      -7.060  10.693  66.894  1.00  0.00    -0.109 C  
HETATM   10  OXT UNL     1      -8.345   6.243  68.215  1.00  0.00    -0.114 OA 
HETATM   11  O   UNL     1      -7.120   7.739  69.366  1.00  0.00    -0.067 OA 
HETATM   12  CA  UNL     1      -7.865  11.835  67.555  1.00  0.00    -0.148 C  
HETATM   13  O   UNL     1      -6.415  10.551  65.879  1.00  0.00    -0.111 OA 
ENDROOT
BRANCH  12  14
HETATM   14  N   UNL     1      -8.773  12.623  66.658  1.00  0.00    -0.396 N  
HETATM   15  C   UNL     1      -9.468  13.701  67.165  1.00  0.00    -0.244 C  
HETATM   16  H   UNL     1      -8.875  12.363  65.678  1.00  0.00     0.000 HD 
HETATM   17  O   UNL     1      -9.309  13.999  68.344  1.00  0.00    -0.207 OA 
BRANCH  15  18
HETATM   18  C   UNL     1     -10.395  14.487  66.274  1.00  0.00    -0.300 A  
HETATM   19  C   UNL     1     -10.171  15.855  65.953  1.00  0.00    -0.352 A  
HETATM   20  C   UNL     1     -11.005  16.508  65.022  1.00  0.00    -0.222 A  
HETATM   21  C   UNL     1     -11.465  13.818  65.627  1.00  0.00    -0.310 A  
HETATM   22  C   UNL     1     -12.020  15.818  64.366  1.00  0.00    -0.082 A  
HETATM   23  C   UNL     1     -12.241  14.483  64.665  1.00  0.00    -0.474 A  
BRANCH  19  24
HETATM   24  O   UNL     1      -9.132  16.529  66.561  1.00  0.00    -0.235 OA 
HETATM   25  C   UNL     1      -9.402  17.890  66.918  1.00  0.00    -0.275 C  
ENDBRANCH  19  24
BRANCH  21  26
HETATM   26  O   UNL     1     -11.801  12.491  65.723  1.00  0.00    -0.408 OA 
HETATM   27  C   UNL     1     -12.237  11.850  64.527  1.00  0.00    -0.142 C  
ENDBRANCH  21  26
ENDBRANCH  15  18
ENDBRANCH  12  14
TORSDOF 4
ENDMDL
MODEL       85
REMARK 921   NORMALIZED FREE ENERGY PREDICTED BY IDOCK:   -4.67 KCAL/MOL
REMARK 922        TOTAL FREE ENERGY PREDICTED BY IDOCK:   -6.68 KCAL/MOL
REMARK 923 INTER-LIGAND FREE ENERGY PREDICTED BY IDOCK:   -5.82 KCAL/MOL
REMARK 924 INTRA-LIGAND FREE ENERGY PREDICTED BY IDOCK:   -0.86 KCAL/MOL
REMARK 927      BINDING AFFINITY PREDICTED BY RF-SCORE:    0.00 PKD
ROOT
HETATM    1  C   UNL     1      -8.220   8.670  68.334  1.00  0.00    -0.122 C  
HETATM    2  S   UNL     1      -8.482   9.690  69.836  1.00  0.00    -0.210 SA 
HETATM    3  C   UNL     1      -9.991   8.802  70.376  1.00  0.00    -0.189 C  
HETATM    4  CA  UNL     1      -9.861   7.390  69.760  1.00  0.00    -0.171 C  
HETATM    5  C   UNL     1     -11.207   9.563  69.816  1.00  0.00    -0.173 C  
HETATM    6  C   UNL     1     -10.069   8.883  71.903  1.00  0.00    -0.393 C  
HETATM    7  N   UNL     1      -9.177   7.543  68.454  1.00  0.00    -0.140 N  
HETATM    8  C   UNL     1      -9.102   6.362  70.617  1.00  0.00    -0.148 C  
HETATM    9  C   UNL     1      -9.908   7.937  67.361  1.00  0.00    -0.181 C  
HETATM   10  OXT UNL     1      -9.380   6.077  71.773  1.00  0.00    -0.149 OA 
HETATM   11  O   UNL     1      -8.121   5.706  69.945  1.00  0.00    -0.092 OA 
HETATM   12  CA  UNL     1      -8.920   9.070  67.002  1.00  0.00    -0.126 C  
HETATM   13  O   UNL     1     -11.009   7.588  66.998  1.00  0.00    -0.306 OA 
ENDROOT
BRANCH  12  14
HETATM   14  N   UNL     1      -9.500  10.444  66.852  1.00  0.00    -0.166 N  
HETATM   15  C   UNL     1      -9.385  11.108  65.648  1.00  0.00    -0.219 C  
HETATM   16  H   UNL     1      -9.977  10.886  67.637  1.00  0.00     0.000 HD 
HETATM   17  O   UNL     1      -8.822  10.541  64.718  1.00  0.00    -0.184 OA 
BRANCH  15  18
HETATM   18  C   UNL     1      -9.952  12.496  65.496  1.00  0.00    -0.248 A  
HETATM   19  C   UNL     1     -11.019  12.794  64.604  1.00  0.00    -0.327 A  
HETATM   20  C   UNL     1     -11.587  14.085  64.587  1.00  0.00    -0.400 A  
HETATM   21  C   UNL     1      -9.494  13.528  66.354  1.00  0.00    -0.224 A  
HETATM   22  C   UNL     1     -11.152  15.067  65.472  1.00  0.00    -0.358 A  
HETATM   23  C   UNL     1     -10.117  14.785  66.350  1.00  0.00    -0.291 A  
BRANCH  19  24
HETATM   24  O   UNL     1     -11.491  11.807  63.762  1.00  0.00    -0.397 OA 
HETATM   25  C   UNL     1     -12.877  11.903  63.412  1.00  0.00    -0.256 C  
ENDBRANCH  19  24
BRANCH  21  26
HETATM   26  O   UNL     1      -8.544  13.434  67.341  1.00  0.00    -0.183 OA 
HETATM   27  C   UNL     1      -8.806  14.136  68.554  1.00  0.00    -0.173 C  
ENDBRANCH  21  26
ENDBRANCH  15  18
ENDBRANCH  12  14
TORSDOF 4
ENDMDL
MODEL       86
REMARK 921   NORMALIZED FREE ENERGY PREDICTED BY IDOCK:   -4.62 KCAL/MOL
REMARK 922        TOTAL FREE ENERGY PREDICTED BY IDOCK:   -6.63 KCAL/MOL
REMARK 923 INTER-LIGAND FREE ENERGY PREDICTED BY IDOCK:   -5.92 KCAL/MOL
REMARK 924 INTRA-LIGAND FREE ENERGY PREDICTED BY IDOCK:   -0.71 KCAL/MOL
REMARK 927      BINDING AFFINITY PREDICTED BY RF-SCORE:    0.00 PKD
ROOT
HETATM    1  C   UNL     1     -11.298  14.372  68.328  1.00  0.00    -0.287 C  
HETATM    2  S   UNL     1      -9.708  14.274  69.238  1.00  0.00     0.267 SA 
HETATM    3  C   UNL     1      -8.747  15.210  67.992  1.00  0.00    -0.165 C  
HETATM    4  CA  UNL     1      -9.790  16.096  67.272  1.00  0.00    -0.241 C  
HETATM    5  C   UNL     1      -8.102  14.190  67.035  1.00  0.00    -0.044 C  
HETATM    6  C   UNL     1      -7.610  15.936  68.716  1.00  0.00    -0.178 C  
HETATM    7  N   UNL     1     -11.056  15.329  67.220  1.00  0.00    -0.332 N  
HETATM    8  C   UNL     1     -10.050  17.468  67.918  1.00  0.00    -0.330 C  
HETATM    9  C   UNL     1     -11.217  14.374  66.248  1.00  0.00    -0.338 C  
HETATM   10  OXT UNL     1      -9.187  18.298  68.166  1.00  0.00    -0.285 OA 
HETATM   11  O   UNL     1     -11.366  17.739  68.117  1.00  0.00     0.131 OA 
HETATM   12  CA  UNL     1     -11.642  13.288  67.263  1.00  0.00    -0.359 C  
HETATM   13  O   UNL     1     -10.928  14.407  65.072  1.00  0.00    -0.345 OA 
ENDROOT
BRANCH  12  14
HETATM   14  N   UNL     1     -10.869  12.004  67.235  1.00  0.00    -0.235 N  
HETATM   15  C   UNL     1     -11.325  10.915  67.948  1.00  0.00    -0.308 C  
HETATM   16  H   UNL     1     -10.009  11.936  66.692  1.00  0.00     0.000 HD 
HETATM   17  O   UNL     1     -12.373  11.024  68.577  1.00  0.00    -0.536 OA 
BRANCH  15  18
HETATM   18  C   UNL     1     -10.545   9.626  67.938  1.00  0.00    -0.308 A  
HETATM   19  C   UNL     1     -10.491   8.754  69.062  1.00  0.00    -0.203 A  
HETATM   20  C   UNL     1      -9.842   7.507  68.958  1.00  0.00    -0.170 A  
HETATM   21  C   UNL     1      -9.936   9.195  66.732  1.00  0.00    -0.254 A  
HETATM   22  C   UNL     1      -9.293   7.086  67.750  1.00  0.00    -0.127 A  
HETATM   23  C   UNL     1      -9.347   7.925  66.647  1.00  0.00    -0.244 A  
BRANCH  19  24
HETATM   24  O   UNL     1     -11.082   9.144  70.247  1.00  0.00    -0.240 OA 
HETATM   25  C   UNL     1     -10.200   9.249  71.371  1.00  0.00    -0.301 C  
ENDBRANCH  19  24
BRANCH  21  26
HETATM   26  O   UNL     1      -9.945   9.835  65.517  1.00  0.00    -0.307 OA 
HETATM   27  C   UNL     1      -8.681  10.226  64.989  1.00  0.00    -0.182 C  
ENDBRANCH  21  26
ENDBRANCH  15  18
ENDBRANCH  12  14
TORSDOF 4
ENDMDL
MODEL       87
REMARK 921   NORMALIZED FREE ENERGY PREDICTED BY IDOCK:   -4.61 KCAL/MOL
REMARK 922        TOTAL FREE ENERGY PREDICTED BY IDOCK:   -6.62 KCAL/MOL
REMARK 923 INTER-LIGAND FREE ENERGY PREDICTED BY IDOCK:   -5.70 KCAL/MOL
REMARK 924 INTRA-LIGAND FREE ENERGY PREDICTED BY IDOCK:   -0.91 KCAL/MOL
REMARK 927      BINDING AFFINITY PREDICTED BY RF-SCORE:    0.00 PKD
ROOT
HETATM    1  C   UNL     1      -8.389   8.753  69.522  1.00  0.00    -0.119 C  
HETATM    2  S   UNL     1      -8.877   9.130  71.250  1.00  0.00    -0.004 SA 
HETATM    3  C   UNL     1     -10.588   8.499  71.079  1.00  0.00    -0.216 C  
HETATM    4  CA  UNL     1     -10.513   7.458  69.939  1.00  0.00    -0.231 C  
HETATM    5  C   UNL     1     -11.492   9.690  70.711  1.00  0.00    -0.399 C  
HETATM    6  C   UNL     1     -11.044   7.989  72.449  1.00  0.00    -0.416 C  
HETATM    7  N   UNL     1      -9.501   7.940  68.971  1.00  0.00    -0.151 N  
HETATM    8  C   UNL     1     -10.162   6.024  70.375  1.00  0.00    -0.204 C  
HETATM    9  C   UNL     1      -9.859   8.897  68.054  1.00  0.00    -0.168 C  
HETATM   10  OXT UNL     1     -10.768   5.384  71.222  1.00  0.00    -0.237 OA 
HETATM   11  O   UNL     1      -9.149   5.468  69.661  1.00  0.00    -0.125 OA 
HETATM   12  CA  UNL     1      -8.655   9.802  68.402  1.00  0.00    -0.119 C  
HETATM   13  O   UNL     1     -10.867   8.998  67.392  1.00  0.00    -0.230 OA 
ENDROOT
BRANCH  12  14
HETATM   14  N   UNL     1      -8.967  11.221  68.774  1.00  0.00    -0.309 N  
HETATM   15  C   UNL     1      -9.135  12.166  67.783  1.00  0.00    -0.189 C  
HETATM   16  H   UNL     1      -9.054  11.486  69.754  1.00  0.00     0.000 HD 
HETATM   17  O   UNL     1      -9.042  11.811  66.613  1.00  0.00    -0.184 OA 
BRANCH  15  18
HETATM   18  C   UNL     1      -9.433  13.597  68.150  1.00  0.00    -0.217 A  
HETATM   19  C   UNL     1     -10.732  14.165  68.027  1.00  0.00    -0.242 A  
HETATM   20  C   UNL     1     -10.979  15.473  68.494  1.00  0.00    -0.288 A  
HETATM   21  C   UNL     1      -8.418  14.382  68.754  1.00  0.00    -0.120 A  
HETATM   22  C   UNL     1      -9.978  16.206  69.125  1.00  0.00    -0.251 A  
HETATM   23  C   UNL     1      -8.711  15.659  69.257  1.00  0.00    -0.267 A  
BRANCH  19  24
HETATM   24  O   UNL     1     -11.742  13.422  67.451  1.00  0.00    -0.331 OA 
HETATM   25  C   UNL     1     -12.086  13.783  66.108  1.00  0.00    -0.441 C  
ENDBRANCH  19  24
BRANCH  21  26
HETATM   26  O   UNL     1      -7.131  14.003  69.046  1.00  0.00    -0.109 OA 
HETATM   27  C   UNL     1      -6.112  14.450  68.155  1.00  0.00    -0.137 C  
ENDBRANCH  21  26
ENDBRANCH  15  18
ENDBRANCH  12  14
TORSDOF 4
ENDMDL
MODEL       88
REMARK 921   NORMALIZED FREE ENERGY PREDICTED BY IDOCK:   -4.60 KCAL/MOL
REMARK 922        TOTAL FREE ENERGY PREDICTED BY IDOCK:   -6.61 KCAL/MOL
REMARK 923 INTER-LIGAND FREE ENERGY PREDICTED BY IDOCK:   -5.84 KCAL/MOL
REMARK 924 INTRA-LIGAND FREE ENERGY PREDICTED BY IDOCK:   -0.77 KCAL/MOL
REMARK 927      BINDING AFFINITY PREDICTED BY RF-SCORE:    0.00 PKD
ROOT
HETATM    1  C   UNL     1     -10.626  16.512  68.000  1.00  0.00    -0.328 C  
HETATM    2  S   UNL     1      -9.030  16.947  68.792  1.00  0.00    -0.227 SA 
HETATM    3  C   UNL     1      -8.372  17.860  67.347  1.00  0.00    -0.224 C  
HETATM    4  CA  UNL     1      -9.624  18.341  66.579  1.00  0.00    -0.320 C  
HETATM    5  C   UNL     1      -7.531  16.874  66.514  1.00  0.00    -0.328 C  
HETATM    6  C   UNL     1      -7.422  18.944  67.862  1.00  0.00    -0.269 C  
HETATM    7  N   UNL     1     -10.665  17.299  66.742  1.00  0.00    -0.170 N  
HETATM    8  C   UNL     1     -10.190  19.701  67.023  1.00  0.00    -0.439 C  
HETATM    9  C   UNL     1     -10.622  16.183  65.944  1.00  0.00    -0.312 C  
HETATM   10  OXT UNL     1      -9.547  20.740  67.074  1.00  0.00    -0.400 OA 
HETATM   11  O   UNL     1     -11.524  19.684  67.276  1.00  0.00     0.010 OA 
HETATM   12  CA  UNL     1     -10.731  15.215  67.144  1.00  0.00    -0.310 C  
HETATM   13  O   UNL     1     -10.392  16.085  64.759  1.00  0.00    -0.510 OA 
ENDROOT
BRANCH  12  14
HETATM   14  N   UNL     1      -9.669  14.163  67.258  1.00  0.00    -0.231 N  
HETATM   15  C   UNL     1      -9.958  12.962  67.871  1.00  0.00    -0.233 C  
HETATM   16  H   UNL     1      -8.737  14.335  66.883  1.00  0.00     0.000 HD 
HETATM   17  O   UNL     1     -11.095  12.779  68.294  1.00  0.00    -0.230 OA 
BRANCH  15  18
HETATM   18  C   UNL     1      -8.890  11.907  68.003  1.00  0.00    -0.177 A  
HETATM   19  C   UNL     1      -7.554  12.213  68.383  1.00  0.00    -0.128 A  
HETATM   20  C   UNL     1      -6.626  11.174  68.604  1.00  0.00    -0.059 A  
HETATM   21  C   UNL     1      -9.247  10.541  67.864  1.00  0.00    -0.140 A  
HETATM   22  C   UNL     1      -7.012   9.840  68.507  1.00  0.00    -0.064 A  
HETATM   23  C   UNL     1      -8.314   9.531  68.144  1.00  0.00    -0.118 A  
BRANCH  19  24
HETATM   24  O   UNL     1      -7.181  13.533  68.534  1.00  0.00    -0.097 OA 
HETATM   25  C   UNL     1      -6.418  13.829  69.710  1.00  0.00    -0.079 C  
ENDBRANCH  19  24
BRANCH  21  26
HETATM   26  O   UNL     1     -10.489  10.026  67.592  1.00  0.00    -0.211 OA 
HETATM   27  C   UNL     1     -10.531   8.774  66.910  1.00  0.00    -0.249 C  
ENDBRANCH  21  26
ENDBRANCH  15  18
ENDBRANCH  12  14
TORSDOF 4
ENDMDL
MODEL       89
REMARK 921   NORMALIZED FREE ENERGY PREDICTED BY IDOCK:   -4.57 KCAL/MOL
REMARK 922        TOTAL FREE ENERGY PREDICTED BY IDOCK:   -6.57 KCAL/MOL
REMARK 923 INTER-LIGAND FREE ENERGY PREDICTED BY IDOCK:   -5.73 KCAL/MOL
REMARK 924 INTRA-LIGAND FREE ENERGY PREDICTED BY IDOCK:   -0.84 KCAL/MOL
REMARK 927      BINDING AFFINITY PREDICTED BY RF-SCORE:    0.00 PKD
ROOT
HETATM    1  C   UNL     1     -10.173   8.294  68.252  1.00  0.00    -0.208 C  
HETATM    2  S   UNL     1      -8.387   8.280  67.834  1.00  0.00    -0.129 SA 
HETATM    3  C   UNL     1      -7.811   8.404  69.568  1.00  0.00    -0.102 C  
HETATM    4  CA  UNL     1      -8.961   7.807  70.410  1.00  0.00    -0.147 C  
HETATM    5  C   UNL     1      -7.584   9.895  69.881  1.00  0.00    -0.167 C  
HETATM    6  C   UNL     1      -6.451   7.707  69.667  1.00  0.00    -0.031 C  
HETATM    7  N   UNL     1     -10.230   8.154  69.728  1.00  0.00    -0.199 N  
HETATM    8  C   UNL     1      -8.899   6.285  70.630  1.00  0.00    -0.144 C  
HETATM    9  C   UNL     1     -10.764   9.405  69.911  1.00  0.00    -0.234 C  
HETATM   10  OXT UNL     1      -7.943   5.687  71.103  1.00  0.00    -0.107 OA 
HETATM   11  O   UNL     1     -10.058   5.641  70.335  1.00  0.00    -0.191 OA 
HETATM   12  CA  UNL     1     -10.919   9.654  68.393  1.00  0.00    -0.113 C  
HETATM   13  O   UNL     1     -10.866  10.065  70.921  1.00  0.00    -0.319 OA 
ENDROOT
BRANCH  12  14
HETATM   14  N   UNL     1     -10.292  10.903  67.851  1.00  0.00    -0.180 N  
HETATM   15  C   UNL     1     -11.072  12.019  67.630  1.00  0.00    -0.264 C  
HETATM   16  H   UNL     1      -9.294  10.927  67.646  1.00  0.00     0.000 HD 
HETATM   17  O   UNL     1     -12.266  11.964  67.905  1.00  0.00    -0.508 OA 
BRANCH  15  18
HETATM   18  C   UNL     1     -10.452  13.274  67.070  1.00  0.00    -0.249 A  
HETATM   19  C   UNL     1      -9.175  13.747  67.482  1.00  0.00    -0.216 A  
HETATM   20  C   UNL     1      -8.593  14.860  66.841  1.00  0.00    -0.269 A  
HETATM   21  C   UNL     1     -11.100  13.949  66.005  1.00  0.00    -0.289 A  
HETATM   22  C   UNL     1      -9.228  15.478  65.767  1.00  0.00    -0.216 A  
HETATM   23  C   UNL     1     -10.469  15.020  65.353  1.00  0.00    -0.406 A  
BRANCH  19  24
HETATM   24  O   UNL     1      -8.517  13.104  68.511  1.00  0.00    -0.144 OA 
HETATM   25  C   UNL     1      -7.087  13.105  68.426  1.00  0.00    -0.107 C  
ENDBRANCH  19  24
BRANCH  21  26
HETATM   26  O   UNL     1     -12.284  13.611  65.399  1.00  0.00    -0.390 OA 
HETATM   27  C   UNL     1     -12.268  13.493  63.978  1.00  0.00    -0.402 C  
ENDBRANCH  21  26
ENDBRANCH  15  18
ENDBRANCH  12  14
TORSDOF 4
ENDMDL
MODEL       90
REMARK 921   NORMALIZED FREE ENERGY PREDICTED BY IDOCK:   -4.56 KCAL/MOL
REMARK 922        TOTAL FREE ENERGY PREDICTED BY IDOCK:   -6.55 KCAL/MOL
REMARK 923 INTER-LIGAND FREE ENERGY PREDICTED BY IDOCK:   -5.59 KCAL/MOL
REMARK 924 INTRA-LIGAND FREE ENERGY PREDICTED BY IDOCK:   -0.95 KCAL/MOL
REMARK 927      BINDING AFFINITY PREDICTED BY RF-SCORE:    0.00 PKD
ROOT
HETATM    1  C   UNL     1     -11.606  11.746  67.130  1.00  0.00    -0.266 C  
HETATM    2  S   UNL     1     -11.223  12.607  68.704  1.00  0.00    -0.302 SA 
HETATM    3  C   UNL     1      -9.790  13.534  68.039  1.00  0.00    -0.238 C  
HETATM    4  CA  UNL     1     -10.059  13.642  66.520  1.00  0.00    -0.286 C  
HETATM    5  C   UNL     1      -8.521  12.714  68.340  1.00  0.00    -0.121 C  
HETATM    6  C   UNL     1      -9.674  14.850  68.813  1.00  0.00    -0.225 C  
HETATM    7  N   UNL     1     -10.752  12.400  66.108  1.00  0.00    -0.254 N  
HETATM    8  C   UNL     1     -10.890  14.861  66.082  1.00  0.00    -0.327 C  
HETATM    9  C   UNL     1     -10.011  11.267  65.881  1.00  0.00    -0.234 C  
HETATM   10  OXT UNL     1     -10.616  16.023  66.343  1.00  0.00    -0.308 OA 
HETATM   11  O   UNL     1     -11.939  14.547  65.278  1.00  0.00    -0.368 OA 
HETATM   12  CA  UNL     1     -10.900  10.398  66.800  1.00  0.00    -0.116 C  
HETATM   13  O   UNL     1      -8.954  11.134  65.306  1.00  0.00    -0.191 OA 
ENDROOT
BRANCH  12  14
HETATM   14  N   UNL     1     -10.201   9.640  67.889  1.00  0.00    -0.185 N  
HETATM   15  C   UNL     1     -10.159   8.262  67.845  1.00  0.00    -0.202 C  
HETATM   16  H   UNL     1      -9.760  10.141  68.659  1.00  0.00     0.000 HD 
HETATM   17  O   UNL     1     -10.684   7.690  66.896  1.00  0.00    -0.351 OA 
BRANCH  15  18
HETATM   18  C   UNL     1      -9.473   7.493  68.945  1.00  0.00    -0.145 A  
HETATM   19  C   UNL     1      -9.979   7.441  70.273  1.00  0.00    -0.188 A  
HETATM   20  C   UNL     1      -9.361   6.613  71.233  1.00  0.00    -0.159 A  
HETATM   21  C   UNL     1      -8.348   6.690  68.629  1.00  0.00    -0.123 A  
HETATM   22  C   UNL     1      -8.286   5.799  70.887  1.00  0.00    -0.125 A  
HETATM   23  C   UNL     1      -7.791   5.836  69.593  1.00  0.00    -0.096 A  
BRANCH  19  24
HETATM   24  O   UNL     1     -11.078   8.206  70.608  1.00  0.00    -0.250 OA 
HETATM   25  C   UNL     1     -10.819   9.312  71.480  1.00  0.00    -0.372 C  
ENDBRANCH  19  24
BRANCH  21  26
HETATM   26  O   UNL     1      -7.757   6.526  67.401  1.00  0.00    -0.098 OA 
HETATM   27  C   UNL     1      -6.561   7.263  67.159  1.00  0.00    -0.063 C  
ENDBRANCH  21  26
ENDBRANCH  15  18
ENDBRANCH  12  14
TORSDOF 4
ENDMDL
MODEL       91
REMARK 921   NORMALIZED FREE ENERGY PREDICTED BY IDOCK:   -4.55 KCAL/MOL
REMARK 922        TOTAL FREE ENERGY PREDICTED BY IDOCK:   -6.54 KCAL/MOL
REMARK 923 INTER-LIGAND FREE ENERGY PREDICTED BY IDOCK:   -5.59 KCAL/MOL
REMARK 924 INTRA-LIGAND FREE ENERGY PREDICTED BY IDOCK:   -0.95 KCAL/MOL
REMARK 927      BINDING AFFINITY PREDICTED BY RF-SCORE:    0.00 PKD
ROOT
HETATM    1  C   UNL     1      -9.341  12.434  68.300  1.00  0.00    -0.199 C  
HETATM    2  S   UNL     1      -9.068  13.346  66.733  1.00  0.00    -0.170 SA 
HETATM    3  C   UNL     1     -10.824  13.813  66.506  1.00  0.00    -0.287 C  
HETATM    4  CA  UNL     1     -11.421  13.813  67.932  1.00  0.00    -0.314 C  
HETATM    5  C   UNL     1     -11.481  12.747  65.609  1.00  0.00    -0.379 C  
HETATM    6  C   UNL     1     -10.868  15.139  65.741  1.00  0.00    -0.358 C  
HETATM    7  N   UNL     1     -10.739  12.740  68.693  1.00  0.00    -0.250 N  
HETATM    8  C   UNL     1     -11.297  15.141  68.700  1.00  0.00    -0.310 C  
HETATM    9  C   UNL     1     -11.157  11.442  68.534  1.00  0.00    -0.235 C  
HETATM   10  OXT UNL     1     -11.695  16.223  68.292  1.00  0.00    -0.238 OA 
HETATM   11  O   UNL     1     -10.776  15.006  69.948  1.00  0.00    -0.252 OA 
HETATM   12  CA  UNL     1      -9.727  10.926  68.255  1.00  0.00    -0.165 C  
HETATM   13  O   UNL     1     -12.279  10.991  68.467  1.00  0.00    -0.582 OA 
ENDROOT
BRANCH  12  14
HETATM   14  N   UNL     1      -9.529  10.147  66.990  1.00  0.00    -0.164 N  
HETATM   15  C   UNL     1      -8.299   9.584  66.718  1.00  0.00    -0.116 C  
HETATM   16  H   UNL     1     -10.300  10.034  66.332  1.00  0.00     0.000 HD 
HETATM   17  O   UNL     1      -7.398   9.722  67.538  1.00  0.00    -0.089 OA 
BRANCH  15  18
HETATM   18  C   UNL     1      -8.088   8.814  65.439  1.00  0.00    -0.125 A  
HETATM   19  C   UNL     1      -7.787   7.424  65.424  1.00  0.00    -0.118 A  
HETATM   20  C   UNL     1      -7.715   6.730  64.198  1.00  0.00    -0.113 A  
HETATM   21  C   UNL     1      -8.314   9.460  64.198  1.00  0.00    -0.168 A  
HETATM   22  C   UNL     1      -7.987   7.376  62.996  1.00  0.00    -0.105 A  
HETATM   23  C   UNL     1      -8.289   8.728  63.000  1.00  0.00    -0.175 A  
BRANCH  19  24
HETATM   24  O   UNL     1      -7.569   6.767  66.618  1.00  0.00    -0.083 OA 
HETATM   25  C   UNL     1      -7.610   5.336  66.553  1.00  0.00    -0.088 C  
ENDBRANCH  19  24
BRANCH  21  26
HETATM   26  O   UNL     1      -8.699  10.762  63.991  1.00  0.00    -0.158 OA 
HETATM   27  C   UNL     1      -9.281  11.066  62.725  1.00  0.00    -0.351 C  
ENDBRANCH  21  26
ENDBRANCH  15  18
ENDBRANCH  12  14
TORSDOF 4
ENDMDL
MODEL       92
REMARK 921   NORMALIZED FREE ENERGY PREDICTED BY IDOCK:   -4.54 KCAL/MOL
REMARK 922        TOTAL FREE ENERGY PREDICTED BY IDOCK:   -6.53 KCAL/MOL
REMARK 923 INTER-LIGAND FREE ENERGY PREDICTED BY IDOCK:   -5.72 KCAL/MOL
REMARK 924 INTRA-LIGAND FREE ENERGY PREDICTED BY IDOCK:   -0.81 KCAL/MOL
REMARK 927      BINDING AFFINITY PREDICTED BY RF-SCORE:    0.00 PKD
ROOT
HETATM    1  C   UNL     1      -9.601   5.681  70.161  1.00  0.00    -0.167 C  
HETATM    2  S   UNL     1      -8.272   6.479  71.144  1.00  0.00    -0.122 SA 
HETATM    3  C   UNL     1      -9.331   6.832  72.596  1.00  0.00    -0.139 C  
HETATM    4  CA  UNL     1     -10.455   5.772  72.533  1.00  0.00    -0.207 C  
HETATM    5  C   UNL     1      -9.881   8.262  72.437  1.00  0.00    -0.375 C  
HETATM    6  C   UNL     1      -8.444   6.822  73.844  1.00  0.00    -0.152 C  
HETATM    7  N   UNL     1     -10.737   5.516  71.101  1.00  0.00    -0.236 N  
HETATM    8  C   UNL     1     -10.147   4.440  73.240  1.00  0.00    -0.151 C  
HETATM    9  C   UNL     1     -11.542   6.389  70.414  1.00  0.00    -0.373 C  
HETATM   10  OXT UNL     1      -9.805   4.333  74.408  1.00  0.00    -0.118 OA 
HETATM   11  O   UNL     1     -10.379   3.345  72.469  1.00  0.00    -0.165 OA 
HETATM   12  CA  UNL     1     -10.524   6.557  69.263  1.00  0.00    -0.219 C  
HETATM   13  O   UNL     1     -12.575   6.923  70.754  1.00  0.00    -0.324 OA 
ENDROOT
BRANCH  12  14
HETATM   14  N   UNL     1     -10.117   7.960  68.926  1.00  0.00    -0.192 N  
HETATM   15  C   UNL     1     -10.267   8.425  67.637  1.00  0.00    -0.236 C  
HETATM   16  H   UNL     1      -9.729   8.567  69.647  1.00  0.00     0.000 HD 
HETATM   17  O   UNL     1     -10.754   7.675  66.797  1.00  0.00    -0.318 OA 
BRANCH  15  18
HETATM   18  C   UNL     1      -9.845   9.829  67.287  1.00  0.00    -0.228 A  
HETATM   19  C   UNL     1      -8.646  10.113  66.575  1.00  0.00    -0.126 A  
HETATM   20  C   UNL     1      -8.359  11.434  66.173  1.00  0.00    -0.071 A  
HETATM   21  C   UNL     1     -10.724  10.906  67.567  1.00  0.00    -0.252 A  
HETATM   22  C   UNL     1      -9.260  12.466  66.419  1.00  0.00    -0.192 A  
HETATM   23  C   UNL     1     -10.434  12.199  67.105  1.00  0.00    -0.241 A  
BRANCH  19  24
HETATM   24  O   UNL     1      -7.775   9.083  66.282  1.00  0.00    -0.094 OA 
HETATM   25  C   UNL     1      -7.390   8.972  64.906  1.00  0.00    -0.100 C  
ENDBRANCH  19  24
BRANCH  21  26
HETATM   26  O   UNL     1     -11.960  10.842  68.160  1.00  0.00    -0.581 OA 
HETATM   27  C   UNL     1     -12.012  11.083  69.564  1.00  0.00    -0.342 C  
ENDBRANCH  21  26
ENDBRANCH  15  18
ENDBRANCH  12  14
TORSDOF 4
ENDMDL
MODEL       93
REMARK 921   NORMALIZED FREE ENERGY PREDICTED BY IDOCK:   -4.54 KCAL/MOL
REMARK 922        TOTAL FREE ENERGY PREDICTED BY IDOCK:   -6.52 KCAL/MOL
REMARK 923 INTER-LIGAND FREE ENERGY PREDICTED BY IDOCK:   -5.54 KCAL/MOL
REMARK 924 INTRA-LIGAND FREE ENERGY PREDICTED BY IDOCK:   -0.98 KCAL/MOL
REMARK 927      BINDING AFFINITY PREDICTED BY RF-SCORE:    0.00 PKD
ROOT
HETATM    1  C   UNL     1      -8.444   8.234  70.920  1.00  0.00    -0.132 C  
HETATM    2  S   UNL     1     -10.169   8.523  71.473  1.00  0.00    -0.277 SA 
HETATM    3  C   UNL     1     -10.734   6.810  71.152  1.00  0.00    -0.229 C  
HETATM    4  CA  UNL     1      -9.456   5.947  71.252  1.00  0.00    -0.160 C  
HETATM    5  C   UNL     1     -11.342   6.775  69.737  1.00  0.00    -0.350 C  
HETATM    6  C   UNL     1     -11.861   6.489  72.138  1.00  0.00    -0.348 C  
HETATM    7  N   UNL     1      -8.332   6.765  70.739  1.00  0.00    -0.127 N  
HETATM    8  C   UNL     1      -9.113   5.435  72.662  1.00  0.00    -0.135 C  
HETATM    9  C   UNL     1      -8.144   6.862  69.383  1.00  0.00    -0.127 C  
HETATM   10  OXT UNL     1      -9.871   4.794  73.375  1.00  0.00    -0.138 OA 
HETATM   11  O   UNL     1      -7.829   5.677  73.035  1.00  0.00    -0.100 OA 
HETATM   12  CA  UNL     1      -8.081   8.406  69.415  1.00  0.00    -0.114 C  
HETATM   13  O   UNL     1      -8.206   6.006  68.528  1.00  0.00    -0.109 OA 
ENDROOT
BRANCH  12  14
HETATM   14  N   UNL     1      -9.021   9.136  68.504  1.00  0.00    -0.133 N  
HETATM   15  C   UNL     1      -8.854  10.488  68.288  1.00  0.00    -0.139 C  
HETATM   16  H   UNL     1      -9.782   8.635  68.046  1.00  0.00     0.000 HD 
HETATM   17  O   UNL     1      -7.919  11.058  68.840  1.00  0.00    -0.136 OA 
BRANCH  15  18
HETATM   18  C   UNL     1      -9.806  11.231  67.386  1.00  0.00    -0.201 A  
HETATM   19  C   UNL     1      -9.814  11.060  65.974  1.00  0.00    -0.229 A  
HETATM   20  C   UNL     1     -10.801  11.692  65.191  1.00  0.00    -0.346 A  
HETATM   21  C   UNL     1     -10.816  12.041  67.964  1.00  0.00    -0.216 A  
HETATM   22  C   UNL     1     -11.810  12.445  65.786  1.00  0.00    -0.467 A  
HETATM   23  C   UNL     1     -11.816  12.611  67.162  1.00  0.00    -0.399 A  
BRANCH  19  24
HETATM   24  O   UNL     1      -8.847  10.270  65.384  1.00  0.00    -0.156 OA 
HETATM   25  C   UNL     1      -8.805  10.310  63.953  1.00  0.00    -0.220 C  
ENDBRANCH  19  24
BRANCH  21  26
HETATM   26  O   UNL     1     -11.043  12.268  69.299  1.00  0.00    -0.225 OA 
HETATM   27  C   UNL     1     -12.036  11.462  69.927  1.00  0.00    -0.330 C  
ENDBRANCH  21  26
ENDBRANCH  15  18
ENDBRANCH  12  14
TORSDOF 4
ENDMDL
MODEL       94
REMARK 921   NORMALIZED FREE ENERGY PREDICTED BY IDOCK:   -4.53 KCAL/MOL
REMARK 922        TOTAL FREE ENERGY PREDICTED BY IDOCK:   -6.52 KCAL/MOL
REMARK 923 INTER-LIGAND FREE ENERGY PREDICTED BY IDOCK:   -5.61 KCAL/MOL
REMARK 924 INTRA-LIGAND FREE ENERGY PREDICTED BY IDOCK:   -0.91 KCAL/MOL
REMARK 927      BINDING AFFINITY PREDICTED BY RF-SCORE:    0.00 PKD
ROOT
HETATM    1  C   UNL     1     -10.560   8.096  69.123  1.00  0.00    -0.166 C  
HETATM    2  S   UNL     1      -8.834   8.090  68.503  1.00  0.00    -0.133 SA 
HETATM    3  C   UNL     1      -8.087   7.597  70.101  1.00  0.00    -0.118 C  
HETATM    4  CA  UNL     1      -9.211   6.843  70.847  1.00  0.00    -0.157 C  
HETATM    5  C   UNL     1      -7.670   8.883  70.839  1.00  0.00    -0.139 C  
HETATM    6  C   UNL     1      -6.808   6.808  69.804  1.00  0.00    -0.054 C  
HETATM    7  N   UNL     1     -10.493   7.485  70.473  1.00  0.00    -0.216 N  
HETATM    8  C   UNL     1      -9.295   5.333  70.564  1.00  0.00    -0.157 C  
HETATM    9  C   UNL     1     -10.868   8.644  71.108  1.00  0.00    -0.259 C  
HETATM   10  OXT UNL     1      -8.370   4.545  70.700  1.00  0.00    -0.073 OA 
HETATM   11  O   UNL     1     -10.540   4.907  70.226  1.00  0.00    -0.184 OA 
HETATM   12  CA  UNL     1     -11.136   9.386  69.779  1.00  0.00    -0.172 C  
HETATM   13  O   UNL     1     -10.801   8.942  72.279  1.00  0.00    -0.332 OA 
ENDROOT
BRANCH  12  14
HETATM   14  N   UNL     1     -10.431  10.695  69.586  1.00  0.00    -0.363 N  
HETATM   15  C   UNL     1     -10.915  11.605  68.670  1.00  0.00    -0.220 C  
HETATM   16  H   UNL     1      -9.596  10.911  70.130  1.00  0.00     0.000 HD 
HETATM   17  O   UNL     1     -11.931  11.322  68.045  1.00  0.00    -0.621 OA 
BRANCH  15  18
HETATM   18  C   UNL     1     -10.201  12.916  68.460  1.00  0.00    -0.210 A  
HETATM   19  C   UNL     1      -8.946  13.006  67.796  1.00  0.00    -0.191 A  
HETATM   20  C   UNL     1      -8.379  14.269  67.524  1.00  0.00    -0.198 A  
HETATM   21  C   UNL     1     -10.850  14.123  68.824  1.00  0.00    -0.258 A  
HETATM   22  C   UNL     1      -9.057  15.440  67.850  1.00  0.00    -0.178 A  
HETATM   23  C   UNL     1     -10.284  15.363  68.490  1.00  0.00    -0.219 A  
BRANCH  19  24
HETATM   24  O   UNL     1      -8.295  11.848  67.422  1.00  0.00    -0.148 OA 
HETATM   25  C   UNL     1      -6.873  11.956  67.282  1.00  0.00    -0.142 C  
ENDBRANCH  19  24
BRANCH  21  26
HETATM   26  O   UNL     1     -12.093  14.265  69.389  1.00  0.00    -0.316 OA 
HETATM   27  C   UNL     1     -12.293  15.406  70.220  1.00  0.00    -0.388 C  
ENDBRANCH  21  26
ENDBRANCH  15  18
ENDBRANCH  12  14
TORSDOF 4
ENDMDL
MODEL       95
REMARK 921   NORMALIZED FREE ENERGY PREDICTED BY IDOCK:   -4.53 KCAL/MOL
REMARK 922        TOTAL FREE ENERGY PREDICTED BY IDOCK:   -6.51 KCAL/MOL
REMARK 923 INTER-LIGAND FREE ENERGY PREDICTED BY IDOCK:   -5.68 KCAL/MOL
REMARK 924 INTRA-LIGAND FREE ENERGY PREDICTED BY IDOCK:   -0.83 KCAL/MOL
REMARK 927      BINDING AFFINITY PREDICTED BY RF-SCORE:    0.00 PKD
ROOT
HETATM    1  C   UNL     1      -9.163  14.119  66.252  1.00  0.00    -0.123 C  
HETATM    2  S   UNL     1      -9.676  13.006  64.887  1.00  0.00     0.218 SA 
HETATM    3  C   UNL     1     -11.462  13.382  65.030  1.00  0.00    -0.311 C  
HETATM    4  CA  UNL     1     -11.521  14.793  65.658  1.00  0.00    -0.327 C  
HETATM    5  C   UNL     1     -12.093  12.318  65.948  1.00  0.00    -0.261 C  
HETATM    6  C   UNL     1     -12.095  13.219  63.645  1.00  0.00    -0.551 C  
HETATM    7  N   UNL     1     -10.375  14.905  66.591  1.00  0.00    -0.278 N  
HETATM    8  C   UNL     1     -11.482  15.964  64.660  1.00  0.00    -0.263 C  
HETATM    9  C   UNL     1     -10.481  14.357  67.845  1.00  0.00    -0.239 C  
HETATM   10  OXT UNL     1     -12.253  16.106  63.722  1.00  0.00    -0.934 OA 
HETATM   11  O   UNL     1     -10.554  16.909  64.960  1.00  0.00    -0.700 OA 
HETATM   12  CA  UNL     1      -9.149  13.585  67.715  1.00  0.00    -0.207 C  
HETATM   13  O   UNL     1     -11.408  14.379  68.625  1.00  0.00    -0.246 OA 
ENDROOT
BRANCH  12  14
HETATM   14  N   UNL     1      -9.202  12.108  67.965  1.00  0.00    -0.188 N  
HETATM   15  C   UNL     1      -8.030  11.386  68.049  1.00  0.00    -0.127 C  
HETATM   16  H   UNL     1     -10.101  11.639  68.074  1.00  0.00     0.000 HD 
HETATM   17  O   UNL     1      -6.964  11.982  67.933  1.00  0.00    -0.081 OA 
BRANCH  15  18
HETATM   18  C   UNL     1      -8.076   9.897  68.285  1.00  0.00    -0.104 A  
HETATM   19  C   UNL     1      -7.916   9.321  69.575  1.00  0.00    -0.098 A  
HETATM   20  C   UNL     1      -8.084   7.933  69.755  1.00  0.00    -0.116 A  
HETATM   21  C   UNL     1      -8.411   9.037  67.208  1.00  0.00    -0.114 A  
HETATM   22  C   UNL     1      -8.459   7.116  68.693  1.00  0.00    -0.125 A  
HETATM   23  C   UNL     1      -8.625   7.668  67.432  1.00  0.00    -0.125 A  
BRANCH  19  24
HETATM   24  O   UNL     1      -7.597  10.136  70.643  1.00  0.00    -0.237 OA 
HETATM   25  C   UNL     1      -6.200  10.248  70.940  1.00  0.00    -0.001 C  
ENDBRANCH  19  24
BRANCH  21  26
HETATM   26  O   UNL     1      -8.694   9.391  65.913  1.00  0.00    -0.140 OA 
HETATM   27  C   UNL     1     -10.071   9.502  65.563  1.00  0.00    -0.002 C  
ENDBRANCH  21  26
ENDBRANCH  15  18
ENDBRANCH  12  14
TORSDOF 4
ENDMDL
MODEL       96
REMARK 921   NORMALIZED FREE ENERGY PREDICTED BY IDOCK:   -4.51 KCAL/MOL
REMARK 922        TOTAL FREE ENERGY PREDICTED BY IDOCK:   -6.49 KCAL/MOL
REMARK 923 INTER-LIGAND FREE ENERGY PREDICTED BY IDOCK:   -5.56 KCAL/MOL
REMARK 924 INTRA-LIGAND FREE ENERGY PREDICTED BY IDOCK:   -0.93 KCAL/MOL
REMARK 927      BINDING AFFINITY PREDICTED BY RF-SCORE:    0.00 PKD
ROOT
HETATM    1  C   UNL     1      -9.684   5.662  70.302  1.00  0.00    -0.178 C  
HETATM    2  S   UNL     1      -8.362   6.474  71.280  1.00  0.00    -0.126 SA 
HETATM    3  C   UNL     1      -9.427   6.836  72.726  1.00  0.00    -0.141 C  
HETATM    4  CA  UNL     1     -10.545   5.771  72.671  1.00  0.00    -0.223 C  
HETATM    5  C   UNL     1      -9.983   8.262  72.553  1.00  0.00    -0.373 C  
HETATM    6  C   UNL     1      -8.543   6.843  73.976  1.00  0.00    -0.176 C  
HETATM    7  N   UNL     1     -10.822   5.499  71.240  1.00  0.00    -0.219 N  
HETATM    8  C   UNL     1     -10.233   4.447  73.390  1.00  0.00    -0.165 C  
HETATM    9  C   UNL     1     -11.630   6.363  70.543  1.00  0.00    -0.358 C  
HETATM   10  OXT UNL     1      -9.893   4.352  74.561  1.00  0.00    -0.137 OA 
HETATM   11  O   UNL     1     -10.457   3.344  72.630  1.00  0.00    -0.158 OA 
HETATM   12  CA  UNL     1     -10.609   6.524  69.393  1.00  0.00    -0.245 C  
HETATM   13  O   UNL     1     -12.666   6.894  70.875  1.00  0.00    -0.328 OA 
ENDROOT
BRANCH  12  14
HETATM   14  N   UNL     1     -10.207   7.926  69.044  1.00  0.00    -0.206 N  
HETATM   15  C   UNL     1     -10.385   8.388  67.757  1.00  0.00    -0.235 C  
HETATM   16  H   UNL     1      -9.805   8.535  69.755  1.00  0.00     0.000 HD 
HETATM   17  O   UNL     1     -10.889   7.636  66.929  1.00  0.00    -0.328 OA 
BRANCH  15  18
HETATM   18  C   UNL     1      -9.968   9.790  67.394  1.00  0.00    -0.239 A  
HETATM   19  C   UNL     1     -10.549  10.941  67.996  1.00  0.00    -0.202 A  
HETATM   20  C   UNL     1     -10.040  12.224  67.705  1.00  0.00    -0.204 A  
HETATM   21  C   UNL     1      -8.874   9.981  66.512  1.00  0.00    -0.139 A  
HETATM   22  C   UNL     1      -8.936  12.381  66.872  1.00  0.00    -0.212 A  
HETATM   23  C   UNL     1      -8.358  11.266  66.287  1.00  0.00    -0.142 A  
BRANCH  19  24
HETATM   24  O   UNL     1     -11.610  10.786  68.865  1.00  0.00    -0.281 OA 
HETATM   25  C   UNL     1     -11.968  11.951  69.618  1.00  0.00    -0.298 C  
ENDBRANCH  19  24
BRANCH  21  26
HETATM   26  O   UNL     1      -8.119   9.013  65.897  1.00  0.00    -0.104 OA 
HETATM   27  C   UNL     1      -8.428   8.727  64.535  1.00  0.00    -0.140 C  
ENDBRANCH  21  26
ENDBRANCH  15  18
ENDBRANCH  12  14
TORSDOF 4
ENDMDL
MODEL       97
REMARK 921   NORMALIZED FREE ENERGY PREDICTED BY IDOCK:   -4.48 KCAL/MOL
REMARK 922        TOTAL FREE ENERGY PREDICTED BY IDOCK:   -6.45 KCAL/MOL
REMARK 923 INTER-LIGAND FREE ENERGY PREDICTED BY IDOCK:   -5.54 KCAL/MOL
REMARK 924 INTRA-LIGAND FREE ENERGY PREDICTED BY IDOCK:   -0.91 KCAL/MOL
REMARK 927      BINDING AFFINITY PREDICTED BY RF-SCORE:    0.00 PKD
ROOT
HETATM    1  C   UNL     1      -8.207  10.900  68.411  1.00  0.00    -0.133 C  
HETATM    2  S   UNL     1      -9.848  10.193  67.996  1.00  0.00    -0.151 SA 
HETATM    3  C   UNL     1      -9.187   8.871  66.914  1.00  0.00    -0.147 C  
HETATM    4  CA  UNL     1      -7.748   8.626  67.422  1.00  0.00    -0.098 C  
HETATM    5  C   UNL     1      -9.204   9.398  65.467  1.00  0.00    -0.292 C  
HETATM    6  C   UNL     1     -10.151   7.682  66.975  1.00  0.00    -0.338 C  
HETATM    7  N   UNL     1      -7.217   9.931  67.881  1.00  0.00    -0.086 N  
HETATM    8  C   UNL     1      -7.614   7.592  68.555  1.00  0.00    -0.110 C  
HETATM    9  C   UNL     1      -6.724  10.813  66.953  1.00  0.00    -0.099 C  
HETATM   10  OXT UNL     1      -8.031   6.444  68.505  1.00  0.00    -0.104 OA 
HETATM   11  O   UNL     1      -6.893   8.035  69.617  1.00  0.00    -0.041 OA 
HETATM   12  CA  UNL     1      -7.581  11.984  67.485  1.00  0.00    -0.147 C  
HETATM   13  O   UNL     1      -6.019  10.612  65.989  1.00  0.00    -0.101 OA 
ENDROOT
BRANCH  12  14
HETATM   14  N   UNL     1      -8.443  12.694  66.485  1.00  0.00    -0.414 N  
HETATM   15  C   UNL     1      -9.151  13.815  66.865  1.00  0.00    -0.242 C  
HETATM   16  H   UNL     1      -8.507  12.348  65.528  1.00  0.00     0.000 HD 
HETATM   17  O   UNL     1      -9.038  14.216  68.018  1.00  0.00    -0.177 OA 
BRANCH  15  18
HETATM   18  C   UNL     1     -10.033  14.524  65.869  1.00  0.00    -0.352 A  
HETATM   19  C   UNL     1     -10.985  13.838  65.065  1.00  0.00    -0.357 A  
HETATM   20  C   UNL     1     -11.864  14.564  64.235  1.00  0.00    -0.368 A  
HETATM   21  C   UNL     1     -10.007  15.940  65.808  1.00  0.00    -0.360 A  
HETATM   22  C   UNL     1     -11.851  15.956  64.227  1.00  0.00    -0.071 A  
HETATM   23  C   UNL     1     -10.932  16.634  65.013  1.00  0.00    -0.172 A  
BRANCH  19  24
HETATM   24  O   UNL     1     -11.038  12.459  65.111  1.00  0.00    -0.292 OA 
HETATM   25  C   UNL     1     -11.666  11.827  63.988  1.00  0.00    -0.327 C  
ENDBRANCH  19  24
BRANCH  21  26
HETATM   26  O   UNL     1      -9.235  16.795  66.555  1.00  0.00    -0.238 OA 
HETATM   27  C   UNL     1      -9.916  17.609  67.507  1.00  0.00    -0.322 C  
ENDBRANCH  21  26
ENDBRANCH  15  18
ENDBRANCH  12  14
TORSDOF 4
ENDMDL
MODEL       98
REMARK 921   NORMALIZED FREE ENERGY PREDICTED BY IDOCK:   -4.42 KCAL/MOL
REMARK 922        TOTAL FREE ENERGY PREDICTED BY IDOCK:   -6.38 KCAL/MOL
REMARK 923 INTER-LIGAND FREE ENERGY PREDICTED BY IDOCK:   -5.58 KCAL/MOL
REMARK 924 INTRA-LIGAND FREE ENERGY PREDICTED BY IDOCK:   -0.80 KCAL/MOL
REMARK 927      BINDING AFFINITY PREDICTED BY RF-SCORE:    0.00 PKD
ROOT
HETATM    1  C   UNL     1      -8.677  10.183  65.513  1.00  0.00    -0.158 C  
HETATM    2  S   UNL     1      -7.197  10.551  66.533  1.00  0.00    -0.131 SA 
HETATM    3  C   UNL     1      -7.468   9.179  67.717  1.00  0.00    -0.085 C  
HETATM    4  CA  UNL     1      -8.284   8.130  66.927  1.00  0.00    -0.111 C  
HETATM    5  C   UNL     1      -8.260   9.742  68.912  1.00  0.00    -0.117 C  
HETATM    6  C   UNL     1      -6.103   8.733  68.247  1.00  0.00    -0.050 C  
HETATM    7  N   UNL     1      -9.173   8.872  66.002  1.00  0.00    -0.212 N  
HETATM    8  C   UNL     1      -7.453   7.110  66.129  1.00  0.00    -0.080 C  
HETATM    9  C   UNL     1     -10.345   9.400  66.484  1.00  0.00    -0.198 C  
HETATM   10  OXT UNL     1      -6.577   6.401  66.602  1.00  0.00    -0.045 OA 
HETATM   11  O   UNL     1      -7.837   6.986  64.832  1.00  0.00    -0.113 OA 
HETATM   12  CA  UNL     1     -10.052  10.802  65.902  1.00  0.00    -0.256 C  
HETATM   13  O   UNL     1     -11.160   8.918  67.238  1.00  0.00     0.009 OA 
ENDROOT
BRANCH  12  14
HETATM   14  N   UNL     1     -10.103  11.951  66.863  1.00  0.00    -0.206 N  
HETATM   15  C   UNL     1     -11.303  12.584  67.110  1.00  0.00    -0.324 C  
HETATM   16  H   UNL     1      -9.253  12.264  67.332  1.00  0.00     0.000 HD 
HETATM   17  O   UNL     1     -12.310  12.172  66.545  1.00  0.00    -0.474 OA 
BRANCH  15  18
HETATM   18  C   UNL     1     -11.358  13.751  68.063  1.00  0.00    -0.318 A  
HETATM   19  C   UNL     1     -11.376  15.102  67.619  1.00  0.00    -0.321 A  
HETATM   20  C   UNL     1     -11.546  16.150  68.548  1.00  0.00    -0.265 A  
HETATM   21  C   UNL     1     -11.520  13.504  69.450  1.00  0.00    -0.282 A  
HETATM   22  C   UNL     1     -11.749  15.880  69.898  1.00  0.00    -0.327 A  
HETATM   23  C   UNL     1     -11.741  14.566  70.340  1.00  0.00    -0.354 A  
BRANCH  19  24
HETATM   24  O   UNL     1     -11.229  15.373  66.273  1.00  0.00    -0.282 OA 
HETATM   25  C   UNL     1     -10.317  16.429  65.951  1.00  0.00    -0.362 C  
ENDBRANCH  19  24
BRANCH  21  26
HETATM   26  O   UNL     1     -11.617  12.286  70.076  1.00  0.00    -0.260 OA 
HETATM   27  C   UNL     1     -12.543  12.192  71.156  1.00  0.00    -0.260 C  
ENDBRANCH  21  26
ENDBRANCH  15  18
ENDBRANCH  12  14
TORSDOF 4
ENDMDL
MODEL       99
REMARK 921   NORMALIZED FREE ENERGY PREDICTED BY IDOCK:   -4.41 KCAL/MOL
REMARK 922        TOTAL FREE ENERGY PREDICTED BY IDOCK:   -6.37 KCAL/MOL
REMARK 923 INTER-LIGAND FREE ENERGY PREDICTED BY IDOCK:   -5.65 KCAL/MOL
REMARK 924 INTRA-LIGAND FREE ENERGY PREDICTED BY IDOCK:   -0.72 KCAL/MOL
REMARK 927      BINDING AFFINITY PREDICTED BY RF-SCORE:    0.00 PKD
ROOT
HETATM    1  C   UNL     1      -9.329  15.378  66.254  1.00  0.00    -0.316 C  
HETATM    2  S   UNL     1      -9.420  13.667  66.909  1.00  0.00    -0.268 SA 
HETATM    3  C   UNL     1     -11.147  13.810  67.503  1.00  0.00    -0.278 C  
HETATM    4  CA  UNL     1     -11.781  14.906  66.617  1.00  0.00    -0.217 C  
HETATM    5  C   UNL     1     -11.099  14.226  68.986  1.00  0.00    -0.284 C  
HETATM    6  C   UNL     1     -11.786  12.420  67.443  1.00  0.00    -0.417 C  
HETATM    7  N   UNL     1     -10.719  15.894  66.315  1.00  0.00    -0.295 N  
HETATM    8  C   UNL     1     -12.407  14.411  65.301  1.00  0.00    -0.371 C  
HETATM    9  C   UNL     1     -10.413  16.849  67.253  1.00  0.00    -0.301 C  
HETATM   10  OXT UNL     1     -13.258  13.538  65.218  1.00  0.00    -0.688 OA 
HETATM   11  O   UNL     1     -11.997  15.103  64.206  1.00  0.00    -0.425 OA 
HETATM   12  CA  UNL     1      -8.899  16.540  67.197  1.00  0.00    -0.195 C  
HETATM   13  O   UNL     1     -11.145  17.514  67.951  1.00  0.00    -0.241 OA 
ENDROOT
BRANCH  12  14
HETATM   14  N   UNL     1      -8.230  16.228  68.502  1.00  0.00    -0.185 N  
HETATM   15  C   UNL     1      -6.942  15.733  68.509  1.00  0.00    -0.117 C  
HETATM   16  H   UNL     1      -8.725  16.380  69.380  1.00  0.00     0.000 HD 
HETATM   17  O   UNL     1      -6.368  15.579  67.437  1.00  0.00    -0.231 OA 
BRANCH  15  18
HETATM   18  C   UNL     1      -6.269  15.401  69.816  1.00  0.00    -0.157 A  
HETATM   19  C   UNL     1      -5.715  16.398  70.667  1.00  0.00     0.029 A  
HETATM   20  C   UNL     1      -5.201  16.042  71.931  1.00  0.00     0.246 A  
HETATM   21  C   UNL     1      -6.290  14.063  70.285  1.00  0.00    -0.092 A  
HETATM   22  C   UNL     1      -5.275  14.729  72.388  1.00  0.00    -0.105 A  
HETATM   23  C   UNL     1      -5.820  13.752  71.570  1.00  0.00    -0.087 A  
BRANCH  19  24
HETATM   24  O   UNL     1      -5.689  17.711  70.241  1.00  0.00    -0.249 OA 
HETATM   25  C   UNL     1      -5.256  18.668  71.215  1.00  0.00    -0.279 C  
ENDBRANCH  19  24
BRANCH  21  26
HETATM   26  O   UNL     1      -6.849  12.971  69.669  1.00  0.00     0.015 OA 
HETATM   27  C   UNL     1      -6.271  11.702  69.963  1.00  0.00    -0.140 C  
ENDBRANCH  21  26
ENDBRANCH  15  18
ENDBRANCH  12  14
TORSDOF 4
ENDMDL
MODEL      100
REMARK 921   NORMALIZED FREE ENERGY PREDICTED BY IDOCK:   -4.37 KCAL/MOL
REMARK 922        TOTAL FREE ENERGY PREDICTED BY IDOCK:   -6.32 KCAL/MOL
REMARK 923 INTER-LIGAND FREE ENERGY PREDICTED BY IDOCK:   -5.71 KCAL/MOL
REMARK 924 INTRA-LIGAND FREE ENERGY PREDICTED BY IDOCK:   -0.60 KCAL/MOL
REMARK 927      BINDING AFFINITY PREDICTED BY RF-SCORE:    0.00 PKD
ROOT
HETATM    1  C   UNL     1      -9.112  11.792  68.213  1.00  0.00    -0.187 C  
HETATM    2  S   UNL     1      -8.282  10.832  66.888  1.00  0.00    -0.135 SA 
HETATM    3  C   UNL     1      -9.730  10.812  65.767  1.00  0.00    -0.228 C  
HETATM    4  CA  UNL     1     -10.550  12.063  66.158  1.00  0.00    -0.263 C  
HETATM    5  C   UNL     1     -10.509   9.509  66.031  1.00  0.00     0.011 C  
HETATM    6  C   UNL     1      -9.215  10.749  64.327  1.00  0.00    -0.246 C  
HETATM    7  N   UNL     1     -10.391  12.252  67.619  1.00  0.00    -0.202 N  
HETATM    8  C   UNL     1     -10.162  13.362  65.429  1.00  0.00    -0.298 C  
HETATM    9  C   UNL     1     -11.156  11.501  68.475  1.00  0.00    -0.236 C  
HETATM   10  OXT UNL     1     -10.119  13.494  64.215  1.00  0.00    -0.336 OA 
HETATM   11  O   UNL     1      -9.951  14.414  66.261  1.00  0.00    -0.282 OA 
HETATM   12  CA  UNL     1      -9.934  11.044  69.304  1.00  0.00    -0.063 C  
HETATM   13  O   UNL     1     -12.330  11.210  68.414  1.00  0.00    -0.556 OA 
ENDROOT
BRANCH  12  14
HETATM   14  N   UNL     1      -9.758   9.566  69.482  1.00  0.00    -0.179 N  
HETATM   15  C   UNL     1     -10.307   8.939  70.581  1.00  0.00    -0.215 C  
HETATM   16  H   UNL     1      -9.234   9.026  68.794  1.00  0.00     0.000 HD 
HETATM   17  O   UNL     1     -10.948   9.613  71.381  1.00  0.00    -0.360 OA 
BRANCH  15  18
HETATM   18  C   UNL     1     -10.121   7.456  70.775  1.00  0.00    -0.190 A  
HETATM   19  C   UNL     1     -11.072   6.647  71.457  1.00  0.00    -0.256 A  
HETATM   20  C   UNL     1     -10.903   5.248  71.508  1.00  0.00    -0.164 A  
HETATM   21  C   UNL     1      -9.021   6.811  70.155  1.00  0.00    -0.149 A  
HETATM   22  C   UNL     1      -9.840   4.634  70.853  1.00  0.00    -0.272 A  
HETATM   23  C   UNL     1      -8.912   5.412  70.179  1.00  0.00    -0.157 A  
BRANCH  19  24
HETATM   24  O   UNL     1     -12.157   7.247  72.063  1.00  0.00    -0.296 OA 
HETATM   25  C   UNL     1     -13.422   7.018  71.432  1.00  0.00    -0.233 C  
ENDBRANCH  19  24
BRANCH  21  26
HETATM   26  O   UNL     1      -8.043   7.385  69.381  1.00  0.00    -0.124 OA 
HETATM   27  C   UNL     1      -7.533   6.601  68.305  1.00  0.00    -0.095 C  
ENDBRANCH  21  26
ENDBRANCH  15  18
ENDBRANCH  12  14
TORSDOF 4
ENDMDL
MODEL      101
REMARK 921   NORMALIZED FREE ENERGY PREDICTED BY IDOCK:   -4.35 KCAL/MOL
REMARK 922        TOTAL FREE ENERGY PREDICTED BY IDOCK:   -6.30 KCAL/MOL
REMARK 923 INTER-LIGAND FREE ENERGY PREDICTED BY IDOCK:   -5.44 KCAL/MOL
REMARK 924 INTRA-LIGAND FREE ENERGY PREDICTED BY IDOCK:   -0.86 KCAL/MOL
REMARK 927      BINDING AFFINITY PREDICTED BY RF-SCORE:    0.00 PKD
ROOT
HETATM    1  C   UNL     1      -7.883   9.641  68.221  1.00  0.00    -0.085 C  
HETATM    2  S   UNL     1      -7.707   9.772  70.042  1.00  0.00    -0.180 SA 
HETATM    3  C   UNL     1      -9.213   8.802  70.423  1.00  0.00    -0.180 C  
HETATM    4  CA  UNL     1      -9.418   7.891  69.191  1.00  0.00    -0.155 C  
HETATM    5  C   UNL     1     -10.377   9.795  70.603  1.00  0.00    -0.330 C  
HETATM    6  C   UNL     1      -9.000   8.103  71.769  1.00  0.00    -0.216 C  
HETATM    7  N   UNL     1      -8.966   8.652  68.003  1.00  0.00    -0.141 N  
HETATM    8  C   UNL     1      -8.686   6.538  69.240  1.00  0.00    -0.130 C  
HETATM    9  C   UNL     1      -9.812   9.576  67.443  1.00  0.00    -0.170 C  
HETATM   10  OXT UNL     1      -8.792   5.720  70.142  1.00  0.00    -0.136 OA 
HETATM   11  O   UNL     1      -7.958   6.269  68.126  1.00  0.00    -0.106 OA 
HETATM   12  CA  UNL     1      -8.741  10.690  67.454  1.00  0.00    -0.125 C  
HETATM   13  O   UNL     1     -11.001   9.508  67.225  1.00  0.00    -0.203 OA 
ENDROOT
BRANCH  12  14
HETATM   14  N   UNL     1      -9.117  11.976  68.128  1.00  0.00    -0.187 N  
HETATM   15  C   UNL     1      -9.580  13.033  67.373  1.00  0.00    -0.211 C  
HETATM   16  H   UNL     1      -9.030  12.068  69.139  1.00  0.00     0.000 HD 
HETATM   17  O   UNL     1      -9.691  12.884  66.161  1.00  0.00    -0.266 OA 
BRANCH  15  18
HETATM   18  C   UNL     1      -9.945  14.334  68.042  1.00  0.00    -0.220 A  
HETATM   19  C   UNL     1      -9.292  15.561  67.737  1.00  0.00    -0.195 A  
HETATM   20  C   UNL     1      -9.751  16.767  68.307  1.00  0.00    -0.252 A  
HETATM   21  C   UNL     1     -11.058  14.373  68.919  1.00  0.00    -0.259 A  
HETATM   22  C   UNL     1     -10.874  16.785  69.128  1.00  0.00    -0.287 A  
HETATM   23  C   UNL     1     -11.522  15.597  69.425  1.00  0.00    -0.354 A  
BRANCH  19  24
HETATM   24  O   UNL     1      -8.210  15.555  66.879  1.00  0.00    -0.215 OA 
HETATM   25  C   UNL     1      -7.674  16.843  66.552  1.00  0.00    -0.291 C  
ENDBRANCH  19  24
BRANCH  21  26
HETATM   26  O   UNL     1     -11.877  13.330  69.276  1.00  0.00    -0.302 OA 
HETATM   27  C   UNL     1     -12.635  13.490  70.473  1.00  0.00    -0.241 C  
ENDBRANCH  21  26
ENDBRANCH  15  18
ENDBRANCH  12  14
TORSDOF 4
ENDMDL
MODEL      102
REMARK 921   NORMALIZED FREE ENERGY PREDICTED BY IDOCK:   -4.32 KCAL/MOL
REMARK 922        TOTAL FREE ENERGY PREDICTED BY IDOCK:   -6.26 KCAL/MOL
REMARK 923 INTER-LIGAND FREE ENERGY PREDICTED BY IDOCK:   -5.57 KCAL/MOL
REMARK 924 INTRA-LIGAND FREE ENERGY PREDICTED BY IDOCK:   -0.70 KCAL/MOL
REMARK 927      BINDING AFFINITY PREDICTED BY RF-SCORE:    0.00 PKD
ROOT
HETATM    1  C   UNL     1      -8.022   9.329  68.772  1.00  0.00    -0.099 C  
HETATM    2  S   UNL     1      -8.480   9.232  70.545  1.00  0.00    -0.218 SA 
HETATM    3  C   UNL     1      -9.865   8.059  70.292  1.00  0.00    -0.184 C  
HETATM    4  CA  UNL     1      -9.513   7.305  68.990  1.00  0.00    -0.147 C  
HETATM    5  C   UNL     1     -11.157   8.885  70.147  1.00  0.00    -0.217 C  
HETATM    6  C   UNL     1     -10.008   7.213  71.561  1.00  0.00    -0.190 C  
HETATM    7  N   UNL     1      -8.811   8.264  68.104  1.00  0.00    -0.139 N  
HETATM    8  C   UNL     1      -8.645   6.047  69.169  1.00  0.00    -0.117 C  
HETATM    9  C   UNL     1      -9.552   9.157  67.371  1.00  0.00    -0.151 C  
HETATM   10  OXT UNL     1      -8.920   5.108  69.902  1.00  0.00    -0.104 OA 
HETATM   11  O   UNL     1      -7.557   6.012  68.356  1.00  0.00    -0.088 OA 
HETATM   12  CA  UNL     1      -8.724  10.371  67.851  1.00  0.00    -0.118 C  
HETATM   13  O   UNL     1     -10.578   8.989  66.750  1.00  0.00    -0.228 OA 
ENDROOT
BRANCH  12  14
HETATM   14  N   UNL     1      -9.489  11.505  68.465  1.00  0.00    -0.217 N  
HETATM   15  C   UNL     1     -10.153  12.400  67.653  1.00  0.00    -0.198 C  
HETATM   16  H   UNL     1      -9.517  11.614  69.478  1.00  0.00     0.000 HD 
HETATM   17  O   UNL     1     -10.115  12.230  66.439  1.00  0.00    -0.218 OA 
BRANCH  15  18
HETATM   18  C   UNL     1     -10.911  13.552  68.262  1.00  0.00    -0.277 A  
HETATM   19  C   UNL     1     -11.681  13.419  69.451  1.00  0.00    -0.325 A  
HETATM   20  C   UNL     1     -12.273  14.555  70.040  1.00  0.00    -0.396 A  
HETATM   21  C   UNL     1     -10.761  14.848  67.707  1.00  0.00    -0.271 A  
HETATM   22  C   UNL     1     -12.073  15.824  69.503  1.00  0.00    -0.261 A  
HETATM   23  C   UNL     1     -11.318  15.965  68.349  1.00  0.00    -0.361 A  
BRANCH  19  24
HETATM   24  O   UNL     1     -11.837  12.171  70.018  1.00  0.00    -0.328 OA 
HETATM   25  C   UNL     1     -12.902  12.052  70.969  1.00  0.00    -0.187 C  
ENDBRANCH  19  24
BRANCH  21  26
HETATM   26  O   UNL     1      -9.998  15.211  66.625  1.00  0.00    -0.239 OA 
HETATM   27  C   UNL     1      -9.749  16.604  66.453  1.00  0.00    -0.286 C  
ENDBRANCH  21  26
ENDBRANCH  15  18
ENDBRANCH  12  14
TORSDOF 4
ENDMDL
MODEL      103
REMARK 921   NORMALIZED FREE ENERGY PREDICTED BY IDOCK:   -4.30 KCAL/MOL
REMARK 922        TOTAL FREE ENERGY PREDICTED BY IDOCK:   -6.23 KCAL/MOL
REMARK 923 INTER-LIGAND FREE ENERGY PREDICTED BY IDOCK:   -5.24 KCAL/MOL
REMARK 924 INTRA-LIGAND FREE ENERGY PREDICTED BY IDOCK:   -0.99 KCAL/MOL
REMARK 927      BINDING AFFINITY PREDICTED BY RF-SCORE:    0.00 PKD
ROOT
HETATM    1  C   UNL     1      -8.321   7.724  71.030  1.00  0.00    -0.114 C  
HETATM    2  S   UNL     1      -9.965   8.098  71.753  1.00  0.00    -0.221 SA 
HETATM    3  C   UNL     1     -10.745   6.534  71.205  1.00  0.00    -0.237 C  
HETATM    4  CA  UNL     1      -9.574   5.535  71.068  1.00  0.00    -0.170 C  
HETATM    5  C   UNL     1     -11.433   6.802  69.853  1.00  0.00    -0.355 C  
HETATM    6  C   UNL     1     -11.843   6.174  72.210  1.00  0.00    -0.326 C  
HETATM    7  N   UNL     1      -8.394   6.303  70.608  1.00  0.00    -0.131 N  
HETATM    8  C   UNL     1      -9.213   4.760  72.347  1.00  0.00    -0.129 C  
HETATM    9  C   UNL     1      -8.273   6.606  69.275  1.00  0.00    -0.124 C  
HETATM   10  OXT UNL     1      -9.999   4.093  73.004  1.00  0.00    -0.131 OA 
HETATM   11  O   UNL     1      -7.890   4.798  72.656  1.00  0.00    -0.090 OA 
HETATM   12  CA  UNL     1      -8.027   8.107  69.550  1.00  0.00    -0.113 C  
HETATM   13  O   UNL     1      -8.485   5.917  68.302  1.00  0.00    -0.114 OA 
ENDROOT
BRANCH  12  14
HETATM   14  N   UNL     1      -8.927   9.075  68.841  1.00  0.00    -0.139 N  
HETATM   15  C   UNL     1      -8.655  10.426  68.896  1.00  0.00    -0.149 C  
HETATM   16  H   UNL     1      -9.736   8.736  68.322  1.00  0.00     0.000 HD 
HETATM   17  O   UNL     1      -7.664  10.800  69.513  1.00  0.00    -0.139 OA 
BRANCH  15  18
HETATM   18  C   UNL     1      -9.564  11.407  68.200  1.00  0.00    -0.190 A  
HETATM   19  C   UNL     1     -10.969  11.437  68.420  1.00  0.00    -0.215 A  
HETATM   20  C   UNL     1     -11.755  12.450  67.831  1.00  0.00    -0.421 A  
HETATM   21  C   UNL     1      -8.996  12.419  67.386  1.00  0.00    -0.185 A  
HETATM   22  C   UNL     1     -11.168  13.460  67.074  1.00  0.00    -0.328 A  
HETATM   23  C   UNL     1      -9.798  13.443  66.860  1.00  0.00    -0.256 A  
BRANCH  19  24
HETATM   24  O   UNL     1     -11.549  10.469  69.214  1.00  0.00    -0.261 OA 
HETATM   25  C   UNL     1     -12.201  10.949  70.397  1.00  0.00    -0.365 C  
ENDBRANCH  19  24
BRANCH  21  26
HETATM   26  O   UNL     1      -7.666  12.625  67.116  1.00  0.00    -0.158 OA 
HETATM   27  C   UNL     1      -7.096  13.844  67.588  1.00  0.00    -0.177 C  
ENDBRANCH  21  26
ENDBRANCH  15  18
ENDBRANCH  12  14
TORSDOF 4
ENDMDL
MODEL      104
REMARK 921   NORMALIZED FREE ENERGY PREDICTED BY IDOCK:   -4.28 KCAL/MOL
REMARK 922        TOTAL FREE ENERGY PREDICTED BY IDOCK:   -6.21 KCAL/MOL
REMARK 923 INTER-LIGAND FREE ENERGY PREDICTED BY IDOCK:   -5.33 KCAL/MOL
REMARK 924 INTRA-LIGAND FREE ENERGY PREDICTED BY IDOCK:   -0.89 KCAL/MOL
REMARK 927      BINDING AFFINITY PREDICTED BY RF-SCORE:    0.00 PKD
ROOT
HETATM    1  C   UNL     1      -9.360  12.127  68.325  1.00  0.00    -0.198 C  
HETATM    2  S   UNL     1      -9.019  12.252  66.528  1.00  0.00    -0.112 SA 
HETATM    3  C   UNL     1     -10.670  12.913  66.092  1.00  0.00    -0.272 C  
HETATM    4  CA  UNL     1     -11.171  13.606  67.379  1.00  0.00    -0.302 C  
HETATM    5  C   UNL     1     -11.562  11.720  65.698  1.00  0.00    -0.190 C  
HETATM    6  C   UNL     1     -10.517  13.794  64.850  1.00  0.00    -0.437 C  
HETATM    7  N   UNL     1     -10.653  12.826  68.528  1.00  0.00    -0.250 N  
HETATM    8  C   UNL     1     -10.762  15.081  67.537  1.00  0.00    -0.284 C  
HETATM    9  C   UNL     1     -11.310  11.682  68.906  1.00  0.00    -0.267 C  
HETATM   10  OXT UNL     1     -10.979  15.958  66.713  1.00  0.00    -0.271 OA 
HETATM   11  O   UNL     1     -10.202  15.368  68.741  1.00  0.00    -0.205 OA 
HETATM   12  CA  UNL     1     -10.017  10.834  68.895  1.00  0.00    -0.202 C  
HETATM   13  O   UNL     1     -12.497  11.466  69.006  1.00  0.00    -0.364 OA 
ENDROOT
BRANCH  12  14
HETATM   14  N   UNL     1     -10.040   9.586  68.065  1.00  0.00    -0.178 N  
HETATM   15  C   UNL     1      -9.150   8.568  68.335  1.00  0.00    -0.139 C  
HETATM   16  H   UNL     1     -10.710   9.491  67.303  1.00  0.00     0.000 HD 
HETATM   17  O   UNL     1      -8.368   8.706  69.270  1.00  0.00    -0.115 OA 
BRANCH  15  18
HETATM   18  C   UNL     1      -9.156   7.317  67.494  1.00  0.00    -0.125 A  
HETATM   19  C   UNL     1      -8.672   7.292  66.156  1.00  0.00    -0.155 A  
HETATM   20  C   UNL     1      -8.594   6.070  65.456  1.00  0.00    -0.145 A  
HETATM   21  C   UNL     1      -9.544   6.088  68.085  1.00  0.00    -0.118 A  
HETATM   22  C   UNL     1      -8.936   4.870  66.074  1.00  0.00    -0.129 A  
HETATM   23  C   UNL     1      -9.402   4.884  67.380  1.00  0.00    -0.145 A  
BRANCH  19  24
HETATM   24  O   UNL     1      -8.280   8.472  65.558  1.00  0.00    -0.121 OA 
HETATM   25  C   UNL     1      -6.983   8.455  64.949  1.00  0.00    -0.075 C  
ENDBRANCH  19  24
BRANCH  21  26
HETATM   26  O   UNL     1      -9.953   5.876  69.378  1.00  0.00    -0.157 OA 
HETATM   27  C   UNL     1     -11.314   6.178  69.678  1.00  0.00    -0.372 C  
ENDBRANCH  21  26
ENDBRANCH  15  18
ENDBRANCH  12  14
TORSDOF 4
ENDMDL
MODEL      105
REMARK 921   NORMALIZED FREE ENERGY PREDICTED BY IDOCK:   -4.27 KCAL/MOL
REMARK 922        TOTAL FREE ENERGY PREDICTED BY IDOCK:   -6.19 KCAL/MOL
REMARK 923 INTER-LIGAND FREE ENERGY PREDICTED BY IDOCK:   -5.83 KCAL/MOL
REMARK 924 INTRA-LIGAND FREE ENERGY PREDICTED BY IDOCK:   -0.36 KCAL/MOL
REMARK 927      BINDING AFFINITY PREDICTED BY RF-SCORE:    0.00 PKD
ROOT
HETATM    1  C   UNL     1     -11.795  15.009  66.084  1.00  0.00    -0.023 C  
HETATM    2  S   UNL     1     -10.299  14.825  65.038  1.00  0.00    -0.332 SA 
HETATM    3  C   UNL     1     -10.088  13.035  65.368  1.00  0.00    -0.252 C  
HETATM    4  CA  UNL     1     -11.503  12.529  65.726  1.00  0.00    -0.365 C  
HETATM    5  C   UNL     1      -9.109  12.889  66.549  1.00  0.00    -0.138 C  
HETATM    6  C   UNL     1      -9.419  12.403  64.144  1.00  0.00     0.285 C  
HETATM    7  N   UNL     1     -12.193  13.625  66.445  1.00  0.00    -0.431 N  
HETATM    8  C   UNL     1     -12.366  12.079  64.533  1.00  0.00    -0.209 C  
HETATM    9  C   UNL     1     -11.936  13.810  67.781  1.00  0.00    -0.356 C  
HETATM   10  OXT UNL     1     -12.032  11.242  63.707  1.00  0.00    -0.021 OA 
HETATM   11  O   UNL     1     -13.606  12.633  64.514  1.00  0.00    -0.262 OA 
HETATM   12  CA  UNL     1     -11.638  15.316  67.603  1.00  0.00    -0.239 C  
HETATM   13  O   UNL     1     -11.825  12.995  68.669  1.00  0.00    -0.305 OA 
ENDROOT
BRANCH  12  14
HETATM   14  N   UNL     1     -10.322  15.806  68.128  1.00  0.00    -0.237 N  
HETATM   15  C   UNL     1     -10.088  17.162  68.231  1.00  0.00    -0.314 C  
HETATM   16  H   UNL     1      -9.602  15.140  68.408  1.00  0.00     0.000 HD 
HETATM   17  O   UNL     1     -10.981  17.937  67.904  1.00  0.00    -0.294 OA 
BRANCH  15  18
HETATM   18  C   UNL     1      -8.761  17.662  68.743  1.00  0.00    -0.207 A  
HETATM   19  C   UNL     1      -7.789  16.799  69.321  1.00  0.00    -0.050 A  
HETATM   20  C   UNL     1      -6.520  17.301  69.676  1.00  0.00    -0.165 A  
HETATM   21  C   UNL     1      -8.408  19.019  68.537  1.00  0.00    -0.352 A  
HETATM   22  C   UNL     1      -6.180  18.626  69.421  1.00  0.00    -0.280 A  
HETATM   23  C   UNL     1      -7.118  19.474  68.851  1.00  0.00    -0.394 A  
BRANCH  19  24
HETATM   24  O   UNL     1      -8.103  15.470  69.526  1.00  0.00    -0.240 OA 
HETATM   25  C   UNL     1      -7.121  14.527  69.079  1.00  0.00    -0.124 C  
ENDBRANCH  19  24
BRANCH  21  26
HETATM   26  O   UNL     1      -9.155  19.993  67.922  1.00  0.00    -0.322 OA 
HETATM   27  C   UNL     1      -8.874  20.246  66.547  1.00  0.00    -0.205 C  
ENDBRANCH  21  26
ENDBRANCH  15  18
ENDBRANCH  12  14
TORSDOF 4
ENDMDL
MODEL      106
REMARK 921   NORMALIZED FREE ENERGY PREDICTED BY IDOCK:   -4.26 KCAL/MOL
REMARK 922        TOTAL FREE ENERGY PREDICTED BY IDOCK:   -6.18 KCAL/MOL
REMARK 923 INTER-LIGAND FREE ENERGY PREDICTED BY IDOCK:   -5.24 KCAL/MOL
REMARK 924 INTRA-LIGAND FREE ENERGY PREDICTED BY IDOCK:   -0.94 KCAL/MOL
REMARK 927      BINDING AFFINITY PREDICTED BY RF-SCORE:    0.00 PKD
ROOT
HETATM    1  C   UNL     1     -10.730   8.449  69.993  1.00  0.00    -0.236 C  
HETATM    2  S   UNL     1     -10.760   6.658  69.594  1.00  0.00    -0.286 SA 
HETATM    3  C   UNL     1      -9.542   6.184  70.877  1.00  0.00    -0.173 C  
HETATM    4  CA  UNL     1      -9.653   7.285  71.955  1.00  0.00    -0.150 C  
HETATM    5  C   UNL     1      -8.150   6.165  70.216  1.00  0.00    -0.112 C  
HETATM    6  C   UNL     1      -9.853   4.751  71.320  1.00  0.00    -0.256 C  
HETATM    7  N   UNL     1      -9.957   8.555  71.255  1.00  0.00    -0.203 N  
HETATM    8  C   UNL     1     -10.709   7.037  73.047  1.00  0.00    -0.305 C  
HETATM    9  C   UNL     1      -8.932   9.254  70.668  1.00  0.00    -0.243 C  
HETATM   10  OXT UNL     1     -10.770   6.035  73.744  1.00  0.00    -0.261 OA 
HETATM   11  O   UNL     1     -11.545   8.089  73.248  1.00  0.00    -0.224 OA 
HETATM   12  CA  UNL     1      -9.672   9.369  69.315  1.00  0.00    -0.172 C  
HETATM   13  O   UNL     1      -7.817   9.486  71.078  1.00  0.00    -0.316 OA 
ENDROOT
BRANCH  12  14
HETATM   14  N   UNL     1      -8.935   8.884  68.103  1.00  0.00    -0.137 N  
HETATM   15  C   UNL     1      -9.454   9.119  66.847  1.00  0.00    -0.171 C  
HETATM   16  H   UNL     1      -8.053   8.383  68.207  1.00  0.00     0.000 HD 
HETATM   17  O   UNL     1     -10.507   9.741  66.756  1.00  0.00    -0.231 OA 
BRANCH  15  18
HETATM   18  C   UNL     1      -8.727   8.620  65.625  1.00  0.00    -0.214 A  
HETATM   19  C   UNL     1      -8.268   7.279  65.501  1.00  0.00    -0.139 A  
HETATM   20  C   UNL     1      -7.697   6.836  64.290  1.00  0.00    -0.109 A  
HETATM   21  C   UNL     1      -8.595   9.475  64.502  1.00  0.00    -0.187 A  
HETATM   22  C   UNL     1      -7.621   7.681  63.186  1.00  0.00    -0.119 A  
HETATM   23  C   UNL     1      -8.073   8.987  63.294  1.00  0.00    -0.170 A  
BRANCH  19  24
HETATM   24  O   UNL     1      -8.390   6.422  66.576  1.00  0.00    -0.110 OA 
HETATM   25  C   UNL     1      -9.275   5.311  66.383  1.00  0.00    -0.144 C  
ENDBRANCH  19  24
BRANCH  21  26
HETATM   26  O   UNL     1      -9.045  10.766  64.377  1.00  0.00    -0.199 OA 
HETATM   27  C   UNL     1      -9.704  11.101  63.158  1.00  0.00    -0.376 C  
ENDBRANCH  21  26
ENDBRANCH  15  18
ENDBRANCH  12  14
TORSDOF 4
ENDMDL
MODEL      107
REMARK 921   NORMALIZED FREE ENERGY PREDICTED BY IDOCK:   -4.24 KCAL/MOL
REMARK 922        TOTAL FREE ENERGY PREDICTED BY IDOCK:   -6.16 KCAL/MOL
REMARK 923 INTER-LIGAND FREE ENERGY PREDICTED BY IDOCK:   -5.27 KCAL/MOL
REMARK 924 INTRA-LIGAND FREE ENERGY PREDICTED BY IDOCK:   -0.89 KCAL/MOL
REMARK 927      BINDING AFFINITY PREDICTED BY RF-SCORE:    0.00 PKD
ROOT
HETATM    1  C   UNL     1     -10.997  10.427  67.345  1.00  0.00    -0.270 C  
HETATM    2  S   UNL     1     -10.147  11.739  68.304  1.00  0.00    -0.200 SA 
HETATM    3  C   UNL     1      -9.041  12.251  66.937  1.00  0.00    -0.208 C  
HETATM    4  CA  UNL     1      -9.795  11.855  65.647  1.00  0.00    -0.241 C  
HETATM    5  C   UNL     1      -7.718  11.476  67.090  1.00  0.00    -0.160 C  
HETATM    6  C   UNL     1      -8.719  13.737  67.117  1.00  0.00    -0.231 C  
HETATM    7  N   UNL     1     -10.546  10.612  65.943  1.00  0.00    -0.159 N  
HETATM    8  C   UNL     1     -10.762  12.917  65.095  1.00  0.00    -0.305 C  
HETATM    9  C   UNL     1      -9.885   9.410  65.909  1.00  0.00    -0.291 C  
HETATM   10  OXT UNL     1     -10.454  14.069  64.827  1.00  0.00    -0.413 OA 
HETATM   11  O   UNL     1     -12.006  12.440  64.831  1.00  0.00    -0.382 OA 
HETATM   12  CA  UNL     1     -10.396   8.991  67.306  1.00  0.00    -0.273 C  
HETATM   13  O   UNL     1      -9.071   8.995  65.114  1.00  0.00    -0.207 OA 
ENDROOT
BRANCH  12  14
HETATM   14  N   UNL     1      -9.356   8.595  68.311  1.00  0.00    -0.137 N  
HETATM   15  C   UNL     1      -9.731   7.918  69.453  1.00  0.00    -0.170 C  
HETATM   16  H   UNL     1      -8.376   8.826  68.151  1.00  0.00     0.000 HD 
HETATM   17  O   UNL     1     -10.915   7.640  69.607  1.00  0.00    -0.226 OA 
BRANCH  15  18
HETATM   18  C   UNL     1      -8.693   7.532  70.475  1.00  0.00    -0.146 A  
HETATM   19  C   UNL     1      -7.914   8.493  71.177  1.00  0.00    -0.123 A  
HETATM   20  C   UNL     1      -7.041   8.081  72.205  1.00  0.00    -0.093 A  
HETATM   21  C   UNL     1      -8.562   6.170  70.847  1.00  0.00    -0.132 A  
HETATM   22  C   UNL     1      -6.965   6.744  72.583  1.00  0.00    -0.071 A  
HETATM   23  C   UNL     1      -7.725   5.800  71.910  1.00  0.00    -0.105 A  
BRANCH  19  24
HETATM   24  O   UNL     1      -8.026   9.828  70.842  1.00  0.00    -0.279 OA 
HETATM   25  C   UNL     1      -6.871  10.410  70.227  1.00  0.00    -0.126 C  
ENDBRANCH  19  24
BRANCH  21  26
HETATM   26  O   UNL     1      -9.274   5.100  70.364  1.00  0.00    -0.138 OA 
HETATM   27  C   UNL     1      -9.691   4.124  71.315  1.00  0.00    -0.185 C  
ENDBRANCH  21  26
ENDBRANCH  15  18
ENDBRANCH  12  14
TORSDOF 4
ENDMDL
MODEL      108
REMARK 921   NORMALIZED FREE ENERGY PREDICTED BY IDOCK:   -4.23 KCAL/MOL
REMARK 922        TOTAL FREE ENERGY PREDICTED BY IDOCK:   -6.15 KCAL/MOL
REMARK 923 INTER-LIGAND FREE ENERGY PREDICTED BY IDOCK:   -5.33 KCAL/MOL
REMARK 924 INTRA-LIGAND FREE ENERGY PREDICTED BY IDOCK:   -0.82 KCAL/MOL
REMARK 927      BINDING AFFINITY PREDICTED BY RF-SCORE:    0.00 PKD
ROOT
HETATM    1  C   UNL     1      -9.717   9.558  70.228  1.00  0.00    -0.263 C  
HETATM    2  S   UNL     1     -10.870   8.253  69.654  1.00  0.00    -0.087 SA 
HETATM    3  C   UNL     1      -9.714   6.866  69.957  1.00  0.00    -0.167 C  
HETATM    4  CA  UNL     1      -8.765   7.377  71.065  1.00  0.00    -0.139 C  
HETATM    5  C   UNL     1      -8.963   6.587  68.641  1.00  0.00    -0.126 C  
HETATM    6  C   UNL     1     -10.542   5.620  70.281  1.00  0.00    -0.370 C  
HETATM    7  N   UNL     1      -8.581   8.832  70.849  1.00  0.00    -0.173 N  
HETATM    8  C   UNL     1      -9.240   7.131  72.508  1.00  0.00    -0.138 C  
HETATM    9  C   UNL     1      -7.683   9.256  69.903  1.00  0.00    -0.101 C  
HETATM   10  OXT UNL     1      -9.548   6.040  72.964  1.00  0.00    -0.153 OA 
HETATM   11  O   UNL     1      -9.205   8.239  73.292  1.00  0.00    -0.255 OA 
HETATM   12  CA  UNL     1      -8.709  10.191  69.223  1.00  0.00    -0.179 C  
HETATM   13  O   UNL     1      -6.569   8.851  69.654  1.00  0.00    -0.041 OA 
ENDROOT
BRANCH  12  14
HETATM   14  N   UNL     1      -8.915  10.004  67.750  1.00  0.00    -0.131 N  
HETATM   15  C   UNL     1      -9.077  11.106  66.936  1.00  0.00    -0.159 C  
HETATM   16  H   UNL     1      -8.937   9.066  67.351  1.00  0.00     0.000 HD 
HETATM   17  O   UNL     1      -9.027  12.221  67.444  1.00  0.00    -0.169 OA 
BRANCH  15  18
HETATM   18  C   UNL     1      -9.301  10.924  65.457  1.00  0.00    -0.237 A  
HETATM   19  C   UNL     1     -10.433  11.460  64.782  1.00  0.00    -0.308 A  
HETATM   20  C   UNL     1     -10.532  11.360  63.379  1.00  0.00    -0.452 A  
HETATM   21  C   UNL     1      -8.293  10.302  64.676  1.00  0.00    -0.169 A  
HETATM   22  C   UNL     1      -9.509  10.786  62.630  1.00  0.00    -0.331 A  
HETATM   23  C   UNL     1      -8.398  10.268  63.277  1.00  0.00    -0.168 A  
BRANCH  19  24
HETATM   24  O   UNL     1     -11.425  12.078  65.515  1.00  0.00    -0.345 OA 
HETATM   25  C   UNL     1     -12.479  12.675  64.750  1.00  0.00    -0.484 C  
ENDBRANCH  19  24
BRANCH  21  26
HETATM   26  O   UNL     1      -7.092   9.800  65.109  1.00  0.00    -0.108 OA 
HETATM   27  C   UNL     1      -6.947   8.382  65.098  1.00  0.00    -0.074 C  
ENDBRANCH  21  26
ENDBRANCH  15  18
ENDBRANCH  12  14
TORSDOF 4
ENDMDL
MODEL      109
REMARK 921   NORMALIZED FREE ENERGY PREDICTED BY IDOCK:   -4.22 KCAL/MOL
REMARK 922        TOTAL FREE ENERGY PREDICTED BY IDOCK:   -6.13 KCAL/MOL
REMARK 923 INTER-LIGAND FREE ENERGY PREDICTED BY IDOCK:   -5.24 KCAL/MOL
REMARK 924 INTRA-LIGAND FREE ENERGY PREDICTED BY IDOCK:   -0.89 KCAL/MOL
REMARK 927      BINDING AFFINITY PREDICTED BY RF-SCORE:    0.00 PKD
ROOT
HETATM    1  C   UNL     1      -8.825   8.319  70.733  1.00  0.00    -0.148 C  
HETATM    2  S   UNL     1     -10.615   8.682  70.908  1.00  0.00    -0.228 SA 
HETATM    3  C   UNL     1     -11.151   6.936  70.770  1.00  0.00    -0.275 C  
HETATM    4  CA  UNL     1      -9.932   6.110  71.239  1.00  0.00    -0.182 C  
HETATM    5  C   UNL     1     -11.492   6.667  69.292  1.00  0.00    -0.253 C  
HETATM    6  C   UNL     1     -12.445   6.772  71.572  1.00  0.00    -0.390 C  
HETATM    7  N   UNL     1      -8.716   6.842  70.815  1.00  0.00    -0.145 N  
HETATM    8  C   UNL     1      -9.862   5.837  72.752  1.00  0.00    -0.160 C  
HETATM    9  C   UNL     1      -8.282   6.718  69.518  1.00  0.00    -0.131 C  
HETATM   10  OXT UNL     1     -10.751   5.315  73.409  1.00  0.00    -0.232 OA 
HETATM   11  O   UNL     1      -8.662   6.146  73.309  1.00  0.00    -0.124 OA 
HETATM   12  CA  UNL     1      -8.191   8.247  69.312  1.00  0.00    -0.118 C  
HETATM   13  O   UNL     1      -8.208   5.734  68.816  1.00  0.00    -0.100 OA 
ENDROOT
BRANCH  12  14
HETATM   14  N   UNL     1      -8.934   8.812  68.139  1.00  0.00    -0.141 N  
HETATM   15  C   UNL     1      -8.651  10.088  67.700  1.00  0.00    -0.118 C  
HETATM   16  H   UNL     1      -9.646   8.254  67.667  1.00  0.00     0.000 HD 
HETATM   17  O   UNL     1      -7.777  10.726  68.277  1.00  0.00    -0.100 OA 
BRANCH  15  18
HETATM   18  C   UNL     1      -9.406  10.669  66.531  1.00  0.00    -0.192 A  
HETATM   19  C   UNL     1      -9.012  10.451  65.181  1.00  0.00    -0.191 A  
HETATM   20  C   UNL     1      -9.820  10.920  64.125  1.00  0.00    -0.369 A  
HETATM   21  C   UNL     1     -10.623  11.357  66.767  1.00  0.00    -0.255 A  
HETATM   22  C   UNL     1     -11.033  11.552  64.381  1.00  0.00    -0.390 A  
HETATM   23  C   UNL     1     -11.430  11.762  65.693  1.00  0.00    -0.249 A  
BRANCH  19  24
HETATM   24  O   UNL     1      -7.836   9.777  64.922  1.00  0.00    -0.121 OA 
HETATM   25  C   UNL     1      -7.985   8.432  64.453  1.00  0.00    -0.148 C  
ENDBRANCH  19  24
BRANCH  21  26
HETATM   26  O   UNL     1     -11.227  11.596  67.976  1.00  0.00    -0.224 OA 
HETATM   27  C   UNL     1     -10.955  12.852  68.593  1.00  0.00    -0.261 C  
ENDBRANCH  21  26
ENDBRANCH  15  18
ENDBRANCH  12  14
TORSDOF 4
ENDMDL
MODEL      110
REMARK 921   NORMALIZED FREE ENERGY PREDICTED BY IDOCK:   -4.22 KCAL/MOL
REMARK 922        TOTAL FREE ENERGY PREDICTED BY IDOCK:   -6.13 KCAL/MOL
REMARK 923 INTER-LIGAND FREE ENERGY PREDICTED BY IDOCK:   -5.84 KCAL/MOL
REMARK 924 INTRA-LIGAND FREE ENERGY PREDICTED BY IDOCK:   -0.29 KCAL/MOL
REMARK 927      BINDING AFFINITY PREDICTED BY RF-SCORE:    0.00 PKD
ROOT
HETATM    1  C   UNL     1      -9.687   6.653  69.756  1.00  0.00    -0.159 C  
HETATM    2  S   UNL     1      -8.408   7.779  70.436  1.00  0.00    -0.124 SA 
HETATM    3  C   UNL     1      -8.808   7.441  72.191  1.00  0.00    -0.124 C  
HETATM    4  CA  UNL     1      -9.440   6.030  72.188  1.00  0.00    -0.148 C  
HETATM    5  C   UNL     1      -9.806   8.517  72.659  1.00  0.00    -0.281 C  
HETATM    6  C   UNL     1      -7.528   7.621  73.012  1.00  0.00    -0.116 C  
HETATM    7  N   UNL     1     -10.198   5.892  70.923  1.00  0.00    -0.203 N  
HETATM    8  C   UNL     1      -8.448   4.861  72.320  1.00  0.00    -0.123 C  
HETATM    9  C   UNL     1     -11.454   6.440  70.836  1.00  0.00    -0.344 C  
HETATM   10  OXT UNL     1      -7.631   4.738  73.221  1.00  0.00    -0.088 OA 
HETATM   11  O   UNL     1      -8.612   3.895  71.379  1.00  0.00    -0.085 OA 
HETATM   12  CA  UNL     1     -11.132   7.183  69.520  1.00  0.00    -0.141 C  
HETATM   13  O   UNL     1     -12.359   6.437  71.640  1.00  0.00    -0.312 OA 
ENDROOT
BRANCH  12  14
HETATM   14  N   UNL     1     -11.386   8.661  69.504  1.00  0.00    -0.421 N  
HETATM   15  C   UNL     1     -11.114   9.389  68.365  1.00  0.00     0.071 C  
HETATM   16  H   UNL     1     -11.757   9.125  70.332  1.00  0.00     0.000 HD 
HETATM   17  O   UNL     1     -10.685   8.799  67.379  1.00  0.00    -0.267 OA 
BRANCH  15  18
HETATM   18  C   UNL     1     -11.352  10.878  68.347  1.00  0.00    -0.370 A  
HETATM   19  C   UNL     1     -11.173  11.668  67.178  1.00  0.00    -0.309 A  
HETATM   20  C   UNL     1     -11.521  13.035  67.188  1.00  0.00    -0.379 A  
HETATM   21  C   UNL     1     -11.889  11.506  69.499  1.00  0.00    -0.351 A  
HETATM   22  C   UNL     1     -12.090  13.617  68.317  1.00  0.00    -0.306 A  
HETATM   23  C   UNL     1     -12.276  12.854  69.459  1.00  0.00    -0.177 A  
BRANCH  19  24
HETATM   24  O   UNL     1     -10.658  11.082  66.039  1.00  0.00    -0.252 OA 
HETATM   25  C   UNL     1      -9.563  11.774  65.428  1.00  0.00    -0.190 C  
ENDBRANCH  19  24
BRANCH  21  26
HETATM   26  O   UNL     1     -12.221  10.917  70.694  1.00  0.00    -0.314 OA 
HETATM   27  C   UNL     1     -12.787  11.763  71.692  1.00  0.00    -0.328 C  
ENDBRANCH  21  26
ENDBRANCH  15  18
ENDBRANCH  12  14
TORSDOF 4
ENDMDL
MODEL      111
REMARK 921   NORMALIZED FREE ENERGY PREDICTED BY IDOCK:   -4.22 KCAL/MOL
REMARK 922        TOTAL FREE ENERGY PREDICTED BY IDOCK:   -6.13 KCAL/MOL
REMARK 923 INTER-LIGAND FREE ENERGY PREDICTED BY IDOCK:   -5.29 KCAL/MOL
REMARK 924 INTRA-LIGAND FREE ENERGY PREDICTED BY IDOCK:   -0.84 KCAL/MOL
REMARK 927      BINDING AFFINITY PREDICTED BY RF-SCORE:    0.00 PKD
ROOT
HETATM    1  C   UNL     1      -8.188  14.118  67.141  1.00  0.00    -0.144 C  
HETATM    2  S   UNL     1     -10.005  14.368  67.176  1.00  0.00    -0.257 SA 
HETATM    3  C   UNL     1      -9.956  15.770  68.353  1.00  0.00    -0.217 C  
HETATM    4  CA  UNL     1      -8.554  16.393  68.167  1.00  0.00    -0.193 C  
HETATM    5  C   UNL     1     -10.146  15.198  69.771  1.00  0.00    -0.175 C  
HETATM    6  C   UNL     1     -11.156  16.675  68.064  1.00  0.00    -0.255 C  
HETATM    7  N   UNL     1      -7.619  15.286  67.857  1.00  0.00    -0.129 N  
HETATM    8  C   UNL     1      -8.449  17.471  67.074  1.00  0.00    -0.234 C  
HETATM    9  C   UNL     1      -7.127  14.522  68.885  1.00  0.00    -0.118 C  
HETATM   10  OXT UNL     1      -9.149  18.472  67.012  1.00  0.00    -0.269 OA 
HETATM   11  O   UNL     1      -7.428  17.269  66.201  1.00  0.00    -0.300 OA 
HETATM   12  CA  UNL     1      -7.518  13.193  68.199  1.00  0.00    -0.131 C  
HETATM   13  O   UNL     1      -6.722  14.858  69.976  1.00  0.00    -0.175 OA 
ENDROOT
BRANCH  12  14
HETATM   14  N   UNL     1      -8.363  12.248  68.999  1.00  0.00    -0.326 N  
HETATM   15  C   UNL     1      -8.051  10.905  69.025  1.00  0.00    -0.126 C  
HETATM   16  H   UNL     1      -9.166  12.597  69.522  1.00  0.00     0.000 HD 
HETATM   17  O   UNL     1      -7.068  10.520  68.400  1.00  0.00    -0.075 OA 
BRANCH  15  18
HETATM   18  C   UNL     1      -8.906   9.947  69.814  1.00  0.00    -0.229 A  
HETATM   19  C   UNL     1      -8.453   9.321  71.009  1.00  0.00    -0.089 A  
HETATM   20  C   UNL     1      -9.335   8.525  71.768  1.00  0.00    -0.323 A  
HETATM   21  C   UNL     1     -10.256   9.746  69.428  1.00  0.00    -0.210 A  
HETATM   22  C   UNL     1     -10.668   8.381  71.394  1.00  0.00    -0.298 A  
HETATM   23  C   UNL     1     -11.121   8.992  70.235  1.00  0.00    -0.263 A  
BRANCH  19  24
HETATM   24  O   UNL     1      -7.146   9.506  71.413  1.00  0.00    -0.323 OA 
HETATM   25  C   UNL     1      -6.665   8.576  72.391  1.00  0.00    -0.077 C  
ENDBRANCH  19  24
BRANCH  21  26
HETATM   26  O   UNL     1     -10.916  10.318  68.369  1.00  0.00    -0.238 OA 
HETATM   27  C   UNL     1     -10.834   9.639  67.118  1.00  0.00    -0.114 C  
ENDBRANCH  21  26
ENDBRANCH  15  18
ENDBRANCH  12  14
TORSDOF 4
ENDMDL
MODEL      112
REMARK 921   NORMALIZED FREE ENERGY PREDICTED BY IDOCK:   -4.19 KCAL/MOL
REMARK 922        TOTAL FREE ENERGY PREDICTED BY IDOCK:   -6.09 KCAL/MOL
REMARK 923 INTER-LIGAND FREE ENERGY PREDICTED BY IDOCK:   -5.40 KCAL/MOL
REMARK 924 INTRA-LIGAND FREE ENERGY PREDICTED BY IDOCK:   -0.69 KCAL/MOL
REMARK 927      BINDING AFFINITY PREDICTED BY RF-SCORE:    0.00 PKD
ROOT
HETATM    1  C   UNL     1     -11.267   6.830  70.728  1.00  0.00    -0.304 C  
HETATM    2  S   UNL     1      -9.455   6.621  70.921  1.00  0.00    -0.164 SA 
HETATM    3  C   UNL     1      -9.442   6.950  72.723  1.00  0.00    -0.142 C  
HETATM    4  CA  UNL     1     -10.861   6.570  73.205  1.00  0.00    -0.257 C  
HETATM    5  C   UNL     1      -9.150   8.449  72.924  1.00  0.00    -0.282 C  
HETATM    6  C   UNL     1      -8.275   6.173  73.340  1.00  0.00    -0.112 C  
HETATM    7  N   UNL     1     -11.801   6.909  72.110  1.00  0.00    -0.292 N  
HETATM    8  C   UNL     1     -11.052   5.095  73.602  1.00  0.00    -0.234 C  
HETATM    9  C   UNL     1     -12.214   8.210  71.966  1.00  0.00    -0.339 C  
HETATM   10  OXT UNL     1     -10.370   4.501  74.426  1.00  0.00    -0.213 OA 
HETATM   11  O   UNL     1     -12.126   4.505  73.018  1.00  0.00    -0.014 OA 
HETATM   12  CA  UNL     1     -11.853   8.248  70.464  1.00  0.00    -0.001 C  
HETATM   13  O   UNL     1     -12.549   9.015  72.807  1.00  0.00    -0.275 OA 
ENDROOT
BRANCH  12  14
HETATM   14  N   UNL     1     -10.944   9.355  70.020  1.00  0.00    -0.236 N  
HETATM   15  C   UNL     1     -11.474  10.469  69.401  1.00  0.00    -0.262 C  
HETATM   16  H   UNL     1      -9.939   9.285  70.174  1.00  0.00     0.000 HD 
HETATM   17  O   UNL     1     -12.689  10.531  69.248  1.00  0.00    -0.128 OA 
BRANCH  15  18
HETATM   18  C   UNL     1     -10.565  11.578  68.937  1.00  0.00    -0.236 A  
HETATM   19  C   UNL     1      -9.280  11.331  68.378  1.00  0.00    -0.178 A  
HETATM   20  C   UNL     1      -8.521  12.398  67.854  1.00  0.00    -0.166 A  
HETATM   21  C   UNL     1     -11.044  12.912  68.942  1.00  0.00    -0.255 A  
HETATM   22  C   UNL     1      -9.033  13.692  67.827  1.00  0.00    -0.196 A  
HETATM   23  C   UNL     1     -10.286  13.942  68.363  1.00  0.00    -0.249 A  
BRANCH  19  24
HETATM   24  O   UNL     1      -8.791  10.041  68.353  1.00  0.00    -0.115 OA 
HETATM   25  C   UNL     1      -7.515   9.876  67.723  1.00  0.00    -0.090 C  
ENDBRANCH  19  24
BRANCH  21  26
HETATM   26  O   UNL     1     -12.278  13.356  69.350  1.00  0.00    -0.288 OA 
HETATM   27  C   UNL     1     -12.328  14.068  70.584  1.00  0.00    -0.375 C  
ENDBRANCH  21  26
ENDBRANCH  15  18
ENDBRANCH  12  14
TORSDOF 4
ENDMDL
MODEL      113
REMARK 921   NORMALIZED FREE ENERGY PREDICTED BY IDOCK:   -4.19 KCAL/MOL
REMARK 922        TOTAL FREE ENERGY PREDICTED BY IDOCK:   -6.09 KCAL/MOL
REMARK 923 INTER-LIGAND FREE ENERGY PREDICTED BY IDOCK:   -5.73 KCAL/MOL
REMARK 924 INTRA-LIGAND FREE ENERGY PREDICTED BY IDOCK:   -0.36 KCAL/MOL
REMARK 927      BINDING AFFINITY PREDICTED BY RF-SCORE:    0.00 PKD
ROOT
HETATM    1  C   UNL     1     -10.879  10.998  65.825  1.00  0.00    -0.097 C  
HETATM    2  S   UNL     1      -9.157  11.241  65.244  1.00  0.00    -0.064 SA 
HETATM    3  C   UNL     1      -8.376  10.613  66.777  1.00  0.00    -0.132 C  
HETATM    4  CA  UNL     1      -9.425   9.661  67.394  1.00  0.00    -0.142 C  
HETATM    5  C   UNL     1      -8.092  11.822  67.687  1.00  0.00    -0.144 C  
HETATM    6  C   UNL     1      -7.024   9.998  66.404  1.00  0.00    -0.101 C  
HETATM    7  N   UNL     1     -10.762  10.221  67.084  1.00  0.00    -0.257 N  
HETATM    8  C   UNL     1      -9.359   8.201  66.912  1.00  0.00    -0.173 C  
HETATM    9  C   UNL     1     -11.253  11.242  67.859  1.00  0.00    -0.290 C  
HETATM   10  OXT UNL     1      -8.362   7.495  66.961  1.00  0.00    -0.118 OA 
HETATM   11  O   UNL     1     -10.554   7.706  66.496  1.00  0.00    -0.174 OA 
HETATM   12  CA  UNL     1     -11.584  12.126  66.635  1.00  0.00    -0.350 C  
HETATM   13  O   UNL     1     -11.223  11.386  69.060  1.00  0.00    -0.214 OA 
ENDROOT
BRANCH  12  14
HETATM   14  N   UNL     1     -11.009  13.510  66.632  1.00  0.00    -0.286 N  
HETATM   15  C   UNL     1     -11.624  14.508  67.359  1.00  0.00    -0.385 C  
HETATM   16  H   UNL     1     -10.167  13.714  66.095  1.00  0.00     0.000 HD 
HETATM   17  O   UNL     1     -12.625  14.227  68.010  1.00  0.00     0.075 OA 
BRANCH  15  18
HETATM   18  C   UNL     1     -11.061  15.906  67.347  1.00  0.00    -0.207 A  
HETATM   19  C   UNL     1     -10.967  16.704  68.522  1.00  0.00    -0.339 A  
HETATM   20  C   UNL     1     -10.325  17.959  68.474  1.00  0.00    -0.365 A  
HETATM   21  C   UNL     1     -10.491  16.412  66.152  1.00  0.00    -0.314 A  
HETATM   22  C   UNL     1      -9.732  18.413  67.300  1.00  0.00    -0.304 A  
HETATM   23  C   UNL     1      -9.812  17.640  66.152  1.00  0.00    -0.253 A  
BRANCH  19  24
HETATM   24  O   UNL     1     -11.506  16.234  69.702  1.00  0.00    -0.300 OA 
HETATM   25  C   UNL     1     -10.665  15.355  70.459  1.00  0.00    -0.261 C  
ENDBRANCH  19  24
BRANCH  21  26
HETATM   26  O   UNL     1     -10.395  15.778  64.938  1.00  0.00    -0.487 OA 
HETATM   27  C   UNL     1     -11.534  15.848  64.085  1.00  0.00    -0.052 C  
ENDBRANCH  21  26
ENDBRANCH  15  18
ENDBRANCH  12  14
TORSDOF 4
ENDMDL
MODEL      114
REMARK 921   NORMALIZED FREE ENERGY PREDICTED BY IDOCK:   -4.13 KCAL/MOL
REMARK 922        TOTAL FREE ENERGY PREDICTED BY IDOCK:   -6.02 KCAL/MOL
REMARK 923 INTER-LIGAND FREE ENERGY PREDICTED BY IDOCK:   -5.10 KCAL/MOL
REMARK 924 INTRA-LIGAND FREE ENERGY PREDICTED BY IDOCK:   -0.93 KCAL/MOL
REMARK 927      BINDING AFFINITY PREDICTED BY RF-SCORE:    0.00 PKD
ROOT
HETATM    1  C   UNL     1      -7.973   6.688  71.627  1.00  0.00    -0.103 C  
HETATM    2  S   UNL     1      -9.520   6.939  72.579  1.00  0.00    -0.138 SA 
HETATM    3  C   UNL     1     -10.316   5.390  72.012  1.00  0.00    -0.213 C  
HETATM    4  CA  UNL     1      -9.143   4.453  71.647  1.00  0.00    -0.130 C  
HETATM    5  C   UNL     1     -11.182   5.732  70.784  1.00  0.00    -0.198 C  
HETATM    6  C   UNL     1     -11.264   4.911  73.115  1.00  0.00    -0.403 C  
HETATM    7  N   UNL     1      -8.056   5.301  71.105  1.00  0.00    -0.107 N  
HETATM    8  C   UNL     1      -8.595   3.599  72.804  1.00  0.00    -0.090 C  
HETATM    9  C   UNL     1      -8.119   5.708  69.795  1.00  0.00    -0.102 C  
HETATM   10  OXT UNL     1      -9.269   2.853  73.500  1.00  0.00    -0.084 OA 
HETATM   11  O   UNL     1      -7.246   3.667  72.945  1.00  0.00    -0.050 OA 
HETATM   12  CA  UNL     1      -7.885   7.193  70.156  1.00  0.00    -0.108 C  
HETATM   13  O   UNL     1      -8.433   5.087  68.805  1.00  0.00    -0.087 OA 
ENDROOT
BRANCH  12  14
HETATM   14  N   UNL     1      -8.898   8.174  69.647  1.00  0.00    -0.142 N  
HETATM   15  C   UNL     1      -8.758   9.515  69.940  1.00  0.00    -0.210 C  
HETATM   16  H   UNL     1      -9.686   7.852  69.087  1.00  0.00     0.000 HD 
HETATM   17  O   UNL     1      -7.788   9.872  70.600  1.00  0.00    -0.278 OA 
BRANCH  15  18
HETATM   18  C   UNL     1      -9.781  10.505  69.446  1.00  0.00    -0.188 A  
HETATM   19  C   UNL     1      -9.536  11.376  68.348  1.00  0.00    -0.194 A  
HETATM   20  C   UNL     1     -10.568  12.200  67.855  1.00  0.00    -0.230 A  
HETATM   21  C   UNL     1     -11.083  10.494  70.009  1.00  0.00    -0.308 A  
HETATM   22  C   UNL     1     -11.850  12.138  68.394  1.00  0.00    -0.360 A  
HETATM   23  C   UNL     1     -12.102  11.287  69.459  1.00  0.00    -0.386 A  
BRANCH  19  24
HETATM   24  O   UNL     1      -8.280  11.402  67.775  1.00  0.00    -0.118 OA 
HETATM   25  C   UNL     1      -8.171  10.761  66.498  1.00  0.00    -0.148 C  
ENDBRANCH  19  24
BRANCH  21  26
HETATM   26  O   UNL     1     -11.555   9.678  71.006  1.00  0.00    -0.300 OA 
HETATM   27  C   UNL     1     -12.885   9.918  71.457  1.00  0.00    -0.421 C  
ENDBRANCH  21  26
ENDBRANCH  15  18
ENDBRANCH  12  14
TORSDOF 4
ENDMDL
MODEL      115
REMARK 921   NORMALIZED FREE ENERGY PREDICTED BY IDOCK:   -4.09 KCAL/MOL
REMARK 922        TOTAL FREE ENERGY PREDICTED BY IDOCK:   -5.98 KCAL/MOL
REMARK 923 INTER-LIGAND FREE ENERGY PREDICTED BY IDOCK:   -5.10 KCAL/MOL
REMARK 924 INTRA-LIGAND FREE ENERGY PREDICTED BY IDOCK:   -0.87 KCAL/MOL
REMARK 927      BINDING AFFINITY PREDICTED BY RF-SCORE:    0.00 PKD
ROOT
HETATM    1  C   UNL     1     -11.143  10.114  67.481  1.00  0.00    -0.181 C  
HETATM    2  S   UNL     1     -10.427  11.195  68.778  1.00  0.00    -0.210 SA 
HETATM    3  C   UNL     1      -9.028  11.780  67.750  1.00  0.00    -0.173 C  
HETATM    4  CA  UNL     1      -9.521  11.637  66.292  1.00  0.00    -0.218 C  
HETATM    5  C   UNL     1      -7.821  10.867  68.040  1.00  0.00    -0.107 C  
HETATM    6  C   UNL     1      -8.653  13.189  68.216  1.00  0.00    -0.166 C  
HETATM    7  N   UNL     1     -10.398  10.444  66.241  1.00  0.00    -0.226 N  
HETATM    8  C   UNL     1     -10.278  12.853  65.729  1.00  0.00    -0.288 C  
HETATM    9  C   UNL     1      -9.825   9.200  66.154  1.00  0.00    -0.293 C  
HETATM   10  OXT UNL     1      -9.845  13.996  65.707  1.00  0.00    -0.301 OA 
HETATM   11  O   UNL     1     -11.468  12.538  65.155  1.00  0.00    -0.306 OA 
HETATM   12  CA  UNL     1     -10.644   8.646  67.342  1.00  0.00    -0.228 C  
HETATM   13  O   UNL     1      -8.892   8.821  65.481  1.00  0.00    -0.178 OA 
ENDROOT
BRANCH  12  14
HETATM   14  N   UNL     1      -9.866   8.018  68.459  1.00  0.00    -0.169 N  
HETATM   15  C   UNL     1     -10.255   6.794  68.961  1.00  0.00    -0.178 C  
HETATM   16  H   UNL     1      -9.052   8.495  68.846  1.00  0.00     0.000 HD 
HETATM   17  O   UNL     1     -11.227   6.238  68.460  1.00  0.00    -0.352 OA 
BRANCH  15  18
HETATM   18  C   UNL     1      -9.487   6.165  70.095  1.00  0.00    -0.177 A  
HETATM   19  C   UNL     1      -8.603   5.067  69.905  1.00  0.00    -0.098 A  
HETATM   20  C   UNL     1      -7.822   4.593  70.980  1.00  0.00    -0.081 A  
HETATM   21  C   UNL     1      -9.547   6.756  71.382  1.00  0.00    -0.167 A  
HETATM   22  C   UNL     1      -7.864   5.220  72.222  1.00  0.00    -0.102 A  
HETATM   23  C   UNL     1      -8.717   6.296  72.416  1.00  0.00    -0.121 A  
BRANCH  19  24
HETATM   24  O   UNL     1      -8.518   4.476  68.660  1.00  0.00    -0.084 OA 
HETATM   25  C   UNL     1      -8.830   3.079  68.617  1.00  0.00    -0.119 C  
ENDBRANCH  19  24
BRANCH  21  26
HETATM   26  O   UNL     1     -10.260   7.867  71.759  1.00  0.00    -0.186 OA 
HETATM   27  C   UNL     1     -11.073   7.743  72.924  1.00  0.00    -0.398 C  
ENDBRANCH  21  26
ENDBRANCH  15  18
ENDBRANCH  12  14
TORSDOF 4
ENDMDL
MODEL      116
REMARK 921   NORMALIZED FREE ENERGY PREDICTED BY IDOCK:   -4.09 KCAL/MOL
REMARK 922        TOTAL FREE ENERGY PREDICTED BY IDOCK:   -5.97 KCAL/MOL
REMARK 923 INTER-LIGAND FREE ENERGY PREDICTED BY IDOCK:   -5.23 KCAL/MOL
REMARK 924 INTRA-LIGAND FREE ENERGY PREDICTED BY IDOCK:   -0.74 KCAL/MOL
REMARK 927      BINDING AFFINITY PREDICTED BY RF-SCORE:    0.00 PKD
ROOT
HETATM    1  C   UNL     1     -10.166   7.796  69.258  1.00  0.00    -0.211 C  
HETATM    2  S   UNL     1      -8.387   7.839  68.814  1.00  0.00    -0.129 SA 
HETATM    3  C   UNL     1      -7.784   7.744  70.541  1.00  0.00    -0.088 C  
HETATM    4  CA  UNL     1      -8.920   7.042  71.319  1.00  0.00    -0.137 C  
HETATM    5  C   UNL     1      -7.552   9.184  71.036  1.00  0.00    -0.124 C  
HETATM    6  C   UNL     1      -6.422   7.044  70.530  1.00  0.00    -0.047 C  
HETATM    7  N   UNL     1     -10.200   7.469  70.705  1.00  0.00    -0.194 N  
HETATM    8  C   UNL     1      -8.853   5.505  71.343  1.00  0.00    -0.136 C  
HETATM    9  C   UNL     1     -10.732   8.686  71.053  1.00  0.00    -0.228 C  
HETATM   10  OXT UNL     1      -7.890   4.855  71.721  1.00  0.00    -0.101 OA 
HETATM   11  O   UNL     1     -10.016   4.901  70.986  1.00  0.00    -0.189 OA 
HETATM   12  CA  UNL     1     -10.911   9.125  69.582  1.00  0.00    -0.197 C  
HETATM   13  O   UNL     1     -10.818   9.212  72.140  1.00  0.00    -0.297 OA 
ENDROOT
BRANCH  12  14
HETATM   14  N   UNL     1     -10.293  10.434  69.193  1.00  0.00    -0.209 N  
HETATM   15  C   UNL     1     -10.621  11.012  67.984  1.00  0.00    -0.204 C  
HETATM   16  H   UNL     1      -9.634  10.895  69.818  1.00  0.00     0.000 HD 
HETATM   17  O   UNL     1     -11.432  10.442  67.262  1.00  0.00    -0.315 OA 
BRANCH  15  18
HETATM   18  C   UNL     1      -9.992  12.321  67.579  1.00  0.00    -0.201 A  
HETATM   19  C   UNL     1     -10.705  13.326  66.867  1.00  0.00    -0.271 A  
HETATM   20  C   UNL     1     -10.103  14.576  66.616  1.00  0.00    -0.275 A  
HETATM   21  C   UNL     1      -8.679  12.623  68.021  1.00  0.00    -0.190 A  
HETATM   22  C   UNL     1      -8.831  14.866  67.101  1.00  0.00    -0.235 A  
HETATM   23  C   UNL     1      -8.130  13.896  67.802  1.00  0.00    -0.174 A  
BRANCH  19  24
HETATM   24  O   UNL     1     -11.987  13.062  66.431  1.00  0.00    -0.391 OA 
HETATM   25  C   UNL     1     -12.479  13.926  65.399  1.00  0.00    -0.501 C  
ENDBRANCH  19  24
BRANCH  21  26
HETATM   26  O   UNL     1      -7.855  11.839  68.790  1.00  0.00    -0.131 OA 
HETATM   27  C   UNL     1      -6.613  11.450  68.209  1.00  0.00    -0.058 C  
ENDBRANCH  21  26
ENDBRANCH  15  18
ENDBRANCH  12  14
TORSDOF 4
ENDMDL
MODEL      117
REMARK 921   NORMALIZED FREE ENERGY PREDICTED BY IDOCK:   -4.09 KCAL/MOL
REMARK 922        TOTAL FREE ENERGY PREDICTED BY IDOCK:   -5.97 KCAL/MOL
REMARK 923 INTER-LIGAND FREE ENERGY PREDICTED BY IDOCK:   -5.02 KCAL/MOL
REMARK 924 INTRA-LIGAND FREE ENERGY PREDICTED BY IDOCK:   -0.96 KCAL/MOL
REMARK 927      BINDING AFFINITY PREDICTED BY RF-SCORE:    0.00 PKD
ROOT
HETATM    1  C   UNL     1     -10.306   5.438  70.267  1.00  0.00    -0.287 C  
HETATM    2  S   UNL     1      -8.483   5.448  70.471  1.00  0.00    -0.123 SA 
HETATM    3  C   UNL     1      -8.495   6.457  72.000  1.00  0.00    -0.115 C  
HETATM    4  CA  UNL     1      -9.881   6.198  72.634  1.00  0.00    -0.167 C  
HETATM    5  C   UNL     1      -8.318   7.931  71.589  1.00  0.00    -0.137 C  
HETATM    6  C   UNL     1      -7.272   6.068  72.835  1.00  0.00    -0.093 C  
HETATM    7  N   UNL     1     -10.844   6.014  71.523  1.00  0.00    -0.257 N  
HETATM    8  C   UNL     1      -9.958   4.988  73.582  1.00  0.00    -0.162 C  
HETATM    9  C   UNL     1     -11.355   7.123  70.895  1.00  0.00    -0.286 C  
HETATM   10  OXT UNL     1      -9.233   4.813  74.551  1.00  0.00    -0.109 OA 
HETATM   11  O   UNL     1     -10.985   4.142  73.308  1.00  0.00    -0.213 OA 
HETATM   12  CA  UNL     1     -10.999   6.594  69.487  1.00  0.00    -0.313 C  
HETATM   13  O   UNL     1     -11.750   8.167  71.364  1.00  0.00    -0.272 OA 
ENDROOT
BRANCH  12  14
HETATM   14  N   UNL     1     -10.178   7.499  68.618  1.00  0.00    -0.193 N  
HETATM   15  C   UNL     1     -10.259   7.388  67.246  1.00  0.00    -0.260 C  
HETATM   16  H   UNL     1      -9.562   8.193  69.040  1.00  0.00     0.000 HD 
HETATM   17  O   UNL     1     -11.023   6.555  66.769  1.00  0.00    -0.354 OA 
BRANCH  15  18
HETATM   18  C   UNL     1      -9.424   8.283  66.366  1.00  0.00    -0.287 A  
HETATM   19  C   UNL     1      -9.702   9.668  66.199  1.00  0.00    -0.252 A  
HETATM   20  C   UNL     1      -8.821  10.482  65.458  1.00  0.00    -0.200 A  
HETATM   21  C   UNL     1      -8.244   7.766  65.774  1.00  0.00    -0.132 A  
HETATM   22  C   UNL     1      -7.646   9.961  64.925  1.00  0.00    -0.135 A  
HETATM   23  C   UNL     1      -7.361   8.614  65.089  1.00  0.00    -0.088 A  
BRANCH  19  24
HETATM   24  O   UNL     1     -10.840  10.202  66.771  1.00  0.00    -0.168 OA 
HETATM   25  C   UNL     1     -10.639  11.375  67.568  1.00  0.00    -0.213 C  
ENDBRANCH  19  24
BRANCH  21  26
HETATM   26  O   UNL     1      -7.745   6.491  65.882  1.00  0.00    -0.085 OA 
HETATM   27  C   UNL     1      -7.937   5.630  64.762  1.00  0.00    -0.119 C  
ENDBRANCH  21  26
ENDBRANCH  15  18
ENDBRANCH  12  14
TORSDOF 4
ENDMDL
MODEL      118
REMARK 921   NORMALIZED FREE ENERGY PREDICTED BY IDOCK:   -4.06 KCAL/MOL
REMARK 922        TOTAL FREE ENERGY PREDICTED BY IDOCK:   -5.94 KCAL/MOL
REMARK 923 INTER-LIGAND FREE ENERGY PREDICTED BY IDOCK:   -5.02 KCAL/MOL
REMARK 924 INTRA-LIGAND FREE ENERGY PREDICTED BY IDOCK:   -0.92 KCAL/MOL
REMARK 927      BINDING AFFINITY PREDICTED BY RF-SCORE:    0.00 PKD
ROOT
HETATM    1  C   UNL     1      -9.307   8.642  66.575  1.00  0.00    -0.200 C  
HETATM    2  S   UNL     1     -10.905   9.360  67.118  1.00  0.00     0.073 SA 
HETATM    3  C   UNL     1     -10.307  11.091  67.142  1.00  0.00    -0.220 C  
HETATM    4  CA  UNL     1      -9.136  11.119  66.134  1.00  0.00    -0.201 C  
HETATM    5  C   UNL     1      -9.838  11.405  68.576  1.00  0.00    -0.200 C  
HETATM    6  C   UNL     1     -11.495  12.009  66.843  1.00  0.00    -0.402 C  
HETATM    7  N   UNL     1      -8.459   9.803  66.211  1.00  0.00    -0.123 N  
HETATM    8  C   UNL     1      -9.527  11.408  64.674  1.00  0.00    -0.148 C  
HETATM    9  C   UNL     1      -7.563   9.573  67.225  1.00  0.00    -0.091 C  
HETATM   10  OXT UNL     1     -10.164  12.382  64.302  1.00  0.00    -0.328 OA 
HETATM   11  O   UNL     1      -9.018  10.516  63.784  1.00  0.00    -0.187 OA 
HETATM   12  CA  UNL     1      -8.240   8.248  67.639  1.00  0.00    -0.127 C  
HETATM   13  O   UNL     1      -6.701  10.294  67.676  1.00  0.00    -0.072 OA 
ENDROOT
BRANCH  12  14
HETATM   14  N   UNL     1      -8.641   8.120  69.079  1.00  0.00    -0.132 N  
HETATM   15  C   UNL     1      -9.321   6.998  69.503  1.00  0.00    -0.148 C  
HETATM   16  H   UNL     1      -8.411   8.860  69.741  1.00  0.00     0.000 HD 
HETATM   17  O   UNL     1      -9.565   6.117  68.685  1.00  0.00    -0.126 OA 
BRANCH  15  18
HETATM   18  C   UNL     1      -9.741   6.870  70.945  1.00  0.00    -0.183 A  
HETATM   19  C   UNL     1      -9.076   6.010  71.862  1.00  0.00    -0.141 A  
HETATM   20  C   UNL     1      -9.437   6.017  73.226  1.00  0.00    -0.142 A  
HETATM   21  C   UNL     1     -10.756   7.723  71.447  1.00  0.00    -0.222 A  
HETATM   22  C   UNL     1     -10.404   6.896  73.703  1.00  0.00    -0.397 A  
HETATM   23  C   UNL     1     -11.052   7.744  72.819  1.00  0.00    -0.457 A  
BRANCH  19  24
HETATM   24  O   UNL     1      -8.078   5.174  71.403  1.00  0.00    -0.108 OA 
HETATM   25  C   UNL     1      -8.468   3.815  71.171  1.00  0.00    -0.072 C  
ENDBRANCH  19  24
BRANCH  21  26
HETATM   26  O   UNL     1     -11.457   8.682  70.760  1.00  0.00    -0.271 OA 
HETATM   27  C   UNL     1     -12.170   9.639  71.540  1.00  0.00    -0.399 C  
ENDBRANCH  21  26
ENDBRANCH  15  18
ENDBRANCH  12  14
TORSDOF 4
ENDMDL
MODEL      119
REMARK 921   NORMALIZED FREE ENERGY PREDICTED BY IDOCK:   -4.02 KCAL/MOL
REMARK 922        TOTAL FREE ENERGY PREDICTED BY IDOCK:   -5.88 KCAL/MOL
REMARK 923 INTER-LIGAND FREE ENERGY PREDICTED BY IDOCK:   -5.05 KCAL/MOL
REMARK 924 INTRA-LIGAND FREE ENERGY PREDICTED BY IDOCK:   -0.83 KCAL/MOL
REMARK 927      BINDING AFFINITY PREDICTED BY RF-SCORE:    0.00 PKD
ROOT
HETATM    1  C   UNL     1     -10.546   9.373  66.642  1.00  0.00    -0.100 C  
HETATM    2  S   UNL     1     -11.215  10.891  67.424  1.00  0.00    -0.196 SA 
HETATM    3  C   UNL     1      -9.864  11.984  66.843  1.00  0.00    -0.204 C  
HETATM    4  CA  UNL     1      -9.324  11.300  65.567  1.00  0.00    -0.221 C  
HETATM    5  C   UNL     1      -8.801  12.046  67.956  1.00  0.00    -0.179 C  
HETATM    6  C   UNL     1     -10.433  13.396  66.680  1.00  0.00    -0.280 C  
HETATM    7  N   UNL     1      -9.437   9.837  65.771  1.00  0.00    -0.219 N  
HETATM    8  C   UNL     1     -10.032  11.689  64.257  1.00  0.00    -0.267 C  
HETATM    9  C   UNL     1      -8.476   9.190  66.507  1.00  0.00    -0.123 C  
HETATM   10  OXT UNL     1     -10.172  12.835  63.854  1.00  0.00    -0.402 OA 
HETATM   11  O   UNL     1     -10.426  10.625  63.510  1.00  0.00    -0.185 OA 
HETATM   12  CA  UNL     1      -9.517   8.498  67.417  1.00  0.00    -0.150 C  
HETATM   13  O   UNL     1      -7.273   9.322  66.497  1.00  0.00    -0.084 OA 
ENDROOT
BRANCH  12  14
HETATM   14  N   UNL     1      -9.348   8.685  68.894  1.00  0.00    -0.145 N  
HETATM   15  C   UNL     1      -9.306   7.584  69.724  1.00  0.00    -0.150 C  
HETATM   16  H   UNL     1      -9.265   9.623  69.285  1.00  0.00     0.000 HD 
HETATM   17  O   UNL     1      -9.390   6.468  69.221  1.00  0.00    -0.142 OA 
BRANCH  15  18
HETATM   18  C   UNL     1      -9.153   7.766  71.212  1.00  0.00    -0.153 A  
HETATM   19  C   UNL     1     -10.199   7.474  72.131  1.00  0.00    -0.196 A  
HETATM   20  C   UNL     1      -9.962   7.551  73.519  1.00  0.00    -0.371 A  
HETATM   21  C   UNL     1      -7.886   8.126  71.738  1.00  0.00    -0.112 A  
HETATM   22  C   UNL     1      -8.698   7.862  74.011  1.00  0.00    -0.305 A  
HETATM   23  C   UNL     1      -7.670   8.141  73.124  1.00  0.00    -0.204 A  
BRANCH  19  24
HETATM   24  O   UNL     1     -11.440   7.112  71.648  1.00  0.00    -0.251 OA 
HETATM   25  C   UNL     1     -12.441   8.136  71.689  1.00  0.00    -0.319 C  
ENDBRANCH  19  24
BRANCH  21  26
HETATM   26  O   UNL     1      -6.728   8.363  71.040  1.00  0.00    -0.041 OA 
HETATM   27  C   UNL     1      -5.933   9.465  71.470  1.00  0.00    -0.054 C  
ENDBRANCH  21  26
ENDBRANCH  15  18
ENDBRANCH  12  14
TORSDOF 4
ENDMDL
MODEL      120
REMARK 921   NORMALIZED FREE ENERGY PREDICTED BY IDOCK:   -4.01 KCAL/MOL
REMARK 922        TOTAL FREE ENERGY PREDICTED BY IDOCK:   -5.88 KCAL/MOL
REMARK 923 INTER-LIGAND FREE ENERGY PREDICTED BY IDOCK:   -4.96 KCAL/MOL
REMARK 924 INTRA-LIGAND FREE ENERGY PREDICTED BY IDOCK:   -0.92 KCAL/MOL
REMARK 927      BINDING AFFINITY PREDICTED BY RF-SCORE:    0.00 PKD
ROOT
HETATM    1  C   UNL     1      -8.219   7.157  69.541  1.00  0.00    -0.132 C  
HETATM    2  S   UNL     1      -7.924   8.351  70.901  1.00  0.00    -0.119 SA 
HETATM    3  C   UNL     1      -9.430   7.905  71.842  1.00  0.00    -0.168 C  
HETATM    4  CA  UNL     1      -9.741   6.449  71.424  1.00  0.00    -0.172 C  
HETATM    5  C   UNL     1     -10.550   8.875  71.421  1.00  0.00    -0.374 C  
HETATM    6  C   UNL     1      -9.153   8.150  73.328  1.00  0.00    -0.327 C  
HETATM    7  N   UNL     1      -9.344   6.307  70.004  1.00  0.00    -0.155 N  
HETATM    8  C   UNL     1      -9.048   5.359  72.261  1.00  0.00    -0.142 C  
HETATM    9  C   UNL     1     -10.196   6.754  69.026  1.00  0.00    -0.178 C  
HETATM   10  OXT UNL     1      -9.120   5.262  73.477  1.00  0.00    -0.128 OA 
HETATM   11  O   UNL     1      -8.401   4.426  71.515  1.00  0.00    -0.093 OA 
HETATM   12  CA  UNL     1      -9.094   7.579  68.323  1.00  0.00    -0.132 C  
HETATM   13  O   UNL     1     -11.398   6.643  68.934  1.00  0.00    -0.231 OA 
ENDROOT
BRANCH  12  14
HETATM   14  N   UNL     1      -9.387   9.031  68.089  1.00  0.00    -0.141 N  
HETATM   15  C   UNL     1      -8.835   9.674  67.001  1.00  0.00    -0.131 C  
HETATM   16  H   UNL     1      -9.992   9.540  68.732  1.00  0.00     0.000 HD 
HETATM   17  O   UNL     1      -8.127   9.028  66.236  1.00  0.00    -0.108 OA 
BRANCH  15  18
HETATM   18  C   UNL     1      -9.113  11.137  66.769  1.00  0.00    -0.174 A  
HETATM   19  C   UNL     1      -9.986  11.598  65.744  1.00  0.00    -0.237 A  
HETATM   20  C   UNL     1     -10.300  12.969  65.647  1.00  0.00    -0.294 A  
HETATM   21  C   UNL     1      -8.587  12.093  67.674  1.00  0.00    -0.166 A  
HETATM   22  C   UNL     1      -9.808  13.882  66.576  1.00  0.00    -0.296 A  
HETATM   23  C   UNL     1      -8.963  13.442  67.582  1.00  0.00    -0.202 A  
BRANCH  19  24
HETATM   24  O   UNL     1     -10.520  10.689  64.854  1.00  0.00    -0.312 OA 
HETATM   25  C   UNL     1      -9.968  10.721  63.532  1.00  0.00    -0.344 C  
ENDBRANCH  19  24
BRANCH  21  26
HETATM   26  O   UNL     1      -7.803  11.857  68.776  1.00  0.00    -0.122 OA 
HETATM   27  C   UNL     1      -6.509  12.457  68.785  1.00  0.00    -0.084 C  
ENDBRANCH  21  26
ENDBRANCH  15  18
ENDBRANCH  12  14
TORSDOF 4
ENDMDL
MODEL      121
REMARK 921   NORMALIZED FREE ENERGY PREDICTED BY IDOCK:   -4.01 KCAL/MOL
REMARK 922        TOTAL FREE ENERGY PREDICTED BY IDOCK:   -5.88 KCAL/MOL
REMARK 923 INTER-LIGAND FREE ENERGY PREDICTED BY IDOCK:   -4.91 KCAL/MOL
REMARK 924 INTRA-LIGAND FREE ENERGY PREDICTED BY IDOCK:   -0.96 KCAL/MOL
REMARK 927      BINDING AFFINITY PREDICTED BY RF-SCORE:    0.00 PKD
ROOT
HETATM    1  C   UNL     1      -8.928   8.794  65.617  1.00  0.00    -0.200 C  
HETATM    2  S   UNL     1      -7.236   9.372  66.027  1.00  0.00    -0.093 SA 
HETATM    3  C   UNL     1      -7.128   8.455  67.609  1.00  0.00    -0.083 C  
HETATM    4  CA  UNL     1      -8.098   7.263  67.442  1.00  0.00    -0.113 C  
HETATM    5  C   UNL     1      -7.576   9.407  68.733  1.00  0.00    -0.079 C  
HETATM    6  C   UNL     1      -5.657   8.115  67.861  1.00  0.00    -0.034 C  
HETATM    7  N   UNL     1      -9.230   7.732  66.608  1.00  0.00    -0.168 N  
HETATM    8  C   UNL     1      -7.489   5.998  66.812  1.00  0.00    -0.087 C  
HETATM    9  C   UNL     1     -10.238   8.452  67.198  1.00  0.00    -0.292 C  
HETATM   10  OXT UNL     1      -6.496   5.420  67.229  1.00  0.00    -0.048 OA 
HETATM   11  O   UNL     1      -8.213   5.500  65.776  1.00  0.00    -0.114 OA 
HETATM   12  CA  UNL     1     -10.161   9.584  66.148  1.00  0.00    -0.256 C  
HETATM   13  O   UNL     1     -10.798   8.278  68.257  1.00  0.00    -0.076 OA 
ENDROOT
BRANCH  12  14
HETATM   14  N   UNL     1      -9.978  10.976  66.674  1.00  0.00    -0.203 N  
HETATM   15  C   UNL     1     -10.039  12.048  65.808  1.00  0.00    -0.238 C  
HETATM   16  H   UNL     1      -9.810  11.130  67.667  1.00  0.00     0.000 HD 
HETATM   17  O   UNL     1     -10.262  11.831  64.621  1.00  0.00    -0.261 OA 
BRANCH  15  18
HETATM   18  C   UNL     1      -9.841  13.449  66.327  1.00  0.00    -0.295 A  
HETATM   19  C   UNL     1     -10.870  14.430  66.296  1.00  0.00    -0.313 A  
HETATM   20  C   UNL     1     -10.666  15.688  66.900  1.00  0.00    -0.307 A  
HETATM   21  C   UNL     1      -8.627  13.778  66.983  1.00  0.00    -0.166 A  
HETATM   22  C   UNL     1      -9.484  15.971  67.578  1.00  0.00    -0.223 A  
HETATM   23  C   UNL     1      -8.478  15.019  67.621  1.00  0.00    -0.170 A  
BRANCH  19  24
HETATM   24  O   UNL     1     -12.065  14.135  65.671  1.00  0.00    -0.380 OA 
HETATM   25  C   UNL     1     -12.230  14.688  64.360  1.00  0.00    -0.452 C  
ENDBRANCH  19  24
BRANCH  21  26
HETATM   26  O   UNL     1      -7.547  12.959  67.202  1.00  0.00    -0.128 OA 
HETATM   27  C   UNL     1      -6.510  13.474  68.034  1.00  0.00    -0.135 C  
ENDBRANCH  21  26
ENDBRANCH  15  18
ENDBRANCH  12  14
TORSDOF 4
ENDMDL
MODEL      122
REMARK 921   NORMALIZED FREE ENERGY PREDICTED BY IDOCK:   -4.00 KCAL/MOL
REMARK 922        TOTAL FREE ENERGY PREDICTED BY IDOCK:   -5.86 KCAL/MOL
REMARK 923 INTER-LIGAND FREE ENERGY PREDICTED BY IDOCK:   -4.97 KCAL/MOL
REMARK 924 INTRA-LIGAND FREE ENERGY PREDICTED BY IDOCK:   -0.89 KCAL/MOL
REMARK 927      BINDING AFFINITY PREDICTED BY RF-SCORE:    0.00 PKD
ROOT
HETATM    1  C   UNL     1     -11.041  10.499  67.548  1.00  0.00    -0.290 C  
HETATM    2  S   UNL     1     -10.036  11.041  68.983  1.00  0.00    -0.120 SA 
HETATM    3  C   UNL     1      -8.597  11.576  67.983  1.00  0.00    -0.150 C  
HETATM    4  CA  UNL     1      -9.185  11.917  66.595  1.00  0.00    -0.205 C  
HETATM    5  C   UNL     1      -7.610  10.396  67.915  1.00  0.00    -0.088 C  
HETATM    6  C   UNL     1      -7.895  12.713  68.732  1.00  0.00     0.039 C  
HETATM    7  N   UNL     1     -10.307  10.980  66.351  1.00  0.00    -0.243 N  
HETATM    8  C   UNL     1      -9.682  13.364  66.424  1.00  0.00    -0.277 C  
HETATM    9  C   UNL     1     -10.030   9.711  65.907  1.00  0.00    -0.281 C  
HETATM   10  OXT UNL     1      -9.008  14.362  66.632  1.00  0.00    -0.252 OA 
HETATM   11  O   UNL     1     -10.941  13.455  65.922  1.00  0.00    -0.275 OA 
HETATM   12  CA  UNL     1     -10.888   9.046  67.007  1.00  0.00     0.026 C  
HETATM   13  O   UNL     1      -9.240   9.338  65.068  1.00  0.00    -0.235 OA 
ENDROOT
BRANCH  12  14
HETATM   14  N   UNL     1     -10.211   8.008  67.851  1.00  0.00    -0.201 N  
HETATM   15  C   UNL     1     -10.553   6.680  67.707  1.00  0.00    -0.252 C  
HETATM   16  H   UNL     1      -9.502   8.283  68.529  1.00  0.00     0.000 HD 
HETATM   17  O   UNL     1     -11.397   6.380  66.869  1.00  0.00    -0.304 OA 
BRANCH  15  18
HETATM   18  C   UNL     1      -9.888   5.633  68.564  1.00  0.00    -0.185 A  
HETATM   19  C   UNL     1     -10.318   5.341  69.888  1.00  0.00    -0.304 A  
HETATM   20  C   UNL     1      -9.736   4.273  70.601  1.00  0.00    -0.274 A  
HETATM   21  C   UNL     1      -8.875   4.818  67.998  1.00  0.00    -0.105 A  
HETATM   22  C   UNL     1      -8.775   3.459  70.008  1.00  0.00    -0.127 A  
HETATM   23  C   UNL     1      -8.355   3.730  68.715  1.00  0.00    -0.088 A  
BRANCH  19  24
HETATM   24  O   UNL     1     -11.309   6.112  70.461  1.00  0.00    -0.336 OA 
HETATM   25  C   UNL     1     -10.935   6.813  71.654  1.00  0.00    -0.235 C  
ENDBRANCH  19  24
BRANCH  21  26
HETATM   26  O   UNL     1      -8.378   4.870  66.720  1.00  0.00    -0.107 OA 
HETATM   27  C   UNL     1      -8.314   3.638  66.005  1.00  0.00    -0.106 C  
ENDBRANCH  21  26
ENDBRANCH  15  18
ENDBRANCH  12  14
TORSDOF 4
ENDMDL
MODEL      123
REMARK 921   NORMALIZED FREE ENERGY PREDICTED BY IDOCK:   -4.00 KCAL/MOL
REMARK 922        TOTAL FREE ENERGY PREDICTED BY IDOCK:   -5.86 KCAL/MOL
REMARK 923 INTER-LIGAND FREE ENERGY PREDICTED BY IDOCK:   -4.98 KCAL/MOL
REMARK 924 INTRA-LIGAND FREE ENERGY PREDICTED BY IDOCK:   -0.88 KCAL/MOL
REMARK 927      BINDING AFFINITY PREDICTED BY RF-SCORE:    0.00 PKD
ROOT
HETATM    1  C   UNL     1     -10.778   8.072  69.573  1.00  0.00    -0.181 C  
HETATM    2  S   UNL     1     -12.209   7.471  70.551  1.00  0.00     0.163 SA 
HETATM    3  C   UNL     1     -11.995   8.676  71.913  1.00  0.00    -0.356 C  
HETATM    4  CA  UNL     1     -11.262   9.875  71.269  1.00  0.00    -0.286 C  
HETATM    5  C   UNL     1     -11.143   8.002  73.005  1.00  0.00    -0.301 C  
HETATM    6  C   UNL     1     -13.372   8.956  72.520  1.00  0.00    -0.451 C  
HETATM    7  N   UNL     1     -10.351   9.329  70.236  1.00  0.00    -0.211 N  
HETATM    8  C   UNL     1     -12.171  10.943  70.636  1.00  0.00    -0.376 C  
HETATM    9  C   UNL     1      -9.139   8.813  70.622  1.00  0.00    -0.186 C  
HETATM   10  OXT UNL     1     -13.077  11.522  71.218  1.00  0.00    -0.336 OA 
HETATM   11  O   UNL     1     -11.825  11.273  69.365  1.00  0.00    -0.298 OA 
HETATM   12  CA  UNL     1      -9.359   7.492  69.851  1.00  0.00    -0.150 C  
HETATM   13  O   UNL     1      -8.338   9.234  71.426  1.00  0.00    -0.323 OA 
ENDROOT
BRANCH  12  14
HETATM   14  N   UNL     1      -9.217   6.224  70.638  1.00  0.00    -0.157 N  
HETATM   15  C   UNL     1      -9.471   5.011  70.033  1.00  0.00    -0.166 C  
HETATM   16  H   UNL     1      -8.935   6.258  71.617  1.00  0.00     0.000 HD 
HETATM   17  O   UNL     1      -9.791   5.002  68.849  1.00  0.00    -0.155 OA 
BRANCH  15  18
HETATM   18  C   UNL     1      -9.347   3.733  70.823  1.00  0.00    -0.218 A  
HETATM   19  C   UNL     1      -8.460   2.685  70.449  1.00  0.00    -0.050 A  
HETATM   20  C   UNL     1      -8.299   1.563  71.288  1.00  0.00    -0.058 A  
HETATM   21  C   UNL     1     -10.044   3.609  72.051  1.00  0.00    -0.129 A  
HETATM   22  C   UNL     1      -8.959   1.486  72.511  1.00  0.00    -0.080 A  
HETATM   23  C   UNL     1      -9.819   2.505  72.888  1.00  0.00    -0.182 A  
BRANCH  19  24
HETATM   24  O   UNL     1      -7.762   2.782  69.262  1.00  0.00    -0.047 OA 
HETATM   25  C   UNL     1      -8.053   1.771  68.290  1.00  0.00    -0.057 C  
ENDBRANCH  19  24
BRANCH  21  26
HETATM   26  O   UNL     1     -10.873   4.532  72.638  1.00  0.00    -0.187 OA 
HETATM   27  C   UNL     1     -11.006   4.466  74.056  1.00  0.00    -0.198 C  
ENDBRANCH  21  26
ENDBRANCH  15  18
ENDBRANCH  12  14
TORSDOF 4
ENDMDL
MODEL      124
REMARK 921   NORMALIZED FREE ENERGY PREDICTED BY IDOCK:   -3.96 KCAL/MOL
REMARK 922        TOTAL FREE ENERGY PREDICTED BY IDOCK:   -5.82 KCAL/MOL
REMARK 923 INTER-LIGAND FREE ENERGY PREDICTED BY IDOCK:   -4.93 KCAL/MOL
REMARK 924 INTRA-LIGAND FREE ENERGY PREDICTED BY IDOCK:   -0.88 KCAL/MOL
REMARK 927      BINDING AFFINITY PREDICTED BY RF-SCORE:    0.00 PKD
ROOT
HETATM    1  C   UNL     1     -10.094   9.275  71.311  1.00  0.00    -0.291 C  
HETATM    2  S   UNL     1      -9.132   9.312  69.749  1.00  0.00    -0.192 SA 
HETATM    3  C   UNL     1     -10.591   9.153  68.653  1.00  0.00    -0.174 C  
HETATM    4  CA  UNL     1     -11.769   9.722  69.477  1.00  0.00     0.163 C  
HETATM    5  C   UNL     1     -10.780   7.657  68.339  1.00  0.00    -0.098 C  
HETATM    6  C   UNL     1     -10.271   9.858  67.332  1.00  0.00    -0.275 C  
HETATM    7  N   UNL     1     -11.515   9.382  70.897  1.00  0.00    -0.293 N  
HETATM    8  C   UNL     1     -11.994  11.239  69.348  1.00  0.00    -0.341 C  
HETATM    9  C   UNL     1     -11.828   8.123  71.346  1.00  0.00    -0.295 C  
HETATM   10  OXT UNL     1     -12.153  11.833  68.291  1.00  0.00    -0.525 OA 
HETATM   11  O   UNL     1     -12.096  11.881  70.541  1.00  0.00    -0.366 OA 
HETATM   12  CA  UNL     1     -10.432   7.907  71.974  1.00  0.00    -0.231 C  
HETATM   13  O   UNL     1     -12.802   7.439  71.123  1.00  0.00    -0.326 OA 
ENDROOT
BRANCH  12  14
HETATM   14  N   UNL     1      -9.689   6.675  71.552  1.00  0.00    -0.165 N  
HETATM   15  C   UNL     1      -9.915   5.482  72.206  1.00  0.00    -0.174 C  
HETATM   16  H   UNL     1      -9.020   6.719  70.784  1.00  0.00     0.000 HD 
HETATM   17  O   UNL     1     -10.740   5.459  73.113  1.00  0.00    -0.222 OA 
BRANCH  15  18
HETATM   18  C   UNL     1      -9.159   4.243  71.798  1.00  0.00    -0.166 A  
HETATM   19  C   UNL     1      -8.413   3.462  72.723  1.00  0.00    -0.081 A  
HETATM   20  C   UNL     1      -7.823   2.250  72.310  1.00  0.00    -0.053 A  
HETATM   21  C   UNL     1      -9.288   3.761  70.470  1.00  0.00    -0.158 A  
HETATM   22  C   UNL     1      -8.002   1.774  71.014  1.00  0.00    -0.049 A  
HETATM   23  C   UNL     1      -8.733   2.525  70.106  1.00  0.00    -0.125 A  
BRANCH  19  24
HETATM   24  O   UNL     1      -8.278   3.902  74.024  1.00  0.00    -0.089 OA 
HETATM   25  C   UNL     1      -6.932   4.033  74.496  1.00  0.00    -0.064 C  
ENDBRANCH  19  24
BRANCH  21  26
HETATM   26  O   UNL     1     -10.027   4.308  69.451  1.00  0.00    -0.183 OA 
HETATM   27  C   UNL     1      -9.508   4.161  68.131  1.00  0.00    -0.158 C  
ENDBRANCH  21  26
ENDBRANCH  15  18
ENDBRANCH  12  14
TORSDOF 4
ENDMDL
MODEL      125
REMARK 921   NORMALIZED FREE ENERGY PREDICTED BY IDOCK:   -3.93 KCAL/MOL
REMARK 922        TOTAL FREE ENERGY PREDICTED BY IDOCK:   -5.78 KCAL/MOL
REMARK 923 INTER-LIGAND FREE ENERGY PREDICTED BY IDOCK:   -4.92 KCAL/MOL
REMARK 924 INTRA-LIGAND FREE ENERGY PREDICTED BY IDOCK:   -0.86 KCAL/MOL
REMARK 927      BINDING AFFINITY PREDICTED BY RF-SCORE:    0.00 PKD
ROOT
HETATM    1  C   UNL     1      -8.172   9.740  69.109  1.00  0.00    -0.130 C  
HETATM    2  S   UNL     1      -7.902   8.164  68.209  1.00  0.00    -0.124 SA 
HETATM    3  C   UNL     1      -9.270   8.420  67.017  1.00  0.00    -0.151 C  
HETATM    4  CA  UNL     1      -9.450   9.953  66.944  1.00  0.00    -0.163 C  
HETATM    5  C   UNL     1     -10.520   7.720  67.583  1.00  0.00    -0.308 C  
HETATM    6  C   UNL     1      -8.902   7.707  65.713  1.00  0.00    -0.134 C  
HETATM    7  N   UNL     1      -9.155  10.494  68.292  1.00  0.00    -0.141 N  
HETATM    8  C   UNL     1      -8.576  10.673  65.902  1.00  0.00    -0.172 C  
HETATM    9  C   UNL     1     -10.127  10.440  69.259  1.00  0.00    -0.230 C  
HETATM   10  OXT UNL     1      -8.538  10.396  64.712  1.00  0.00    -0.173 OA 
HETATM   11  O   UNL     1      -7.891  11.734  66.401  1.00  0.00    -0.051 OA 
HETATM   12  CA  UNL     1      -9.182   9.785  70.293  1.00  0.00    -0.172 C  
HETATM   13  O   UNL     1     -11.313  10.671  69.181  1.00  0.00    -0.240 OA 
ENDROOT
BRANCH  12  14
HETATM   14  N   UNL     1      -9.653   8.505  70.916  1.00  0.00    -0.175 N  
HETATM   15  C   UNL     1      -9.083   8.067  72.093  1.00  0.00    -0.168 C  
HETATM   16  H   UNL     1     -10.391   7.960  70.471  1.00  0.00     0.000 HD 
HETATM   17  O   UNL     1      -8.210   8.754  72.613  1.00  0.00    -0.403 OA 
BRANCH  15  18
HETATM   18  C   UNL     1      -9.539   6.772  72.716  1.00  0.00    -0.161 A  
HETATM   19  C   UNL     1     -10.914   6.432  72.854  1.00  0.00    -0.250 A  
HETATM   20  C   UNL     1     -11.282   5.159  73.337  1.00  0.00    -0.358 A  
HETATM   21  C   UNL     1      -8.573   5.798  73.072  1.00  0.00    -0.121 A  
HETATM   22  C   UNL     1     -10.315   4.203  73.636  1.00  0.00    -0.237 A  
HETATM   23  C   UNL     1      -8.974   4.522  73.498  1.00  0.00    -0.100 A  
BRANCH  19  24
HETATM   24  O   UNL     1     -11.877   7.358  72.508  1.00  0.00    -0.263 OA 
HETATM   25  C   UNL     1     -12.777   6.955  71.468  1.00  0.00    -0.349 C  
ENDBRANCH  19  24
BRANCH  21  26
HETATM   26  O   UNL     1      -7.210   5.885  72.938  1.00  0.00    -0.087 OA 
HETATM   27  C   UNL     1      -6.431   4.940  73.668  1.00  0.00    -0.061 C  
ENDBRANCH  21  26
ENDBRANCH  15  18
ENDBRANCH  12  14
TORSDOF 4
ENDMDL
MODEL      126
REMARK 921   NORMALIZED FREE ENERGY PREDICTED BY IDOCK:   -3.90 KCAL/MOL
REMARK 922        TOTAL FREE ENERGY PREDICTED BY IDOCK:   -5.73 KCAL/MOL
REMARK 923 INTER-LIGAND FREE ENERGY PREDICTED BY IDOCK:   -4.75 KCAL/MOL
REMARK 924 INTRA-LIGAND FREE ENERGY PREDICTED BY IDOCK:   -0.99 KCAL/MOL
REMARK 927      BINDING AFFINITY PREDICTED BY RF-SCORE:    0.00 PKD
ROOT
HETATM    1  C   UNL     1      -8.573  10.637  68.821  1.00  0.00    -0.150 C  
HETATM    2  S   UNL     1      -8.180   9.871  67.201  1.00  0.00    -0.121 SA 
HETATM    3  C   UNL     1      -9.890   9.970  66.554  1.00  0.00    -0.210 C  
HETATM    4  CA  UNL     1     -10.538  11.144  67.322  1.00  0.00    -0.239 C  
HETATM    5  C   UNL     1     -10.585   8.630  66.861  1.00  0.00    -0.270 C  
HETATM    6  C   UNL     1      -9.814  10.102  65.030  1.00  0.00    -0.392 C  
HETATM    7  N   UNL     1      -9.960  11.147  68.687  1.00  0.00    -0.200 N  
HETATM    8  C   UNL     1     -10.351  12.533  66.686  1.00  0.00    -0.227 C  
HETATM    9  C   UNL     1     -10.460  10.277  69.623  1.00  0.00    -0.253 C  
HETATM   10  OXT UNL     1     -10.658  12.822  65.539  1.00  0.00    -0.271 OA 
HETATM   11  O   UNL     1      -9.888  13.473  67.550  1.00  0.00    -0.220 OA 
HETATM   12  CA  UNL     1      -9.060   9.740  69.997  1.00  0.00    -0.223 C  
HETATM   13  O   UNL     1     -11.607   9.975  69.866  1.00  0.00    -0.235 OA 
ENDROOT
BRANCH  12  14
HETATM   14  N   UNL     1      -8.870   8.254  69.925  1.00  0.00    -0.137 N  
HETATM   15  C   UNL     1      -8.937   7.499  71.077  1.00  0.00    -0.147 C  
HETATM   16  H   UNL     1      -8.690   7.805  69.028  1.00  0.00     0.000 HD 
HETATM   17  O   UNL     1      -9.173   8.068  72.138  1.00  0.00    -0.140 OA 
BRANCH  15  18
HETATM   18  C   UNL     1      -8.730   6.007  71.015  1.00  0.00    -0.132 A  
HETATM   19  C   UNL     1      -7.469   5.421  70.715  1.00  0.00    -0.080 A  
HETATM   20  C   UNL     1      -7.306   4.022  70.784  1.00  0.00    -0.041 A  
HETATM   21  C   UNL     1      -9.794   5.146  71.384  1.00  0.00    -0.179 A  
HETATM   22  C   UNL     1      -8.352   3.201  71.194  1.00  0.00    -0.086 A  
HETATM   23  C   UNL     1      -9.582   3.763  71.496  1.00  0.00    -0.232 A  
BRANCH  19  24
HETATM   24  O   UNL     1      -6.413   6.236  70.360  1.00  0.00    -0.038 OA 
HETATM   25  C   UNL     1      -5.992   6.142  68.993  1.00  0.00    -0.024 C  
ENDBRANCH  19  24
BRANCH  21  26
HETATM   26  O   UNL     1     -11.055   5.503  71.792  1.00  0.00    -0.230 OA 
HETATM   27  C   UNL     1     -11.438   5.115  73.110  1.00  0.00    -0.272 C  
ENDBRANCH  21  26
ENDBRANCH  15  18
ENDBRANCH  12  14
TORSDOF 4
ENDMDL
MODEL      127
REMARK 921   NORMALIZED FREE ENERGY PREDICTED BY IDOCK:   -3.87 KCAL/MOL
REMARK 922        TOTAL FREE ENERGY PREDICTED BY IDOCK:   -5.70 KCAL/MOL
REMARK 923 INTER-LIGAND FREE ENERGY PREDICTED BY IDOCK:   -4.68 KCAL/MOL
REMARK 924 INTRA-LIGAND FREE ENERGY PREDICTED BY IDOCK:   -1.02 KCAL/MOL
REMARK 927      BINDING AFFINITY PREDICTED BY RF-SCORE:    0.00 PKD
ROOT
HETATM    1  C   UNL     1      -9.042   7.313  66.850  1.00  0.00    -0.141 C  
HETATM    2  S   UNL     1     -10.565   8.231  67.300  1.00  0.00    -0.190 SA 
HETATM    3  C   UNL     1      -9.718   9.833  67.565  1.00  0.00    -0.157 C  
HETATM    4  CA  UNL     1      -8.447   9.759  66.689  1.00  0.00    -0.124 C  
HETATM    5  C   UNL     1      -9.377   9.941  69.063  1.00  0.00    -0.175 C  
HETATM    6  C   UNL     1     -10.711  10.954  67.244  1.00  0.00    -0.317 C  
HETATM    7  N   UNL     1      -7.991   8.349  66.697  1.00  0.00    -0.096 N  
HETATM    8  C   UNL     1      -8.617  10.233  65.235  1.00  0.00    -0.165 C  
HETATM    9  C   UNL     1      -7.264   7.890  67.766  1.00  0.00    -0.091 C  
HETATM   10  OXT UNL     1      -9.052  11.326  64.904  1.00  0.00    -0.159 OA 
HETATM   11  O   UNL     1      -8.149   9.351  64.313  1.00  0.00    -0.124 OA 
HETATM   12  CA  UNL     1      -8.178   6.661  67.970  1.00  0.00    -0.117 C  
HETATM   13  O   UNL     1      -6.361   8.420  68.375  1.00  0.00    -0.052 OA 
ENDROOT
BRANCH  12  14
HETATM   14  N   UNL     1      -8.758   6.475  69.340  1.00  0.00    -0.133 N  
HETATM   15  C   UNL     1      -9.539   5.370  69.609  1.00  0.00    -0.160 C  
HETATM   16  H   UNL     1      -8.576   7.163  70.070  1.00  0.00     0.000 HD 
HETATM   17  O   UNL     1      -9.724   4.552  68.714  1.00  0.00    -0.160 OA 
BRANCH  15  18
HETATM   18  C   UNL     1     -10.138   5.186  70.980  1.00  0.00    -0.297 A  
HETATM   19  C   UNL     1     -11.228   5.970  71.451  1.00  0.00    -0.262 A  
HETATM   20  C   UNL     1     -11.824   5.677  72.695  1.00  0.00    -0.192 A  
HETATM   21  C   UNL     1      -9.688   4.115  71.793  1.00  0.00    -0.175 A  
HETATM   22  C   UNL     1     -11.395   4.591  73.453  1.00  0.00    -0.376 A  
HETATM   23  C   UNL     1     -10.339   3.816  73.000  1.00  0.00    -0.243 A  
BRANCH  19  24
HETATM   24  O   UNL     1     -11.692   7.014  70.677  1.00  0.00    -0.324 OA 
HETATM   25  C   UNL     1     -11.989   8.224  71.385  1.00  0.00    -0.299 C  
ENDBRANCH  19  24
BRANCH  21  26
HETATM   26  O   UNL     1      -8.719   3.190  71.494  1.00  0.00    -0.074 OA 
HETATM   27  C   UNL     1      -9.136   1.830  71.401  1.00  0.00    -0.081 C  
ENDBRANCH  21  26
ENDBRANCH  15  18
ENDBRANCH  12  14
TORSDOF 4
ENDMDL
MODEL      128
REMARK 921   NORMALIZED FREE ENERGY PREDICTED BY IDOCK:   -3.82 KCAL/MOL
REMARK 922        TOTAL FREE ENERGY PREDICTED BY IDOCK:   -5.64 KCAL/MOL
REMARK 923 INTER-LIGAND FREE ENERGY PREDICTED BY IDOCK:   -4.77 KCAL/MOL
REMARK 924 INTRA-LIGAND FREE ENERGY PREDICTED BY IDOCK:   -0.87 KCAL/MOL
REMARK 927      BINDING AFFINITY PREDICTED BY RF-SCORE:    0.00 PKD
ROOT
HETATM    1  C   UNL     1     -10.558  15.214  68.240  1.00  0.00    -0.243 C  
HETATM    2  S   UNL     1      -9.375  15.969  69.422  1.00  0.00    -0.155 SA 
HETATM    3  C   UNL     1      -8.109  16.362  68.158  1.00  0.00    -0.165 C  
HETATM    4  CA  UNL     1      -8.897  16.492  66.835  1.00  0.00    -0.208 C  
HETATM    5  C   UNL     1      -7.108  15.192  68.118  1.00  0.00    -0.124 C  
HETATM    6  C   UNL     1      -7.341  17.601  68.626  1.00  0.00    -0.257 C  
HETATM    7  N   UNL     1     -10.015  15.520  66.893  1.00  0.00    -0.242 N  
HETATM    8  C   UNL     1      -9.454  17.894  66.531  1.00  0.00    -0.299 C  
HETATM    9  C   UNL     1      -9.768  14.202  66.601  1.00  0.00    -0.288 C  
HETATM   10  OXT UNL     1      -8.786  18.917  66.493  1.00  0.00    -0.307 OA 
HETATM   11  O   UNL     1     -10.774  17.900  66.208  1.00  0.00    -0.276 OA 
HETATM   12  CA  UNL     1     -10.442  13.699  67.898  1.00  0.00    -0.247 C  
HETATM   13  O   UNL     1      -9.095  13.716  65.719  1.00  0.00     0.184 OA 
ENDROOT
BRANCH  12  14
HETATM   14  N   UNL     1      -9.623  12.801  68.776  1.00  0.00    -0.412 N  
HETATM   15  C   UNL     1      -9.473  11.471  68.444  1.00  0.00    -0.195 C  
HETATM   16  H   UNL     1      -9.179  13.173  69.615  1.00  0.00     0.000 HD 
HETATM   17  O   UNL     1     -10.004  11.060  67.418  1.00  0.00    -0.178 OA 
BRANCH  15  18
HETATM   18  C   UNL     1      -8.664  10.559  69.331  1.00  0.00    -0.093 A  
HETATM   19  C   UNL     1      -7.334  10.864  69.732  1.00  0.00    -0.007 A  
HETATM   20  C   UNL     1      -6.667  10.032  70.656  1.00  0.00    -0.074 A  
HETATM   21  C   UNL     1      -9.282   9.412  69.890  1.00  0.00    -0.208 A  
HETATM   22  C   UNL     1      -7.311   8.938  71.226  1.00  0.00    -0.115 A  
HETATM   23  C   UNL     1      -8.610   8.637  70.847  1.00  0.00    -0.204 A  
BRANCH  19  24
HETATM   24  O   UNL     1      -6.710  11.979  69.211  1.00  0.00    -0.105 OA 
HETATM   25  C   UNL     1      -5.627  11.716  68.310  1.00  0.00    -0.045 C  
ENDBRANCH  19  24
BRANCH  21  26
HETATM   26  O   UNL     1     -10.575   8.987  69.708  1.00  0.00    -0.220 OA 
HETATM   27  C   UNL     1     -11.405   8.943  70.866  1.00  0.00    -0.283 C  
ENDBRANCH  21  26
ENDBRANCH  15  18
ENDBRANCH  12  14
TORSDOF 4
ENDMDL
MODEL      129
REMARK 921   NORMALIZED FREE ENERGY PREDICTED BY IDOCK:   -3.80 KCAL/MOL
REMARK 922        TOTAL FREE ENERGY PREDICTED BY IDOCK:   -5.62 KCAL/MOL
REMARK 923 INTER-LIGAND FREE ENERGY PREDICTED BY IDOCK:   -4.82 KCAL/MOL
REMARK 924 INTRA-LIGAND FREE ENERGY PREDICTED BY IDOCK:   -0.80 KCAL/MOL
REMARK 927      BINDING AFFINITY PREDICTED BY RF-SCORE:    0.00 PKD
ROOT
HETATM    1  C   UNL     1      -7.405   9.722  68.038  1.00  0.00    -0.081 C  
HETATM    2  S   UNL     1      -7.726  10.108  69.802  1.00  0.00    -0.152 SA 
HETATM    3  C   UNL     1      -9.388   9.340  69.840  1.00  0.00    -0.198 C  
HETATM    4  CA  UNL     1      -9.357   8.276  68.719  1.00  0.00    -0.143 C  
HETATM    5  C   UNL     1     -10.421  10.445  69.554  1.00  0.00    -0.274 C  
HETATM    6  C   UNL     1      -9.645   8.834  71.262  1.00  0.00    -0.323 C  
HETATM    7  N   UNL     1      -8.502   8.808  67.632  1.00  0.00    -0.124 N  
HETATM    8  C   UNL     1      -8.844   6.887  69.139  1.00  0.00    -0.134 C  
HETATM    9  C   UNL     1      -9.036   9.708  66.744  1.00  0.00    -0.138 C  
HETATM   10  OXT UNL     1      -9.297   6.226  70.062  1.00  0.00    -0.153 OA 
HETATM   11  O   UNL     1      -7.875   6.392  68.326  1.00  0.00    -0.102 OA 
HETATM   12  CA  UNL     1      -7.878  10.714  66.935  1.00  0.00    -0.121 C  
HETATM   13  O   UNL     1     -10.117   9.711  66.199  1.00  0.00    -0.277 OA 
ENDROOT
BRANCH  12  14
HETATM   14  N   UNL     1      -8.261  12.114  67.312  1.00  0.00    -0.172 N  
HETATM   15  C   UNL     1      -7.296  13.098  67.359  1.00  0.00    -0.111 C  
HETATM   16  H   UNL     1      -9.231  12.337  67.534  1.00  0.00     0.000 HD 
HETATM   17  O   UNL     1      -6.142  12.801  67.069  1.00  0.00    -0.282 OA 
BRANCH  15  18
HETATM   18  C   UNL     1      -7.671  14.504  67.753  1.00  0.00    -0.167 A  
HETATM   19  C   UNL     1      -6.904  15.271  68.673  1.00  0.00    -0.109 A  
HETATM   20  C   UNL     1      -7.235  16.620  68.917  1.00  0.00    -0.219 A  
HETATM   21  C   UNL     1      -8.756  15.139  67.099  1.00  0.00    -0.216 A  
HETATM   22  C   UNL     1      -8.276  17.235  68.227  1.00  0.00    -0.237 A  
HETATM   23  C   UNL     1      -9.025  16.498  67.323  1.00  0.00    -0.212 A  
BRANCH  19  24
HETATM   24  O   UNL     1      -5.836  14.681  69.319  1.00  0.00    -0.097 OA 
HETATM   25  C   UNL     1      -5.917  14.655  70.750  1.00  0.00    -0.142 C  
ENDBRANCH  19  24
BRANCH  21  26
HETATM   26  O   UNL     1      -9.565  14.615  66.121  1.00  0.00    -0.296 OA 
HETATM   27  C   UNL     1     -10.937  15.001  66.148  1.00  0.00    -0.334 C  
ENDBRANCH  21  26
ENDBRANCH  15  18
ENDBRANCH  12  14
TORSDOF 4
ENDMDL
MODEL      130
REMARK 921   NORMALIZED FREE ENERGY PREDICTED BY IDOCK:   -3.79 KCAL/MOL
REMARK 922        TOTAL FREE ENERGY PREDICTED BY IDOCK:   -5.61 KCAL/MOL
REMARK 923 INTER-LIGAND FREE ENERGY PREDICTED BY IDOCK:   -4.74 KCAL/MOL
REMARK 924 INTRA-LIGAND FREE ENERGY PREDICTED BY IDOCK:   -0.86 KCAL/MOL
REMARK 927      BINDING AFFINITY PREDICTED BY RF-SCORE:    0.00 PKD
ROOT
HETATM    1  C   UNL     1      -9.546   7.531  66.354  1.00  0.00    -0.125 C  
HETATM    2  S   UNL     1      -9.647   9.227  67.046  1.00  0.00    -0.183 SA 
HETATM    3  C   UNL     1      -7.881   9.624  66.767  1.00  0.00    -0.102 C  
HETATM    4  CA  UNL     1      -7.452   8.714  65.594  1.00  0.00    -0.085 C  
HETATM    5  C   UNL     1      -7.116   9.290  68.062  1.00  0.00    -0.078 C  
HETATM    6  C   UNL     1      -7.763  11.134  66.546  1.00  0.00    -0.146 C  
HETATM    7  N   UNL     1      -8.206   7.445  65.724  1.00  0.00    -0.128 N  
HETATM    8  C   UNL     1      -7.675   9.299  64.188  1.00  0.00    -0.120 C  
HETATM    9  C   UNL     1      -7.760   6.493  66.607  1.00  0.00    -0.099 C  
HETATM   10  OXT UNL     1      -7.244  10.376  63.804  1.00  0.00    -0.098 OA 
HETATM   11  O   UNL     1      -8.334   8.461  63.345  1.00  0.00    -0.153 OA 
HETATM   12  CA  UNL     1      -9.144   6.346  67.280  1.00  0.00    -0.117 C  
HETATM   13  O   UNL     1      -6.634   6.108  66.828  1.00  0.00    -0.054 OA 
ENDROOT
BRANCH  12  14
HETATM   14  N   UNL     1      -9.188   6.519  68.768  1.00  0.00    -0.132 N  
HETATM   15  C   UNL     1     -10.386   6.380  69.437  1.00  0.00    -0.209 C  
HETATM   16  H   UNL     1      -8.337   6.738  69.283  1.00  0.00     0.000 HD 
HETATM   17  O   UNL     1     -11.389   6.097  68.791  1.00  0.00    -0.344 OA 
BRANCH  15  18
HETATM   18  C   UNL     1     -10.441   6.569  70.932  1.00  0.00    -0.263 A  
HETATM   19  C   UNL     1      -9.676   5.777  71.833  1.00  0.00    -0.159 A  
HETATM   20  C   UNL     1      -9.678   6.073  73.211  1.00  0.00    -0.157 A  
HETATM   21  C   UNL     1     -11.186   7.651  71.465  1.00  0.00    -0.246 A  
HETATM   22  C   UNL     1     -10.380   7.169  73.705  1.00  0.00    -0.411 A  
HETATM   23  C   UNL     1     -11.123   7.952  72.834  1.00  0.00    -0.442 A  
BRANCH  19  24
HETATM   24  O   UNL     1      -8.935   4.722  71.341  1.00  0.00    -0.128 OA 
HETATM   25  C   UNL     1      -9.641   3.482  71.201  1.00  0.00    -0.170 C  
ENDBRANCH  19  24
BRANCH  21  26
HETATM   26  O   UNL     1     -11.917   8.584  70.772  1.00  0.00    -0.236 OA 
HETATM   27  C   UNL     1     -12.973   9.229  71.481  1.00  0.00    -0.359 C  
ENDBRANCH  21  26
ENDBRANCH  15  18
ENDBRANCH  12  14
TORSDOF 4
ENDMDL
MODEL      131
REMARK 921   NORMALIZED FREE ENERGY PREDICTED BY IDOCK:   -3.76 KCAL/MOL
REMARK 922        TOTAL FREE ENERGY PREDICTED BY IDOCK:   -5.57 KCAL/MOL
REMARK 923 INTER-LIGAND FREE ENERGY PREDICTED BY IDOCK:   -4.60 KCAL/MOL
REMARK 924 INTRA-LIGAND FREE ENERGY PREDICTED BY IDOCK:   -0.97 KCAL/MOL
REMARK 927      BINDING AFFINITY PREDICTED BY RF-SCORE:    0.00 PKD
ROOT
HETATM    1  C   UNL     1     -10.208   5.653  66.790  1.00  0.00    -0.230 C  
HETATM    2  S   UNL     1      -8.932   6.970  66.734  1.00  0.00    -0.137 SA 
HETATM    3  C   UNL     1      -7.538   5.833  66.388  1.00  0.00    -0.091 C  
HETATM    4  CA  UNL     1      -8.186   4.610  65.699  1.00  0.00    -0.115 C  
HETATM    5  C   UNL     1      -6.893   5.459  67.736  1.00  0.00    -0.060 C  
HETATM    6  C   UNL     1      -6.488   6.602  65.580  1.00  0.00    -0.050 C  
HETATM    7  N   UNL     1      -9.528   4.428  66.302  1.00  0.00    -0.159 N  
HETATM    8  C   UNL     1      -8.322   4.708  64.169  1.00  0.00    -0.120 C  
HETATM    9  C   UNL     1      -9.633   3.786  67.510  1.00  0.00    -0.155 C  
HETATM   10  OXT UNL     1      -7.399   4.934  63.400  1.00  0.00    -0.048 OA 
HETATM   11  O   UNL     1      -9.569   4.426  63.711  1.00  0.00    -0.131 OA 
HETATM   12  CA  UNL     1     -10.491   4.913  68.131  1.00  0.00     0.124 C  
HETATM   13  O   UNL     1      -9.071   2.792  67.912  1.00  0.00    -0.144 OA 
ENDROOT
BRANCH  12  14
HETATM   14  N   UNL     1      -9.998   5.499  69.419  1.00  0.00    -0.189 N  
HETATM   15  C   UNL     1     -10.815   6.340  70.145  1.00  0.00    -0.313 C  
HETATM   16  H   UNL     1      -9.062   5.277  69.758  1.00  0.00     0.000 HD 
HETATM   17  O   UNL     1     -11.942   6.572  69.721  1.00  0.00    -0.277 OA 
BRANCH  15  18
HETATM   18  C   UNL     1     -10.320   6.946  71.434  1.00  0.00    -0.219 A  
HETATM   19  C   UNL     1     -10.707   6.452  72.711  1.00  0.00    -0.239 A  
HETATM   20  C   UNL     1     -10.123   6.981  73.880  1.00  0.00    -0.386 A  
HETATM   21  C   UNL     1      -9.339   7.968  71.385  1.00  0.00    -0.144 A  
HETATM   22  C   UNL     1      -9.128   7.952  73.804  1.00  0.00    -0.306 A  
HETATM   23  C   UNL     1      -8.738   8.434  72.565  1.00  0.00    -0.277 A  
BRANCH  19  24
HETATM   24  O   UNL     1     -11.654   5.451  72.789  1.00  0.00    -0.307 OA 
HETATM   25  C   UNL     1     -11.209   4.222  73.375  1.00  0.00    -0.268 C  
ENDBRANCH  19  24
BRANCH  21  26
HETATM   26  O   UNL     1      -8.765   8.522  70.268  1.00  0.00    -0.132 OA 
HETATM   27  C   UNL     1      -9.305   9.762  69.816  1.00  0.00    -0.226 C  
ENDBRANCH  21  26
ENDBRANCH  15  18
ENDBRANCH  12  14
TORSDOF 4
ENDMDL
MODEL      132
REMARK 921   NORMALIZED FREE ENERGY PREDICTED BY IDOCK:   -3.76 KCAL/MOL
REMARK 922        TOTAL FREE ENERGY PREDICTED BY IDOCK:   -5.57 KCAL/MOL
REMARK 923 INTER-LIGAND FREE ENERGY PREDICTED BY IDOCK:   -4.68 KCAL/MOL
REMARK 924 INTRA-LIGAND FREE ENERGY PREDICTED BY IDOCK:   -0.89 KCAL/MOL
REMARK 927      BINDING AFFINITY PREDICTED BY RF-SCORE:    0.00 PKD
ROOT
HETATM    1  C   UNL     1      -7.416   8.150  67.695  1.00  0.00    -0.094 C  
HETATM    2  S   UNL     1      -8.795   7.542  68.741  1.00  0.00    -0.129 SA 
HETATM    3  C   UNL     1      -9.560   6.520  67.427  1.00  0.00    -0.125 C  
HETATM    4  CA  UNL     1      -8.399   6.179  66.466  1.00  0.00    -0.113 C  
HETATM    5  C   UNL     1     -10.642   7.374  66.740  1.00  0.00    -0.281 C  
HETATM    6  C   UNL     1     -10.270   5.340  68.096  1.00  0.00    -0.204 C  
HETATM    7  N   UNL     1      -7.484   7.344  66.451  1.00  0.00    -0.082 N  
HETATM    8  C   UNL     1      -7.603   4.909  66.815  1.00  0.00    -0.088 C  
HETATM    9  C   UNL     1      -7.796   8.426  65.667  1.00  0.00    -0.106 C  
HETATM   10  OXT UNL     1      -8.093   3.800  66.975  1.00  0.00    -0.094 OA 
HETATM   11  O   UNL     1      -6.258   5.096  66.846  1.00  0.00    -0.030 OA 
HETATM   12  CA  UNL     1      -7.615   9.429  66.829  1.00  0.00    -0.097 C  
HETATM   13  O   UNL     1      -8.226   8.466  64.536  1.00  0.00    -0.158 OA 
ENDROOT
BRANCH  12  14
HETATM   14  N   UNL     1      -8.768  10.345  67.112  1.00  0.00    -0.130 N  
HETATM   15  C   UNL     1      -8.594  11.425  67.952  1.00  0.00    -0.140 C  
HETATM   16  H   UNL     1      -9.677  10.169  66.686  1.00  0.00     0.000 HD 
HETATM   17  O   UNL     1      -7.483  11.619  68.434  1.00  0.00    -0.093 OA 
BRANCH  15  18
HETATM   18  C   UNL     1      -9.753  12.340  68.254  1.00  0.00    -0.219 A  
HETATM   19  C   UNL     1      -9.918  13.602  67.618  1.00  0.00    -0.239 A  
HETATM   20  C   UNL     1     -11.081  14.365  67.852  1.00  0.00    -0.288 A  
HETATM   21  C   UNL     1     -10.787  11.886  69.111  1.00  0.00    -0.147 A  
HETATM   22  C   UNL     1     -12.103  13.877  68.660  1.00  0.00    -0.337 A  
HETATM   23  C   UNL     1     -11.956  12.645  69.278  1.00  0.00    -0.301 A  
BRANCH  19  24
HETATM   24  O   UNL     1      -8.930  14.066  66.772  1.00  0.00    -0.240 OA 
HETATM   25  C   UNL     1      -9.175  15.348  66.181  1.00  0.00    -0.327 C  
ENDBRANCH  19  24
BRANCH  21  26
HETATM   26  O   UNL     1     -10.871  10.675  69.750  1.00  0.00    -0.259 OA 
HETATM   27  C   UNL     1     -11.837  10.564  70.793  1.00  0.00    -0.365 C  
ENDBRANCH  21  26
ENDBRANCH  15  18
ENDBRANCH  12  14
TORSDOF 4
ENDMDL
MODEL      133
REMARK 921   NORMALIZED FREE ENERGY PREDICTED BY IDOCK:   -3.76 KCAL/MOL
REMARK 922        TOTAL FREE ENERGY PREDICTED BY IDOCK:   -5.56 KCAL/MOL
REMARK 923 INTER-LIGAND FREE ENERGY PREDICTED BY IDOCK:   -4.82 KCAL/MOL
REMARK 924 INTRA-LIGAND FREE ENERGY PREDICTED BY IDOCK:   -0.74 KCAL/MOL
REMARK 927      BINDING AFFINITY PREDICTED BY RF-SCORE:    0.00 PKD
ROOT
HETATM    1  C   UNL     1     -10.572   8.581  72.133  1.00  0.00    -0.349 C  
HETATM    2  S   UNL     1      -9.271   8.969  70.899  1.00  0.00    -0.266 SA 
HETATM    3  C   UNL     1     -10.435   9.223  69.508  1.00  0.00    -0.220 C  
HETATM    4  CA  UNL     1     -11.767   9.633  70.176  1.00  0.00    -0.089 C  
HETATM    5  C   UNL     1     -10.559   7.887  68.751  1.00  0.00    -0.154 C  
HETATM    6  C   UNL     1      -9.809  10.234  68.543  1.00  0.00    -0.174 C  
HETATM    7  N   UNL     1     -11.856   8.902  71.461  1.00  0.00    -0.309 N  
HETATM    8  C   UNL     1     -11.942  11.140  70.432  1.00  0.00    -0.378 C  
HETATM    9  C   UNL     1     -12.277   7.595  71.457  1.00  0.00    -0.324 C  
HETATM   10  OXT UNL     1     -11.845  12.009  69.578  1.00  0.00    -0.304 OA 
HETATM   11  O   UNL     1     -12.314  11.440  71.704  1.00  0.00    -0.165 OA 
HETATM   12  CA  UNL     1     -11.068   7.114  72.292  1.00  0.00    -0.254 C  
HETATM   13  O   UNL     1     -13.178   7.073  70.840  1.00  0.00    -0.202 OA 
ENDROOT
BRANCH  12  14
HETATM   14  N   UNL     1     -10.259   5.991  71.715  1.00  0.00    -0.198 N  
HETATM   15  C   UNL     1     -10.508   4.694  72.113  1.00  0.00    -0.148 C  
HETATM   16  H   UNL     1      -9.527   6.185  71.033  1.00  0.00     0.000 HD 
HETATM   17  O   UNL     1     -11.408   4.491  72.921  1.00  0.00    -0.163 OA 
BRANCH  15  18
HETATM   18  C   UNL     1      -9.688   3.562  71.550  1.00  0.00    -0.237 A  
HETATM   19  C   UNL     1      -9.294   3.507  70.184  1.00  0.00    -0.174 A  
HETATM   20  C   UNL     1      -8.430   2.486  69.738  1.00  0.00    -0.088 A  
HETATM   21  C   UNL     1      -9.182   2.571  72.429  1.00  0.00    -0.085 A  
HETATM   22  C   UNL     1      -7.909   1.552  70.629  1.00  0.00    -0.037 A  
HETATM   23  C   UNL     1      -8.280   1.601  71.963  1.00  0.00    -0.045 A  
BRANCH  19  24
HETATM   24  O   UNL     1      -9.764   4.463  69.307  1.00  0.00    -0.181 OA 
HETATM   25  C   UNL     1      -8.789   5.021  68.419  1.00  0.00    -0.102 C  
ENDBRANCH  19  24
BRANCH  21  26
HETATM   26  O   UNL     1      -9.363   2.487  73.787  1.00  0.00    -0.080 OA 
HETATM   27  C   UNL     1     -10.258   1.481  74.254  1.00  0.00    -0.096 C  
ENDBRANCH  21  26
ENDBRANCH  15  18
ENDBRANCH  12  14
TORSDOF 4
ENDMDL
MODEL      134
REMARK 921   NORMALIZED FREE ENERGY PREDICTED BY IDOCK:   -3.75 KCAL/MOL
REMARK 922        TOTAL FREE ENERGY PREDICTED BY IDOCK:   -5.55 KCAL/MOL
REMARK 923 INTER-LIGAND FREE ENERGY PREDICTED BY IDOCK:   -4.60 KCAL/MOL
REMARK 924 INTRA-LIGAND FREE ENERGY PREDICTED BY IDOCK:   -0.96 KCAL/MOL
REMARK 927      BINDING AFFINITY PREDICTED BY RF-SCORE:    0.00 PKD
ROOT
HETATM    1  C   UNL     1      -8.360  11.588  66.452  1.00  0.00    -0.118 C  
HETATM    2  S   UNL     1      -9.987  11.802  65.632  1.00  0.00    -0.246 SA 
HETATM    3  C   UNL     1     -10.914  12.106  67.182  1.00  0.00    -0.268 C  
HETATM    4  CA  UNL     1      -9.863  12.665  68.169  1.00  0.00    -0.226 C  
HETATM    5  C   UNL     1     -11.487  10.757  67.657  1.00  0.00    -0.234 C  
HETATM    6  C   UNL     1     -12.103  13.014  66.855  1.00  0.00    -0.349 C  
HETATM    7  N   UNL     1      -8.576  11.999  67.862  1.00  0.00    -0.157 N  
HETATM    8  C   UNL     1      -9.670  14.191  68.133  1.00  0.00    -0.225 C  
HETATM    9  C   UNL     1      -8.345  10.738  68.352  1.00  0.00    -0.132 C  
HETATM   10  OXT UNL     1     -10.565  15.012  68.273  1.00  0.00    -0.239 OA 
HETATM   11  O   UNL     1      -8.372  14.576  68.021  1.00  0.00    -0.138 OA 
HETATM   12  CA  UNL     1      -7.939  10.181  66.969  1.00  0.00    -0.110 C  
HETATM   13  O   UNL     1      -8.580  10.277  69.447  1.00  0.00    -0.158 OA 
ENDROOT
BRANCH  12  14
HETATM   14  N   UNL     1      -8.675   8.965  66.492  1.00  0.00    -0.126 N  
HETATM   15  C   UNL     1      -8.176   7.710  66.771  1.00  0.00    -0.124 C  
HETATM   16  H   UNL     1      -9.541   9.066  65.965  1.00  0.00     0.000 HD 
HETATM   17  O   UNL     1      -7.141   7.623  67.424  1.00  0.00    -0.081 OA 
BRANCH  15  18
HETATM   18  C   UNL     1      -8.902   6.483  66.281  1.00  0.00    -0.154 A  
HETATM   19  C   UNL     1     -10.233   6.173  66.675  1.00  0.00    -0.178 A  
HETATM   20  C   UNL     1     -10.905   5.076  66.096  1.00  0.00    -0.160 A  
HETATM   21  C   UNL     1      -8.292   5.666  65.296  1.00  0.00    -0.146 A  
HETATM   22  C   UNL     1     -10.302   4.317  65.098  1.00  0.00    -0.215 A  
HETATM   23  C   UNL     1      -9.008   4.616  64.701  1.00  0.00    -0.151 A  
BRANCH  19  24
HETATM   24  O   UNL     1     -10.855   6.957  67.626  1.00  0.00    -0.250 OA 
HETATM   25  C   UNL     1     -10.838   6.439  68.962  1.00  0.00    -0.327 C  
ENDBRANCH  19  24
BRANCH  21  26
HETATM   26  O   UNL     1      -7.060   5.836  64.715  1.00  0.00    -0.057 OA 
HETATM   27  C   UNL     1      -6.378   4.656  64.297  1.00  0.00    -0.033 C  
ENDBRANCH  21  26
ENDBRANCH  15  18
ENDBRANCH  12  14
TORSDOF 4
ENDMDL
MODEL      135
REMARK 921   NORMALIZED FREE ENERGY PREDICTED BY IDOCK:   -3.75 KCAL/MOL
REMARK 922        TOTAL FREE ENERGY PREDICTED BY IDOCK:   -5.55 KCAL/MOL
REMARK 923 INTER-LIGAND FREE ENERGY PREDICTED BY IDOCK:   -4.60 KCAL/MOL
REMARK 924 INTRA-LIGAND FREE ENERGY PREDICTED BY IDOCK:   -0.95 KCAL/MOL
REMARK 927      BINDING AFFINITY PREDICTED BY RF-SCORE:    0.00 PKD
ROOT
HETATM    1  C   UNL     1     -11.144  11.206  67.052  1.00  0.00    -0.273 C  
HETATM    2  S   UNL     1     -10.173  11.976  68.404  1.00  0.00    -0.203 SA 
HETATM    3  C   UNL     1      -9.318  13.184  67.325  1.00  0.00    -0.225 C  
HETATM    4  CA  UNL     1     -10.267  13.380  66.120  1.00  0.00    -0.301 C  
HETATM    5  C   UNL     1      -7.973  12.563  66.901  1.00  0.00    -0.013 C  
HETATM    6  C   UNL     1      -9.000  14.427  68.161  1.00  0.00    -0.185 C  
HETATM    7  N   UNL     1     -10.934  12.080  65.872  1.00  0.00    -0.288 N  
HETATM    8  C   UNL     1     -11.333  14.477  66.290  1.00  0.00    -0.352 C  
HETATM    9  C   UNL     1     -10.264  11.111  65.168  1.00  0.00    -0.289 C  
HETATM   10  OXT UNL     1     -11.096  15.641  66.579  1.00  0.00    -0.263 OA 
HETATM   11  O   UNL     1     -12.594  14.065  65.998  1.00  0.00    -0.481 OA 
HETATM   12  CA  UNL     1     -10.529  10.028  66.239  1.00  0.00    -0.102 C  
HETATM   13  O   UNL     1      -9.584  11.207  64.171  1.00  0.00    -0.236 OA 
ENDROOT
BRANCH  12  14
HETATM   14  N   UNL     1      -9.330   9.305  66.773  1.00  0.00    -0.148 N  
HETATM   15  C   UNL     1      -9.498   8.143  67.498  1.00  0.00    -0.152 C  
HETATM   16  H   UNL     1      -8.394   9.669  66.602  1.00  0.00     0.000 HD 
HETATM   17  O   UNL     1     -10.637   7.721  67.671  1.00  0.00    -0.239 OA 
BRANCH  15  18
HETATM   18  C   UNL     1      -8.298   7.419  68.052  1.00  0.00    -0.124 A  
HETATM   19  C   UNL     1      -8.013   6.060  67.743  1.00  0.00    -0.105 A  
HETATM   20  C   UNL     1      -6.816   5.468  68.195  1.00  0.00    -0.060 A  
HETATM   21  C   UNL     1      -7.345   8.142  68.814  1.00  0.00    -0.088 A  
HETATM   22  C   UNL     1      -5.875   6.211  68.901  1.00  0.00    -0.020 A  
HETATM   23  C   UNL     1      -6.139   7.539  69.201  1.00  0.00    -0.034 A  
BRANCH  19  24
HETATM   24  O   UNL     1      -8.919   5.334  66.997  1.00  0.00    -0.113 OA 
HETATM   25  C   UNL     1      -8.512   5.027  65.657  1.00  0.00    -0.127 C  
ENDBRANCH  19  24
BRANCH  21  26
HETATM   26  O   UNL     1      -7.379   9.473  69.148  1.00  0.00    -0.068 OA 
HETATM   27  C   UNL     1      -7.358   9.787  70.539  1.00  0.00    -0.112 C  
ENDBRANCH  21  26
ENDBRANCH  15  18
ENDBRANCH  12  14
TORSDOF 4
ENDMDL
MODEL      136
REMARK 921   NORMALIZED FREE ENERGY PREDICTED BY IDOCK:   -3.74 KCAL/MOL
REMARK 922        TOTAL FREE ENERGY PREDICTED BY IDOCK:   -5.55 KCAL/MOL
REMARK 923 INTER-LIGAND FREE ENERGY PREDICTED BY IDOCK:   -4.56 KCAL/MOL
REMARK 924 INTRA-LIGAND FREE ENERGY PREDICTED BY IDOCK:   -0.99 KCAL/MOL
REMARK 927      BINDING AFFINITY PREDICTED BY RF-SCORE:    0.00 PKD
ROOT
HETATM    1  C   UNL     1     -10.820  10.091  68.795  1.00  0.00    -0.219 C  
HETATM    2  S   UNL     1      -9.252  11.023  68.986  1.00  0.00     0.007 SA 
HETATM    3  C   UNL     1      -8.541  10.478  67.389  1.00  0.00    -0.122 C  
HETATM    4  CA  UNL     1      -9.765  10.145  66.505  1.00  0.00    -0.200 C  
HETATM    5  C   UNL     1      -7.674   9.235  67.662  1.00  0.00    -0.092 C  
HETATM    6  C   UNL     1      -7.607  11.581  66.884  1.00  0.00    -0.151 C  
HETATM    7  N   UNL     1     -10.814   9.597  67.396  1.00  0.00    -0.240 N  
HETATM    8  C   UNL     1     -10.342  11.325  65.702  1.00  0.00    -0.256 C  
HETATM    9  C   UNL     1     -10.745   8.279  67.774  1.00  0.00    -0.095 C  
HETATM   10  OXT UNL     1      -9.699  12.029  64.937  1.00  0.00    -0.211 OA 
HETATM   11  O   UNL     1     -11.684  11.477  65.842  1.00  0.00    -0.276 OA 
HETATM   12  CA  UNL     1     -10.900   8.612  69.275  1.00  0.00    -0.065 C  
HETATM   13  O   UNL     1     -10.474   7.298  67.118  1.00  0.00    -0.260 OA 
ENDROOT
BRANCH  12  14
HETATM   14  N   UNL     1      -9.845   8.073  70.194  1.00  0.00    -0.184 N  
HETATM   15  C   UNL     1      -9.980   8.230  71.558  1.00  0.00    -0.199 C  
HETATM   16  H   UNL     1      -9.030   7.593  69.813  1.00  0.00     0.000 HD 
HETATM   17  O   UNL     1     -10.981   8.795  71.986  1.00  0.00    -0.339 OA 
BRANCH  15  18
HETATM   18  C   UNL     1      -8.916   7.705  72.487  1.00  0.00    -0.191 A  
HETATM   19  C   UNL     1      -7.609   8.265  72.548  1.00  0.00    -0.115 A  
HETATM   20  C   UNL     1      -6.691   7.811  73.517  1.00  0.00    -0.098 A  
HETATM   21  C   UNL     1      -9.252   6.695  73.424  1.00  0.00    -0.131 A  
HETATM   22  C   UNL     1      -7.059   6.852  74.456  1.00  0.00    -0.099 A  
HETATM   23  C   UNL     1      -8.332   6.305  74.409  1.00  0.00    -0.128 A  
BRANCH  19  24
HETATM   24  O   UNL     1      -7.257   9.255  71.654  1.00  0.00    -0.321 OA 
HETATM   25  C   UNL     1      -5.946   9.138  71.087  1.00  0.00    -0.063 C  
ENDBRANCH  19  24
BRANCH  21  26
HETATM   26  O   UNL     1     -10.470   6.087  73.595  1.00  0.00    -0.233 OA 
HETATM   27  C   UNL     1     -10.456   4.743  74.072  1.00  0.00    -0.276 C  
ENDBRANCH  21  26
ENDBRANCH  15  18
ENDBRANCH  12  14
TORSDOF 4
ENDMDL
MODEL      137
REMARK 921   NORMALIZED FREE ENERGY PREDICTED BY IDOCK:   -3.74 KCAL/MOL
REMARK 922        TOTAL FREE ENERGY PREDICTED BY IDOCK:   -5.54 KCAL/MOL
REMARK 923 INTER-LIGAND FREE ENERGY PREDICTED BY IDOCK:   -4.88 KCAL/MOL
REMARK 924 INTRA-LIGAND FREE ENERGY PREDICTED BY IDOCK:   -0.66 KCAL/MOL
REMARK 927      BINDING AFFINITY PREDICTED BY RF-SCORE:    0.00 PKD
ROOT
HETATM    1  C   UNL     1      -7.669  10.264  66.328  1.00  0.00    -0.116 C  
HETATM    2  S   UNL     1      -7.412   8.789  67.388  1.00  0.00    -0.089 SA 
HETATM    3  C   UNL     1      -7.896   7.578  66.102  1.00  0.00    -0.096 C  
HETATM    4  CA  UNL     1      -7.611   8.289  64.760  1.00  0.00    -0.103 C  
HETATM    5  C   UNL     1      -9.396   7.275  66.285  1.00  0.00    -0.160 C  
HETATM    6  C   UNL     1      -7.135   6.275  66.367  1.00  0.00    -0.068 C  
HETATM    7  N   UNL     1      -7.887   9.731  64.961  1.00  0.00    -0.122 N  
HETATM    8  C   UNL     1      -6.184   8.114  64.209  1.00  0.00    -0.065 C  
HETATM    9  C   UNL     1      -9.185  10.174  64.904  1.00  0.00    -0.232 C  
HETATM   10  OXT UNL     1      -5.640   7.037  64.011  1.00  0.00    -0.031 OA 
HETATM   11  O   UNL     1      -5.584   9.282  63.862  1.00  0.00    -0.068 OA 
HETATM   12  CA  UNL     1      -9.079  10.921  66.253  1.00  0.00    -0.176 C  
HETATM   13  O   UNL     1     -10.071   9.882  64.133  1.00  0.00     0.048 OA 
ENDROOT
BRANCH  12  14
HETATM   14  N   UNL     1     -10.110  10.585  67.289  1.00  0.00    -0.192 N  
HETATM   15  C   UNL     1      -9.908  10.959  68.601  1.00  0.00    -0.190 C  
HETATM   16  H   UNL     1     -10.956  10.082  67.024  1.00  0.00     0.000 HD 
HETATM   17  O   UNL     1      -8.888  11.579  68.884  1.00  0.00    -0.093 OA 
BRANCH  15  18
HETATM   18  C   UNL     1     -10.932  10.610  69.651  1.00  0.00    -0.331 A  
HETATM   19  C   UNL     1     -11.866  11.558  70.154  1.00  0.00    -0.356 A  
HETATM   20  C   UNL     1     -12.876  11.148  71.049  1.00  0.00    -0.424 A  
HETATM   21  C   UNL     1     -11.059   9.262  70.072  1.00  0.00    -0.205 A  
HETATM   22  C   UNL     1     -13.009   9.811  71.411  1.00  0.00    -0.490 A  
HETATM   23  C   UNL     1     -12.108   8.878  70.920  1.00  0.00    -0.218 A  
BRANCH  19  24
HETATM   24  O   UNL     1     -11.772  12.876  69.755  1.00  0.00    -0.307 OA 
HETATM   25  C   UNL     1     -12.079  13.849  70.760  1.00  0.00    -0.330 C  
ENDBRANCH  19  24
BRANCH  21  26
HETATM   26  O   UNL     1     -10.325   8.182  69.648  1.00  0.00    -0.212 OA 
HETATM   27  C   UNL     1     -10.860   6.891  69.932  1.00  0.00    -0.257 C  
ENDBRANCH  21  26
ENDBRANCH  15  18
ENDBRANCH  12  14
TORSDOF 4
ENDMDL
MODEL      138
REMARK 921   NORMALIZED FREE ENERGY PREDICTED BY IDOCK:   -3.72 KCAL/MOL
REMARK 922        TOTAL FREE ENERGY PREDICTED BY IDOCK:   -5.51 KCAL/MOL
REMARK 923 INTER-LIGAND FREE ENERGY PREDICTED BY IDOCK:   -4.62 KCAL/MOL
REMARK 924 INTRA-LIGAND FREE ENERGY PREDICTED BY IDOCK:   -0.89 KCAL/MOL
REMARK 927      BINDING AFFINITY PREDICTED BY RF-SCORE:    0.00 PKD
ROOT
HETATM    1  C   UNL     1      -8.224   8.796  66.663  1.00  0.00    -0.107 C  
HETATM    2  S   UNL     1      -8.524   8.948  64.859  1.00  0.00    -0.168 SA 
HETATM    3  C   UNL     1      -6.752   8.935  64.396  1.00  0.00    -0.078 C  
HETATM    4  CA  UNL     1      -6.048   8.177  65.545  1.00  0.00    -0.045 C  
HETATM    5  C   UNL     1      -6.282  10.398  64.301  1.00  0.00    -0.063 C  
HETATM    6  C   UNL     1      -6.632   8.327  62.996  1.00  0.00    -0.086 C  
HETATM    7  N   UNL     1      -6.775   8.503  66.795  1.00  0.00    -0.061 N  
HETATM    8  C   UNL     1      -5.974   6.649  65.381  1.00  0.00    -0.034 C  
HETATM    9  C   UNL     1      -6.507   9.689  67.431  1.00  0.00    -0.069 C  
HETATM   10  OXT UNL     1      -5.500   6.074  64.412  1.00  0.00    -0.017 OA 
HETATM   11  O   UNL     1      -6.406   5.960  66.469  1.00  0.00    -0.036 OA 
HETATM   12  CA  UNL     1      -8.001  10.080  67.516  1.00  0.00    -0.106 C  
HETATM   13  O   UNL     1      -5.447  10.234  67.641  1.00  0.00    -0.044 OA 
ENDROOT
BRANCH  12  14
HETATM   14  N   UNL     1      -8.377  11.418  66.955  1.00  0.00    -0.154 N  
HETATM   15  C   UNL     1      -9.695  11.823  66.976  1.00  0.00    -0.185 C  
HETATM   16  H   UNL     1      -7.661  12.026  66.559  1.00  0.00     0.000 HD 
HETATM   17  O   UNL     1     -10.530  11.075  67.476  1.00  0.00    -0.190 OA 
BRANCH  15  18
HETATM   18  C   UNL     1     -10.083  13.160  66.399  1.00  0.00    -0.281 A  
HETATM   19  C   UNL     1      -9.755  14.391  67.031  1.00  0.00    -0.254 A  
HETATM   20  C   UNL     1     -10.040  15.614  66.389  1.00  0.00    -0.301 A  
HETATM   21  C   UNL     1     -10.692  13.210  65.119  1.00  0.00    -0.315 A  
HETATM   22  C   UNL     1     -10.596  15.637  65.112  1.00  0.00    -0.449 A  
HETATM   23  C   UNL     1     -10.913  14.442  64.484  1.00  0.00    -0.290 A  
BRANCH  19  24
HETATM   24  O   UNL     1      -9.154  14.373  68.273  1.00  0.00    -0.180 OA 
HETATM   25  C   UNL     1      -9.735  15.241  69.254  1.00  0.00    -0.254 C  
ENDBRANCH  19  24
BRANCH  21  26
HETATM   26  O   UNL     1     -11.010  12.153  64.303  1.00  0.00    -0.296 OA 
HETATM   27  C   UNL     1     -12.265  12.217  63.630  1.00  0.00    -0.562 C  
ENDBRANCH  21  26
ENDBRANCH  15  18
ENDBRANCH  12  14
TORSDOF 4
ENDMDL
MODEL      139
REMARK 921   NORMALIZED FREE ENERGY PREDICTED BY IDOCK:   -3.72 KCAL/MOL
REMARK 922        TOTAL FREE ENERGY PREDICTED BY IDOCK:   -5.51 KCAL/MOL
REMARK 923 INTER-LIGAND FREE ENERGY PREDICTED BY IDOCK:   -4.64 KCAL/MOL
REMARK 924 INTRA-LIGAND FREE ENERGY PREDICTED BY IDOCK:   -0.87 KCAL/MOL
REMARK 927      BINDING AFFINITY PREDICTED BY RF-SCORE:    0.00 PKD
ROOT
HETATM    1  C   UNL     1      -9.580  12.405  68.286  1.00  0.00    -0.211 C  
HETATM    2  S   UNL     1      -8.954  12.181  66.576  1.00  0.00    -0.137 SA 
HETATM    3  C   UNL     1     -10.551  12.565  65.766  1.00  0.00    -0.270 C  
HETATM    4  CA  UNL     1     -11.302  13.462  66.776  1.00  0.00    -0.325 C  
HETATM    5  C   UNL     1     -11.285  11.233  65.522  1.00  0.00    -0.069 C  
HETATM    6  C   UNL     1     -10.252  13.176  64.393  1.00  0.00    -0.319 C  
HETATM    7  N   UNL     1     -10.932  12.998  68.134  1.00  0.00    -0.234 N  
HETATM    8  C   UNL     1     -11.023  14.970  66.657  1.00  0.00    -0.325 C  
HETATM    9  C   UNL     1     -11.565  11.900  68.658  1.00  0.00    -0.310 C  
HETATM   10  OXT UNL     1     -11.157  15.626  65.634  1.00  0.00    -0.288 OA 
HETATM   11  O   UNL     1     -10.690  15.560  67.835  1.00  0.00    -0.276 OA 
HETATM   12  CA  UNL     1     -10.236  11.203  69.028  1.00  0.00    -0.176 C  
HETATM   13  O   UNL     1     -12.736  11.592  68.629  1.00  0.00     0.066 OA 
ENDROOT
BRANCH  12  14
HETATM   14  N   UNL     1     -10.039   9.812  68.506  1.00  0.00    -0.160 N  
HETATM   15  C   UNL     1      -9.069   9.003  69.060  1.00  0.00    -0.143 C  
HETATM   16  H   UNL     1     -10.620   9.465  67.743  1.00  0.00     0.000 HD 
HETATM   17  O   UNL     1      -8.399   9.444  69.989  1.00  0.00    -0.140 OA 
BRANCH  15  18
HETATM   18  C   UNL     1      -8.854   7.609  68.528  1.00  0.00    -0.130 A  
HETATM   19  C   UNL     1      -8.765   6.471  69.377  1.00  0.00    -0.134 A  
HETATM   20  C   UNL     1      -8.681   5.178  68.820  1.00  0.00    -0.092 A  
HETATM   21  C   UNL     1      -8.861   7.395  67.127  1.00  0.00    -0.125 A  
HETATM   22  C   UNL     1      -8.736   4.991  67.442  1.00  0.00    -0.103 A  
HETATM   23  C   UNL     1      -8.831   6.092  66.606  1.00  0.00    -0.127 A  
BRANCH  19  24
HETATM   24  O   UNL     1      -8.765   6.649  70.746  1.00  0.00    -0.141 OA 
HETATM   25  C   UNL     1      -9.789   5.947  71.461  1.00  0.00    -0.166 C  
ENDBRANCH  19  24
BRANCH  21  26
HETATM   26  O   UNL     1      -9.024   8.334  66.139  1.00  0.00    -0.162 OA 
HETATM   27  C   UNL     1      -8.039   8.360  65.109  1.00  0.00    -0.147 C  
ENDBRANCH  21  26
ENDBRANCH  15  18
ENDBRANCH  12  14
TORSDOF 4
ENDMDL
MODEL      140
REMARK 921   NORMALIZED FREE ENERGY PREDICTED BY IDOCK:   -3.71 KCAL/MOL
REMARK 922        TOTAL FREE ENERGY PREDICTED BY IDOCK:   -5.50 KCAL/MOL
REMARK 923 INTER-LIGAND FREE ENERGY PREDICTED BY IDOCK:   -4.55 KCAL/MOL
REMARK 924 INTRA-LIGAND FREE ENERGY PREDICTED BY IDOCK:   -0.96 KCAL/MOL
REMARK 927      BINDING AFFINITY PREDICTED BY RF-SCORE:    0.00 PKD
ROOT
HETATM    1  C   UNL     1     -10.551  10.511  67.319  1.00  0.00    -0.264 C  
HETATM    2  S   UNL     1      -9.087  10.527  68.424  1.00  0.00    -0.154 SA 
HETATM    3  C   UNL     1      -8.145  11.744  67.431  1.00  0.00    -0.161 C  
HETATM    4  CA  UNL     1      -9.222  12.556  66.674  1.00  0.00    -0.223 C  
HETATM    5  C   UNL     1      -7.235  10.959  66.468  1.00  0.00    -0.142 C  
HETATM    6  C   UNL     1      -7.233  12.527  68.380  1.00  0.00    -0.111 C  
HETATM    7  N   UNL     1     -10.334  11.627  66.365  1.00  0.00    -0.223 N  
HETATM    8  C   UNL     1      -9.773  13.782  67.423  1.00  0.00    -0.235 C  
HETATM    9  C   UNL     1     -10.223  10.791  65.282  1.00  0.00    -0.285 C  
HETATM   10  OXT UNL     1      -9.089  14.688  67.877  1.00  0.00    -0.180 OA 
HETATM   11  O   UNL     1     -11.130  13.832  67.466  1.00  0.00    -0.267 OA 
HETATM   12  CA  UNL     1     -10.587   9.535  66.106  1.00  0.00     0.148 C  
HETATM   13  O   UNL     1      -9.803  11.016  64.169  1.00  0.00    -0.254 OA 
ENDROOT
BRANCH  12  14
HETATM   14  N   UNL     1      -9.622   8.389  66.046  1.00  0.00    -0.429 N  
HETATM   15  C   UNL     1      -9.962   7.178  66.610  1.00  0.00    -0.164 C  
HETATM   16  H   UNL     1      -8.717   8.506  65.591  1.00  0.00     0.000 HD 
HETATM   17  O   UNL     1     -11.065   7.065  67.135  1.00  0.00    -0.350 OA 
BRANCH  15  18
HETATM   18  C   UNL     1      -8.990   6.027  66.569  1.00  0.00    -0.137 A  
HETATM   19  C   UNL     1      -9.301   4.783  65.951  1.00  0.00    -0.159 A  
HETATM   20  C   UNL     1      -8.313   3.783  65.840  1.00  0.00    -0.109 A  
HETATM   21  C   UNL     1      -7.670   6.218  67.052  1.00  0.00    -0.100 A  
HETATM   22  C   UNL     1      -7.013   4.012  66.280  1.00  0.00    -0.063 A  
HETATM   23  C   UNL     1      -6.697   5.223  66.876  1.00  0.00    -0.061 A  
BRANCH  19  24
HETATM   24  O   UNL     1     -10.575   4.572  65.464  1.00  0.00    -0.282 OA 
HETATM   25  C   UNL     1     -10.649   3.946  64.178  1.00  0.00    -0.229 C  
ENDBRANCH  19  24
BRANCH  21  26
HETATM   26  O   UNL     1      -7.138   7.360  67.599  1.00  0.00    -0.079 OA 
HETATM   27  C   UNL     1      -5.730   7.539  67.467  1.00  0.00    -0.035 C  
ENDBRANCH  21  26
ENDBRANCH  15  18
ENDBRANCH  12  14
TORSDOF 4
ENDMDL
MODEL      141
REMARK 921   NORMALIZED FREE ENERGY PREDICTED BY IDOCK:   -3.70 KCAL/MOL
REMARK 922        TOTAL FREE ENERGY PREDICTED BY IDOCK:   -5.50 KCAL/MOL
REMARK 923 INTER-LIGAND FREE ENERGY PREDICTED BY IDOCK:   -5.19 KCAL/MOL
REMARK 924 INTRA-LIGAND FREE ENERGY PREDICTED BY IDOCK:   -0.31 KCAL/MOL
REMARK 927      BINDING AFFINITY PREDICTED BY RF-SCORE:    0.00 PKD
ROOT
HETATM    1  C   UNL     1     -11.280  10.928  67.047  1.00  0.00    -0.137 C  
HETATM    2  S   UNL     1     -11.178  12.369  68.177  1.00  0.00    -0.289 SA 
HETATM    3  C   UNL     1     -10.509  13.518  66.917  1.00  0.00    -0.271 C  
HETATM    4  CA  UNL     1     -10.994  12.949  65.565  1.00  0.00    -0.274 C  
HETATM    5  C   UNL     1      -8.973  13.496  67.032  1.00  0.00    -0.237 C  
HETATM    6  C   UNL     1     -10.970  14.934  67.274  1.00  0.00    -0.323 C  
HETATM    7  N   UNL     1     -11.015  11.473  65.692  1.00  0.00    -0.270 N  
HETATM    8  C   UNL     1     -12.375  13.441  65.097  1.00  0.00    -0.456 C  
HETATM    9  C   UNL     1      -9.841  10.775  65.550  1.00  0.00    -0.255 C  
HETATM   10  OXT UNL     1     -12.691  14.615  64.971  1.00  0.00    -0.447 OA 
HETATM   11  O   UNL     1     -13.219  12.440  64.736  1.00  0.00    -0.784 OA 
HETATM   12  CA  UNL     1     -10.041  10.000  66.872  1.00  0.00    -0.229 C  
HETATM   13  O   UNL     1      -8.948  10.917  64.745  1.00  0.00    -0.191 OA 
ENDROOT
BRANCH  12  14
HETATM   14  N   UNL     1      -8.920  10.064  67.864  1.00  0.00    -0.131 N  
HETATM   15  C   UNL     1      -8.262   8.908  68.230  1.00  0.00    -0.121 C  
HETATM   16  H   UNL     1      -8.644  10.959  68.268  1.00  0.00     0.000 HD 
HETATM   17  O   UNL     1      -8.605   7.850  67.712  1.00  0.00    -0.127 OA 
BRANCH  15  18
HETATM   18  C   UNL     1      -7.144   8.963  69.239  1.00  0.00    -0.058 A  
HETATM   19  C   UNL     1      -6.630  10.189  69.746  1.00  0.00    -0.080 A  
HETATM   20  C   UNL     1      -5.665  10.179  70.774  1.00  0.00    -0.089 A  
HETATM   21  C   UNL     1      -6.662   7.755  69.803  1.00  0.00    -0.039 A  
HETATM   22  C   UNL     1      -5.241   8.982  71.343  1.00  0.00    -0.039 A  
HETATM   23  C   UNL     1      -5.742   7.783  70.862  1.00  0.00    -0.034 A  
BRANCH  19  24
HETATM   24  O   UNL     1      -7.087  11.381  69.221  1.00  0.00    -0.118 OA 
HETATM   25  C   UNL     1      -6.125  12.441  69.165  1.00  0.00    -0.087 C  
ENDBRANCH  19  24
BRANCH  21  26
HETATM   26  O   UNL     1      -7.081   6.478  69.526  1.00  0.00    -0.068 OA 
HETATM   27  C   UNL     1      -6.244   5.697  68.675  1.00  0.00    -0.033 C  
ENDBRANCH  21  26
ENDBRANCH  15  18
ENDBRANCH  12  14
TORSDOF 4
ENDMDL
MODEL      142
REMARK 921   NORMALIZED FREE ENERGY PREDICTED BY IDOCK:   -3.70 KCAL/MOL
REMARK 922        TOTAL FREE ENERGY PREDICTED BY IDOCK:   -5.49 KCAL/MOL
REMARK 923 INTER-LIGAND FREE ENERGY PREDICTED BY IDOCK:   -4.62 KCAL/MOL
REMARK 924 INTRA-LIGAND FREE ENERGY PREDICTED BY IDOCK:   -0.87 KCAL/MOL
REMARK 927      BINDING AFFINITY PREDICTED BY RF-SCORE:    0.00 PKD
ROOT
HETATM    1  C   UNL     1      -7.310   6.005  71.835  1.00  0.00    -0.094 C  
HETATM    2  S   UNL     1      -8.518   5.610  73.158  1.00  0.00    -0.117 SA 
HETATM    3  C   UNL     1      -9.033   4.008  72.436  1.00  0.00    -0.110 C  
HETATM    4  CA  UNL     1      -7.825   3.548  71.589  1.00  0.00    -0.058 C  
HETATM    5  C   UNL     1     -10.279   4.265  71.567  1.00  0.00    -0.138 C  
HETATM    6  C   UNL     1      -9.462   3.086  73.581  1.00  0.00    -0.116 C  
HETATM    7  N   UNL     1      -7.194   4.766  71.028  1.00  0.00    -0.057 N  
HETATM    8  C   UNL     1      -6.765   2.724  72.341  1.00  0.00    -0.019 C  
HETATM    9  C   UNL     1      -7.741   5.344  69.909  1.00  0.00    -0.080 C  
HETATM   10  OXT UNL     1      -6.995   1.704  72.974  1.00  0.00    -0.021 OA 
HETATM   11  O   UNL     1      -5.497   3.178  72.171  1.00  0.00    -0.003 OA 
HETATM   12  CA  UNL     1      -7.789   6.748  70.553  1.00  0.00    -0.105 C  
HETATM   13  O   UNL     1      -8.169   4.829  68.900  1.00  0.00    -0.082 OA 
ENDROOT
BRANCH  12  14
HETATM   14  N   UNL     1      -9.118   7.442  70.552  1.00  0.00    -0.156 N  
HETATM   15  C   UNL     1      -9.195   8.772  70.910  1.00  0.00    -0.212 C  
HETATM   16  H   UNL     1      -9.960   6.933  70.287  1.00  0.00     0.000 HD 
HETATM   17  O   UNL     1      -8.161   9.360  71.205  1.00  0.00    -0.319 OA 
BRANCH  15  18
HETATM   18  C   UNL     1     -10.530   9.472  70.926  1.00  0.00    -0.382 A  
HETATM   19  C   UNL     1     -10.824  10.581  70.085  1.00  0.00    -0.227 A  
HETATM   20  C   UNL     1     -12.125  11.123  70.058  1.00  0.00    -0.437 A  
HETATM   21  C   UNL     1     -11.580   8.940  71.718  1.00  0.00    -0.352 A  
HETATM   22  C   UNL     1     -13.151  10.554  70.809  1.00  0.00    -0.335 A  
HETATM   23  C   UNL     1     -12.877   9.469  71.626  1.00  0.00    -0.483 A  
BRANCH  19  24
HETATM   24  O   UNL     1      -9.823  11.114  69.298  1.00  0.00    -0.119 OA 
HETATM   25  C   UNL     1     -10.266  11.867  68.162  1.00  0.00    -0.199 C  
ENDBRANCH  19  24
BRANCH  21  26
HETATM   26  O   UNL     1     -11.538   7.832  72.526  1.00  0.00    -0.343 OA 
HETATM   27  C   UNL     1     -12.476   6.795  72.245  1.00  0.00    -0.057 C  
ENDBRANCH  21  26
ENDBRANCH  15  18
ENDBRANCH  12  14
TORSDOF 4
ENDMDL
MODEL      143
REMARK 921   NORMALIZED FREE ENERGY PREDICTED BY IDOCK:   -3.65 KCAL/MOL
REMARK 922        TOTAL FREE ENERGY PREDICTED BY IDOCK:   -5.43 KCAL/MOL
REMARK 923 INTER-LIGAND FREE ENERGY PREDICTED BY IDOCK:   -4.58 KCAL/MOL
REMARK 924 INTRA-LIGAND FREE ENERGY PREDICTED BY IDOCK:   -0.85 KCAL/MOL
REMARK 927      BINDING AFFINITY PREDICTED BY RF-SCORE:    0.00 PKD
ROOT
HETATM    1  C   UNL     1      -7.832   7.111  66.660  1.00  0.00    -0.109 C  
HETATM    2  S   UNL     1      -7.016   5.544  67.155  1.00  0.00    -0.066 SA 
HETATM    3  C   UNL     1      -8.380   4.463  66.586  1.00  0.00    -0.105 C  
HETATM    4  CA  UNL     1      -9.093   5.273  65.479  1.00  0.00    -0.139 C  
HETATM    5  C   UNL     1      -9.303   4.200  67.791  1.00  0.00    -0.211 C  
HETATM    6  C   UNL     1      -7.778   3.117  66.173  1.00  0.00    -0.078 C  
HETATM    7  N   UNL     1      -9.015   6.702  65.864  1.00  0.00    -0.119 N  
HETATM    8  C   UNL     1      -8.527   5.094  64.060  1.00  0.00    -0.123 C  
HETATM    9  C   UNL     1      -9.909   7.195  66.782  1.00  0.00    -0.205 C  
HETATM   10  OXT UNL     1      -8.389   4.019  63.494  1.00  0.00    -0.089 OA 
HETATM   11  O   UNL     1      -8.267   6.265  63.422  1.00  0.00    -0.084 OA 
HETATM   12  CA  UNL     1      -8.798   7.822  67.654  1.00  0.00    -0.128 C  
HETATM   13  O   UNL     1     -11.099   7.000  66.887  1.00  0.00    -0.359 OA 
ENDROOT
BRANCH  12  14
HETATM   14  N   UNL     1      -8.785   7.437  69.103  1.00  0.00    -0.136 N  
HETATM   15  C   UNL     1      -9.364   8.271  70.038  1.00  0.00    -0.162 C  
HETATM   16  H   UNL     1      -8.350   6.563  69.397  1.00  0.00     0.000 HD 
HETATM   17  O   UNL     1      -9.895   9.306  69.650  1.00  0.00    -0.171 OA 
BRANCH  15  18
HETATM   18  C   UNL     1      -9.340   7.898  71.498  1.00  0.00    -0.179 A  
HETATM   19  C   UNL     1      -8.305   8.319  72.379  1.00  0.00    -0.170 A  
HETATM   20  C   UNL     1      -8.394   8.039  73.758  1.00  0.00    -0.311 A  
HETATM   21  C   UNL     1     -10.446   7.206  72.053  1.00  0.00    -0.207 A  
HETATM   22  C   UNL     1      -9.512   7.399  74.286  1.00  0.00    -0.098 A  
HETATM   23  C   UNL     1     -10.530   6.992  73.437  1.00  0.00    -0.383 A  
BRANCH  19  24
HETATM   24  O   UNL     1      -7.220   9.002  71.868  1.00  0.00    -0.305 OA 
HETATM   25  C   UNL     1      -5.975   8.293  71.895  1.00  0.00    -0.044 C  
ENDBRANCH  19  24
BRANCH  21  26
HETATM   26  O   UNL     1     -11.583   6.791  71.404  1.00  0.00    -0.273 OA 
HETATM   27  C   UNL     1     -12.676   7.706  71.374  1.00  0.00    -0.327 C  
ENDBRANCH  21  26
ENDBRANCH  15  18
ENDBRANCH  12  14
TORSDOF 4
ENDMDL
MODEL      144
REMARK 921   NORMALIZED FREE ENERGY PREDICTED BY IDOCK:   -3.64 KCAL/MOL
REMARK 922        TOTAL FREE ENERGY PREDICTED BY IDOCK:   -5.42 KCAL/MOL
REMARK 923 INTER-LIGAND FREE ENERGY PREDICTED BY IDOCK:   -4.46 KCAL/MOL
REMARK 924 INTRA-LIGAND FREE ENERGY PREDICTED BY IDOCK:   -0.96 KCAL/MOL
REMARK 927      BINDING AFFINITY PREDICTED BY RF-SCORE:    0.00 PKD
ROOT
HETATM    1  C   UNL     1      -7.679   8.988  67.671  1.00  0.00    -0.097 C  
HETATM    2  S   UNL     1      -6.911   7.359  67.324  1.00  0.00    -0.080 SA 
HETATM    3  C   UNL     1      -7.983   6.974  65.890  1.00  0.00    -0.113 C  
HETATM    4  CA  UNL     1      -8.430   8.351  65.348  1.00  0.00    -0.176 C  
HETATM    5  C   UNL     1      -9.175   6.145  66.406  1.00  0.00    -0.166 C  
HETATM    6  C   UNL     1      -7.191   6.080  64.931  1.00  0.00    -0.066 C  
HETATM    7  N   UNL     1      -8.568   9.256  66.513  1.00  0.00    -0.129 N  
HETATM    8  C   UNL     1      -7.489   8.990  64.312  1.00  0.00    -0.106 C  
HETATM    9  C   UNL     1      -9.711   9.199  67.270  1.00  0.00    -0.173 C  
HETATM   10  OXT UNL     1      -7.121   8.452  63.278  1.00  0.00    -0.088 OA 
HETATM   11  O   UNL     1      -7.155  10.276  64.596  1.00  0.00    -0.136 OA 
HETATM   12  CA  UNL     1      -8.929   9.067  68.596  1.00  0.00    -0.137 C  
HETATM   13  O   UNL     1     -10.867   9.104  66.922  1.00  0.00    -0.147 OA 
ENDROOT
BRANCH  12  14
HETATM   14  N   UNL     1      -9.280   7.900  69.469  1.00  0.00    -0.153 N  
HETATM   15  C   UNL     1      -9.950   8.111  70.657  1.00  0.00    -0.189 C  
HETATM   16  H   UNL     1      -9.025   6.955  69.187  1.00  0.00     0.000 HD 
HETATM   17  O   UNL     1     -10.260   9.259  70.959  1.00  0.00    -0.271 OA 
BRANCH  15  18
HETATM   18  C   UNL     1     -10.292   6.944  71.547  1.00  0.00    -0.220 A  
HETATM   19  C   UNL     1      -9.329   6.309  72.381  1.00  0.00    -0.141 A  
HETATM   20  C   UNL     1      -9.729   5.298  73.279  1.00  0.00    -0.155 A  
HETATM   21  C   UNL     1     -11.644   6.531  71.658  1.00  0.00    -0.308 A  
HETATM   22  C   UNL     1     -11.070   4.943  73.403  1.00  0.00    -0.415 A  
HETATM   23  C   UNL     1     -12.016   5.561  72.601  1.00  0.00    -0.106 A  
BRANCH  19  24
HETATM   24  O   UNL     1      -8.007   6.696  72.300  1.00  0.00    -0.100 OA 
HETATM   25  C   UNL     1      -7.129   5.766  71.654  1.00  0.00    -0.081 C  
ENDBRANCH  19  24
BRANCH  21  26
HETATM   26  O   UNL     1     -12.735   7.064  71.018  1.00  0.00    -0.367 OA 
HETATM   27  C   UNL     1     -13.514   8.006  71.751  1.00  0.00    -0.341 C  
ENDBRANCH  21  26
ENDBRANCH  15  18
ENDBRANCH  12  14
TORSDOF 4
ENDMDL
MODEL      145
REMARK 921   NORMALIZED FREE ENERGY PREDICTED BY IDOCK:   -3.64 KCAL/MOL
REMARK 922        TOTAL FREE ENERGY PREDICTED BY IDOCK:   -5.42 KCAL/MOL
REMARK 923 INTER-LIGAND FREE ENERGY PREDICTED BY IDOCK:   -4.55 KCAL/MOL
REMARK 924 INTRA-LIGAND FREE ENERGY PREDICTED BY IDOCK:   -0.87 KCAL/MOL
REMARK 927      BINDING AFFINITY PREDICTED BY RF-SCORE:    0.00 PKD
ROOT
HETATM    1  C   UNL     1     -11.255   6.150  70.029  1.00  0.00    -0.401 C  
HETATM    2  S   UNL     1      -9.777   5.066  70.087  1.00  0.00    -0.231 SA 
HETATM    3  C   UNL     1      -9.247   5.601  71.757  1.00  0.00    -0.145 C  
HETATM    4  CA  UNL     1     -10.543   6.083  72.448  1.00  0.00    -0.217 C  
HETATM    5  C   UNL     1      -8.230   6.745  71.582  1.00  0.00    -0.110 C  
HETATM    6  C   UNL     1      -8.508   4.434  72.417  1.00  0.00    -0.109 C  
HETATM    7  N   UNL     1     -11.396   6.694  71.402  1.00  0.00    -0.275 N  
HETATM    8  C   UNL     1     -11.342   4.995  73.187  1.00  0.00    -0.321 C  
HETATM    9  C   UNL     1     -11.144   7.984  71.007  1.00  0.00    -0.253 C  
HETATM   10  OXT UNL     1     -10.887   4.263  74.053  1.00  0.00    -0.249 OA 
HETATM   11  O   UNL     1     -12.660   4.966  72.860  1.00  0.00     0.181 OA 
HETATM   12  CA  UNL     1     -11.118   7.611  69.507  1.00  0.00    -0.016 C  
HETATM   13  O   UNL     1     -10.871   8.959  71.670  1.00  0.00    -0.296 OA 
ENDROOT
BRANCH  12  14
HETATM   14  N   UNL     1      -9.896   8.011  68.736  1.00  0.00    -0.167 N  
HETATM   15  C   UNL     1      -9.890   9.196  68.030  1.00  0.00    -0.168 C  
HETATM   16  H   UNL     1      -9.073   7.410  68.734  1.00  0.00     0.000 HD 
HETATM   17  O   UNL     1     -10.889   9.905  68.068  1.00  0.00    -0.248 OA 
BRANCH  15  18
HETATM   18  C   UNL     1      -8.670   9.596  67.240  1.00  0.00    -0.136 A  
HETATM   19  C   UNL     1      -8.736   9.978  65.871  1.00  0.00    -0.140 A  
HETATM   20  C   UNL     1      -7.583  10.455  65.214  1.00  0.00    -0.118 A  
HETATM   21  C   UNL     1      -7.424   9.717  67.905  1.00  0.00    -0.086 A  
HETATM   22  C   UNL     1      -6.383  10.609  65.901  1.00  0.00    -0.128 A  
HETATM   23  C   UNL     1      -6.310  10.247  67.237  1.00  0.00    -0.066 A  
BRANCH  19  24
HETATM   24  O   UNL     1      -9.938   9.879  65.200  1.00  0.00    -0.318 OA 
HETATM   25  C   UNL     1     -10.198  10.910  64.240  1.00  0.00    -0.364 C  
ENDBRANCH  19  24
BRANCH  21  26
HETATM   26  O   UNL     1      -7.160   9.488  69.233  1.00  0.00    -0.055 OA 
HETATM   27  C   UNL     1      -6.501  10.532  69.946  1.00  0.00    -0.116 C  
ENDBRANCH  21  26
ENDBRANCH  15  18
ENDBRANCH  12  14
TORSDOF 4
ENDMDL
MODEL      146
REMARK 921   NORMALIZED FREE ENERGY PREDICTED BY IDOCK:   -3.64 KCAL/MOL
REMARK 922        TOTAL FREE ENERGY PREDICTED BY IDOCK:   -5.41 KCAL/MOL
REMARK 923 INTER-LIGAND FREE ENERGY PREDICTED BY IDOCK:   -4.42 KCAL/MOL
REMARK 924 INTRA-LIGAND FREE ENERGY PREDICTED BY IDOCK:   -1.00 KCAL/MOL
REMARK 927      BINDING AFFINITY PREDICTED BY RF-SCORE:    0.00 PKD
ROOT
HETATM    1  C   UNL     1     -10.505   9.190  68.855  1.00  0.00    -0.218 C  
HETATM    2  S   UNL     1     -10.755   7.374  68.899  1.00  0.00    -0.073 SA 
HETATM    3  C   UNL     1      -9.809   7.115  70.446  1.00  0.00    -0.176 C  
HETATM    4  CA  UNL     1      -9.896   8.465  71.193  1.00  0.00    -0.192 C  
HETATM    5  C   UNL     1      -8.361   6.766  70.056  1.00  0.00    -0.135 C  
HETATM    6  C   UNL     1     -10.394   5.893  71.161  1.00  0.00    -0.276 C  
HETATM    7  N   UNL     1      -9.904   9.535  70.168  1.00  0.00    -0.228 N  
HETATM    8  C   UNL     1     -11.117   8.633  72.116  1.00  0.00    -0.364 C  
HETATM    9  C   UNL     1      -8.714   9.934  69.613  1.00  0.00    -0.204 C  
HETATM   10  OXT UNL     1     -11.424   7.862  73.013  1.00  0.00    -0.383 OA 
HETATM   11  O   UNL     1     -11.801   9.789  71.913  1.00  0.00    -0.342 OA 
HETATM   12  CA  UNL     1      -9.237   9.776  68.167  1.00  0.00    -0.128 C  
HETATM   13  O   UNL     1      -7.643  10.137  70.139  1.00  0.00    -0.167 OA 
ENDROOT
BRANCH  12  14
HETATM   14  N   UNL     1      -8.425   8.911  67.250  1.00  0.00    -0.114 N  
HETATM   15  C   UNL     1      -8.755   8.831  65.914  1.00  0.00    -0.170 C  
HETATM   16  H   UNL     1      -7.632   8.383  67.614  1.00  0.00     0.000 HD 
HETATM   17  O   UNL     1      -9.703   9.492  65.504  1.00  0.00    -0.283 OA 
BRANCH  15  18
HETATM   18  C   UNL     1      -7.952   7.950  64.990  1.00  0.00    -0.137 A  
HETATM   19  C   UNL     1      -7.029   8.474  64.043  1.00  0.00    -0.079 A  
HETATM   20  C   UNL     1      -6.221   7.601  63.286  1.00  0.00    -0.055 A  
HETATM   21  C   UNL     1      -8.023   6.542  65.143  1.00  0.00    -0.123 A  
HETATM   22  C   UNL     1      -6.274   6.224  63.488  1.00  0.00    -0.026 A  
HETATM   23  C   UNL     1      -7.166   5.704  64.413  1.00  0.00    -0.058 A  
BRANCH  19  24
HETATM   24  O   UNL     1      -6.933   9.841  63.879  1.00  0.00    -0.109 OA 
HETATM   25  C   UNL     1      -5.716  10.436  64.345  1.00  0.00    -0.132 C  
ENDBRANCH  19  24
BRANCH  21  26
HETATM   26  O   UNL     1      -8.774   5.837  66.049  1.00  0.00    -0.136 OA 
HETATM   27  C   UNL     1      -8.201   4.637  66.564  1.00  0.00    -0.107 C  
ENDBRANCH  21  26
ENDBRANCH  15  18
ENDBRANCH  12  14
TORSDOF 4
ENDMDL
MODEL      147
REMARK 921   NORMALIZED FREE ENERGY PREDICTED BY IDOCK:   -3.63 KCAL/MOL
REMARK 922        TOTAL FREE ENERGY PREDICTED BY IDOCK:   -5.40 KCAL/MOL
REMARK 923 INTER-LIGAND FREE ENERGY PREDICTED BY IDOCK:   -4.49 KCAL/MOL
REMARK 924 INTRA-LIGAND FREE ENERGY PREDICTED BY IDOCK:   -0.91 KCAL/MOL
REMARK 927      BINDING AFFINITY PREDICTED BY RF-SCORE:    0.00 PKD
ROOT
HETATM    1  C   UNL     1     -10.244   7.767  69.704  1.00  0.00    -0.206 C  
HETATM    2  S   UNL     1     -11.764   7.053  70.442  1.00  0.00    -0.238 SA 
HETATM    3  C   UNL     1     -11.793   8.184  71.882  1.00  0.00    -0.317 C  
HETATM    4  CA  UNL     1     -11.039   9.447  71.410  1.00  0.00    -0.380 C  
HETATM    5  C   UNL     1     -11.066   7.481  73.044  1.00  0.00    -0.413 C  
HETATM    6  C   UNL     1     -13.252   8.372  72.308  1.00  0.00    -0.302 C  
HETATM    7  N   UNL     1      -9.972   8.999  70.484  1.00  0.00    -0.200 N  
HETATM    8  C   UNL     1     -11.904  10.513  70.715  1.00  0.00    -0.365 C  
HETATM    9  C   UNL     1      -8.799   8.511  71.005  1.00  0.00    -0.175 C  
HETATM   10  OXT UNL     1     -12.907  11.020  71.196  1.00  0.00    -0.377 OA 
HETATM   11  O   UNL     1     -11.405  10.931  69.522  1.00  0.00    -0.236 OA 
HETATM   12  CA  UNL     1      -8.850   7.230  70.142  1.00  0.00    -0.145 C  
HETATM   13  O   UNL     1      -8.135   8.916  71.933  1.00  0.00    -0.338 OA 
ENDROOT
BRANCH  12  14
HETATM   14  N   UNL     1      -8.755   5.924  70.874  1.00  0.00    -0.130 N  
HETATM   15  C   UNL     1      -7.542   5.274  70.959  1.00  0.00    -0.088 C  
HETATM   16  H   UNL     1      -9.585   5.518  71.306  1.00  0.00     0.000 HD 
HETATM   17  O   UNL     1      -6.559   5.798  70.445  1.00  0.00    -0.040 OA 
BRANCH  15  18
HETATM   18  C   UNL     1      -7.443   3.953  71.679  1.00  0.00    -0.056 A  
HETATM   19  C   UNL     1      -6.776   3.810  72.927  1.00  0.00    -0.038 A  
HETATM   20  C   UNL     1      -6.814   2.577  73.611  1.00  0.00    -0.027 A  
HETATM   21  C   UNL     1      -8.139   2.831  71.163  1.00  0.00    -0.057 A  
HETATM   22  C   UNL     1      -7.543   1.503  73.107  1.00  0.00    -0.033 A  
HETATM   23  C   UNL     1      -8.202   1.636  71.895  1.00  0.00    -0.045 A  
BRANCH  19  24
HETATM   24  O   UNL     1      -6.097   4.888  73.458  1.00  0.00    -0.034 OA 
HETATM   25  C   UNL     1      -6.769   5.582  74.516  1.00  0.00    -0.073 C  
ENDBRANCH  19  24
BRANCH  21  26
HETATM   26  O   UNL     1      -8.912   2.776  70.030  1.00  0.00    -0.079 OA 
HETATM   27  C   UNL     1      -9.226   1.479  69.529  1.00  0.00    -0.104 C  
ENDBRANCH  21  26
ENDBRANCH  15  18
ENDBRANCH  12  14
TORSDOF 4
ENDMDL
MODEL      148
REMARK 921   NORMALIZED FREE ENERGY PREDICTED BY IDOCK:   -3.62 KCAL/MOL
REMARK 922        TOTAL FREE ENERGY PREDICTED BY IDOCK:   -5.39 KCAL/MOL
REMARK 923 INTER-LIGAND FREE ENERGY PREDICTED BY IDOCK:   -4.46 KCAL/MOL
REMARK 924 INTRA-LIGAND FREE ENERGY PREDICTED BY IDOCK:   -0.94 KCAL/MOL
REMARK 927      BINDING AFFINITY PREDICTED BY RF-SCORE:    0.00 PKD
ROOT
HETATM    1  C   UNL     1      -9.131   9.199  67.127  1.00  0.00    -0.126 C  
HETATM    2  S   UNL     1      -7.341   9.328  67.507  1.00  0.00    -0.087 SA 
HETATM    3  C   UNL     1      -7.447   8.438  69.104  1.00  0.00    -0.089 C  
HETATM    4  CA  UNL     1      -8.693   7.534  68.971  1.00  0.00    -0.136 C  
HETATM    5  C   UNL     1      -7.617   9.491  70.216  1.00  0.00    -0.162 C  
HETATM    6  C   UNL     1      -6.109   7.735  69.345  1.00  0.00    -0.034 C  
HETATM    7  N   UNL     1      -9.680   8.265  68.141  1.00  0.00    -0.154 N  
HETATM    8  C   UNL     1      -8.440   6.145  68.358  1.00  0.00    -0.114 C  
HETATM    9  C   UNL     1     -10.460   9.230  68.729  1.00  0.00    -0.210 C  
HETATM   10  OXT UNL     1      -7.622   5.338  68.774  1.00  0.00    -0.079 OA 
HETATM   11  O   UNL     1      -9.284   5.834  67.340  1.00  0.00    -0.111 OA 
HETATM   12  CA  UNL     1     -10.110  10.287  67.657  1.00  0.00    -0.191 C  
HETATM   13  O   UNL     1     -11.029   9.222  69.798  1.00  0.00    -0.234 OA 
ENDROOT
BRANCH  12  14
HETATM   14  N   UNL     1      -9.568  11.593  68.155  1.00  0.00    -0.184 N  
HETATM   15  C   UNL     1      -9.324  12.617  67.263  1.00  0.00    -0.195 C  
HETATM   16  H   UNL     1      -9.381  11.724  69.148  1.00  0.00     0.000 HD 
HETATM   17  O   UNL     1      -9.577  12.434  66.077  1.00  0.00    -0.242 OA 
BRANCH  15  18
HETATM   18  C   UNL     1      -8.763  13.927  67.754  1.00  0.00    -0.187 A  
HETATM   19  C   UNL     1      -9.571  14.921  68.374  1.00  0.00    -0.209 A  
HETATM   20  C   UNL     1      -8.975  16.078  68.918  1.00  0.00    -0.239 A  
HETATM   21  C   UNL     1      -7.362  14.139  67.712  1.00  0.00    -0.167 A  
HETATM   22  C   UNL     1      -7.593  16.241  68.906  1.00  0.00    -0.212 A  
HETATM   23  C   UNL     1      -6.796  15.274  68.312  1.00  0.00    -0.122 A  
BRANCH  19  24
HETATM   24  O   UNL     1     -10.938  14.738  68.436  1.00  0.00    -0.238 OA 
HETATM   25  C   UNL     1     -11.688  15.852  68.936  1.00  0.00    -0.370 C  
ENDBRANCH  19  24
BRANCH  21  26
HETATM   26  O   UNL     1      -6.401  13.278  67.244  1.00  0.00    -0.284 OA 
HETATM   27  C   UNL     1      -5.493  12.744  68.205  1.00  0.00    -0.081 C  
ENDBRANCH  21  26
ENDBRANCH  15  18
ENDBRANCH  12  14
TORSDOF 4
ENDMDL
MODEL      149
REMARK 921   NORMALIZED FREE ENERGY PREDICTED BY IDOCK:   -3.56 KCAL/MOL
REMARK 922        TOTAL FREE ENERGY PREDICTED BY IDOCK:   -5.32 KCAL/MOL
REMARK 923 INTER-LIGAND FREE ENERGY PREDICTED BY IDOCK:   -4.32 KCAL/MOL
REMARK 924 INTRA-LIGAND FREE ENERGY PREDICTED BY IDOCK:   -0.99 KCAL/MOL
REMARK 927      BINDING AFFINITY PREDICTED BY RF-SCORE:    0.00 PKD
ROOT
HETATM    1  C   UNL     1     -10.316   8.665  69.233  1.00  0.00    -0.221 C  
HETATM    2  S   UNL     1     -10.995   6.988  69.536  1.00  0.00    -0.189 SA 
HETATM    3  C   UNL     1     -10.691   7.012  71.342  1.00  0.00    -0.219 C  
HETATM    4  CA  UNL     1     -10.687   8.509  71.723  1.00  0.00    -0.303 C  
HETATM    5  C   UNL     1      -9.322   6.351  71.594  1.00  0.00    -0.147 C  
HETATM    6  C   UNL     1     -11.750   6.132  72.013  1.00  0.00    -0.354 C  
HETATM    7  N   UNL     1     -10.107   9.252  70.580  1.00  0.00    -0.254 N  
HETATM    8  C   UNL     1     -12.062   9.105  72.075  1.00  0.00    -0.361 C  
HETATM    9  C   UNL     1      -8.742   9.299  70.440  1.00  0.00    -0.229 C  
HETATM   10  OXT UNL     1     -12.819   8.660  72.925  1.00  0.00    -0.284 OA 
HETATM   11  O   UNL     1     -12.346  10.255  71.410  1.00  0.00    -0.355 OA 
HETATM   12  CA  UNL     1      -8.792   8.841  68.965  1.00  0.00    -0.137 C  
HETATM   13  O   UNL     1      -7.882   9.467  71.276  1.00  0.00    -0.312 OA 
ENDROOT
BRANCH  12  14
HETATM   14  N   UNL     1      -7.960   7.646  68.604  1.00  0.00    -0.121 N  
HETATM   15  C   UNL     1      -7.918   7.211  67.296  1.00  0.00    -0.111 C  
HETATM   16  H   UNL     1      -7.428   7.158  69.323  1.00  0.00     0.000 HD 
HETATM   17  O   UNL     1      -8.555   7.832  66.452  1.00  0.00    -0.130 OA 
BRANCH  15  18
HETATM   18  C   UNL     1      -7.097   6.002  66.930  1.00  0.00    -0.070 A  
HETATM   19  C   UNL     1      -7.371   4.705  67.447  1.00  0.00    -0.074 A  
HETATM   20  C   UNL     1      -6.644   3.590  66.981  1.00  0.00    -0.038 A  
HETATM   21  C   UNL     1      -6.089   6.124  65.941  1.00  0.00    -0.033 A  
HETATM   22  C   UNL     1      -5.691   3.729  65.976  1.00  0.00    -0.018 A  
HETATM   23  C   UNL     1      -5.423   4.987  65.459  1.00  0.00    -0.013 A  
BRANCH  19  24
HETATM   24  O   UNL     1      -8.353   4.554  68.405  1.00  0.00    -0.089 OA 
HETATM   25  C   UNL     1      -9.397   3.628  68.080  1.00  0.00    -0.180 C  
ENDBRANCH  19  24
BRANCH  21  26
HETATM   26  O   UNL     1      -5.727   7.256  65.252  1.00  0.00    -0.035 OA 
HETATM   27  C   UNL     1      -6.245   7.397  63.932  1.00  0.00    -0.048 C  
ENDBRANCH  21  26
ENDBRANCH  15  18
ENDBRANCH  12  14
TORSDOF 4
ENDMDL
MODEL      150
REMARK 921   NORMALIZED FREE ENERGY PREDICTED BY IDOCK:   -3.54 KCAL/MOL
REMARK 922        TOTAL FREE ENERGY PREDICTED BY IDOCK:   -5.30 KCAL/MOL
REMARK 923 INTER-LIGAND FREE ENERGY PREDICTED BY IDOCK:   -4.41 KCAL/MOL
REMARK 924 INTRA-LIGAND FREE ENERGY PREDICTED BY IDOCK:   -0.89 KCAL/MOL
REMARK 927      BINDING AFFINITY PREDICTED BY RF-SCORE:    0.00 PKD
ROOT
HETATM    1  C   UNL     1      -7.620   6.549  66.638  1.00  0.00    -0.094 C  
HETATM    2  S   UNL     1      -7.167   4.931  67.373  1.00  0.00    -0.074 SA 
HETATM    3  C   UNL     1      -8.750   4.111  66.952  1.00  0.00    -0.114 C  
HETATM    4  CA  UNL     1      -9.284   4.887  65.727  1.00  0.00    -0.154 C  
HETATM    5  C   UNL     1      -9.684   4.244  68.170  1.00  0.00    -0.165 C  
HETATM    6  C   UNL     1      -8.473   2.618  66.755  1.00  0.00    -0.104 C  
HETATM    7  N   UNL     1      -8.880   6.302  65.895  1.00  0.00    -0.156 N  
HETATM    8  C   UNL     1      -8.801   4.376  64.359  1.00  0.00    -0.149 C  
HETATM    9  C   UNL     1      -9.622   7.115  66.715  1.00  0.00    -0.178 C  
HETATM   10  OXT UNL     1      -8.919   3.225  63.962  1.00  0.00    -0.096 OA 
HETATM   11  O   UNL     1      -8.297   5.350  63.557  1.00  0.00    -0.123 OA 
HETATM   12  CA  UNL     1      -8.382   7.599  67.501  1.00  0.00    -0.120 C  
HETATM   13  O   UNL     1     -10.824   7.210  66.832  1.00  0.00    -0.352 OA 
ENDROOT
BRANCH  12  14
HETATM   14  N   UNL     1      -8.427   7.441  68.991  1.00  0.00    -0.129 N  
HETATM   15  C   UNL     1      -8.911   8.469  69.773  1.00  0.00    -0.145 C  
HETATM   16  H   UNL     1      -8.102   6.578  69.425  1.00  0.00     0.000 HD 
HETATM   17  O   UNL     1      -9.313   9.487  69.220  1.00  0.00    -0.154 OA 
BRANCH  15  18
HETATM   18  C   UNL     1      -8.945   8.324  71.273  1.00  0.00    -0.200 A  
HETATM   19  C   UNL     1     -10.119   7.943  71.980  1.00  0.00    -0.202 A  
HETATM   20  C   UNL     1     -10.064   7.710  73.369  1.00  0.00    -0.379 A  
HETATM   21  C   UNL     1      -7.738   8.452  72.007  1.00  0.00    -0.123 A  
HETATM   22  C   UNL     1      -8.858   7.796  74.060  1.00  0.00    -0.304 A  
HETATM   23  C   UNL     1      -7.707   8.159  73.379  1.00  0.00    -0.212 A  
BRANCH  19  24
HETATM   24  O   UNL     1     -11.307   7.803  71.290  1.00  0.00    -0.255 OA 
HETATM   25  C   UNL     1     -12.288   6.965  71.912  1.00  0.00    -0.325 C  
ENDBRANCH  19  24
BRANCH  21  26
HETATM   26  O   UNL     1      -6.486   8.723  71.515  1.00  0.00    -0.063 OA 
HETATM   27  C   UNL     1      -5.439   7.836  71.901  1.00  0.00    -0.035 C  
ENDBRANCH  21  26
ENDBRANCH  15  18
ENDBRANCH  12  14
TORSDOF 4
ENDMDL
MODEL      151
REMARK 921   NORMALIZED FREE ENERGY PREDICTED BY IDOCK:   -3.53 KCAL/MOL
REMARK 922        TOTAL FREE ENERGY PREDICTED BY IDOCK:   -5.29 KCAL/MOL
REMARK 923 INTER-LIGAND FREE ENERGY PREDICTED BY IDOCK:   -4.40 KCAL/MOL
REMARK 924 INTRA-LIGAND FREE ENERGY PREDICTED BY IDOCK:   -0.88 KCAL/MOL
REMARK 927      BINDING AFFINITY PREDICTED BY RF-SCORE:    0.00 PKD
ROOT
HETATM    1  C   UNL     1      -9.163   8.369  66.760  1.00  0.00    -0.171 C  
HETATM    2  S   UNL     1     -10.721   9.137  67.350  1.00  0.00    -0.078 SA 
HETATM    3  C   UNL     1     -10.134  10.862  67.164  1.00  0.00    -0.198 C  
HETATM    4  CA  UNL     1      -9.042  10.793  66.072  1.00  0.00    -0.185 C  
HETATM    5  C   UNL     1      -9.561  11.311  68.521  1.00  0.00    -0.199 C  
HETATM    6  C   UNL     1     -11.348  11.747  66.869  1.00  0.00    -0.386 C  
HETATM    7  N   UNL     1      -8.353   9.490  66.223  1.00  0.00    -0.115 N  
HETATM    8  C   UNL     1      -9.545  10.940  64.625  1.00  0.00    -0.257 C  
HETATM    9  C   UNL     1      -7.381   9.358  67.183  1.00  0.00    -0.087 C  
HETATM   10  OXT UNL     1     -10.215  11.875  64.211  1.00  0.00    -0.276 OA 
HETATM   11  O   UNL     1      -9.098   9.968  63.788  1.00  0.00    -0.232 OA 
HETATM   12  CA  UNL     1      -8.017   8.079  67.773  1.00  0.00    -0.127 C  
HETATM   13  O   UNL     1      -6.493  10.119  67.497  1.00  0.00    -0.065 OA 
ENDROOT
BRANCH  12  14
HETATM   14  N   UNL     1      -8.306   8.090  69.244  1.00  0.00    -0.133 N  
HETATM   15  C   UNL     1      -7.805   7.087  70.048  1.00  0.00    -0.113 C  
HETATM   16  H   UNL     1      -8.872   8.835  69.648  1.00  0.00     0.000 HD 
HETATM   17  O   UNL     1      -7.112   6.216  69.534  1.00  0.00    -0.065 OA 
BRANCH  15  18
HETATM   18  C   UNL     1      -8.106   7.083  71.525  1.00  0.00    -0.104 A  
HETATM   19  C   UNL     1      -7.759   8.166  72.380  1.00  0.00    -0.122 A  
HETATM   20  C   UNL     1      -8.168   8.159  73.730  1.00  0.00    -0.303 A  
HETATM   21  C   UNL     1      -8.869   6.021  72.072  1.00  0.00    -0.137 A  
HETATM   22  C   UNL     1      -8.957   7.128  74.231  1.00  0.00    -0.250 A  
HETATM   23  C   UNL     1      -9.307   6.072  73.404  1.00  0.00    -0.134 A  
BRANCH  19  24
HETATM   24  O   UNL     1      -7.023   9.217  71.873  1.00  0.00    -0.314 OA 
HETATM   25  C   UNL     1      -5.618   9.181  72.154  1.00  0.00    -0.072 C  
ENDBRANCH  19  24
BRANCH  21  26
HETATM   26  O   UNL     1      -9.380   4.932  71.410  1.00  0.00    -0.141 OA 
HETATM   27  C   UNL     1     -10.200   4.046  72.168  1.00  0.00    -0.140 C  
ENDBRANCH  21  26
ENDBRANCH  15  18
ENDBRANCH  12  14
TORSDOF 4
ENDMDL
MODEL      152
REMARK 921   NORMALIZED FREE ENERGY PREDICTED BY IDOCK:   -3.53 KCAL/MOL
REMARK 922        TOTAL FREE ENERGY PREDICTED BY IDOCK:   -5.28 KCAL/MOL
REMARK 923 INTER-LIGAND FREE ENERGY PREDICTED BY IDOCK:   -4.43 KCAL/MOL
REMARK 924 INTRA-LIGAND FREE ENERGY PREDICTED BY IDOCK:   -0.85 KCAL/MOL
REMARK 927      BINDING AFFINITY PREDICTED BY RF-SCORE:    0.00 PKD
ROOT
HETATM    1  C   UNL     1      -7.640   7.008  67.939  1.00  0.00    -0.111 C  
HETATM    2  S   UNL     1      -9.095   7.078  69.053  1.00  0.00    -0.134 SA 
HETATM    3  C   UNL     1      -9.805   5.485  68.496  1.00  0.00    -0.146 C  
HETATM    4  CA  UNL     1      -8.598   4.675  67.972  1.00  0.00    -0.102 C  
HETATM    5  C   UNL     1     -10.821   5.790  67.378  1.00  0.00    -0.279 C  
HETATM    6  C   UNL     1     -10.586   4.878  69.665  1.00  0.00     0.146 C  
HETATM    7  N   UNL     1      -7.653   5.640  67.363  1.00  0.00    -0.088 N  
HETATM    8  C   UNL     1      -7.859   3.832  69.026  1.00  0.00    -0.052 C  
HETATM    9  C   UNL     1      -7.888   6.089  66.088  1.00  0.00    -0.104 C  
HETATM   10  OXT UNL     1      -8.388   3.001  69.750  1.00  0.00    -0.050 OA 
HETATM   11  O   UNL     1      -6.514   4.021  69.033  1.00  0.00    -0.035 OA 
HETATM   12  CA  UNL     1      -7.750   7.574  66.493  1.00  0.00    -0.097 C  
HETATM   13  O   UNL     1      -8.248   5.479  65.105  1.00  0.00    -0.127 OA 
ENDROOT
BRANCH  12  14
HETATM   14  N   UNL     1      -8.893   8.476  66.135  1.00  0.00    -0.156 N  
HETATM   15  C   UNL     1      -8.796   9.831  66.372  1.00  0.00    -0.146 C  
HETATM   16  H   UNL     1      -9.739   8.089  65.718  1.00  0.00     0.000 HD 
HETATM   17  O   UNL     1      -7.758  10.268  66.858  1.00  0.00    -0.102 OA 
BRANCH  15  18
HETATM   18  C   UNL     1      -9.948  10.742  66.031  1.00  0.00    -0.295 A  
HETATM   19  C   UNL     1     -10.671  11.466  67.019  1.00  0.00    -0.261 A  
HETATM   20  C   UNL     1     -11.662  12.392  66.632  1.00  0.00    -0.438 A  
HETATM   21  C   UNL     1     -10.254  10.987  64.668  1.00  0.00    -0.330 A  
HETATM   22  C   UNL     1     -11.912  12.649  65.288  1.00  0.00    -0.487 A  
HETATM   23  C   UNL     1     -11.208  11.954  64.317  1.00  0.00    -0.424 A  
BRANCH  19  24
HETATM   24  O   UNL     1     -10.388  11.254  68.353  1.00  0.00    -0.178 OA 
HETATM   25  C   UNL     1     -10.965  12.197  69.265  1.00  0.00    -0.110 C  
ENDBRANCH  19  24
BRANCH  21  26
HETATM   26  O   UNL     1      -9.627  10.467  63.564  1.00  0.00    -0.289 OA 
HETATM   27  C   UNL     1      -9.418  11.353  62.467  1.00  0.00    -0.039 C  
ENDBRANCH  21  26
ENDBRANCH  15  18
ENDBRANCH  12  14
TORSDOF 4
ENDMDL
MODEL      153
REMARK 921   NORMALIZED FREE ENERGY PREDICTED BY IDOCK:   -3.51 KCAL/MOL
REMARK 922        TOTAL FREE ENERGY PREDICTED BY IDOCK:   -5.26 KCAL/MOL
REMARK 923 INTER-LIGAND FREE ENERGY PREDICTED BY IDOCK:   -4.40 KCAL/MOL
REMARK 924 INTRA-LIGAND FREE ENERGY PREDICTED BY IDOCK:   -0.86 KCAL/MOL
REMARK 927      BINDING AFFINITY PREDICTED BY RF-SCORE:    0.00 PKD
ROOT
HETATM    1  C   UNL     1     -10.382   7.918  68.767  1.00  0.00    -0.203 C  
HETATM    2  S   UNL     1     -11.384   7.271  70.161  1.00  0.00    -0.159 SA 
HETATM    3  C   UNL     1     -11.051   8.688  71.273  1.00  0.00    -0.272 C  
HETATM    4  CA  UNL     1     -10.736   9.869  70.327  1.00  0.00    -0.310 C  
HETATM    5  C   UNL     1      -9.842   8.318  72.153  1.00  0.00    -0.342 C  
HETATM    6  C   UNL     1     -12.255   8.853  72.204  1.00  0.00    -0.437 C  
HETATM    7  N   UNL     1     -10.035   9.310  69.147  1.00  0.00    -0.173 N  
HETATM    8  C   UNL     1     -11.954  10.684  69.859  1.00  0.00    -0.310 C  
HETATM    9  C   UNL     1      -8.692   9.041  69.235  1.00  0.00    -0.138 C  
HETATM   10  OXT UNL     1     -12.771  11.207  70.604  1.00  0.00    -0.313 OA 
HETATM   11  O   UNL     1     -12.009  10.864  68.514  1.00  0.00    -0.520 OA 
HETATM   12  CA  UNL     1      -8.859   7.599  68.702  1.00  0.00    -0.127 C  
HETATM   13  O   UNL     1      -7.802   9.691  69.736  1.00  0.00    -0.107 OA 
ENDROOT
BRANCH  12  14
HETATM   14  N   UNL     1      -8.295   6.500  69.550  1.00  0.00    -0.129 N  
HETATM   15  C   UNL     1      -8.485   5.185  69.181  1.00  0.00    -0.090 C  
HETATM   16  H   UNL     1      -7.772   6.723  70.396  1.00  0.00     0.000 HD 
HETATM   17  O   UNL     1      -9.102   4.949  68.148  1.00  0.00    -0.107 OA 
BRANCH  15  18
HETATM   18  C   UNL     1      -7.934   4.074  70.038  1.00  0.00    -0.052 A  
HETATM   19  C   UNL     1      -8.719   3.399  71.015  1.00  0.00    -0.075 A  
HETATM   20  C   UNL     1      -8.188   2.291  71.706  1.00  0.00    -0.059 A  
HETATM   21  C   UNL     1      -6.624   3.593  69.789  1.00  0.00    -0.033 A  
HETATM   22  C   UNL     1      -6.916   1.808  71.410  1.00  0.00    -0.031 A  
HETATM   23  C   UNL     1      -6.146   2.454  70.455  1.00  0.00    -0.019 A  
BRANCH  19  24
HETATM   24  O   UNL     1     -10.001   3.840  71.272  1.00  0.00    -0.175 OA 
HETATM   25  C   UNL     1     -10.217   4.383  72.581  1.00  0.00    -0.180 C  
ENDBRANCH  19  24
BRANCH  21  26
HETATM   26  O   UNL     1      -5.738   4.037  68.840  1.00  0.00    -0.019 OA 
HETATM   27  C   UNL     1      -5.514   3.183  67.720  1.00  0.00    -0.017 C  
ENDBRANCH  21  26
ENDBRANCH  15  18
ENDBRANCH  12  14
TORSDOF 4
ENDMDL
MODEL      154
REMARK 921   NORMALIZED FREE ENERGY PREDICTED BY IDOCK:   -3.50 KCAL/MOL
REMARK 922        TOTAL FREE ENERGY PREDICTED BY IDOCK:   -5.24 KCAL/MOL
REMARK 923 INTER-LIGAND FREE ENERGY PREDICTED BY IDOCK:   -4.36 KCAL/MOL
REMARK 924 INTRA-LIGAND FREE ENERGY PREDICTED BY IDOCK:   -0.88 KCAL/MOL
REMARK 927      BINDING AFFINITY PREDICTED BY RF-SCORE:    0.00 PKD
ROOT
HETATM    1  C   UNL     1     -10.784   9.992  68.865  1.00  0.00    -0.219 C  
HETATM    2  S   UNL     1      -9.178  10.855  69.068  1.00  0.00    -0.058 SA 
HETATM    3  C   UNL     1      -8.623  10.575  67.345  1.00  0.00    -0.122 C  
HETATM    4  CA  UNL     1      -9.926  10.412  66.531  1.00  0.00    -0.217 C  
HETATM    5  C   UNL     1      -7.772   9.291  67.331  1.00  0.00    -0.095 C  
HETATM    6  C   UNL     1      -7.703  11.733  66.948  1.00  0.00    -0.129 C  
HETATM    7  N   UNL     1     -10.911   9.738  67.409  1.00  0.00    -0.253 N  
HETATM    8  C   UNL     1     -10.534  11.718  65.989  1.00  0.00    -0.246 C  
HETATM    9  C   UNL     1     -10.849   8.375  67.556  1.00  0.00    -0.013 C  
HETATM   10  OXT UNL     1      -9.939  12.530  65.296  1.00  0.00    -0.267 OA 
HETATM   11  O   UNL     1     -11.855  11.865  66.270  1.00  0.00    -0.546 OA 
HETATM   12  CA  UNL     1     -10.865   8.455  69.100  1.00  0.00    -0.023 C  
HETATM   13  O   UNL     1     -10.663   7.513  66.726  1.00  0.00    -0.319 OA 
ENDROOT
BRANCH  12  14
HETATM   14  N   UNL     1      -9.752   7.755  69.819  1.00  0.00    -0.175 N  
HETATM   15  C   UNL     1      -9.970   6.508  70.368  1.00  0.00    -0.179 C  
HETATM   16  H   UNL     1      -8.838   8.198  69.903  1.00  0.00     0.000 HD 
HETATM   17  O   UNL     1     -11.075   5.993  70.234  1.00  0.00    -0.328 OA 
BRANCH  15  18
HETATM   18  C   UNL     1      -8.860   5.805  71.108  1.00  0.00    -0.139 A  
HETATM   19  C   UNL     1      -8.954   5.464  72.485  1.00  0.00    -0.133 A  
HETATM   20  C   UNL     1      -7.935   4.704  73.097  1.00  0.00    -0.100 A  
HETATM   21  C   UNL     1      -7.725   5.355  70.386  1.00  0.00    -0.080 A  
HETATM   22  C   UNL     1      -6.854   4.234  72.356  1.00  0.00    -0.054 A  
HETATM   23  C   UNL     1      -6.757   4.555  71.011  1.00  0.00    -0.031 A  
BRANCH  19  24
HETATM   24  O   UNL     1     -10.051   5.882  73.211  1.00  0.00    -0.175 OA 
HETATM   25  C   UNL     1      -9.761   6.669  74.372  1.00  0.00    -0.303 C  
ENDBRANCH  19  24
BRANCH  21  26
HETATM   26  O   UNL     1      -7.479   5.497  69.043  1.00  0.00    -0.078 OA 
HETATM   27  C   UNL     1      -7.824   4.395  68.207  1.00  0.00    -0.079 C  
ENDBRANCH  21  26
ENDBRANCH  15  18
ENDBRANCH  12  14
TORSDOF 4
ENDMDL
MODEL      155
REMARK 921   NORMALIZED FREE ENERGY PREDICTED BY IDOCK:   -3.49 KCAL/MOL
REMARK 922        TOTAL FREE ENERGY PREDICTED BY IDOCK:   -5.23 KCAL/MOL
REMARK 923 INTER-LIGAND FREE ENERGY PREDICTED BY IDOCK:   -4.27 KCAL/MOL
REMARK 924 INTRA-LIGAND FREE ENERGY PREDICTED BY IDOCK:   -0.96 KCAL/MOL
REMARK 927      BINDING AFFINITY PREDICTED BY RF-SCORE:    0.00 PKD
ROOT
HETATM    1  C   UNL     1     -10.298   8.707  71.584  1.00  0.00    -0.296 C  
HETATM    2  S   UNL     1      -8.636   9.090  70.909  1.00  0.00    -0.212 SA 
HETATM    3  C   UNL     1      -9.075   8.720  69.170  1.00  0.00    -0.141 C  
HETATM    4  CA  UNL     1     -10.602   8.946  69.091  1.00  0.00    -0.195 C  
HETATM    5  C   UNL     1      -8.696   7.253  68.894  1.00  0.00    -0.128 C  
HETATM    6  C   UNL     1      -8.202   9.593  68.264  1.00  0.00    -0.106 C  
HETATM    7  N   UNL     1     -11.173   8.542  70.397  1.00  0.00    -0.241 N  
HETATM    8  C   UNL     1     -11.042  10.384  68.764  1.00  0.00    -0.250 C  
HETATM    9  C   UNL     1     -11.397   7.210  70.643  1.00  0.00    -0.292 C  
HETATM   10  OXT UNL     1     -10.671  11.022  67.789  1.00  0.00    -0.196 OA 
HETATM   11  O   UNL     1     -11.974  10.879  69.618  1.00  0.00    -0.304 OA 
HETATM   12  CA  UNL     1     -10.643   7.245  71.992  1.00  0.00    -0.207 C  
HETATM   13  O   UNL     1     -11.862   6.356  69.922  1.00  0.00    -0.384 OA 
ENDROOT
BRANCH  12  14
HETATM   14  N   UNL     1      -9.541   6.244  72.171  1.00  0.00    -0.151 N  
HETATM   15  C   UNL     1      -9.755   5.120  72.941  1.00  0.00    -0.148 C  
HETATM   16  H   UNL     1      -8.637   6.395  71.726  1.00  0.00     0.000 HD 
HETATM   17  O   UNL     1     -10.860   4.960  73.449  1.00  0.00    -0.237 OA 
BRANCH  15  18
HETATM   18  C   UNL     1      -8.646   4.119  73.139  1.00  0.00    -0.093 A  
HETATM   19  C   UNL     1      -7.522   4.376  73.973  1.00  0.00    -0.077 A  
HETATM   20  C   UNL     1      -6.574   3.360  74.213  1.00  0.00    -0.038 A  
HETATM   21  C   UNL     1      -8.775   2.824  72.576  1.00  0.00    -0.075 A  
HETATM   22  C   UNL     1      -6.747   2.083  73.686  1.00  0.00    -0.022 A  
HETATM   23  C   UNL     1      -7.843   1.821  72.879  1.00  0.00    -0.047 A  
BRANCH  19  24
HETATM   24  O   UNL     1      -7.375   5.625  74.541  1.00  0.00    -0.087 OA 
HETATM   25  C   UNL     1      -6.073   6.211  74.416  1.00  0.00    -0.065 C  
ENDBRANCH  19  24
BRANCH  21  26
HETATM   26  O   UNL     1      -9.815   2.341  71.821  1.00  0.00    -0.142 OA 
HETATM   27  C   UNL     1     -10.744   1.485  72.480  1.00  0.00    -0.140 C  
ENDBRANCH  21  26
ENDBRANCH  15  18
ENDBRANCH  12  14
TORSDOF 4
ENDMDL
MODEL      156
REMARK 921   NORMALIZED FREE ENERGY PREDICTED BY IDOCK:   -3.45 KCAL/MOL
REMARK 922        TOTAL FREE ENERGY PREDICTED BY IDOCK:   -5.18 KCAL/MOL
REMARK 923 INTER-LIGAND FREE ENERGY PREDICTED BY IDOCK:   -4.42 KCAL/MOL
REMARK 924 INTRA-LIGAND FREE ENERGY PREDICTED BY IDOCK:   -0.76 KCAL/MOL
REMARK 927      BINDING AFFINITY PREDICTED BY RF-SCORE:    0.00 PKD
ROOT
HETATM    1  C   UNL     1     -10.758   6.726  69.574  1.00  0.00    -0.257 C  
HETATM    2  S   UNL     1      -9.212   5.780  69.856  1.00  0.00    -0.146 SA 
HETATM    3  C   UNL     1      -8.812   6.591  71.449  1.00  0.00    -0.137 C  
HETATM    4  CA  UNL     1     -10.173   7.066  72.005  1.00  0.00    -0.190 C  
HETATM    5  C   UNL     1      -7.870   7.773  71.149  1.00  0.00    -0.089 C  
HETATM    6  C   UNL     1      -8.028   5.593  72.306  1.00  0.00    -0.107 C  
HETATM    7  N   UNL     1     -11.010   7.451  70.844  1.00  0.00    -0.248 N  
HETATM    8  C   UNL     1     -10.932   6.038  72.863  1.00  0.00    -0.269 C  
HETATM    9  C   UNL     1     -10.829   8.686  70.272  1.00  0.00    -0.235 C  
HETATM   10  OXT UNL     1     -10.473   5.477  73.847  1.00  0.00    -0.242 OA 
HETATM   11  O   UNL     1     -12.225   5.860  72.488  1.00  0.00    -0.202 OA 
HETATM   12  CA  UNL     1     -10.697   8.102  68.848  1.00  0.00    -0.064 C  
HETATM   13  O   UNL     1     -10.661   9.765  70.795  1.00  0.00    -0.303 OA 
ENDROOT
BRANCH  12  14
HETATM   14  N   UNL     1      -9.467   8.480  68.079  1.00  0.00    -0.139 N  
HETATM   15  C   UNL     1      -9.536   9.471  67.122  1.00  0.00    -0.149 C  
HETATM   16  H   UNL     1      -8.583   8.006  68.262  1.00  0.00     0.000 HD 
HETATM   17  O   UNL     1     -10.609  10.034  66.938  1.00  0.00    -0.236 OA 
BRANCH  15  18
HETATM   18  C   UNL     1      -8.306   9.845  66.333  1.00  0.00    -0.125 A  
HETATM   19  C   UNL     1      -6.999   9.812  66.893  1.00  0.00    -0.088 A  
HETATM   20  C   UNL     1      -5.875  10.060  66.078  1.00  0.00    -0.065 A  
HETATM   21  C   UNL     1      -8.431  10.124  64.949  1.00  0.00    -0.172 A  
HETATM   22  C   UNL     1      -6.020  10.285  64.712  1.00  0.00    -0.132 A  
HETATM   23  C   UNL     1      -7.289  10.311  64.155  1.00  0.00    -0.063 A  
BRANCH  19  24
HETATM   24  O   UNL     1      -6.846   9.535  68.236  1.00  0.00    -0.062 OA 
HETATM   25  C   UNL     1      -5.635   8.859  68.594  1.00  0.00    -0.041 C  
ENDBRANCH  19  24
BRANCH  21  26
HETATM   26  O   UNL     1      -9.579  10.120  64.196  1.00  0.00    -0.290 OA 
HETATM   27  C   UNL     1      -9.758  11.207  63.291  1.00  0.00    -0.371 C  
ENDBRANCH  21  26
ENDBRANCH  15  18
ENDBRANCH  12  14
TORSDOF 4
ENDMDL
MODEL      157
REMARK 921   NORMALIZED FREE ENERGY PREDICTED BY IDOCK:   -3.44 KCAL/MOL
REMARK 922        TOTAL FREE ENERGY PREDICTED BY IDOCK:   -5.18 KCAL/MOL
REMARK 923 INTER-LIGAND FREE ENERGY PREDICTED BY IDOCK:   -4.33 KCAL/MOL
REMARK 924 INTRA-LIGAND FREE ENERGY PREDICTED BY IDOCK:   -0.84 KCAL/MOL
REMARK 927      BINDING AFFINITY PREDICTED BY RF-SCORE:    0.00 PKD
ROOT
HETATM    1  C   UNL     1      -8.079  11.271  66.430  1.00  0.00    -0.138 C  
HETATM    2  S   UNL     1      -9.709  11.227  65.591  1.00  0.00    -0.240 SA 
HETATM    3  C   UNL     1     -10.667  11.741  67.065  1.00  0.00    -0.246 C  
HETATM    4  CA  UNL     1      -9.663  12.536  67.932  1.00  0.00    -0.205 C  
HETATM    5  C   UNL     1     -11.154  10.464  67.776  1.00  0.00    -0.365 C  
HETATM    6  C   UNL     1     -11.910  12.495  66.585  1.00  0.00    -0.422 C  
HETATM    7  N   UNL     1      -8.332  11.912  67.744  1.00  0.00    -0.140 N  
HETATM    8  C   UNL     1      -9.570  14.041  67.623  1.00  0.00    -0.221 C  
HETATM    9  C   UNL     1      -8.023  10.777  68.452  1.00  0.00    -0.124 C  
HETATM   10  OXT UNL     1     -10.519  14.811  67.618  1.00  0.00    -0.250 OA 
HETATM   11  O   UNL     1      -8.300  14.484  67.439  1.00  0.00    -0.175 OA 
HETATM   12  CA  UNL     1      -7.570  10.010  67.189  1.00  0.00    -0.092 C  
HETATM   13  O   UNL     1      -8.236  10.504  69.612  1.00  0.00    -0.128 OA 
ENDROOT
BRANCH  12  14
HETATM   14  N   UNL     1      -8.221   8.683  66.940  1.00  0.00    -0.105 N  
HETATM   15  C   UNL     1      -7.583   7.524  67.330  1.00  0.00    -0.109 C  
HETATM   16  H   UNL     1      -9.131   8.636  66.484  1.00  0.00     0.000 HD 
HETATM   17  O   UNL     1      -6.497   7.614  67.893  1.00  0.00    -0.051 OA 
BRANCH  15  18
HETATM   18  C   UNL     1      -8.224   6.185  67.069  1.00  0.00    -0.106 A  
HETATM   19  C   UNL     1      -7.640   5.211  66.212  1.00  0.00    -0.088 A  
HETATM   20  C   UNL     1      -8.223   3.932  66.095  1.00  0.00    -0.101 A  
HETATM   21  C   UNL     1      -9.389   5.823  67.791  1.00  0.00    -0.105 A  
HETATM   22  C   UNL     1      -9.340   3.585  66.850  1.00  0.00    -0.212 A  
HETATM   23  C   UNL     1      -9.912   4.525  67.693  1.00  0.00    -0.138 A  
BRANCH  19  24
HETATM   24  O   UNL     1      -6.501   5.532  65.502  1.00  0.00    -0.037 OA 
HETATM   25  C   UNL     1      -5.866   4.440  64.826  1.00  0.00    -0.014 C  
ENDBRANCH  19  24
BRANCH  21  26
HETATM   26  O   UNL     1     -10.058   6.572  68.728  1.00  0.00    -0.149 OA 
HETATM   27  C   UNL     1     -10.882   5.862  69.649  1.00  0.00    -0.374 C  
ENDBRANCH  21  26
ENDBRANCH  15  18
ENDBRANCH  12  14
TORSDOF 4
ENDMDL
MODEL      158
REMARK 921   NORMALIZED FREE ENERGY PREDICTED BY IDOCK:   -3.43 KCAL/MOL
REMARK 922        TOTAL FREE ENERGY PREDICTED BY IDOCK:   -5.16 KCAL/MOL
REMARK 923 INTER-LIGAND FREE ENERGY PREDICTED BY IDOCK:   -4.10 KCAL/MOL
REMARK 924 INTRA-LIGAND FREE ENERGY PREDICTED BY IDOCK:   -1.06 KCAL/MOL
REMARK 927      BINDING AFFINITY PREDICTED BY RF-SCORE:    0.00 PKD
ROOT
HETATM    1  C   UNL     1     -10.630   8.275  67.532  1.00  0.00    -0.221 C  
HETATM    2  S   UNL     1     -10.774   7.546  69.209  1.00  0.00    -0.126 SA 
HETATM    3  C   UNL     1      -9.987   8.959  70.069  1.00  0.00    -0.190 C  
HETATM    4  CA  UNL     1     -10.235  10.173  69.146  1.00  0.00    -0.214 C  
HETATM    5  C   UNL     1      -8.486   8.643  70.212  1.00  0.00    -0.133 C  
HETATM    6  C   UNL     1     -10.571   9.038  71.483  1.00  0.00    -0.415 C  
HETATM    7  N   UNL     1     -10.197   9.677  67.750  1.00  0.00    -0.191 N  
HETATM    8  C   UNL     1     -11.556  10.926  69.384  1.00  0.00    -0.316 C  
HETATM    9  C   UNL     1      -8.980   9.484  67.145  1.00  0.00    -0.134 C  
HETATM   10  OXT UNL     1     -11.912  11.387  70.459  1.00  0.00    -0.348 OA 
HETATM   11  O   UNL     1     -12.283  11.127  68.255  1.00  0.00    -0.613 OA 
HETATM   12  CA  UNL     1      -9.333   8.046  66.702  1.00  0.00    -0.197 C  
HETATM   13  O   UNL     1      -7.986  10.175  67.165  1.00  0.00    -0.108 OA 
ENDROOT
BRANCH  12  14
HETATM   14  N   UNL     1      -8.375   6.965  67.106  1.00  0.00    -0.120 N  
HETATM   15  C   UNL     1      -8.519   5.695  66.588  1.00  0.00    -0.113 C  
HETATM   16  H   UNL     1      -7.622   7.168  67.762  1.00  0.00     0.000 HD 
HETATM   17  O   UNL     1      -9.424   5.488  65.786  1.00  0.00    -0.141 OA 
BRANCH  15  18
HETATM   18  C   UNL     1      -7.570   4.600  67.002  1.00  0.00    -0.086 A  
HETATM   19  C   UNL     1      -7.647   3.959  68.270  1.00  0.00    -0.066 A  
HETATM   20  C   UNL     1      -6.809   2.863  68.560  1.00  0.00    -0.048 A  
HETATM   21  C   UNL     1      -6.639   4.097  66.058  1.00  0.00    -0.041 A  
HETATM   22  C   UNL     1      -5.937   2.358  67.601  1.00  0.00    -0.024 A  
HETATM   23  C   UNL     1      -5.860   2.969  66.359  1.00  0.00    -0.023 A  
BRANCH  19  24
HETATM   24  O   UNL     1      -8.549   4.422  69.207  1.00  0.00    -0.080 OA 
HETATM   25  C   UNL     1      -7.980   4.883  70.438  1.00  0.00    -0.070 C  
ENDBRANCH  19  24
BRANCH  21  26
HETATM   26  O   UNL     1      -6.463   4.506  64.760  1.00  0.00    -0.037 OA 
HETATM   27  C   UNL     1      -6.795   3.567  63.740  1.00  0.00    -0.044 C  
ENDBRANCH  21  26
ENDBRANCH  15  18
ENDBRANCH  12  14
TORSDOF 4
ENDMDL
MODEL      159
REMARK 921   NORMALIZED FREE ENERGY PREDICTED BY IDOCK:   -3.41 KCAL/MOL
REMARK 922        TOTAL FREE ENERGY PREDICTED BY IDOCK:   -5.13 KCAL/MOL
REMARK 923 INTER-LIGAND FREE ENERGY PREDICTED BY IDOCK:   -4.20 KCAL/MOL
REMARK 924 INTRA-LIGAND FREE ENERGY PREDICTED BY IDOCK:   -0.93 KCAL/MOL
REMARK 927      BINDING AFFINITY PREDICTED BY RF-SCORE:    0.00 PKD
ROOT
HETATM    1  C   UNL     1     -10.597   8.120  68.855  1.00  0.00    -0.140 C  
HETATM    2  S   UNL     1     -11.214   6.537  69.547  1.00  0.00    -0.356 SA 
HETATM    3  C   UNL     1     -10.832   6.958  71.288  1.00  0.00    -0.234 C  
HETATM    4  CA  UNL     1     -10.854   8.503  71.335  1.00  0.00    -0.260 C  
HETATM    5  C   UNL     1      -9.435   6.393  71.610  1.00  0.00    -0.160 C  
HETATM    6  C   UNL     1     -11.834   6.227  72.184  1.00  0.00    -0.365 C  
HETATM    7  N   UNL     1     -10.346   8.989  70.031  1.00  0.00    -0.198 N  
HETATM    8  C   UNL     1     -12.228   9.136  71.616  1.00  0.00    -0.361 C  
HETATM    9  C   UNL     1      -8.990   9.029  69.817  1.00  0.00    -0.154 C  
HETATM   10  OXT UNL     1     -12.933   8.873  72.579  1.00  0.00    -0.418 OA 
HETATM   11  O   UNL     1     -12.574  10.108  70.733  1.00  0.00    -0.316 OA 
HETATM   12  CA  UNL     1      -9.092   8.260  68.480  1.00  0.00    -0.136 C  
HETATM   13  O   UNL     1      -8.100   9.391  70.553  1.00  0.00    -0.161 OA 
ENDROOT
BRANCH  12  14
HETATM   14  N   UNL     1      -8.243   7.031  68.347  1.00  0.00    -0.123 N  
HETATM   15  C   UNL     1      -8.288   6.292  67.183  1.00  0.00    -0.109 C  
HETATM   16  H   UNL     1      -7.636   6.743  69.113  1.00  0.00     0.000 HD 
HETATM   17  O   UNL     1      -9.015   6.676  66.273  1.00  0.00    -0.149 OA 
BRANCH  15  18
HETATM   18  C   UNL     1      -7.450   5.046  67.048  1.00  0.00    -0.087 A  
HETATM   19  C   UNL     1      -6.535   4.852  65.977  1.00  0.00    -0.040 A  
HETATM   20  C   UNL     1      -5.692   3.721  65.963  1.00  0.00    -0.018 A  
HETATM   21  C   UNL     1      -7.477   4.079  68.085  1.00  0.00    -0.067 A  
HETATM   22  C   UNL     1      -5.704   2.809  67.015  1.00  0.00    -0.022 A  
HETATM   23  C   UNL     1      -6.587   2.994  68.068  1.00  0.00    -0.037 A  
BRANCH  19  24
HETATM   24  O   UNL     1      -6.481   5.781  64.958  1.00  0.00    -0.039 OA 
HETATM   25  C   UNL     1      -5.309   6.606  64.935  1.00  0.00    -0.026 C  
ENDBRANCH  19  24
BRANCH  21  26
HETATM   26  O   UNL     1      -8.214   4.115  69.242  1.00  0.00    -0.065 OA 
HETATM   27  C   UNL     1      -9.371   3.284  69.293  1.00  0.00    -0.163 C  
ENDBRANCH  21  26
ENDBRANCH  15  18
ENDBRANCH  12  14
TORSDOF 4
ENDMDL
MODEL      160
REMARK 921   NORMALIZED FREE ENERGY PREDICTED BY IDOCK:   -3.37 KCAL/MOL
REMARK 922        TOTAL FREE ENERGY PREDICTED BY IDOCK:   -5.08 KCAL/MOL
REMARK 923 INTER-LIGAND FREE ENERGY PREDICTED BY IDOCK:   -4.20 KCAL/MOL
REMARK 924 INTRA-LIGAND FREE ENERGY PREDICTED BY IDOCK:   -0.88 KCAL/MOL
REMARK 927      BINDING AFFINITY PREDICTED BY RF-SCORE:    0.00 PKD
ROOT
HETATM    1  C   UNL     1     -10.388   9.971  68.902  1.00  0.00    -0.202 C  
HETATM    2  S   UNL     1      -8.690  10.651  68.769  1.00  0.00    -0.161 SA 
HETATM    3  C   UNL     1      -8.458  10.171  67.016  1.00  0.00    -0.129 C  
HETATM    4  CA  UNL     1      -9.888  10.099  66.433  1.00  0.00    -0.222 C  
HETATM    5  C   UNL     1      -7.759   8.798  66.996  1.00  0.00    -0.095 C  
HETATM    6  C   UNL     1      -7.501  11.177  66.371  1.00  0.00    -0.103 C  
HETATM    7  N   UNL     1     -10.779   9.618  67.515  1.00  0.00    -0.281 N  
HETATM    8  C   UNL     1     -10.438  11.420  65.867  1.00  0.00    -0.258 C  
HETATM    9  C   UNL     1     -10.836   8.273  67.783  1.00  0.00     0.009 C  
HETATM   10  OXT UNL     1      -9.883  12.098  65.014  1.00  0.00    -0.239 OA 
HETATM   11  O   UNL     1     -11.672  11.744  66.334  1.00  0.00    -0.511 OA 
HETATM   12  CA  UNL     1     -10.589   8.477  69.295  1.00  0.00    -0.181 C  
HETATM   13  O   UNL     1     -10.879   7.332  67.022  1.00  0.00    -0.357 OA 
ENDROOT
BRANCH  12  14
HETATM   14  N   UNL     1      -9.451   7.710  69.899  1.00  0.00    -0.161 N  
HETATM   15  C   UNL     1      -9.707   6.737  70.843  1.00  0.00    -0.178 C  
HETATM   16  H   UNL     1      -8.493   7.906  69.613  1.00  0.00     0.000 HD 
HETATM   17  O   UNL     1     -10.872   6.512  71.152  1.00  0.00    -0.232 OA 
BRANCH  15  18
HETATM   18  C   UNL     1      -8.567   5.973  71.467  1.00  0.00    -0.132 A  
HETATM   19  C   UNL     1      -8.388   4.575  71.278  1.00  0.00    -0.103 A  
HETATM   20  C   UNL     1      -7.240   3.933  71.788  1.00  0.00    -0.053 A  
HETATM   21  C   UNL     1      -7.561   6.684  72.170  1.00  0.00    -0.095 A  
HETATM   22  C   UNL     1      -6.245   4.660  72.434  1.00  0.00    -0.021 A  
HETATM   23  C   UNL     1      -6.405   6.025  72.617  1.00  0.00    -0.058 A  
BRANCH  19  24
HETATM   24  O   UNL     1      -9.347   3.859  70.590  1.00  0.00    -0.124 OA 
HETATM   25  C   UNL     1      -9.641   2.558  71.114  1.00  0.00    -0.147 C  
ENDBRANCH  19  24
BRANCH  21  26
HETATM   26  O   UNL     1      -7.492   8.037  72.388  1.00  0.00    -0.094 OA 
HETATM   27  C   UNL     1      -6.230   8.661  72.160  1.00  0.00    -0.073 C  
ENDBRANCH  21  26
ENDBRANCH  15  18
ENDBRANCH  12  14
TORSDOF 4
ENDMDL
MODEL      161
REMARK 921   NORMALIZED FREE ENERGY PREDICTED BY IDOCK:   -3.35 KCAL/MOL
REMARK 922        TOTAL FREE ENERGY PREDICTED BY IDOCK:   -5.06 KCAL/MOL
REMARK 923 INTER-LIGAND FREE ENERGY PREDICTED BY IDOCK:   -4.23 KCAL/MOL
REMARK 924 INTRA-LIGAND FREE ENERGY PREDICTED BY IDOCK:   -0.83 KCAL/MOL
REMARK 927      BINDING AFFINITY PREDICTED BY RF-SCORE:    0.00 PKD
ROOT
HETATM    1  C   UNL     1      -9.309   6.608  70.754  1.00  0.00    -0.158 C  
HETATM    2  S   UNL     1      -9.355   5.237  69.536  1.00  0.00    -0.139 SA 
HETATM    3  C   UNL     1      -7.536   5.063  69.416  1.00  0.00    -0.057 C  
HETATM    4  CA  UNL     1      -6.997   5.598  70.762  1.00  0.00    -0.057 C  
HETATM    5  C   UNL     1      -7.060   5.918  68.226  1.00  0.00    -0.078 C  
HETATM    6  C   UNL     1      -7.220   3.603  69.079  1.00  0.00    -0.050 C  
HETATM    7  N   UNL     1      -7.892   6.701  71.185  1.00  0.00    -0.101 N  
HETATM    8  C   UNL     1      -6.896   4.560  71.894  1.00  0.00    -0.042 C  
HETATM    9  C   UNL     1      -7.719   7.947  70.637  1.00  0.00    -0.090 C  
HETATM   10  OXT UNL     1      -6.290   3.501  71.817  1.00  0.00    -0.014 OA 
HETATM   11  O   UNL     1      -7.474   4.959  73.057  1.00  0.00    -0.087 OA 
HETATM   12  CA  UNL     1      -9.210   8.079  70.252  1.00  0.00    -0.155 C  
HETATM   13  O   UNL     1      -6.699   8.560  70.412  1.00  0.00    -0.035 OA 
ENDROOT
BRANCH  12  14
HETATM   14  N   UNL     1      -9.508   8.395  68.818  1.00  0.00    -0.147 N  
HETATM   15  C   UNL     1      -9.606   9.710  68.413  1.00  0.00    -0.144 C  
HETATM   16  H   UNL     1      -9.638   7.641  68.144  1.00  0.00     0.000 HD 
HETATM   17  O   UNL     1      -9.426  10.594  69.243  1.00  0.00    -0.197 OA 
BRANCH  15  18
HETATM   18  C   UNL     1      -9.921  10.035  66.975  1.00  0.00    -0.257 A  
HETATM   19  C   UNL     1     -10.862  11.036  66.604  1.00  0.00    -0.225 A  
HETATM   20  C   UNL     1     -11.033  11.378  65.247  1.00  0.00    -0.251 A  
HETATM   21  C   UNL     1      -9.172   9.412  65.945  1.00  0.00    -0.213 A  
HETATM   22  C   UNL     1     -10.252  10.786  64.258  1.00  0.00    -0.422 A  
HETATM   23  C   UNL     1      -9.327   9.815  64.610  1.00  0.00    -0.318 A  
BRANCH  19  24
HETATM   24  O   UNL     1     -11.600  11.665  67.587  1.00  0.00    -0.428 OA 
HETATM   25  C   UNL     1     -11.885  13.050  67.355  1.00  0.00    -0.357 C  
ENDBRANCH  19  24
BRANCH  21  26
HETATM   26  O   UNL     1      -8.162   8.493  66.085  1.00  0.00    -0.107 OA 
HETATM   27  C   UNL     1      -7.626   7.940  64.886  1.00  0.00    -0.104 C  
ENDBRANCH  21  26
ENDBRANCH  15  18
ENDBRANCH  12  14
TORSDOF 4
ENDMDL
MODEL      162
REMARK 921   NORMALIZED FREE ENERGY PREDICTED BY IDOCK:   -3.32 KCAL/MOL
REMARK 922        TOTAL FREE ENERGY PREDICTED BY IDOCK:   -5.02 KCAL/MOL
REMARK 923 INTER-LIGAND FREE ENERGY PREDICTED BY IDOCK:   -4.35 KCAL/MOL
REMARK 924 INTRA-LIGAND FREE ENERGY PREDICTED BY IDOCK:   -0.68 KCAL/MOL
REMARK 927      BINDING AFFINITY PREDICTED BY RF-SCORE:    0.00 PKD
ROOT
HETATM    1  C   UNL     1      -9.673   5.754  66.308  1.00  0.00    -0.117 C  
HETATM    2  S   UNL     1      -8.911   7.401  66.575  1.00  0.00    -0.164 SA 
HETATM    3  C   UNL     1      -7.202   6.853  66.212  1.00  0.00    -0.071 C  
HETATM    4  CA  UNL     1      -7.369   5.623  65.290  1.00  0.00    -0.072 C  
HETATM    5  C   UNL     1      -6.535   6.482  67.550  1.00  0.00    -0.052 C  
HETATM    6  C   UNL     1      -6.433   8.045  65.636  1.00  0.00    -0.042 C  
HETATM    7  N   UNL     1      -8.599   4.917  65.720  1.00  0.00    -0.124 N  
HETATM    8  C   UNL     1      -7.455   5.931  63.785  1.00  0.00    -0.071 C  
HETATM    9  C   UNL     1      -8.542   4.079  66.805  1.00  0.00    -0.106 C  
HETATM   10  OXT UNL     1      -6.626   6.571  63.155  1.00  0.00    -0.036 OA 
HETATM   11  O   UNL     1      -8.513   5.344  63.166  1.00  0.00    -0.123 OA 
HETATM   12  CA  UNL     1      -9.756   4.745  67.491  1.00  0.00    -0.171 C  
HETATM   13  O   UNL     1      -7.698   3.266  67.114  1.00  0.00    -0.077 OA 
ENDROOT
BRANCH  12  14
HETATM   14  N   UNL     1      -9.551   5.229  68.895  1.00  0.00    -0.128 N  
HETATM   15  C   UNL     1     -10.540   5.961  69.518  1.00  0.00    -0.308 C  
HETATM   16  H   UNL     1      -8.683   5.019  69.388  1.00  0.00     0.000 HD 
HETATM   17  O   UNL     1     -11.579   6.182  68.905  1.00  0.00    -0.172 OA 
BRANCH  15  18
HETATM   18  C   UNL     1     -10.334   6.465  70.923  1.00  0.00    -0.246 A  
HETATM   19  C   UNL     1     -10.579   7.816  71.296  1.00  0.00    -0.218 A  
HETATM   20  C   UNL     1     -10.482   8.205  72.648  1.00  0.00    -0.401 A  
HETATM   21  C   UNL     1      -9.999   5.543  71.947  1.00  0.00    -0.180 A  
HETATM   22  C   UNL     1     -10.198   7.272  73.641  1.00  0.00    -0.393 A  
HETATM   23  C   UNL     1      -9.964   5.952  73.289  1.00  0.00    -0.190 A  
BRANCH  19  24
HETATM   24  O   UNL     1     -10.915   8.735  70.322  1.00  0.00    -0.237 OA 
HETATM   25  C   UNL     1     -11.065  10.087  70.772  1.00  0.00    -0.334 C  
ENDBRANCH  19  24
BRANCH  21  26
HETATM   26  O   UNL     1      -9.809   4.189  71.822  1.00  0.00    -0.166 OA 
HETATM   27  C   UNL     1     -10.105   3.390  72.965  1.00  0.00    -0.150 C  
ENDBRANCH  21  26
ENDBRANCH  15  18
ENDBRANCH  12  14
TORSDOF 4
ENDMDL
MODEL      163
REMARK 921   NORMALIZED FREE ENERGY PREDICTED BY IDOCK:   -3.21 KCAL/MOL
REMARK 922        TOTAL FREE ENERGY PREDICTED BY IDOCK:   -4.89 KCAL/MOL
REMARK 923 INTER-LIGAND FREE ENERGY PREDICTED BY IDOCK:   -4.02 KCAL/MOL
REMARK 924 INTRA-LIGAND FREE ENERGY PREDICTED BY IDOCK:   -0.87 KCAL/MOL
REMARK 927      BINDING AFFINITY PREDICTED BY RF-SCORE:    0.00 PKD
ROOT
HETATM    1  C   UNL     1      -9.537  10.043  69.466  1.00  0.00    -0.230 C  
HETATM    2  S   UNL     1      -7.712  10.115  69.638  1.00  0.00    -0.164 SA 
HETATM    3  C   UNL     1      -7.401  10.570  67.891  1.00  0.00    -0.089 C  
HETATM    4  CA  UNL     1      -8.699  11.268  67.426  1.00  0.00    -0.139 C  
HETATM    5  C   UNL     1      -7.136   9.270  67.109  1.00  0.00    -0.086 C  
HETATM    6  C   UNL     1      -6.115  11.401  67.839  1.00  0.00    -0.050 C  
HETATM    7  N   UNL     1      -9.826  10.607  68.124  1.00  0.00    -0.152 N  
HETATM    8  C   UNL     1      -8.761  12.785  67.678  1.00  0.00    -0.180 C  
HETATM    9  C   UNL     1     -10.307   9.418  67.635  1.00  0.00    -0.246 C  
HETATM   10  OXT UNL     1      -7.925  13.591  67.295  1.00  0.00    -0.164 OA 
HETATM   11  O   UNL     1      -9.897  13.190  68.302  1.00  0.00    -0.223 OA 
HETATM   12  CA  UNL     1     -10.214   8.717  69.009  1.00  0.00    -0.207 C  
HETATM   13  O   UNL     1     -10.522   9.080  66.493  1.00  0.00    -0.234 OA 
ENDROOT
BRANCH  12  14
HETATM   14  N   UNL     1      -9.439   7.434  69.057  1.00  0.00    -0.148 N  
HETATM   15  C   UNL     1     -10.100   6.230  68.925  1.00  0.00    -0.168 C  
HETATM   16  H   UNL     1      -8.429   7.451  69.188  1.00  0.00     0.000 HD 
HETATM   17  O   UNL     1     -11.314   6.244  68.751  1.00  0.00    -0.356 OA 
BRANCH  15  18
HETATM   18  C   UNL     1      -9.330   4.936  68.988  1.00  0.00    -0.183 A  
HETATM   19  C   UNL     1      -8.475   4.501  67.937  1.00  0.00    -0.102 A  
HETATM   20  C   UNL     1      -7.690   3.341  68.099  1.00  0.00    -0.059 A  
HETATM   21  C   UNL     1      -9.355   4.175  70.184  1.00  0.00    -0.164 A  
HETATM   22  C   UNL     1      -7.696   2.637  69.300  1.00  0.00    -0.046 A  
HETATM   23  C   UNL     1      -8.520   3.057  70.333  1.00  0.00    -0.100 A  
BRANCH  19  24
HETATM   24  O   UNL     1      -8.425   5.227  66.764  1.00  0.00    -0.108 OA 
HETATM   25  C   UNL     1      -7.919   4.524  65.623  1.00  0.00    -0.095 C  
ENDBRANCH  19  24
BRANCH  21  26
HETATM   26  O   UNL     1     -10.035   4.460  71.342  1.00  0.00    -0.183 OA 
HETATM   27  C   UNL     1      -9.436   5.409  72.221  1.00  0.00    -0.145 C  
ENDBRANCH  21  26
ENDBRANCH  15  18
ENDBRANCH  12  14
TORSDOF 4
ENDMDL
MODEL      164
REMARK 921   NORMALIZED FREE ENERGY PREDICTED BY IDOCK:   -3.18 KCAL/MOL
REMARK 922        TOTAL FREE ENERGY PREDICTED BY IDOCK:   -4.85 KCAL/MOL
REMARK 923 INTER-LIGAND FREE ENERGY PREDICTED BY IDOCK:   -3.89 KCAL/MOL
REMARK 924 INTRA-LIGAND FREE ENERGY PREDICTED BY IDOCK:   -0.95 KCAL/MOL
REMARK 927      BINDING AFFINITY PREDICTED BY RF-SCORE:    0.00 PKD
ROOT
HETATM    1  C   UNL     1      -7.517   9.227  68.500  1.00  0.00    -0.081 C  
HETATM    2  S   UNL     1      -8.055   8.819  66.795  1.00  0.00    -0.104 SA 
HETATM    3  C   UNL     1      -9.637   9.736  66.899  1.00  0.00    -0.180 C  
HETATM    4  CA  UNL     1      -9.394  10.826  67.968  1.00  0.00    -0.150 C  
HETATM    5  C   UNL     1     -10.729   8.740  67.332  1.00  0.00    -0.216 C  
HETATM    6  C   UNL     1      -9.998  10.221  65.491  1.00  0.00    -0.364 C  
HETATM    7  N   UNL     1      -8.479  10.249  68.981  1.00  0.00    -0.140 N  
HETATM    8  C   UNL     1      -8.807  12.148  67.443  1.00  0.00    -0.181 C  
HETATM    9  C   UNL     1      -8.994   9.429  69.953  1.00  0.00    -0.200 C  
HETATM   10  OXT UNL     1      -9.295  12.821  66.546  1.00  0.00    -0.238 OA 
HETATM   11  O   UNL     1      -7.717  12.575  68.132  1.00  0.00    -0.121 OA 
HETATM   12  CA  UNL     1      -7.957   8.315  69.684  1.00  0.00    -0.111 C  
HETATM   13  O   UNL     1     -10.008   9.542  70.606  1.00  0.00    -0.263 OA 
ENDROOT
BRANCH  12  14
HETATM   14  N   UNL     1      -8.500   6.946  69.404  1.00  0.00    -0.132 N  
HETATM   15  C   UNL     1      -7.642   5.869  69.344  1.00  0.00    -0.092 C  
HETATM   16  H   UNL     1      -9.500   6.813  69.257  1.00  0.00     0.000 HD 
HETATM   17  O   UNL     1      -6.447   6.060  69.543  1.00  0.00    -0.039 OA 
BRANCH  15  18
HETATM   18  C   UNL     1      -8.179   4.492  69.046  1.00  0.00    -0.082 A  
HETATM   19  C   UNL     1      -8.333   3.496  70.051  1.00  0.00    -0.052 A  
HETATM   20  C   UNL     1      -8.949   2.267  69.738  1.00  0.00    -0.154 A  
HETATM   21  C   UNL     1      -8.664   4.206  67.745  1.00  0.00    -0.107 A  
HETATM   22  C   UNL     1      -9.459   2.027  68.466  1.00  0.00    -0.219 A  
HETATM   23  C   UNL     1      -9.320   2.994  67.482  1.00  0.00    -0.229 A  
BRANCH  19  24
HETATM   24  O   UNL     1      -7.877   3.750  71.328  1.00  0.00    -0.058 OA 
HETATM   25  C   UNL     1      -8.838   4.319  72.226  1.00  0.00    -0.108 C  
ENDBRANCH  19  24
BRANCH  21  26
HETATM   26  O   UNL     1      -8.695   5.047  66.661  1.00  0.00    -0.110 OA 
HETATM   27  C   UNL     1      -9.891   5.052  65.885  1.00  0.00    -0.164 C  
ENDBRANCH  21  26
ENDBRANCH  15  18
ENDBRANCH  12  14
TORSDOF 4
ENDMDL
MODEL      165
REMARK 921   NORMALIZED FREE ENERGY PREDICTED BY IDOCK:   -3.16 KCAL/MOL
REMARK 922        TOTAL FREE ENERGY PREDICTED BY IDOCK:   -4.82 KCAL/MOL
REMARK 923 INTER-LIGAND FREE ENERGY PREDICTED BY IDOCK:   -4.00 KCAL/MOL
REMARK 924 INTRA-LIGAND FREE ENERGY PREDICTED BY IDOCK:   -0.82 KCAL/MOL
REMARK 927      BINDING AFFINITY PREDICTED BY RF-SCORE:    0.00 PKD
ROOT
HETATM    1  C   UNL     1      -9.477   9.138  69.471  1.00  0.00    -0.168 C  
HETATM    2  S   UNL     1      -7.791   9.141  70.191  1.00  0.00    -0.131 SA 
HETATM    3  C   UNL     1      -6.924   9.037  68.581  1.00  0.00    -0.063 C  
HETATM    4  CA  UNL     1      -7.910   9.648  67.561  1.00  0.00    -0.095 C  
HETATM    5  C   UNL     1      -6.647   7.550  68.294  1.00  0.00    -0.050 C  
HETATM    6  C   UNL     1      -5.567   9.731  68.728  1.00  0.00    -0.036 C  
HETATM    7  N   UNL     1      -9.278   9.297  68.009  1.00  0.00    -0.131 N  
HETATM    8  C   UNL     1      -7.810  11.173  67.374  1.00  0.00    -0.121 C  
HETATM    9  C   UNL     1      -9.774   8.050  67.720  1.00  0.00    -0.156 C  
HETATM   10  OXT UNL     1      -6.786  11.773  67.082  1.00  0.00    -0.122 OA 
HETATM   11  O   UNL     1      -9.002  11.816  67.473  1.00  0.00    -0.160 OA 
HETATM   12  CA  UNL     1     -10.189   7.782  69.185  1.00  0.00    -0.208 C  
HETATM   13  O   UNL     1      -9.700   7.403  66.700  1.00  0.00    -0.197 OA 
ENDROOT
BRANCH  12  14
HETATM   14  N   UNL     1      -9.667   6.524  69.812  1.00  0.00    -0.158 N  
HETATM   15  C   UNL     1     -10.531   5.684  70.482  1.00  0.00    -0.277 C  
HETATM   16  H   UNL     1      -8.677   6.291  69.742  1.00  0.00     0.000 HD 
HETATM   17  O   UNL     1     -11.719   5.984  70.532  1.00  0.00    -0.198 OA 
BRANCH  15  18
HETATM   18  C   UNL     1     -10.010   4.426  71.129  1.00  0.00    -0.243 A  
HETATM   19  C   UNL     1     -10.332   4.062  72.466  1.00  0.00    -0.152 A  
HETATM   20  C   UNL     1      -9.912   2.818  72.980  1.00  0.00    -0.194 A  
HETATM   21  C   UNL     1      -9.269   3.503  70.347  1.00  0.00    -0.149 A  
HETATM   22  C   UNL     1      -9.226   1.909  72.179  1.00  0.00    -0.130 A  
HETATM   23  C   UNL     1      -8.915   2.251  70.872  1.00  0.00    -0.143 A  
BRANCH  19  24
HETATM   24  O   UNL     1     -11.058   4.937  73.247  1.00  0.00    -0.286 OA 
HETATM   25  C   UNL     1     -10.290   5.755  74.138  1.00  0.00    -0.282 C  
ENDBRANCH  19  24
BRANCH  21  26
HETATM   26  O   UNL     1      -8.929   3.615  69.022  1.00  0.00    -0.098 OA 
HETATM   27  C   UNL     1      -7.536   3.628  68.716  1.00  0.00    -0.053 C  
ENDBRANCH  21  26
ENDBRANCH  15  18
ENDBRANCH  12  14
TORSDOF 4
ENDMDL
MODEL      166
REMARK 921   NORMALIZED FREE ENERGY PREDICTED BY IDOCK:   -3.13 KCAL/MOL
REMARK 922        TOTAL FREE ENERGY PREDICTED BY IDOCK:   -4.79 KCAL/MOL
REMARK 923 INTER-LIGAND FREE ENERGY PREDICTED BY IDOCK:   -3.82 KCAL/MOL
REMARK 924 INTRA-LIGAND FREE ENERGY PREDICTED BY IDOCK:   -0.97 KCAL/MOL
REMARK 927      BINDING AFFINITY PREDICTED BY RF-SCORE:    0.00 PKD
ROOT
HETATM    1  C   UNL     1      -9.542   9.068  68.778  1.00  0.00    -0.152 C  
HETATM    2  S   UNL     1      -7.803   9.353  68.269  1.00  0.00    -0.090 SA 
HETATM    3  C   UNL     1      -8.096   9.019  66.492  1.00  0.00    -0.111 C  
HETATM    4  CA  UNL     1      -9.592   9.339  66.271  1.00  0.00    -0.248 C  
HETATM    5  C   UNL     1      -7.782   7.533  66.236  1.00  0.00    -0.089 C  
HETATM    6  C   UNL     1      -7.090   9.842  65.682  1.00  0.00    -0.105 C  
HETATM    7  N   UNL     1     -10.309   8.963  67.512  1.00  0.00    -0.247 N  
HETATM    8  C   UNL     1      -9.911  10.803  65.920  1.00  0.00    -0.250 C  
HETATM    9  C   UNL     1     -10.635   7.646  67.721  1.00  0.00    -0.196 C  
HETATM   10  OXT UNL     1      -9.412  11.422  64.992  1.00  0.00    -0.226 OA 
HETATM   11  O   UNL     1     -10.889  11.349  66.688  1.00  0.00    -0.269 OA 
HETATM   12  CA  UNL     1     -10.013   7.627  69.136  1.00  0.00    -0.181 C  
HETATM   13  O   UNL     1     -11.079   6.826  66.950  1.00  0.00    -0.397 OA 
ENDROOT
BRANCH  12  14
HETATM   14  N   UNL     1      -8.995   6.561  69.407  1.00  0.00    -0.132 N  
HETATM   15  C   UNL     1      -9.367   5.413  70.075  1.00  0.00    -0.148 C  
HETATM   16  H   UNL     1      -8.030   6.683  69.100  1.00  0.00     0.000 HD 
HETATM   17  O   UNL     1     -10.539   5.288  70.416  1.00  0.00    -0.268 OA 
BRANCH  15  18
HETATM   18  C   UNL     1      -8.345   4.344  70.366  1.00  0.00    -0.086 A  
HETATM   19  C   UNL     1      -7.368   4.477  71.391  1.00  0.00    -0.059 A  
HETATM   20  C   UNL     1      -6.512   3.399  71.696  1.00  0.00    -0.015 A  
HETATM   21  C   UNL     1      -8.427   3.105  69.681  1.00  0.00    -0.061 A  
HETATM   22  C   UNL     1      -6.642   2.177  71.042  1.00  0.00    -0.024 A  
HETATM   23  C   UNL     1      -7.597   2.034  70.047  1.00  0.00    -0.042 A  
BRANCH  19  24
HETATM   24  O   UNL     1      -7.271   5.669  72.080  1.00  0.00    -0.083 OA 
HETATM   25  C   UNL     1      -6.026   6.364  71.940  1.00  0.00    -0.037 C  
ENDBRANCH  19  24
BRANCH  21  26
HETATM   26  O   UNL     1      -9.343   2.736  68.728  1.00  0.00    -0.163 OA 
HETATM   27  C   UNL     1      -8.868   2.627  67.388  1.00  0.00    -0.139 C  
ENDBRANCH  21  26
ENDBRANCH  15  18
ENDBRANCH  12  14
TORSDOF 4
ENDMDL
MODEL      167
REMARK 921   NORMALIZED FREE ENERGY PREDICTED BY IDOCK:   -3.10 KCAL/MOL
REMARK 922        TOTAL FREE ENERGY PREDICTED BY IDOCK:   -4.75 KCAL/MOL
REMARK 923 INTER-LIGAND FREE ENERGY PREDICTED BY IDOCK:   -3.89 KCAL/MOL
REMARK 924 INTRA-LIGAND FREE ENERGY PREDICTED BY IDOCK:   -0.86 KCAL/MOL
REMARK 927      BINDING AFFINITY PREDICTED BY RF-SCORE:    0.00 PKD
ROOT
HETATM    1  C   UNL     1      -9.543  13.771  66.389  1.00  0.00    -0.272 C  
HETATM    2  S   UNL     1      -9.398  12.589  64.994  1.00  0.00     0.551 SA 
HETATM    3  C   UNL     1     -11.203  12.341  64.802  1.00  0.00    -0.318 C  
HETATM    4  CA  UNL     1     -11.841  13.633  65.360  1.00  0.00    -0.353 C  
HETATM    5  C   UNL     1     -11.596  11.102  65.628  1.00  0.00     0.475 C  
HETATM    6  C   UNL     1     -11.482  12.014  63.332  1.00  0.00    -0.489 C  
HETATM    7  N   UNL     1     -10.988  14.097  66.479  1.00  0.00    -0.305 N  
HETATM    8  C   UNL     1     -12.017  14.776  64.344  1.00  0.00    -0.417 C  
HETATM    9  C   UNL     1     -11.130  13.511  67.712  1.00  0.00    -0.268 C  
HETATM   10  OXT UNL     1     -12.608  14.678  63.278  1.00  0.00    -0.384 OA 
HETATM   11  O   UNL     1     -11.528  15.969  64.772  1.00  0.00    -0.312 OA 
HETATM   12  CA  UNL     1      -9.615  13.233  67.849  1.00  0.00    -0.217 C  
HETATM   13  O   UNL     1     -12.134  13.199  68.311  1.00  0.00    -0.317 OA 
ENDROOT
BRANCH  12  14
HETATM   14  N   UNL     1      -9.216  11.817  68.138  1.00  0.00    -0.181 N  
HETATM   15  C   UNL     1      -7.892  11.515  68.378  1.00  0.00    -0.136 C  
HETATM   16  H   UNL     1      -9.920  11.080  68.157  1.00  0.00     0.000 HD 
HETATM   17  O   UNL     1      -7.071  12.427  68.367  1.00  0.00    -0.090 OA 
BRANCH  15  18
HETATM   18  C   UNL     1      -7.481  10.091  68.653  1.00  0.00    -0.083 A  
HETATM   19  C   UNL     1      -6.513   9.408  67.865  1.00  0.00    -0.062 A  
HETATM   20  C   UNL     1      -6.082   8.118  68.238  1.00  0.00    -0.046 A  
HETATM   21  C   UNL     1      -7.980   9.438  69.808  1.00  0.00    -0.119 A  
HETATM   22  C   UNL     1      -6.552   7.516  69.402  1.00  0.00    -0.037 A  
HETATM   23  C   UNL     1      -7.490   8.177  70.180  1.00  0.00    -0.061 A  
BRANCH  19  24
HETATM   24  O   UNL     1      -6.003  10.022  66.740  1.00  0.00    -0.053 OA 
HETATM   25  C   UNL     1      -5.542   9.140  65.709  1.00  0.00    -0.045 C  
ENDBRANCH  19  24
BRANCH  21  26
HETATM   26  O   UNL     1      -8.846   9.944  70.745  1.00  0.00    -0.053 OA 
HETATM   27  C   UNL     1     -10.033   9.195  70.995  1.00  0.00    -0.297 C  
ENDBRANCH  21  26
ENDBRANCH  15  18
ENDBRANCH  12  14
TORSDOF 4
ENDMDL
MODEL      168
REMARK 921   NORMALIZED FREE ENERGY PREDICTED BY IDOCK:   -3.06 KCAL/MOL
REMARK 922        TOTAL FREE ENERGY PREDICTED BY IDOCK:   -4.70 KCAL/MOL
REMARK 923 INTER-LIGAND FREE ENERGY PREDICTED BY IDOCK:   -3.81 KCAL/MOL
REMARK 924 INTRA-LIGAND FREE ENERGY PREDICTED BY IDOCK:   -0.89 KCAL/MOL
REMARK 927      BINDING AFFINITY PREDICTED BY RF-SCORE:    0.00 PKD
ROOT
HETATM    1  C   UNL     1      -8.773  10.386  66.713  1.00  0.00    -0.127 C  
HETATM    2  S   UNL     1     -10.542  10.076  67.086  1.00  0.00    -0.205 SA 
HETATM    3  C   UNL     1     -10.601  11.189  68.539  1.00  0.00    -0.191 C  
HETATM    4  CA  UNL     1      -9.478  12.222  68.292  1.00  0.00    -0.209 C  
HETATM    5  C   UNL     1     -10.331  10.336  69.793  1.00  0.00    -0.287 C  
HETATM    6  C   UNL     1     -12.026  11.736  68.660  1.00  0.00    -0.299 C  
HETATM    7  N   UNL     1      -8.381  11.517  67.588  1.00  0.00    -0.130 N  
HETATM    8  C   UNL     1      -9.890  13.464  67.482  1.00  0.00    -0.227 C  
HETATM    9  C   UNL     1      -7.501  10.758  68.318  1.00  0.00    -0.092 C  
HETATM   10  OXT UNL     1     -10.818  14.207  67.767  1.00  0.00    -0.248 OA 
HETATM   11  O   UNL     1      -9.063  13.737  66.440  1.00  0.00    -0.184 OA 
HETATM   12  CA  UNL     1      -7.678   9.522  67.406  1.00  0.00    -0.095 C  
HETATM   13  O   UNL     1      -6.972  10.992  69.382  1.00  0.00    -0.104 OA 
ENDROOT
BRANCH  12  14
HETATM   14  N   UNL     1      -8.062   8.240  68.080  1.00  0.00    -0.122 N  
HETATM   15  C   UNL     1      -7.777   7.035  67.472  1.00  0.00    -0.111 C  
HETATM   16  H   UNL     1      -8.532   8.258  68.985  1.00  0.00     0.000 HD 
HETATM   17  O   UNL     1      -7.194   7.047  66.393  1.00  0.00    -0.072 OA 
BRANCH  15  18
HETATM   18  C   UNL     1      -8.175   5.742  68.137  1.00  0.00    -0.104 A  
HETATM   19  C   UNL     1      -8.975   4.761  67.487  1.00  0.00    -0.110 A  
HETATM   20  C   UNL     1      -9.220   3.521  68.111  1.00  0.00    -0.228 A  
HETATM   21  C   UNL     1      -7.639   5.425  69.411  1.00  0.00    -0.077 A  
HETATM   22  C   UNL     1      -8.644   3.216  69.341  1.00  0.00    -0.113 A  
HETATM   23  C   UNL     1      -7.856   4.161  69.979  1.00  0.00    -0.052 A  
BRANCH  19  24
HETATM   24  O   UNL     1      -9.504   5.039  66.242  1.00  0.00    -0.139 OA 
HETATM   25  C   UNL     1      -9.192   4.092  65.213  1.00  0.00    -0.152 C  
ENDBRANCH  19  24
BRANCH  21  26
HETATM   26  O   UNL     1      -6.780   6.183  70.167  1.00  0.00    -0.046 OA 
HETATM   27  C   UNL     1      -7.315   6.771  71.351  1.00  0.00    -0.082 C  
ENDBRANCH  21  26
ENDBRANCH  15  18
ENDBRANCH  12  14
TORSDOF 4
ENDMDL
MODEL      169
REMARK 921   NORMALIZED FREE ENERGY PREDICTED BY IDOCK:   -2.94 KCAL/MOL
REMARK 922        TOTAL FREE ENERGY PREDICTED BY IDOCK:   -4.55 KCAL/MOL
REMARK 923 INTER-LIGAND FREE ENERGY PREDICTED BY IDOCK:   -4.00 KCAL/MOL
REMARK 924 INTRA-LIGAND FREE ENERGY PREDICTED BY IDOCK:   -0.55 KCAL/MOL
REMARK 927      BINDING AFFINITY PREDICTED BY RF-SCORE:    0.00 PKD
ROOT
HETATM    1  C   UNL     1     -11.123   5.416  71.068  1.00  0.00     0.053 C  
HETATM    2  S   UNL     1      -9.783   4.494  70.220  1.00  0.00    -0.227 SA 
HETATM    3  C   UNL     1      -8.731   4.326  71.710  1.00  0.00    -0.110 C  
HETATM    4  CA  UNL     1      -9.714   4.405  72.900  1.00  0.00    -0.138 C  
HETATM    5  C   UNL     1      -7.732   5.499  71.712  1.00  0.00    -0.107 C  
HETATM    6  C   UNL     1      -7.917   3.037  71.574  1.00  0.00    -0.056 C  
HETATM    7  N   UNL     1     -10.797   5.340  72.514  1.00  0.00    -0.238 N  
HETATM    8  C   UNL     1     -10.330   3.065  73.339  1.00  0.00    -0.147 C  
HETATM    9  C   UNL     1     -10.580   6.691  72.622  1.00  0.00    -0.222 C  
HETATM   10  OXT UNL     1      -9.689   2.069  73.644  1.00  0.00    -0.081 OA 
HETATM   11  O   UNL     1     -11.683   3.095  73.452  1.00  0.00    -0.087 OA 
HETATM   12  CA  UNL     1     -11.041   6.968  71.173  1.00  0.00    -0.258 C  
HETATM   13  O   UNL     1     -10.044   7.322  73.505  1.00  0.00    -0.276 OA 
ENDROOT
BRANCH  12  14
HETATM   14  N   UNL     1     -10.085   7.721  70.296  1.00  0.00    -0.194 N  
HETATM   15  C   UNL     1      -9.813   9.047  70.562  1.00  0.00    -0.216 C  
HETATM   16  H   UNL     1      -9.639   7.254  69.507  1.00  0.00     0.000 HD 
HETATM   17  O   UNL     1     -10.352   9.573  71.529  1.00  0.00    -0.278 OA 
BRANCH  15  18
HETATM   18  C   UNL     1      -8.865   9.814  69.675  1.00  0.00    -0.224 A  
HETATM   19  C   UNL     1      -7.506  10.044  70.025  1.00  0.00    -0.173 A  
HETATM   20  C   UNL     1      -6.635  10.667  69.106  1.00  0.00    -0.061 A  
HETATM   21  C   UNL     1      -9.300  10.222  68.388  1.00  0.00    -0.143 A  
HETATM   22  C   UNL     1      -7.073  11.016  67.832  1.00  0.00    -0.081 A  
HETATM   23  C   UNL     1      -8.394  10.789  67.479  1.00  0.00    -0.115 A  
BRANCH  19  24
HETATM   24  O   UNL     1      -7.053   9.650  71.268  1.00  0.00    -0.329 OA 
HETATM   25  C   UNL     1      -5.684   9.229  71.322  1.00  0.00    -0.064 C  
ENDBRANCH  19  24
BRANCH  21  26
HETATM   26  O   UNL     1     -10.533  10.021  67.820  1.00  0.00    -0.200 OA 
HETATM   27  C   UNL     1     -10.556   9.686  66.435  1.00  0.00    -0.027 C  
ENDBRANCH  21  26
ENDBRANCH  15  18
ENDBRANCH  12  14
TORSDOF 4
ENDMDL
MODEL      170
REMARK 921   NORMALIZED FREE ENERGY PREDICTED BY IDOCK:   -2.91 KCAL/MOL
REMARK 922        TOTAL FREE ENERGY PREDICTED BY IDOCK:   -4.52 KCAL/MOL
REMARK 923 INTER-LIGAND FREE ENERGY PREDICTED BY IDOCK:   -3.89 KCAL/MOL
REMARK 924 INTRA-LIGAND FREE ENERGY PREDICTED BY IDOCK:   -0.62 KCAL/MOL
REMARK 927      BINDING AFFINITY PREDICTED BY RF-SCORE:    0.00 PKD
ROOT
HETATM    1  C   UNL     1     -11.540  15.391  65.717  1.00  0.00     0.073 C  
HETATM    2  S   UNL     1      -9.891  14.892  65.088  1.00  0.00     0.021 SA 
HETATM    3  C   UNL     1      -9.816  13.331  66.043  1.00  0.00    -0.263 C  
HETATM    4  CA  UNL     1     -11.293  12.946  66.288  1.00  0.00    -0.323 C  
HETATM    5  C   UNL     1      -9.072  13.622  67.359  1.00  0.00    -0.222 C  
HETATM    6  C   UNL     1      -8.966  12.332  65.253  1.00  0.00     0.578 C  
HETATM    7  N   UNL     1     -12.053  14.207  66.450  1.00  0.00    -0.441 N  
HETATM    8  C   UNL     1     -11.946  12.094  65.186  1.00  0.00    -0.262 C  
HETATM    9  C   UNL     1     -12.033  14.846  67.665  1.00  0.00    -0.145 C  
HETATM   10  OXT UNL     1     -11.505  11.031  64.772  1.00  0.00     0.102 OA 
HETATM   11  O   UNL     1     -13.139  12.579  64.753  1.00  0.00    -0.853 OA 
HETATM   12  CA  UNL     1     -11.645  16.205  67.040  1.00  0.00     0.521 C  
HETATM   13  O   UNL     1     -12.116  14.389  68.783  1.00  0.00    -0.308 OA 
ENDROOT
BRANCH  12  14
HETATM   14  N   UNL     1     -10.425  16.876  67.596  1.00  0.00    -0.325 N  
HETATM   15  C   UNL     1      -9.862  17.940  66.922  1.00  0.00    -0.321 C  
HETATM   16  H   UNL     1     -10.013  16.547  68.468  1.00  0.00     0.000 HD 
HETATM   17  O   UNL     1     -10.392  18.324  65.885  1.00  0.00    -0.540 OA 
BRANCH  15  18
HETATM   18  C   UNL     1      -8.626  18.609  67.467  1.00  0.00    -0.284 A  
HETATM   19  C   UNL     1      -7.407  18.677  66.736  1.00  0.00    -0.217 A  
HETATM   20  C   UNL     1      -6.318  19.415  67.245  1.00  0.00    -0.201 A  
HETATM   21  C   UNL     1      -8.702  19.304  68.700  1.00  0.00    -0.365 A  
HETATM   22  C   UNL     1      -6.433  20.127  68.435  1.00  0.00    -0.336 A  
HETATM   23  C   UNL     1      -7.619  20.074  69.151  1.00  0.00    -0.045 A  
BRANCH  19  24
HETATM   24  O   UNL     1      -7.306  18.017  65.528  1.00  0.00    -0.539 OA 
HETATM   25  C   UNL     1      -6.019  18.067  64.901  1.00  0.00     0.258 C  
ENDBRANCH  19  24
BRANCH  21  26
HETATM   26  O   UNL     1      -9.798  19.440  69.516  1.00  0.00    -0.272 OA 
HETATM   27  C   UNL     1     -10.372  20.742  69.608  1.00  0.00     0.815 C  
ENDBRANCH  21  26
ENDBRANCH  15  18
ENDBRANCH  12  14
TORSDOF 4
ENDMDL
MODEL      171
REMARK 921   NORMALIZED FREE ENERGY PREDICTED BY IDOCK:   -2.88 KCAL/MOL
REMARK 922        TOTAL FREE ENERGY PREDICTED BY IDOCK:   -4.48 KCAL/MOL
REMARK 923 INTER-LIGAND FREE ENERGY PREDICTED BY IDOCK:   -4.26 KCAL/MOL
REMARK 924 INTRA-LIGAND FREE ENERGY PREDICTED BY IDOCK:   -0.22 KCAL/MOL
REMARK 927      BINDING AFFINITY PREDICTED BY RF-SCORE:    0.00 PKD
ROOT
HETATM    1  C   UNL     1      -9.106   9.887  69.489  1.00  0.00    -0.223 C  
HETATM    2  S   UNL     1      -8.661  10.122  67.725  1.00  0.00    -0.121 SA 
HETATM    3  C   UNL     1     -10.367   9.903  67.095  1.00  0.00    -0.243 C  
HETATM    4  CA  UNL     1     -11.280  10.300  68.277  1.00  0.00    -0.232 C  
HETATM    5  C   UNL     1     -10.537   8.421  66.710  1.00  0.00    -0.227 C  
HETATM    6  C   UNL     1     -10.508  10.724  65.810  1.00  0.00    -0.256 C  
HETATM    7  N   UNL     1     -10.590   9.888  69.522  1.00  0.00    -0.226 N  
HETATM    8  C   UNL     1     -11.638  11.794  68.363  1.00  0.00    -0.318 C  
HETATM    9  C   UNL     1     -10.665   8.577  69.922  1.00  0.00    -0.224 C  
HETATM   10  OXT UNL     1     -12.148  12.442  67.460  1.00  0.00    -0.491 OA 
HETATM   11  O   UNL     1     -11.422  12.340  69.588  1.00  0.00    -0.266 OA 
HETATM   12  CA  UNL     1      -9.134   8.451  70.090  1.00  0.00    -0.150 C  
HETATM   13  O   UNL     1     -11.612   7.822  69.930  1.00  0.00     0.005 OA 
ENDROOT
BRANCH  12  14
HETATM   14  N   UNL     1      -8.468   7.327  69.355  1.00  0.00    -0.133 N  
HETATM   15  C   UNL     1      -8.832   6.024  69.623  1.00  0.00    -0.133 C  
HETATM   16  H   UNL     1      -7.749   7.524  68.660  1.00  0.00     0.000 HD 
HETATM   17  O   UNL     1      -9.714   5.820  70.451  1.00  0.00    -0.166 OA 
BRANCH  15  18
HETATM   18  C   UNL     1      -8.156   4.887  68.900  1.00  0.00    -0.083 A  
HETATM   19  C   UNL     1      -7.039   4.192  69.441  1.00  0.00    -0.050 A  
HETATM   20  C   UNL     1      -6.518   3.063  68.775  1.00  0.00    -0.029 A  
HETATM   21  C   UNL     1      -8.718   4.405  67.691  1.00  0.00    -0.105 A  
HETATM   22  C   UNL     1      -7.117   2.581  67.614  1.00  0.00    -0.048 A  
HETATM   23  C   UNL     1      -8.210   3.247  67.083  1.00  0.00    -0.083 A  
BRANCH  19  24
HETATM   24  O   UNL     1      -6.475   4.634  70.621  1.00  0.00    -0.028 OA 
HETATM   25  C   UNL     1      -6.700   3.799  71.764  1.00  0.00    -0.023 C  
ENDBRANCH  19  24
BRANCH  21  26
HETATM   26  O   UNL     1      -9.839   4.868  67.047  1.00  0.00    -0.162 OA 
HETATM   27  C   UNL     1     -10.060   4.394  65.721  1.00  0.00    -0.245 C  
ENDBRANCH  21  26
ENDBRANCH  15  18
ENDBRANCH  12  14
TORSDOF 4
ENDMDL
MODEL      172
REMARK 921   NORMALIZED FREE ENERGY PREDICTED BY IDOCK:   -2.71 KCAL/MOL
REMARK 922        TOTAL FREE ENERGY PREDICTED BY IDOCK:   -4.28 KCAL/MOL
REMARK 923 INTER-LIGAND FREE ENERGY PREDICTED BY IDOCK:   -3.78 KCAL/MOL
REMARK 924 INTRA-LIGAND FREE ENERGY PREDICTED BY IDOCK:   -0.50 KCAL/MOL
REMARK 927      BINDING AFFINITY PREDICTED BY RF-SCORE:    0.00 PKD
ROOT
HETATM    1  C   UNL     1      -9.899   5.750  70.276  1.00  0.00    -0.189 C  
HETATM    2  S   UNL     1      -8.069   5.684  70.389  1.00  0.00    -0.106 SA 
HETATM    3  C   UNL     1      -7.938   6.974  71.683  1.00  0.00    -0.099 C  
HETATM    4  CA  UNL     1      -9.296   6.935  72.420  1.00  0.00    -0.136 C  
HETATM    5  C   UNL     1      -7.706   8.323  70.976  1.00  0.00    -0.090 C  
HETATM    6  C   UNL     1      -6.691   6.681  72.521  1.00  0.00    -0.063 C  
HETATM    7  N   UNL     1     -10.331   6.598  71.414  1.00  0.00    -0.200 N  
HETATM    8  C   UNL     1      -9.383   5.944  73.594  1.00  0.00    -0.134 C  
HETATM    9  C   UNL     1     -10.817   7.590  70.600  1.00  0.00    -0.240 C  
HETATM   10  OXT UNL     1      -8.613   5.919  74.544  1.00  0.00    -0.117 OA 
HETATM   11  O   UNL     1     -10.468   5.129  73.544  1.00  0.00    -0.195 OA 
HETATM   12  CA  UNL     1     -10.573   6.771  69.312  1.00  0.00    -0.231 C  
HETATM   13  O   UNL     1     -11.128   8.729  70.867  1.00  0.00    -0.247 OA 
ENDROOT
BRANCH  12  14
HETATM   14  N   UNL     1      -9.756   7.431  68.242  1.00  0.00    -0.150 N  
HETATM   15  C   UNL     1     -10.097   7.259  66.917  1.00  0.00    -0.247 C  
HETATM   16  H   UNL     1      -8.952   8.005  68.493  1.00  0.00     0.000 HD 
HETATM   17  O   UNL     1     -11.081   6.577  66.649  1.00  0.00    -0.283 OA 
BRANCH  15  18
HETATM   18  C   UNL     1      -9.271   7.906  65.835  1.00  0.00    -0.102 A  
HETATM   19  C   UNL     1      -8.523   7.152  64.888  1.00  0.00     0.075 A  
HETATM   20  C   UNL     1      -7.863   7.806  63.827  1.00  0.00    -0.132 A  
HETATM   21  C   UNL     1      -9.328   9.313  65.669  1.00  0.00    -0.244 A  
HETATM   22  C   UNL     1      -7.973   9.184  63.659  1.00  0.00    -0.146 A  
HETATM   23  C   UNL     1      -8.705   9.926  64.572  1.00  0.00    -0.219 A  
BRANCH  19  24
HETATM   24  O   UNL     1      -8.456   5.780  65.019  1.00  0.00    -0.147 OA 
HETATM   25  C   UNL     1      -9.533   5.048  64.421  1.00  0.00     0.260 C  
ENDBRANCH  19  24
BRANCH  21  26
HETATM   26  O   UNL     1     -10.055  10.212  66.410  1.00  0.00    -0.220 OA 
HETATM   27  C   UNL     1      -9.342  11.321  66.954  1.00  0.00    -0.177 C  
ENDBRANCH  21  26
ENDBRANCH  15  18
ENDBRANCH  12  14
TORSDOF 4
ENDMDL
MODEL      173
REMARK 921   NORMALIZED FREE ENERGY PREDICTED BY IDOCK:   -2.50 KCAL/MOL
REMARK 922        TOTAL FREE ENERGY PREDICTED BY IDOCK:   -4.02 KCAL/MOL
REMARK 923 INTER-LIGAND FREE ENERGY PREDICTED BY IDOCK:   -3.15 KCAL/MOL
REMARK 924 INTRA-LIGAND FREE ENERGY PREDICTED BY IDOCK:   -0.86 KCAL/MOL
REMARK 927      BINDING AFFINITY PREDICTED BY RF-SCORE:    0.00 PKD
ROOT
HETATM    1  C   UNL     1      -9.619   6.467  69.249  1.00  0.00    -0.139 C  
HETATM    2  S   UNL     1     -10.833   6.221  67.896  1.00  0.00    -0.330 SA 
HETATM    3  C   UNL     1      -9.618   5.541  66.707  1.00  0.00    -0.146 C  
HETATM    4  CA  UNL     1      -8.499   4.937  67.586  1.00  0.00    -0.104 C  
HETATM    5  C   UNL     1      -9.104   6.709  65.844  1.00  0.00    -0.059 C  
HETATM    6  C   UNL     1     -10.356   4.578  65.773  1.00  0.00    -0.287 C  
HETATM    7  N   UNL     1      -8.381   5.789  68.792  1.00  0.00    -0.104 N  
HETATM    8  C   UNL     1      -8.712   3.473  68.013  1.00  0.00    -0.107 C  
HETATM    9  C   UNL     1      -7.668   6.959  68.713  1.00  0.00    -0.110 C  
HETATM   10  OXT UNL     1      -8.917   2.545  67.244  1.00  0.00    -0.132 OA 
HETATM   11  O   UNL     1      -8.560   3.265  69.346  1.00  0.00    -0.059 OA 
HETATM   12  CA  UNL     1      -8.813   7.798  69.326  1.00  0.00    -0.139 C  
HETATM   13  O   UNL     1      -6.608   7.186  68.174  1.00  0.00    -0.046 OA 
ENDROOT
BRANCH  12  14
HETATM   14  N   UNL     1      -9.269   8.988  68.537  1.00  0.00    -0.136 N  
HETATM   15  C   UNL     1      -8.647  10.206  68.714  1.00  0.00    -0.133 C  
HETATM   16  H   UNL     1     -10.036   8.897  67.872  1.00  0.00     0.000 HD 
HETATM   17  O   UNL     1      -7.715  10.278  69.508  1.00  0.00    -0.135 OA 
BRANCH  15  18
HETATM   18  C   UNL     1      -9.112  11.411  67.936  1.00  0.00    -0.164 A  
HETATM   19  C   UNL     1     -10.028  12.360  68.469  1.00  0.00    -0.170 A  
HETATM   20  C   UNL     1     -10.338  13.528  67.742  1.00  0.00    -0.241 A  
HETATM   21  C   UNL     1      -8.529  11.684  66.673  1.00  0.00    -0.165 A  
HETATM   22  C   UNL     1      -9.718  13.797  66.525  1.00  0.00    -0.301 A  
HETATM   23  C   UNL     1      -8.818  12.882  66.001  1.00  0.00     0.394 A  
BRANCH  19  24
HETATM   24  O   UNL     1     -10.605  12.123  69.700  1.00  0.00     0.197 OA 
HETATM   25  C   UNL     1     -12.037  12.162  69.730  1.00  0.00    -0.237 C  
ENDBRANCH  19  24
BRANCH  21  26
HETATM   26  O   UNL     1      -7.567  10.954  66.021  1.00  0.00    -0.148 OA 
HETATM   27  C   UNL     1      -7.989  10.208  64.882  1.00  0.00    -0.150 C  
ENDBRANCH  21  26
ENDBRANCH  15  18
ENDBRANCH  12  14
TORSDOF 4
ENDMDL
MODEL      174
REMARK 921   NORMALIZED FREE ENERGY PREDICTED BY IDOCK:   -2.49 KCAL/MOL
REMARK 922        TOTAL FREE ENERGY PREDICTED BY IDOCK:   -4.00 KCAL/MOL
REMARK 923 INTER-LIGAND FREE ENERGY PREDICTED BY IDOCK:   -3.19 KCAL/MOL
REMARK 924 INTRA-LIGAND FREE ENERGY PREDICTED BY IDOCK:   -0.80 KCAL/MOL
REMARK 927      BINDING AFFINITY PREDICTED BY RF-SCORE:    0.00 PKD
ROOT
HETATM    1  C   UNL     1      -9.004  10.519  65.293  1.00  0.00    -0.189 C  
HETATM    2  S   UNL     1     -10.445   9.712  66.093  1.00  0.00     0.079 SA 
HETATM    3  C   UNL     1     -10.242  10.569  67.699  1.00  0.00    -0.197 C  
HETATM    4  CA  UNL     1      -9.503  11.882  67.356  1.00  0.00    -0.175 C  
HETATM    5  C   UNL     1      -9.401   9.657  68.612  1.00  0.00    -0.143 C  
HETATM    6  C   UNL     1     -11.625  10.704  68.342  1.00  0.00    -0.269 C  
HETATM    7  N   UNL     1      -8.583  11.587  66.232  1.00  0.00    -0.166 N  
HETATM    8  C   UNL     1     -10.406  13.070  66.979  1.00  0.00    -0.247 C  
HETATM    9  C   UNL     1      -7.375  10.993  66.498  1.00  0.00    -0.144 C  
HETATM   10  OXT UNL     1     -11.316  13.501  67.672  1.00  0.00    -0.271 OA 
HETATM   11  O   UNL     1     -10.048  13.684  65.822  1.00  0.00    -0.295 OA 
HETATM   12  CA  UNL     1      -7.589   9.886  65.441  1.00  0.00    -0.131 C  
HETATM   13  O   UNL     1      -6.580  11.214  67.385  1.00  0.00    -0.066 OA 
ENDROOT
BRANCH  12  14
HETATM   14  N   UNL     1      -7.455   8.470  65.914  1.00  0.00    -0.076 N  
HETATM   15  C   UNL     1      -7.558   7.434  65.010  1.00  0.00    -0.103 C  
HETATM   16  H   UNL     1      -7.289   8.274  66.901  1.00  0.00     0.000 HD 
HETATM   17  O   UNL     1      -7.739   7.704  63.827  1.00  0.00    -0.115 OA 
BRANCH  15  18
HETATM   18  C   UNL     1      -7.441   6.007  65.482  1.00  0.00    -0.082 A  
HETATM   19  C   UNL     1      -6.592   5.058  64.847  1.00  0.00    -0.040 A  
HETATM   20  C   UNL     1      -6.433   3.771  65.400  1.00  0.00    -0.032 A  
HETATM   21  C   UNL     1      -8.103   5.616  66.673  1.00  0.00    -0.105 A  
HETATM   22  C   UNL     1      -7.057   3.426  66.596  1.00  0.00    -0.055 A  
HETATM   23  C   UNL     1      -7.879   4.346  67.227  1.00  0.00    -0.096 A  
BRANCH  19  24
HETATM   24  O   UNL     1      -5.928   5.413  63.690  1.00  0.00    -0.020 OA 
HETATM   25  C   UNL     1      -6.026   4.477  62.609  1.00  0.00    -0.017 C  
ENDBRANCH  19  24
BRANCH  21  26
HETATM   26  O   UNL     1      -8.891   6.394  67.485  1.00  0.00    -0.113 OA 
HETATM   27  C   UNL     1      -8.784   6.171  68.889  1.00  0.00    -0.123 C  
ENDBRANCH  21  26
ENDBRANCH  15  18
ENDBRANCH  12  14
TORSDOF 4
ENDMDL
MODEL      175
REMARK 921   NORMALIZED FREE ENERGY PREDICTED BY IDOCK:   -2.25 KCAL/MOL
REMARK 922        TOTAL FREE ENERGY PREDICTED BY IDOCK:   -3.70 KCAL/MOL
REMARK 923 INTER-LIGAND FREE ENERGY PREDICTED BY IDOCK:   -3.55 KCAL/MOL
REMARK 924 INTRA-LIGAND FREE ENERGY PREDICTED BY IDOCK:   -0.15 KCAL/MOL
REMARK 927      BINDING AFFINITY PREDICTED BY RF-SCORE:    0.00 PKD
ROOT
HETATM    1  C   UNL     1      -8.281   9.263  66.514  1.00  0.00    -0.107 C  
HETATM    2  S   UNL     1      -9.596   9.450  65.248  1.00  0.00    -0.080 SA 
HETATM    3  C   UNL     1      -8.448   9.836  63.874  1.00  0.00    -0.184 C  
HETATM    4  CA  UNL     1      -7.108   9.180  64.282  1.00  0.00    -0.095 C  
HETATM    5  C   UNL     1      -8.331  11.369  63.778  1.00  0.00     0.701 C  
HETATM    6  C   UNL     1      -9.086   9.347  62.571  1.00  0.00    -0.176 C  
HETATM    7  N   UNL     1      -7.005   9.275  65.757  1.00  0.00    -0.084 N  
HETATM    8  C   UNL     1      -6.932   7.713  63.850  1.00  0.00    -0.062 C  
HETATM    9  C   UNL     1      -6.583  10.453  66.321  1.00  0.00    -0.107 C  
HETATM   10  OXT UNL     1      -7.040   7.306  62.702  1.00  0.00    -0.069 OA 
HETATM   11  O   UNL     1      -6.546   6.889  64.858  1.00  0.00    -0.041 OA 
HETATM   12  CA  UNL     1      -7.782  10.515  67.294  1.00  0.00    -0.106 C  
HETATM   13  O   UNL     1      -5.688  11.196  65.985  1.00  0.00    -0.143 OA 
ENDROOT
BRANCH  12  14
HETATM   14  N   UNL     1      -8.597  11.773  67.277  1.00  0.00    -0.155 N  
HETATM   15  C   UNL     1      -8.126  12.902  67.914  1.00  0.00    -0.161 C  
HETATM   16  H   UNL     1      -9.495  11.794  66.796  1.00  0.00     0.000 HD 
HETATM   17  O   UNL     1      -7.033  12.850  68.468  1.00  0.00    -0.085 OA 
BRANCH  15  18
HETATM   18  C   UNL     1      -8.947  14.166  67.914  1.00  0.00    -0.185 A  
HETATM   19  C   UNL     1     -10.036  14.372  67.022  1.00  0.00    -0.256 A  
HETATM   20  C   UNL     1     -10.842  15.523  67.144  1.00  0.00    -0.316 A  
HETATM   21  C   UNL     1      -8.714  15.143  68.916  1.00  0.00    -0.205 A  
HETATM   22  C   UNL     1     -10.621  16.444  68.164  1.00  0.00    -0.318 A  
HETATM   23  C   UNL     1      -9.568  16.248  69.044  1.00  0.00    -0.257 A  
BRANCH  19  24
HETATM   24  O   UNL     1     -10.292  13.434  66.042  1.00  0.00    -0.285 OA 
HETATM   25  C   UNL     1     -10.413  13.948  64.711  1.00  0.00    -0.429 C  
ENDBRANCH  19  24
BRANCH  21  26
HETATM   26  O   UNL     1      -7.781  15.100  69.922  1.00  0.00    -0.160 OA 
HETATM   27  C   UNL     1      -6.531  15.736  69.667  1.00  0.00    -0.181 C  
ENDBRANCH  21  26
ENDBRANCH  15  18
ENDBRANCH  12  14
TORSDOF 4
ENDMDL
MODEL      176
REMARK 921   NORMALIZED FREE ENERGY PREDICTED BY IDOCK:   -1.99 KCAL/MOL
REMARK 922        TOTAL FREE ENERGY PREDICTED BY IDOCK:   -3.38 KCAL/MOL
REMARK 923 INTER-LIGAND FREE ENERGY PREDICTED BY IDOCK:   -2.97 KCAL/MOL
REMARK 924 INTRA-LIGAND FREE ENERGY PREDICTED BY IDOCK:   -0.41 KCAL/MOL
REMARK 927      BINDING AFFINITY PREDICTED BY RF-SCORE:    0.00 PKD
ROOT
HETATM    1  C   UNL     1     -10.855  15.140  68.663  1.00  0.00    -0.245 C  
HETATM    2  S   UNL     1      -9.589  15.604  69.908  1.00  0.00     0.090 SA 
HETATM    3  C   UNL     1      -8.531  16.525  68.731  1.00  0.00    -0.248 C  
HETATM    4  CA  UNL     1      -9.492  16.983  67.609  1.00  0.00    -0.236 C  
HETATM    5  C   UNL     1      -7.458  15.553  68.206  1.00  0.00    -0.116 C  
HETATM    6  C   UNL     1      -7.805  17.627  69.507  1.00  0.00     0.504 C  
HETATM    7  N   UNL     1     -10.516  15.923  67.450  1.00  0.00    -0.300 N  
HETATM    8  C   UNL     1     -10.189  18.334  67.846  1.00  0.00    -0.384 C  
HETATM    9  C   UNL     1     -10.209  14.807  66.712  1.00  0.00    -0.266 C  
HETATM   10  OXT UNL     1      -9.610  19.384  68.086  1.00  0.00    -0.321 OA 
HETATM   11  O   UNL     1     -11.535  18.294  67.674  1.00  0.00     0.315 OA 
HETATM   12  CA  UNL     1     -10.670  13.839  67.827  1.00  0.00    -0.246 C  
HETATM   13  O   UNL     1      -9.622  14.711  65.658  1.00  0.00    -0.298 OA 
ENDROOT
BRANCH  12  14
HETATM   14  N   UNL     1      -9.678  12.807  68.271  1.00  0.00    -0.222 N  
HETATM   15  C   UNL     1      -9.721  11.539  67.729  1.00  0.00    -0.174 C  
HETATM   16  H   UNL     1      -8.975  13.040  68.971  1.00  0.00     0.000 HD 
HETATM   17  O   UNL     1     -10.566  11.295  66.875  1.00  0.00    -0.233 OA 
BRANCH  15  18
HETATM   18  C   UNL     1      -8.737  10.491  68.183  1.00  0.00    -0.130 A  
HETATM   19  C   UNL     1      -8.749   9.160  67.680  1.00  0.00    -0.120 A  
HETATM   20  C   UNL     1      -7.735   8.254  68.053  1.00  0.00    -0.107 A  
HETATM   21  C   UNL     1      -7.681  10.864  69.052  1.00  0.00    -0.135 A  
HETATM   22  C   UNL     1      -6.683   8.658  68.870  1.00  0.00    -0.053 A  
HETATM   23  C   UNL     1      -6.657   9.955  69.359  1.00  0.00    -0.051 A  
BRANCH  19  24
HETATM   24  O   UNL     1      -9.761   8.771  66.826  1.00  0.00    -0.180 OA 
HETATM   25  C   UNL     1      -9.335   8.172  65.596  1.00  0.00     0.102 C  
ENDBRANCH  19  24
BRANCH  21  26
HETATM   26  O   UNL     1      -7.432  12.108  69.578  1.00  0.00     0.220 OA 
HETATM   27  C   UNL     1      -6.064  12.494  69.693  1.00  0.00    -0.133 C  
ENDBRANCH  21  26
ENDBRANCH  15  18
ENDBRANCH  12  14
TORSDOF 4
ENDMDL
MODEL      177
REMARK 921   NORMALIZED FREE ENERGY PREDICTED BY IDOCK:   -1.75 KCAL/MOL
REMARK 922        TOTAL FREE ENERGY PREDICTED BY IDOCK:   -3.08 KCAL/MOL
REMARK 923 INTER-LIGAND FREE ENERGY PREDICTED BY IDOCK:   -2.14 KCAL/MOL
REMARK 924 INTRA-LIGAND FREE ENERGY PREDICTED BY IDOCK:   -0.94 KCAL/MOL
REMARK 927      BINDING AFFINITY PREDICTED BY RF-SCORE:    0.00 PKD
ROOT
HETATM    1  C   UNL     1      -6.620   6.964  67.633  1.00  0.00    -0.055 C  
HETATM    2  S   UNL     1      -5.841   5.369  67.172  1.00  0.00    -0.018 SA 
HETATM    3  C   UNL     1      -7.171   4.863  66.019  1.00  0.00    -0.076 C  
HETATM    4  CA  UNL     1      -7.814   6.188  65.550  1.00  0.00    -0.103 C  
HETATM    5  C   UNL     1      -8.166   3.990  66.807  1.00  0.00    -0.100 C  
HETATM    6  C   UNL     1      -6.550   3.978  64.935  1.00  0.00    -0.043 C  
HETATM    7  N   UNL     1      -7.754   7.132  66.691  1.00  0.00    -0.096 N  
HETATM    8  C   UNL     1      -7.164   6.838  64.316  1.00  0.00    -0.070 C  
HETATM    9  C   UNL     1      -8.700   7.040  67.682  1.00  0.00    -0.121 C  
HETATM   10  OXT UNL     1      -6.996   6.280  63.241  1.00  0.00    -0.043 OA 
HETATM   11  O   UNL     1      -6.862   8.151  64.483  1.00  0.00    -0.066 OA 
HETATM   12  CA  UNL     1      -7.642   7.009  68.808  1.00  0.00    -0.105 C  
HETATM   13  O   UNL     1      -9.895   6.865  67.599  1.00  0.00    -0.127 OA 
ENDROOT
BRANCH  12  14
HETATM   14  N   UNL     1      -7.718   5.861  69.769  1.00  0.00    -0.087 N  
HETATM   15  C   UNL     1      -7.513   6.081  71.115  1.00  0.00    -0.085 C  
HETATM   16  H   UNL     1      -7.920   4.921  69.428  1.00  0.00     0.000 HD 
HETATM   17  O   UNL     1      -7.290   7.225  71.494  1.00  0.00    -0.078 OA 
BRANCH  15  18
HETATM   18  C   UNL     1      -7.572   4.928  72.085  1.00  0.00    -0.089 A  
HETATM   19  C   UNL     1      -8.639   4.760  73.010  1.00  0.00    -0.114 A  
HETATM   20  C   UNL     1      -8.702   3.603  73.813  1.00  0.00    -0.089 A  
HETATM   21  C   UNL     1      -6.596   3.902  71.999  1.00  0.00    -0.015 A  
HETATM   22  C   UNL     1      -7.759   2.588  73.678  1.00  0.00    -0.050 A  
HETATM   23  C   UNL     1      -6.719   2.738  72.774  1.00  0.00    -0.022 A  
BRANCH  19  24
HETATM   24  O   UNL     1      -9.607   5.739  73.109  1.00  0.00    -0.147 OA 
HETATM   25  C   UNL     1     -10.955   5.266  73.218  1.00  0.00    -0.313 C  
ENDBRANCH  19  24
BRANCH  21  26
HETATM   26  O   UNL     1      -5.542   3.822  71.123  1.00  0.00    -0.011 OA 
HETATM   27  C   UNL     1      -5.543   2.721  70.217  1.00  0.00    -0.017 C  
ENDBRANCH  21  26
ENDBRANCH  15  18
ENDBRANCH  12  14
TORSDOF 4
ENDMDL
MODEL      178
REMARK 921   NORMALIZED FREE ENERGY PREDICTED BY IDOCK:   -1.65 KCAL/MOL
REMARK 922        TOTAL FREE ENERGY PREDICTED BY IDOCK:   -2.97 KCAL/MOL
REMARK 923 INTER-LIGAND FREE ENERGY PREDICTED BY IDOCK:   -2.89 KCAL/MOL
REMARK 924 INTRA-LIGAND FREE ENERGY PREDICTED BY IDOCK:   -0.08 KCAL/MOL
REMARK 927      BINDING AFFINITY PREDICTED BY RF-SCORE:    0.00 PKD
ROOT
HETATM    1  C   UNL     1      -9.283  10.528  67.905  1.00  0.00    -0.140 C  
HETATM    2  S   UNL     1      -8.620  11.737  66.696  1.00  0.00    -0.141 SA 
HETATM    3  C   UNL     1     -10.136  11.792  65.670  1.00  0.00    -0.243 C  
HETATM    4  CA  UNL     1     -11.280  11.398  66.632  1.00  0.00    -0.231 C  
HETATM    5  C   UNL     1      -9.966  10.770  64.530  1.00  0.00    -0.395 C  
HETATM    6  C   UNL     1     -10.224  13.178  65.026  1.00  0.00    -0.296 C  
HETATM    7  N   UNL     1     -10.728  10.409  67.587  1.00  0.00    -0.264 N  
HETATM    8  C   UNL     1     -11.917  12.562  67.412  1.00  0.00    -0.213 C  
HETATM    9  C   UNL     1     -10.621   9.097  67.200  1.00  0.00    -0.216 C  
HETATM   10  OXT UNL     1     -12.391  13.567  66.902  1.00  0.00    -0.345 OA 
HETATM   11  O   UNL     1     -12.000  12.343  68.750  1.00  0.00    -0.302 OA 
HETATM   12  CA  UNL     1      -9.138   9.003  67.626  1.00  0.00    -0.133 C  
HETATM   13  O   UNL     1     -11.401   8.403  66.586  1.00  0.00     0.974 OA 
ENDROOT
BRANCH  12  14
HETATM   14  N   UNL     1      -8.169   8.529  66.585  1.00  0.00    -0.106 N  
HETATM   15  C   UNL     1      -8.185   7.208  66.186  1.00  0.00    -0.128 C  
HETATM   16  H   UNL     1      -7.501   9.180  66.173  1.00  0.00     0.000 HD 
HETATM   17  O   UNL     1      -9.013   6.455  66.687  1.00  0.00    -0.130 OA 
BRANCH  15  18
HETATM   18  C   UNL     1      -7.203   6.721  65.152  1.00  0.00    -0.074 A  
HETATM   19  C   UNL     1      -6.369   7.605  64.412  1.00  0.00    -0.048 A  
HETATM   20  C   UNL     1      -5.387   7.087  63.541  1.00  0.00    -0.032 A  
HETATM   21  C   UNL     1      -7.008   5.326  64.987  1.00  0.00    -0.057 A  
HETATM   22  C   UNL     1      -5.183   5.714  63.431  1.00  0.00    -0.013 A  
HETATM   23  C   UNL     1      -5.986   4.845  64.154  1.00  0.00    -0.021 A  
BRANCH  19  24
HETATM   24  O   UNL     1      -6.531   8.967  64.559  1.00  0.00    -0.070 OA 
HETATM   25  C   UNL     1      -6.897   9.678  63.370  1.00  0.00    -0.108 C  
ENDBRANCH  19  24
BRANCH  21  26
HETATM   26  O   UNL     1      -7.637   4.309  65.660  1.00  0.00    -0.083 OA 
HETATM   27  C   UNL     1      -7.523   3.002  65.102  1.00  0.00    -0.072 C  
ENDBRANCH  21  26
ENDBRANCH  15  18
ENDBRANCH  12  14
TORSDOF 4
ENDMDL
MODEL      179
REMARK 921   NORMALIZED FREE ENERGY PREDICTED BY IDOCK:   -0.63 KCAL/MOL
REMARK 922        TOTAL FREE ENERGY PREDICTED BY IDOCK:   -1.71 KCAL/MOL
REMARK 923 INTER-LIGAND FREE ENERGY PREDICTED BY IDOCK:   -1.80 KCAL/MOL
REMARK 924 INTRA-LIGAND FREE ENERGY PREDICTED BY IDOCK:    0.09 KCAL/MOL
REMARK 927      BINDING AFFINITY PREDICTED BY RF-SCORE:    0.00 PKD
ROOT
HETATM    1  C   UNL     1     -10.392   9.668  70.152  1.00  0.00    -0.266 C  
HETATM    2  S   UNL     1     -11.090   8.470  68.952  1.00  0.00     0.409 SA 
HETATM    3  C   UNL     1     -11.012   7.035  70.089  1.00  0.00    -0.272 C  
HETATM    4  CA  UNL     1     -11.067   7.650  71.506  1.00  0.00    -0.236 C  
HETATM    5  C   UNL     1      -9.680   6.306  69.830  1.00  0.00    -0.191 C  
HETATM    6  C   UNL     1     -12.139   6.070  69.713  1.00  0.00     1.339 C  
HETATM    7  N   UNL     1     -10.355   8.948  71.449  1.00  0.00    -0.278 N  
HETATM    8  C   UNL     1     -12.479   7.866  72.079  1.00  0.00    -0.304 C  
HETATM    9  C   UNL     1      -8.984   8.960  71.512  1.00  0.00    -0.205 C  
HETATM   10  OXT UNL     1     -13.331   6.996  72.180  1.00  0.00    -0.128 OA 
HETATM   11  O   UNL     1     -12.687   9.118  72.564  1.00  0.00    -0.367 OA 
HETATM   12  CA  UNL     1      -8.847   9.844  70.252  1.00  0.00    -0.028 C  
HETATM   13  O   UNL     1      -8.235   8.325  72.222  1.00  0.00    -0.134 OA 
ENDROOT
BRANCH  12  14
HETATM   14  N   UNL     1      -7.969   9.321  69.156  1.00  0.00    -0.094 N  
HETATM   15  C   UNL     1      -7.912   9.985  67.949  1.00  0.00    -0.105 C  
HETATM   16  H   UNL     1      -7.416   8.477  69.303  1.00  0.00     0.000 HD 
HETATM   17  O   UNL     1      -8.575  11.007  67.810  1.00  0.00    -0.126 OA 
BRANCH  15  18
HETATM   18  C   UNL     1      -7.043   9.454  66.837  1.00  0.00    -0.086 A  
HETATM   19  C   UNL     1      -5.917   8.618  67.077  1.00  0.00    -0.053 A  
HETATM   20  C   UNL     1      -5.210   8.057  65.994  1.00  0.00    -0.025 A  
HETATM   21  C   UNL     1      -7.422   9.691  65.491  1.00  0.00    -0.106 A  
HETATM   22  C   UNL     1      -5.629   8.266  64.683  1.00  0.00    -0.044 A  
HETATM   23  C   UNL     1      -6.729   9.073  64.438  1.00  0.00    -0.079 A  
BRANCH  19  24
HETATM   24  O   UNL     1      -5.531   8.364  68.377  1.00  0.00    -0.032 OA 
HETATM   25  C   UNL     1      -6.058   7.164  68.955  1.00  0.00    -0.023 C  
ENDBRANCH  19  24
BRANCH  21  26
HETATM   26  O   UNL     1      -8.515  10.389  65.041  1.00  0.00    -0.169 OA 
HETATM   27  C   UNL     1      -9.216   9.837  63.929  1.00  0.00    -0.198 C  
ENDBRANCH  21  26
ENDBRANCH  15  18
ENDBRANCH  12  14
TORSDOF 4
ENDMDL
MODEL      180
REMARK 921   NORMALIZED FREE ENERGY PREDICTED BY IDOCK:    0.16 KCAL/MOL
REMARK 922        TOTAL FREE ENERGY PREDICTED BY IDOCK:   -0.73 KCAL/MOL
REMARK 923 INTER-LIGAND FREE ENERGY PREDICTED BY IDOCK:   -0.52 KCAL/MOL
REMARK 924 INTRA-LIGAND FREE ENERGY PREDICTED BY IDOCK:   -0.21 KCAL/MOL
REMARK 927      BINDING AFFINITY PREDICTED BY RF-SCORE:    0.00 PKD
ROOT
HETATM    1  C   UNL     1     -10.162   9.387  70.683  1.00  0.00    -0.288 C  
HETATM    2  S   UNL     1     -11.152   8.606  69.350  1.00  0.00     0.195 SA 
HETATM    3  C   UNL     1     -11.318   6.990  70.195  1.00  0.00    -0.277 C  
HETATM    4  CA  UNL     1     -11.175   7.313  71.700  1.00  0.00    -0.245 C  
HETATM    5  C   UNL     1     -10.181   6.080  69.693  1.00  0.00    -0.268 C  
HETATM    6  C   UNL     1     -12.638   6.355  69.750  1.00  0.00     2.029 C  
HETATM    7  N   UNL     1     -10.213   8.434  71.818  1.00  0.00    -0.228 N  
HETATM    8  C   UNL     1     -12.482   7.684  72.424  1.00  0.00    -0.073 C  
HETATM    9  C   UNL     1      -8.868   8.165  71.763  1.00  0.00    -0.155 C  
HETATM   10  OXT UNL     1     -13.491   6.994  72.439  1.00  0.00     0.150 OA 
HETATM   11  O   UNL     1     -12.402   8.832  73.145  1.00  0.00    -0.015 OA 
HETATM   12  CA  UNL     1      -8.612   9.236  70.678  1.00  0.00    -0.225 C  
HETATM   13  O   UNL     1      -8.234   7.271  72.276  1.00  0.00    -0.100 OA 
ENDROOT
BRANCH  12  14
HETATM   14  N   UNL     1      -7.915   8.776  69.432  1.00  0.00    -0.098 N  
HETATM   15  C   UNL     1      -7.666   9.675  68.416  1.00  0.00    -0.081 C  
HETATM   16  H   UNL     1      -7.628   7.803  69.337  1.00  0.00     0.000 HD 
HETATM   17  O   UNL     1      -8.009  10.843  68.570  1.00  0.00    -0.117 OA 
BRANCH  15  18
HETATM   18  C   UNL     1      -6.981   9.217  67.155  1.00  0.00    -0.081 A  
HETATM   19  C   UNL     1      -6.251  10.102  66.314  1.00  0.00    -0.078 A  
HETATM   20  C   UNL     1      -5.533   9.598  65.210  1.00  0.00    -0.050 A  
HETATM   21  C   UNL     1      -6.954   7.833  66.846  1.00  0.00    -0.073 A  
HETATM   22  C   UNL     1      -5.484   8.231  64.955  1.00  0.00    -0.040 A  
HETATM   23  C   UNL     1      -6.186   7.359  65.772  1.00  0.00    -0.038 A  
BRANCH  19  24
HETATM   24  O   UNL     1      -6.252  11.454  66.595  1.00  0.00    -0.135 OA 
HETATM   25  C   UNL     1      -5.220  11.902  67.481  1.00  0.00    -0.082 C  
ENDBRANCH  19  24
BRANCH  21  26
HETATM   26  O   UNL     1      -7.512   6.806  67.566  1.00  0.00    -0.093 OA 
HETATM   27  C   UNL     1      -6.753   5.603  67.664  1.00  0.00    -0.059 C  
ENDBRANCH  21  26
ENDBRANCH  15  18
ENDBRANCH  12  14
TORSDOF 4
ENDMDL
MODEL      181
REMARK 921   NORMALIZED FREE ENERGY PREDICTED BY IDOCK:    0.32 KCAL/MOL
REMARK 922        TOTAL FREE ENERGY PREDICTED BY IDOCK:   -0.53 KCAL/MOL
REMARK 923 INTER-LIGAND FREE ENERGY PREDICTED BY IDOCK:   -4.05 KCAL/MOL
REMARK 924 INTRA-LIGAND FREE ENERGY PREDICTED BY IDOCK:    3.52 KCAL/MOL
REMARK 927      BINDING AFFINITY PREDICTED BY RF-SCORE:    0.00 PKD
ROOT
HETATM    1  C   UNL     1      -9.998  12.364  69.277  1.00  0.00     0.547 C  
HETATM    2  S   UNL     1      -9.965  13.684  68.004  1.00  0.00    -0.253 SA 
HETATM    3  C   UNL     1     -11.781  13.923  67.968  1.00  0.00    -0.352 C  
HETATM    4  CA  UNL     1     -12.269  13.461  69.360  1.00  0.00    -0.195 C  
HETATM    5  C   UNL     1     -12.347  13.041  66.839  1.00  0.00    -0.068 C  
HETATM    6  C   UNL     1     -12.061  15.380  67.589  1.00  0.00     0.335 C  
HETATM    7  N   UNL     1     -11.393  12.342  69.782  1.00  0.00    -0.144 N  
HETATM    8  C   UNL     1     -12.274  14.545  70.452  1.00  0.00    -0.329 C  
HETATM    9  C   UNL     1     -11.639  11.083  69.293  1.00  0.00    -0.314 C  
HETATM   10  OXT UNL     1     -12.845  15.622  70.362  1.00  0.00    -0.406 OA 
HETATM   11  O   UNL     1     -11.653  14.169  71.600  1.00  0.00     0.124 OA 
HETATM   12  CA  UNL     1     -10.175  10.879  68.841  1.00  0.00    -0.198 C  
HETATM   13  O   UNL     1     -12.690  10.501  69.144  1.00  0.00    -0.075 OA 
ENDROOT
BRANCH  12  14
HETATM   14  N   UNL     1      -9.963  10.498  67.407  1.00  0.00    -0.174 N  
HETATM   15  C   UNL     1      -9.218  11.317  66.584  1.00  0.00    -0.180 C  
HETATM   16  H   UNL     1     -10.367   9.636  67.042  1.00  0.00     0.000 HD 
HETATM   17  O   UNL     1      -8.730  12.337  67.059  1.00  0.00    -0.188 OA 
BRANCH  15  18
HETATM   18  C   UNL     1      -9.014  10.947  65.137  1.00  0.00    -0.195 A  
HETATM   19  C   UNL     1      -8.419   9.718  64.737  1.00  0.00    -0.164 A  
HETATM   20  C   UNL     1      -8.358   9.374  63.371  1.00  0.00    -0.188 A  
HETATM   21  C   UNL     1      -9.540  11.792  64.127  1.00  0.00    -0.072 A  
HETATM   22  C   UNL     1      -8.923  10.198  62.402  1.00  0.00    -0.287 A  
HETATM   23  C   UNL     1      -9.512  11.394  62.781  1.00  0.00    -0.314 A  
BRANCH  19  24
HETATM   24  O   UNL     1      -7.906   8.872  65.699  1.00  0.00    -0.092 OA 
HETATM   25  C   UNL     1      -6.502   8.605  65.602  1.00  0.00    -0.056 C  
ENDBRANCH  19  24
BRANCH  21  26
HETATM   26  O   UNL     1     -10.225  12.969  64.295  1.00  0.00    -0.389 OA 
HETATM   27  C   UNL     1     -11.623  12.945  64.013  1.00  0.00    -0.426 C  
ENDBRANCH  21  26
ENDBRANCH  15  18
ENDBRANCH  12  14
TORSDOF 4
ENDMDL
MODEL      182
REMARK 921   NORMALIZED FREE ENERGY PREDICTED BY IDOCK:    0.56 KCAL/MOL
REMARK 922        TOTAL FREE ENERGY PREDICTED BY IDOCK:   -0.23 KCAL/MOL
REMARK 923 INTER-LIGAND FREE ENERGY PREDICTED BY IDOCK:   -2.49 KCAL/MOL
REMARK 924 INTRA-LIGAND FREE ENERGY PREDICTED BY IDOCK:    2.26 KCAL/MOL
REMARK 927      BINDING AFFINITY PREDICTED BY RF-SCORE:    0.00 PKD
ROOT
HETATM    1  C   UNL     1      -8.523  11.311  68.870  1.00  0.00    -0.058 C  
HETATM    2  S   UNL     1      -8.621  10.912  67.082  1.00  0.00    -0.132 SA 
HETATM    3  C   UNL     1     -10.413  10.532  67.097  1.00  0.00    -0.249 C  
HETATM    4  CA  UNL     1     -10.978  11.336  68.290  1.00  0.00    -0.224 C  
HETATM    5  C   UNL     1     -10.568   9.014  67.303  1.00  0.00    -0.301 C  
HETATM    6  C   UNL     1     -10.980  10.863  65.714  1.00  0.00    -0.045 C  
HETATM    7  N   UNL     1      -9.930  11.361  69.338  1.00  0.00     0.115 N  
HETATM    8  C   UNL     1     -11.414  12.777  67.969  1.00  0.00    -0.318 C  
HETATM    9  C   UNL     1      -9.784  10.272  70.159  1.00  0.00     0.121 C  
HETATM   10  OXT UNL     1     -12.210  13.087  67.095  1.00  0.00    -0.323 OA 
HETATM   11  O   UNL     1     -10.900  13.706  68.817  1.00  0.00    -0.248 OA 
HETATM   12  CA  UNL     1      -8.264  10.172  69.899  1.00  0.00    -0.109 C  
HETATM   13  O   UNL     1     -10.626   9.590  70.701  1.00  0.00    -0.262 OA 
ENDROOT
BRANCH  12  14
HETATM   14  N   UNL     1      -7.749   8.846  69.424  1.00  0.00    -0.091 N  
HETATM   15  C   UNL     1      -6.593   8.326  69.967  1.00  0.00    -0.039 C  
HETATM   16  H   UNL     1      -8.252   8.331  68.702  1.00  0.00     0.000 HD 
HETATM   17  O   UNL     1      -6.021   8.962  70.846  1.00  0.00    -0.034 OA 
BRANCH  15  18
HETATM   18  C   UNL     1      -6.061   7.002  69.482  1.00  0.00    -0.030 A  
HETATM   19  C   UNL     1      -6.140   5.814  70.261  1.00  0.00    -0.026 A  
HETATM   20  C   UNL     1      -5.732   4.580  69.712  1.00  0.00    -0.016 A  
HETATM   21  C   UNL     1      -5.572   6.897  68.155  1.00  0.00    -0.020 A  
HETATM   22  C   UNL     1      -5.299   4.495  68.392  1.00  0.00    -0.011 A  
HETATM   23  C   UNL     1      -5.226   5.646  67.622  1.00  0.00    -0.004 A  
BRANCH  19  24
HETATM   24  O   UNL     1      -6.620   5.884  71.553  1.00  0.00    -0.050 OA 
HETATM   25  C   UNL     1      -5.709   6.415  72.523  1.00  0.00    -0.038 C  
ENDBRANCH  19  24
BRANCH  21  26
HETATM   26  O   UNL     1      -5.494   7.892  67.213  1.00  0.00    -0.034 OA 
HETATM   27  C   UNL     1      -6.585   8.806  67.152  1.00  0.00    -0.062 C  
ENDBRANCH  21  26
ENDBRANCH  15  18
ENDBRANCH  12  14
TORSDOF 4
ENDMDL
MODEL      183
REMARK 921   NORMALIZED FREE ENERGY PREDICTED BY IDOCK:    0.65 KCAL/MOL
REMARK 922        TOTAL FREE ENERGY PREDICTED BY IDOCK:   -0.13 KCAL/MOL
REMARK 923 INTER-LIGAND FREE ENERGY PREDICTED BY IDOCK:    0.57 KCAL/MOL
REMARK 924 INTRA-LIGAND FREE ENERGY PREDICTED BY IDOCK:   -0.70 KCAL/MOL
REMARK 927      BINDING AFFINITY PREDICTED BY RF-SCORE:    0.00 PKD
ROOT
HETATM    1  C   UNL     1     -10.034  13.415  70.280  1.00  0.00     3.013 C  
HETATM    2  S   UNL     1      -9.648  14.832  69.181  1.00  0.00    -0.074 SA 
HETATM    3  C   UNL     1     -11.375  15.431  69.071  1.00  0.00    -0.316 C  
HETATM    4  CA  UNL     1     -12.051  14.927  70.367  1.00  0.00    -0.330 C  
HETATM    5  C   UNL     1     -12.008  14.807  67.813  1.00  0.00    -0.247 C  
HETATM    6  C   UNL     1     -11.340  16.947  68.857  1.00  0.00     0.117 C  
HETATM    7  N   UNL     1     -11.443  13.617  70.698  1.00  0.00     0.130 N  
HETATM    8  C   UNL     1     -11.936  15.866  71.581  1.00  0.00    -0.480 C  
HETATM    9  C   UNL     1     -11.886  12.493  70.047  1.00  0.00    -0.289 C  
HETATM   10  OXT UNL     1     -12.281  17.039  71.591  1.00  0.00     1.035 OA 
HETATM   11  O   UNL     1     -11.491  15.252  72.707  1.00  0.00    -0.435 OA 
HETATM   12  CA  UNL     1     -10.457  12.052  69.657  1.00  0.00     0.594 C  
HETATM   13  O   UNL     1     -13.014  12.152  69.769  1.00  0.00     0.542 OA 
ENDROOT
BRANCH  12  14
HETATM   14  N   UNL     1     -10.208  11.793  68.201  1.00  0.00    -0.196 N  
HETATM   15  C   UNL     1     -10.428  10.534  67.683  1.00  0.00    -0.234 C  
HETATM   16  H   UNL     1      -9.878  12.544  67.597  1.00  0.00     0.000 HD 
HETATM   17  O   UNL     1     -10.844   9.656  68.433  1.00  0.00    -0.219 OA 
BRANCH  15  18
HETATM   18  C   UNL     1     -10.165  10.262  66.224  1.00  0.00    -0.287 A  
HETATM   19  C   UNL     1     -10.570  11.155  65.193  1.00  0.00    -0.253 A  
HETATM   20  C   UNL     1     -10.195  10.908  63.857  1.00  0.00    -0.418 A  
HETATM   21  C   UNL     1      -9.379   9.138  65.861  1.00  0.00    -0.243 A  
HETATM   22  C   UNL     1      -9.385   9.824  63.531  1.00  0.00    -0.139 A  
HETATM   23  C   UNL     1      -8.978   8.952  64.529  1.00  0.00     0.001 A  
BRANCH  19  24
HETATM   24  O   UNL     1     -11.329  12.261  65.519  1.00  0.00    -0.324 OA 
HETATM   25  C   UNL     1     -12.632  12.312  64.926  1.00  0.00    -0.155 C  
ENDBRANCH  19  24
BRANCH  21  26
HETATM   26  O   UNL     1      -8.815   8.208  66.698  1.00  0.00    -0.130 OA 
HETATM   27  C   UNL     1      -7.720   8.645  67.499  1.00  0.00    -0.098 C  
ENDBRANCH  21  26
ENDBRANCH  15  18
ENDBRANCH  12  14
TORSDOF 4
ENDMDL
MODEL      184
REMARK 921   NORMALIZED FREE ENERGY PREDICTED BY IDOCK:    1.31 KCAL/MOL
REMARK 922        TOTAL FREE ENERGY PREDICTED BY IDOCK:    0.69 KCAL/MOL
REMARK 923 INTER-LIGAND FREE ENERGY PREDICTED BY IDOCK:    0.86 KCAL/MOL
REMARK 924 INTRA-LIGAND FREE ENERGY PREDICTED BY IDOCK:   -0.17 KCAL/MOL
REMARK 927      BINDING AFFINITY PREDICTED BY RF-SCORE:    0.00 PKD
ROOT
HETATM    1  C   UNL     1      -9.931   9.367  70.261  1.00  0.00    -0.237 C  
HETATM    2  S   UNL     1     -11.384   8.802  69.294  1.00  0.00     0.542 SA 
HETATM    3  C   UNL     1     -11.635   7.265  70.257  1.00  0.00    -0.174 C  
HETATM    4  CA  UNL     1     -11.024   7.563  71.645  1.00  0.00    -0.232 C  
HETATM    5  C   UNL     1     -10.887   6.130  69.532  1.00  0.00    -0.428 C  
HETATM    6  C   UNL     1     -13.126   6.920  70.221  1.00  0.00     1.159 C  
HETATM    7  N   UNL     1      -9.860   8.455  71.430  1.00  0.00    -0.181 N  
HETATM    8  C   UNL     1     -11.980   8.208  72.664  1.00  0.00    -0.292 C  
HETATM    9  C   UNL     1      -8.665   7.907  71.037  1.00  0.00    -0.133 C  
HETATM   10  OXT UNL     1     -13.064   7.748  72.992  1.00  0.00     0.618 OA 
HETATM   11  O   UNL     1     -11.476   9.319  73.261  1.00  0.00     1.915 OA 
HETATM   12  CA  UNL     1      -8.505   8.890  69.855  1.00  0.00    -0.135 C  
HETATM   13  O   UNL     1      -8.108   6.903  71.421  1.00  0.00    -0.107 OA 
ENDROOT
BRANCH  12  14
HETATM   14  N   UNL     1      -8.283   8.283  68.502  1.00  0.00    -0.129 N  
HETATM   15  C   UNL     1      -8.465   9.050  67.370  1.00  0.00    -0.115 C  
HETATM   16  H   UNL     1      -8.000   7.308  68.419  1.00  0.00     0.000 HD 
HETATM   17  O   UNL     1      -8.789  10.225  67.504  1.00  0.00    -0.128 OA 
BRANCH  15  18
HETATM   18  C   UNL     1      -8.260   8.441  66.006  1.00  0.00    -0.112 A  
HETATM   19  C   UNL     1      -8.845   8.986  64.829  1.00  0.00    -0.122 A  
HETATM   20  C   UNL     1      -8.526   8.445  63.566  1.00  0.00     0.013 A  
HETATM   21  C   UNL     1      -7.356   7.358  65.861  1.00  0.00    -0.075 A  
HETATM   22  C   UNL     1      -7.600   7.413  63.445  1.00  0.00    -0.114 A  
HETATM   23  C   UNL     1      -7.019   6.880  64.585  1.00  0.00    -0.058 A  
BRANCH  19  24
HETATM   24  O   UNL     1      -9.722  10.046  64.939  1.00  0.00    -0.296 OA 
HETATM   25  C   UNL     1     -10.088  10.677  63.706  1.00  0.00    -0.270 C  
ENDBRANCH  19  24
BRANCH  21  26
HETATM   26  O   UNL     1      -6.622   6.746  66.845  1.00  0.00    -0.042 OA 
HETATM   27  C   UNL     1      -5.525   5.939  66.421  1.00  0.00    -0.013 C  
ENDBRANCH  21  26
ENDBRANCH  15  18
ENDBRANCH  12  14
TORSDOF 4
ENDMDL
MODEL      185
REMARK 921   NORMALIZED FREE ENERGY PREDICTED BY IDOCK:    5.60 KCAL/MOL
REMARK 922        TOTAL FREE ENERGY PREDICTED BY IDOCK:    5.98 KCAL/MOL
REMARK 923 INTER-LIGAND FREE ENERGY PREDICTED BY IDOCK:    6.58 KCAL/MOL
REMARK 924 INTRA-LIGAND FREE ENERGY PREDICTED BY IDOCK:   -0.60 KCAL/MOL
REMARK 927      BINDING AFFINITY PREDICTED BY RF-SCORE:    0.00 PKD
ROOT
HETATM    1  C   UNL     1      -7.081  12.927  70.898  1.00  0.00     3.327 C  
HETATM    2  S   UNL     1      -8.599  11.915  70.704  1.00  0.00     7.403 SA 
HETATM    3  C   UNL     1      -7.821  10.658  69.623  1.00  0.00    -0.036 C  
HETATM    4  CA  UNL     1      -6.318  10.705  69.979  1.00  0.00    -0.126 C  
HETATM    5  C   UNL     1      -8.079  11.073  68.162  1.00  0.00    -0.122 C  
HETATM    6  C   UNL     1      -8.541   9.326  69.849  1.00  0.00    -0.178 C  
HETATM    7  N   UNL     1      -5.989  12.111  70.310  1.00  0.00    -0.159 N  
HETATM    8  C   UNL     1      -5.884   9.792  71.140  1.00  0.00    -0.071 C  
HETATM    9  C   UNL     1      -5.761  13.000  69.290  1.00  0.00    -0.084 C  
HETATM   10  OXT UNL     1      -6.089   8.588  71.194  1.00  0.00    -0.034 OA 
HETATM   11  O   UNL     1      -5.153  10.427  72.092  1.00  0.00    -0.213 OA 
HETATM   12  CA  UNL     1      -6.758  14.037  69.855  1.00  0.00     0.001 C  
HETATM   13  O   UNL     1      -5.132  12.859  68.265  1.00  0.00    -0.064 OA 
ENDROOT
BRANCH  12  14
HETATM   14  N   UNL     1      -7.832  14.513  68.923  1.00  0.00    -0.143 N  
HETATM   15  C   UNL     1      -7.505  15.342  67.870  1.00  0.00    -0.144 C  
HETATM   16  H   UNL     1      -8.799  14.226  69.067  1.00  0.00     0.000 HD 
HETATM   17  O   UNL     1      -6.330  15.654  67.712  1.00  0.00    -0.132 OA 
BRANCH  15  18
HETATM   18  C   UNL     1      -8.582  15.838  66.938  1.00  0.00    -0.279 A  
HETATM   19  C   UNL     1      -9.551  14.972  66.358  1.00  0.00    -0.289 A  
HETATM   20  C   UNL     1     -10.604  15.506  65.588  1.00  0.00    -0.389 A  
HETATM   21  C   UNL     1      -8.719  17.232  66.719  1.00  0.00    -0.251 A  
HETATM   22  C   UNL     1     -10.744  16.882  65.426  1.00  0.00    -0.161 A  
HETATM   23  C   UNL     1      -9.810  17.734  65.993  1.00  0.00    -0.181 A  
BRANCH  19  24
HETATM   24  O   UNL     1      -9.447  13.611  66.561  1.00  0.00    -0.269 OA 
HETATM   25  C   UNL     1     -10.257  12.795  65.706  1.00  0.00    -0.289 C  
ENDBRANCH  19  24
BRANCH  21  26
HETATM   26  O   UNL     1      -7.954  18.240  67.251  1.00  0.00    -0.221 OA 
HETATM   27  C   UNL     1      -8.640  19.239  68.002  1.00  0.00    -0.321 C  
ENDBRANCH  21  26
ENDBRANCH  15  18
ENDBRANCH  12  14
TORSDOF 4
ENDMDL
MODEL      186
REMARK 921   NORMALIZED FREE ENERGY PREDICTED BY IDOCK:    6.36 KCAL/MOL
REMARK 922        TOTAL FREE ENERGY PREDICTED BY IDOCK:    6.92 KCAL/MOL
REMARK 923 INTER-LIGAND FREE ENERGY PREDICTED BY IDOCK:   -3.02 KCAL/MOL
REMARK 924 INTRA-LIGAND FREE ENERGY PREDICTED BY IDOCK:    9.94 KCAL/MOL
REMARK 927      BINDING AFFINITY PREDICTED BY RF-SCORE:    0.00 PKD
ROOT
HETATM    1  C   UNL     1      -8.523  11.311  68.870  1.00  0.00    -0.058 C  
HETATM    2  S   UNL     1      -8.634  10.929  67.079  1.00  0.00    -0.139 SA 
HETATM    3  C   UNL     1     -10.427  10.557  67.102  1.00  0.00    -0.249 C  
HETATM    4  CA  UNL     1     -10.982  11.352  68.306  1.00  0.00    -0.216 C  
HETATM    5  C   UNL     1     -10.588   9.037  67.294  1.00  0.00    -0.301 C  
HETATM    6  C   UNL     1     -11.001  10.902  65.725  1.00  0.00    -0.045 C  
HETATM    7  N   UNL     1      -9.927  11.363  69.347  1.00  0.00     0.115 N  
HETATM    8  C   UNL     1     -11.413  12.797  68.001  1.00  0.00    -0.318 C  
HETATM    9  C   UNL     1      -9.780  10.265  70.157  1.00  0.00     0.121 C  
HETATM   10  OXT UNL     1     -12.214  13.118  67.134  1.00  0.00    -0.326 OA 
HETATM   11  O   UNL     1     -10.891  13.716  68.854  1.00  0.00    -0.247 OA 
HETATM   12  CA  UNL     1      -8.262  10.161  69.887  1.00  0.00    -0.109 C  
HETATM   13  O   UNL     1     -10.621   9.582  70.698  1.00  0.00    -0.262 OA 
ENDROOT
BRANCH  12  14
HETATM   14  N   UNL     1      -7.756   8.838  69.396  1.00  0.00    -0.091 N  
HETATM   15  C   UNL     1      -7.737   8.572  68.043  1.00  0.00    -0.103 C  
HETATM   16  H   UNL     1      -7.428   8.137  70.060  1.00  0.00     0.000 HD 
HETATM   17  O   UNL     1      -8.121   9.443  67.269  1.00  0.00    -0.109 OA 
BRANCH  15  18
HETATM   18  C   UNL     1      -7.245   7.238  67.543  1.00  0.00    -0.090 A  
HETATM   19  C   UNL     1      -5.991   7.079  66.891  1.00  0.00    -0.030 A  
HETATM   20  C   UNL     1      -5.530   5.791  66.549  1.00  0.00    -0.013 A  
HETATM   21  C   UNL     1      -7.996   6.070  67.836  1.00  0.00    -0.106 A  
HETATM   22  C   UNL     1      -6.263   4.657  66.888  1.00  0.00    -0.032 A  
HETATM   23  C   UNL     1      -7.483   4.800  67.531  1.00  0.00    -0.079 A  
BRANCH  19  24
HETATM   24  O   UNL     1      -5.235   8.197  66.601  1.00  0.00    -0.027 OA 
HETATM   25  C   UNL     1      -5.678   8.969  65.479  1.00  0.00    -0.050 C  
ENDBRANCH  19  24
BRANCH  21  26
HETATM   26  O   UNL     1      -9.178   5.989  68.528  1.00  0.00    -0.116 OA 
HETATM   27  C   UNL     1      -9.313   6.833  69.669  1.00  0.00    -0.144 C  
ENDBRANCH  21  26
ENDBRANCH  15  18
ENDBRANCH  12  14
TORSDOF 4
ENDMDL
MODEL      187
REMARK 921   NORMALIZED FREE ENERGY PREDICTED BY IDOCK:    7.00 KCAL/MOL
REMARK 922        TOTAL FREE ENERGY PREDICTED BY IDOCK:    7.71 KCAL/MOL
REMARK 923 INTER-LIGAND FREE ENERGY PREDICTED BY IDOCK:    7.60 KCAL/MOL
REMARK 924 INTRA-LIGAND FREE ENERGY PREDICTED BY IDOCK:    0.11 KCAL/MOL
REMARK 927      BINDING AFFINITY PREDICTED BY RF-SCORE:    0.00 PKD
ROOT
HETATM    1  C   UNL     1     -10.035   8.404  66.770  1.00  0.00    -0.284 C  
HETATM    2  S   UNL     1      -8.397   8.749  67.521  1.00  0.00    -0.109 SA 
HETATM    3  C   UNL     1      -8.672   7.707  69.002  1.00  0.00    -0.136 C  
HETATM    4  CA  UNL     1      -9.710   6.652  68.556  1.00  0.00    -0.131 C  
HETATM    5  C   UNL     1      -9.221   8.616  70.119  1.00  0.00    -0.165 C  
HETATM    6  C   UNL     1      -7.313   7.181  69.472  1.00  0.00    -0.089 C  
HETATM    7  N   UNL     1     -10.617   7.311  67.588  1.00  0.00    -0.242 N  
HETATM    8  C   UNL     1      -9.125   5.377  67.922  1.00  0.00    -0.109 C  
HETATM    9  C   UNL     1     -11.639   8.095  68.061  1.00  0.00     1.718 C  
HETATM   10  OXT UNL     1      -8.288   4.658  68.447  1.00  0.00    -0.090 OA 
HETATM   11  O   UNL     1      -9.693   5.046  66.734  1.00  0.00    -0.144 OA 
HETATM   12  CA  UNL     1     -11.258   9.288  67.154  1.00  0.00     0.652 C  
HETATM   13  O   UNL     1     -12.398   7.906  68.985  1.00  0.00     2.430 OA 
ENDROOT
BRANCH  12  14
HETATM   14  N   UNL     1     -11.037  10.605  67.834  1.00  0.00    -0.291 N  
HETATM   15  C   UNL     1     -11.687  11.731  67.374  1.00  0.00    -0.230 C  
HETATM   16  H   UNL     1     -10.409  10.668  68.634  1.00  0.00     0.000 HD 
HETATM   17  O   UNL     1     -12.451  11.618  66.421  1.00  0.00     0.536 OA 
BRANCH  15  18
HETATM   18  C   UNL     1     -11.457  13.062  68.043  1.00  0.00    -0.348 A  
HETATM   19  C   UNL     1     -10.969  13.175  69.375  1.00  0.00     0.001 A  
HETATM   20  C   UNL     1     -10.662  14.443  69.910  1.00  0.00     0.049 A  
HETATM   21  C   UNL     1     -11.613  14.252  67.288  1.00  0.00    -0.377 A  
HETATM   22  C   UNL     1     -10.780  15.592  69.134  1.00  0.00    -0.243 A  
HETATM   23  C   UNL     1     -11.247  15.492  67.832  1.00  0.00    -0.325 A  
BRANCH  19  24
HETATM   24  O   UNL     1     -10.800  12.032  70.131  1.00  0.00     0.475 OA 
HETATM   25  C   UNL     1      -9.441  11.669  70.406  1.00  0.00     4.033 C  
ENDBRANCH  19  24
BRANCH  21  26
HETATM   26  O   UNL     1     -11.983  14.363  65.971  1.00  0.00    -0.386 OA 
HETATM   27  C   UNL     1     -12.700  15.539  65.602  1.00  0.00     1.403 C  
ENDBRANCH  21  26
ENDBRANCH  15  18
ENDBRANCH  12  14
TORSDOF 4
ENDMDL
MODEL      188
REMARK 921   NORMALIZED FREE ENERGY PREDICTED BY IDOCK:    7.30 KCAL/MOL
REMARK 922        TOTAL FREE ENERGY PREDICTED BY IDOCK:    8.08 KCAL/MOL
REMARK 923 INTER-LIGAND FREE ENERGY PREDICTED BY IDOCK:    7.66 KCAL/MOL
REMARK 924 INTRA-LIGAND FREE ENERGY PREDICTED BY IDOCK:    0.42 KCAL/MOL
REMARK 927      BINDING AFFINITY PREDICTED BY RF-SCORE:    0.00 PKD
ROOT
HETATM    1  C   UNL     1     -11.222   8.835  67.591  1.00  0.00     0.648 C  
HETATM    2  S   UNL     1     -10.034   8.765  66.196  1.00  0.00    -0.044 SA 
HETATM    3  C   UNL     1      -8.866   7.628  67.032  1.00  0.00    -0.128 C  
HETATM    4  CA  UNL     1      -9.730   6.855  68.054  1.00  0.00    -0.130 C  
HETATM    5  C   UNL     1      -7.790   8.487  67.723  1.00  0.00    -0.103 C  
HETATM    6  C   UNL     1      -8.161   6.797  65.957  1.00  0.00    -0.129 C  
HETATM    7  N   UNL     1     -10.774   7.787  68.541  1.00  0.00    -0.100 N  
HETATM    8  C   UNL     1     -10.398   5.575  67.520  1.00  0.00    -0.214 C  
HETATM    9  C   UNL     1     -10.452   8.694  69.520  1.00  0.00    -0.220 C  
HETATM   10  OXT UNL     1      -9.804   4.650  66.985  1.00  0.00    -0.183 OA 
HETATM   11  O   UNL     1     -11.730   5.504  67.777  1.00  0.00     1.684 OA 
HETATM   12  CA  UNL     1     -11.021   9.888  68.721  1.00  0.00    -0.179 C  
HETATM   13  O   UNL     1      -9.795   8.547  70.527  1.00  0.00    -0.174 OA 
ENDROOT
BRANCH  12  14
HETATM   14  N   UNL     1     -10.097  11.047  68.498  1.00  0.00    -0.183 N  
HETATM   15  C   UNL     1      -9.808  11.902  69.541  1.00  0.00     0.896 C  
HETATM   16  H   UNL     1      -9.684  11.203  67.579  1.00  0.00     0.000 HD 
HETATM   17  O   UNL     1     -10.305  11.677  70.639  1.00  0.00     2.272 OA 
BRANCH  15  18
HETATM   18  C   UNL     1      -8.892  13.079  69.319  1.00  0.00     0.937 A  
HETATM   19  C   UNL     1      -7.475  12.967  69.366  1.00  0.00     0.447 A  
HETATM   20  C   UNL     1      -6.666  14.074  69.037  1.00  0.00    -0.109 A  
HETATM   21  C   UNL     1      -9.448  14.324  68.931  1.00  0.00    -0.069 A  
HETATM   22  C   UNL     1      -7.235  15.272  68.613  1.00  0.00    -0.121 A  
HETATM   23  C   UNL     1      -8.615  15.390  68.557  1.00  0.00    -0.172 A  
BRANCH  19  24
HETATM   24  O   UNL     1      -6.905  11.764  69.734  1.00  0.00    -0.054 OA 
HETATM   25  C   UNL     1      -7.330  11.240  70.997  1.00  0.00     3.658 C  
ENDBRANCH  19  24
BRANCH  21  26
HETATM   26  O   UNL     1     -10.774  14.623  68.738  1.00  0.00    -0.234 OA 
HETATM   27  C   UNL     1     -11.411  14.023  67.613  1.00  0.00    -0.334 C  
ENDBRANCH  21  26
ENDBRANCH  15  18
ENDBRANCH  12  14
TORSDOF 4
ENDMDL
MODEL      189
REMARK 921   NORMALIZED FREE ENERGY PREDICTED BY IDOCK:    8.57 KCAL/MOL
REMARK 922        TOTAL FREE ENERGY PREDICTED BY IDOCK:    9.64 KCAL/MOL
REMARK 923 INTER-LIGAND FREE ENERGY PREDICTED BY IDOCK:    8.02 KCAL/MOL
REMARK 924 INTRA-LIGAND FREE ENERGY PREDICTED BY IDOCK:    1.62 KCAL/MOL
REMARK 927      BINDING AFFINITY PREDICTED BY RF-SCORE:    0.00 PKD
ROOT
HETATM    1  C   UNL     1      -7.625   6.862  67.251  1.00  0.00    -0.108 C  
HETATM    2  S   UNL     1      -8.821   5.473  67.182  1.00  0.00    -0.105 SA 
HETATM    3  C   UNL     1     -10.218   6.490  66.575  1.00  0.00    -0.065 C  
HETATM    4  CA  UNL     1      -9.554   7.681  65.848  1.00  0.00     0.215 C  
HETATM    5  C   UNL     1     -11.032   6.946  67.801  1.00  0.00    -0.280 C  
HETATM    6  C   UNL     1     -11.130   5.591  65.734  1.00  0.00     0.652 C  
HETATM    7  N   UNL     1      -8.302   7.995  66.575  1.00  0.00    -0.117 N  
HETATM    8  C   UNL     1      -9.238   7.453  64.359  1.00  0.00     1.630 C  
HETATM    9  C   UNL     1      -8.368   8.749  67.720  1.00  0.00    -0.118 C  
HETATM   10  OXT UNL     1     -10.053   7.105  63.518  1.00  0.00     5.395 OA 
HETATM   11  O   UNL     1      -7.960   7.765  64.017  1.00  0.00    -0.132 OA 
HETATM   12  CA  UNL     1      -7.535   7.735  68.537  1.00  0.00    -0.103 C  
HETATM   13  O   UNL     1      -9.020   9.741  67.959  1.00  0.00    -0.119 OA 
ENDROOT
BRANCH  12  14
HETATM   14  N   UNL     1      -8.146   7.240  69.814  1.00  0.00    -0.126 N  
HETATM   15  C   UNL     1      -7.841   7.865  71.005  1.00  0.00    -0.089 C  
HETATM   16  H   UNL     1      -8.783   6.445  69.802  1.00  0.00     0.000 HD 
HETATM   17  O   UNL     1      -7.085   8.831  70.984  1.00  0.00    -0.067 OA 
BRANCH  15  18
HETATM   18  C   UNL     1      -8.438   7.363  72.295  1.00  0.00    -0.129 A  
HETATM   19  C   UNL     1      -9.443   8.078  73.003  1.00  0.00    -0.275 A  
HETATM   20  C   UNL     1     -10.049   7.506  74.141  1.00  0.00     0.213 A  
HETATM   21  C   UNL     1      -8.080   6.074  72.767  1.00  0.00    -0.107 A  
HETATM   22  C   UNL     1      -9.714   6.220  74.557  1.00  0.00    -0.309 A  
HETATM   23  C   UNL     1      -8.741   5.512  73.870  1.00  0.00    -0.121 A  
BRANCH  19  24
HETATM   24  O   UNL     1      -9.817   9.331  72.563  1.00  0.00     0.240 OA 
HETATM   25  C   UNL     1     -11.219   9.621  72.640  1.00  0.00     2.171 C  
ENDBRANCH  19  24
BRANCH  21  26
HETATM   26  O   UNL     1      -7.206   5.187  72.191  1.00  0.00    -0.080 OA 
HETATM   27  C   UNL     1      -6.589   5.593  70.971  1.00  0.00    -0.048 C  
ENDBRANCH  21  26
ENDBRANCH  15  18
ENDBRANCH  12  14
TORSDOF 4
ENDMDL
MODEL      190
REMARK 921   NORMALIZED FREE ENERGY PREDICTED BY IDOCK:    9.65 KCAL/MOL
REMARK 922        TOTAL FREE ENERGY PREDICTED BY IDOCK:   10.98 KCAL/MOL
REMARK 923 INTER-LIGAND FREE ENERGY PREDICTED BY IDOCK:    7.38 KCAL/MOL
REMARK 924 INTRA-LIGAND FREE ENERGY PREDICTED BY IDOCK:    3.60 KCAL/MOL
REMARK 927      BINDING AFFINITY PREDICTED BY RF-SCORE:    0.00 PKD
ROOT
HETATM    1  C   UNL     1     -10.660  16.300  70.304  1.00  0.00    -0.089 C  
HETATM    2  S   UNL     1      -8.904  16.323  70.832  1.00  0.00     4.505 SA 
HETATM    3  C   UNL     1      -8.358  17.494  69.534  1.00  0.00     0.670 C  
HETATM    4  CA  UNL     1      -9.625  18.302  69.171  1.00  0.00    -0.065 C  
HETATM    5  C   UNL     1      -7.844  16.665  68.342  1.00  0.00    -0.202 C  
HETATM    6  C   UNL     1      -7.168  18.288  70.081  1.00  0.00     1.202 C  
HETATM    7  N   UNL     1     -10.781  17.384  69.298  1.00  0.00    -0.114 N  
HETATM    8  C   UNL     1      -9.874  19.559  70.023  1.00  0.00     0.538 C  
HETATM    9  C   UNL     1     -11.058  16.515  68.272  1.00  0.00    -0.321 C  
HETATM   10  OXT UNL     1      -9.070  20.465  70.181  1.00  0.00     0.900 OA 
HETATM   11  O   UNL     1     -11.131  19.634  70.533  1.00  0.00     2.379 OA 
HETATM   12  CA  UNL     1     -11.122  15.290  69.212  1.00  0.00    -0.274 C  
HETATM   13  O   UNL     1     -11.050  16.701  67.076  1.00  0.00    -0.060 OA 
ENDROOT
BRANCH  12  14
HETATM   14  N   UNL     1     -10.244  14.127  68.860  1.00  0.00    -0.339 N  
HETATM   15  C   UNL     1     -10.699  13.169  67.977  1.00  0.00    -0.233 C  
HETATM   16  H   UNL     1      -9.315  14.044  69.271  1.00  0.00     0.000 HD 
HETATM   17  O   UNL     1     -11.814  13.308  67.486  1.00  0.00    -0.346 OA 
BRANCH  15  18
HETATM   18  C   UNL     1      -9.829  11.989  67.631  1.00  0.00    -0.191 A  
HETATM   19  C   UNL     1     -10.319  10.857  66.921  1.00  0.00    -0.238 A  
HETATM   20  C   UNL     1      -9.434   9.835  66.523  1.00  0.00    -0.228 A  
HETATM   21  C   UNL     1      -8.440  12.048  67.911  1.00  0.00    -0.160 A  
HETATM   22  C   UNL     1      -8.068   9.938  66.768  1.00  0.00    -0.117 A  
HETATM   23  C   UNL     1      -7.578  11.039  67.452  1.00  0.00    -0.110 A  
BRANCH  19  24
HETATM   24  O   UNL     1     -11.665  10.777  66.627  1.00  0.00     0.022 OA 
HETATM   25  C   UNL     1     -12.210  11.892  65.912  1.00  0.00     0.553 C  
ENDBRANCH  19  24
BRANCH  21  26
HETATM   26  O   UNL     1      -7.750  13.077  68.502  1.00  0.00    -0.128 OA 
HETATM   27  C   UNL     1      -7.391  14.173  67.665  1.00  0.00    -0.176 C  
ENDBRANCH  21  26
ENDBRANCH  15  18
ENDBRANCH  12  14
TORSDOF 4
ENDMDL
MODEL      191
REMARK 921   NORMALIZED FREE ENERGY PREDICTED BY IDOCK:   10.61 KCAL/MOL
REMARK 922        TOTAL FREE ENERGY PREDICTED BY IDOCK:   12.16 KCAL/MOL
REMARK 923 INTER-LIGAND FREE ENERGY PREDICTED BY IDOCK:   10.18 KCAL/MOL
REMARK 924 INTRA-LIGAND FREE ENERGY PREDICTED BY IDOCK:    1.98 KCAL/MOL
REMARK 927      BINDING AFFINITY PREDICTED BY RF-SCORE:    0.00 PKD
ROOT
HETATM    1  C   UNL     1      -7.295   5.966  66.576  1.00  0.00    -0.078 C  
HETATM    2  S   UNL     1      -8.487   4.944  65.628  1.00  0.00    -0.129 SA 
HETATM    3  C   UNL     1      -9.447   6.365  64.985  1.00  0.00     1.044 C  
HETATM    4  CA  UNL     1      -8.452   7.548  64.989  1.00  0.00     0.005 C  
HETATM    5  C   UNL     1     -10.628   6.604  65.945  1.00  0.00     1.255 C  
HETATM    6  C   UNL     1     -10.036   5.966  63.630  1.00  0.00     3.295 C  
HETATM    7  N   UNL     1      -7.556   7.364  66.155  1.00  0.00    -0.086 N  
HETATM    8  C   UNL     1      -7.606   7.705  63.714  1.00  0.00    -0.118 C  
HETATM    9  C   UNL     1      -7.994   7.746  67.398  1.00  0.00    -0.119 C  
HETATM   10  OXT UNL     1      -8.059   7.799  62.582  1.00  0.00    -0.150 OA 
HETATM   11  O   UNL     1      -6.274   7.826  63.952  1.00  0.00    -0.056 OA 
HETATM   12  CA  UNL     1      -7.633   6.385  68.037  1.00  0.00    -0.103 C  
HETATM   13  O   UNL     1      -8.599   8.739  67.736  1.00  0.00    -0.128 OA 
ENDROOT
BRANCH  12  14
HETATM   14  N   UNL     1      -8.730   5.679  68.776  1.00  0.00    -0.107 N  
HETATM   15  C   UNL     1      -8.802   5.776  70.150  1.00  0.00    -0.140 C  
HETATM   16  H   UNL     1      -9.420   5.130  68.265  1.00  0.00     0.000 HD 
HETATM   17  O   UNL     1      -7.968   6.460  70.734  1.00  0.00    -0.107 OA 
BRANCH  15  18
HETATM   18  C   UNL     1      -9.893   5.055  70.901  1.00  0.00    -0.274 A  
HETATM   19  C   UNL     1     -10.896   5.742  71.640  1.00  0.00    -0.255 A  
HETATM   20  C   UNL     1     -11.958   5.023  72.227  1.00  0.00     0.586 A  
HETATM   21  C   UNL     1     -10.005   3.647  70.774  1.00  0.00     0.049 A  
HETATM   22  C   UNL     1     -12.072   3.647  72.049  1.00  0.00     3.736 A  
HETATM   23  C   UNL     1     -11.104   2.970  71.324  1.00  0.00     2.751 A  
BRANCH  19  24
HETATM   24  O   UNL     1     -10.816   7.113  71.773  1.00  0.00    -0.223 OA 
HETATM   25  C   UNL     1     -12.064   7.815  71.701  1.00  0.00    -0.304 C  
ENDBRANCH  19  24
BRANCH  21  26
HETATM   26  O   UNL     1      -9.204   2.808  70.041  1.00  0.00    -0.111 OA 
HETATM   27  C   UNL     1      -8.151   3.414  69.295  1.00  0.00    -0.052 C  
ENDBRANCH  21  26
ENDBRANCH  15  18
ENDBRANCH  12  14
TORSDOF 4
ENDMDL
MODEL      192
REMARK 921   NORMALIZED FREE ENERGY PREDICTED BY IDOCK:   10.66 KCAL/MOL
REMARK 922        TOTAL FREE ENERGY PREDICTED BY IDOCK:   12.23 KCAL/MOL
REMARK 923 INTER-LIGAND FREE ENERGY PREDICTED BY IDOCK:   11.74 KCAL/MOL
REMARK 924 INTRA-LIGAND FREE ENERGY PREDICTED BY IDOCK:    0.49 KCAL/MOL
REMARK 927      BINDING AFFINITY PREDICTED BY RF-SCORE:    0.00 PKD
ROOT
HETATM    1  C   UNL     1      -6.263  16.880  68.407  1.00  0.00    -0.140 C  
HETATM    2  S   UNL     1      -5.245  18.400  68.549  1.00  0.00    -0.170 SA 
HETATM    3  C   UNL     1      -6.154  19.072  69.991  1.00  0.00    -0.196 C  
HETATM    4  CA  UNL     1      -6.759  17.833  70.690  1.00  0.00     1.808 C  
HETATM    5  C   UNL     1      -7.245  20.019  69.456  1.00  0.00    -0.082 C  
HETATM    6  C   UNL     1      -5.179  19.919  70.813  1.00  0.00    -0.262 C  
HETATM    7  N   UNL     1      -7.103  16.856  69.631  1.00  0.00    -0.002 N  
HETATM    8  C   UNL     1      -5.854  17.156  71.735  1.00  0.00     1.488 C  
HETATM    9  C   UNL     1      -8.273  17.015  68.932  1.00  0.00    -0.204 C  
HETATM   10  OXT UNL     1      -5.345  17.725  72.690  1.00  0.00     0.315 OA 
HETATM   11  O   UNL     1      -5.730  15.814  71.565  1.00  0.00     0.291 OA 
HETATM   12  CA  UNL     1      -7.569  16.906  67.560  1.00  0.00    -0.165 C  
HETATM   13  O   UNL     1      -9.378  17.314  69.327  1.00  0.00    -0.089 OA 
ENDROOT
BRANCH  12  14
HETATM   14  N   UNL     1      -7.804  18.028  66.594  1.00  0.00    -0.231 N  
HETATM   15  C   UNL     1      -6.918  18.235  65.557  1.00  0.00    -0.103 C  
HETATM   16  H   UNL     1      -8.615  18.635  66.703  1.00  0.00     0.000 HD 
HETATM   17  O   UNL     1      -5.963  17.474  65.442  1.00  0.00     0.020 OA 
BRANCH  15  18
HETATM   18  C   UNL     1      -7.140  19.371  64.591  1.00  0.00     0.926 A  
HETATM   19  C   UNL     1      -6.279  19.613  63.484  1.00  0.00     0.348 A  
HETATM   20  C   UNL     1      -6.599  20.618  62.548  1.00  0.00     0.267 A  
HETATM   21  C   UNL     1      -8.312  20.160  64.709  1.00  0.00     1.890 A  
HETATM   22  C   UNL     1      -7.779  21.348  62.659  1.00  0.00     1.032 A  
HETATM   23  C   UNL     1      -8.628  21.114  63.730  1.00  0.00     3.236 A  
BRANCH  19  24
HETATM   24  O   UNL     1      -5.135  18.855  63.340  1.00  0.00    -0.222 OA 
HETATM   25  C   UNL     1      -5.238  17.748  62.435  1.00  0.00     1.847 C  
ENDBRANCH  19  24
BRANCH  21  26
HETATM   26  O   UNL     1      -9.312  20.037  65.642  1.00  0.00    -0.260 OA 
HETATM   27  C   UNL     1     -10.639  20.311  65.200  1.00  0.00     0.400 C  
ENDBRANCH  21  26
ENDBRANCH  15  18
ENDBRANCH  12  14
TORSDOF 4
ENDMDL
MODEL      193
REMARK 921   NORMALIZED FREE ENERGY PREDICTED BY IDOCK:   10.95 KCAL/MOL
REMARK 922        TOTAL FREE ENERGY PREDICTED BY IDOCK:   12.59 KCAL/MOL
REMARK 923 INTER-LIGAND FREE ENERGY PREDICTED BY IDOCK:   11.44 KCAL/MOL
REMARK 924 INTRA-LIGAND FREE ENERGY PREDICTED BY IDOCK:    1.15 KCAL/MOL
REMARK 927      BINDING AFFINITY PREDICTED BY RF-SCORE:    0.00 PKD
ROOT
HETATM    1  C   UNL     1     -11.472  14.418  68.002  1.00  0.00    -0.310 C  
HETATM    2  S   UNL     1     -10.093  14.551  69.204  1.00  0.00    -0.074 SA 
HETATM    3  C   UNL     1     -11.167  14.894  70.648  1.00  0.00    -0.189 C  
HETATM    4  CA  UNL     1     -12.530  14.262  70.286  1.00  0.00    -0.361 C  
HETATM    5  C   UNL     1     -11.266  16.423  70.805  1.00  0.00    -0.197 C  
HETATM    6  C   UNL     1     -10.467  14.354  71.898  1.00  0.00     3.199 C  
HETATM    7  N   UNL     1     -12.708  14.410  68.823  1.00  0.00     0.403 N  
HETATM    8  C   UNL     1     -12.696  12.781  70.674  1.00  0.00    -0.077 C  
HETATM    9  C   UNL     1     -13.148  15.611  68.324  1.00  0.00     2.837 C  
HETATM   10  OXT UNL     1     -12.534  12.332  71.799  1.00  0.00    -0.061 OA 
HETATM   11  O   UNL     1     -13.140  11.996  69.658  1.00  0.00     0.839 OA 
HETATM   12  CA  UNL     1     -12.000  15.701  67.293  1.00  0.00     0.527 C  
HETATM   13  O   UNL     1     -14.019  16.347  68.731  1.00  0.00     4.282 OA 
ENDROOT
BRANCH  12  14
HETATM   14  N   UNL     1     -11.175  16.952  67.314  1.00  0.00     0.106 N  
HETATM   15  C   UNL     1      -9.933  16.963  66.716  1.00  0.00    -0.289 C  
HETATM   16  H   UNL     1     -11.532  17.792  67.769  1.00  0.00     0.000 HD 
HETATM   17  O   UNL     1      -9.541  15.942  66.161  1.00  0.00    -0.281 OA 
BRANCH  15  18
HETATM   18  C   UNL     1      -9.091  18.213  66.748  1.00  0.00    -0.287 A  
HETATM   19  C   UNL     1      -7.693  18.202  66.484  1.00  0.00    -0.249 A  
HETATM   20  C   UNL     1      -6.978  19.415  66.413  1.00  0.00    -0.228 A  
HETATM   21  C   UNL     1      -9.725  19.469  66.927  1.00  0.00    -0.356 A  
HETATM   22  C   UNL     1      -7.630  20.638  66.545  1.00  0.00    -0.148 A  
HETATM   23  C   UNL     1      -8.994  20.660  66.795  1.00  0.00    -0.184 A  
BRANCH  19  24
HETATM   24  O   UNL     1      -7.051  16.995  66.297  1.00  0.00    -0.258 OA 
HETATM   25  C   UNL     1      -6.397  16.457  67.453  1.00  0.00    -0.171 C  
ENDBRANCH  19  24
BRANCH  21  26
HETATM   26  O   UNL     1     -11.064  19.711  67.104  1.00  0.00    -0.420 OA 
HETATM   27  C   UNL     1     -11.940  19.265  66.071  1.00  0.00     3.384 C  
ENDBRANCH  21  26
ENDBRANCH  15  18
ENDBRANCH  12  14
TORSDOF 4
ENDMDL
MODEL      194
REMARK 921   NORMALIZED FREE ENERGY PREDICTED BY IDOCK:   21.75 KCAL/MOL
REMARK 922        TOTAL FREE ENERGY PREDICTED BY IDOCK:   25.91 KCAL/MOL
REMARK 923 INTER-LIGAND FREE ENERGY PREDICTED BY IDOCK:   25.11 KCAL/MOL
REMARK 924 INTRA-LIGAND FREE ENERGY PREDICTED BY IDOCK:    0.80 KCAL/MOL
REMARK 927      BINDING AFFINITY PREDICTED BY RF-SCORE:    0.00 PKD
ROOT
HETATM    1  C   UNL     1      -8.977   5.905  70.708  1.00  0.00    -0.149 C  
HETATM    2  S   UNL     1     -10.801   5.713  70.663  1.00  0.00    -0.183 SA 
HETATM    3  C   UNL     1     -10.780   3.893  70.868  1.00  0.00     1.309 C  
HETATM    4  CA  UNL     1      -9.451   3.593  71.598  1.00  0.00    -0.145 C  
HETATM    5  C   UNL     1     -10.818   3.264  69.462  1.00  0.00     4.092 C  
HETATM    6  C   UNL     1     -12.068   3.481  71.585  1.00  0.00     5.731 C  
HETATM    7  N   UNL     1      -8.454   4.579  71.118  1.00  0.00    -0.103 N  
HETATM    8  C   UNL     1      -9.516   3.639  73.135  1.00  0.00    -0.106 C  
HETATM    9  C   UNL     1      -7.827   4.361  69.916  1.00  0.00    -0.053 C  
HETATM   10  OXT UNL     1     -10.297   2.995  73.820  1.00  0.00    -0.122 OA 
HETATM   11  O   UNL     1      -8.548   4.406  73.701  1.00  0.00    -0.096 OA 
HETATM   12  CA  UNL     1      -8.158   5.776  69.390  1.00  0.00    -0.101 C  
HETATM   13  O   UNL     1      -7.372   3.339  69.453  1.00  0.00    -0.048 OA 
ENDROOT
BRANCH  12  14
HETATM   14  N   UNL     1      -8.862   5.853  68.068  1.00  0.00    -0.110 N  
HETATM   15  C   UNL     1      -8.454   5.045  67.028  1.00  0.00    -0.106 C  
HETATM   16  H   UNL     1      -9.639   6.500  67.940  1.00  0.00     0.000 HD 
HETATM   17  O   UNL     1      -7.528   4.264  67.220  1.00  0.00    -0.075 OA 
BRANCH  15  18
HETATM   18  C   UNL     1      -9.147   5.129  65.692  1.00  0.00    -0.161 A  
HETATM   19  C   UNL     1      -8.457   4.958  64.459  1.00  0.00    -0.144 A  
HETATM   20  C   UNL     1      -9.174   4.931  63.245  1.00  0.00     0.090 A  
HETATM   21  C   UNL     1     -10.558   5.262  65.651  1.00  0.00     0.181 A  
HETATM   22  C   UNL     1     -10.563   5.017  63.235  1.00  0.00     1.446 A  
HETATM   23  C   UNL     1     -11.246   5.175  64.431  1.00  0.00     2.051 A  
BRANCH  19  24
HETATM   24  O   UNL     1      -7.084   4.818  64.468  1.00  0.00    -0.052 OA 
HETATM   25  C   UNL     1      -6.409   5.264  63.286  1.00  0.00    -0.022 C  
ENDBRANCH  19  24
BRANCH  21  26
HETATM   26  O   UNL     1     -11.419   5.349  66.717  1.00  0.00     0.620 OA 
HETATM   27  C   UNL     1     -12.660   4.657  66.598  1.00  0.00    11.364 C  
ENDBRANCH  21  26
ENDBRANCH  15  18
ENDBRANCH  12  14
TORSDOF 4
ENDMDL
MODEL      195
REMARK 921   NORMALIZED FREE ENERGY PREDICTED BY IDOCK:   22.38 KCAL/MOL
REMARK 922        TOTAL FREE ENERGY PREDICTED BY IDOCK:   26.68 KCAL/MOL
REMARK 923 INTER-LIGAND FREE ENERGY PREDICTED BY IDOCK:   21.29 KCAL/MOL
REMARK 924 INTRA-LIGAND FREE ENERGY PREDICTED BY IDOCK:    5.39 KCAL/MOL
REMARK 927      BINDING AFFINITY PREDICTED BY RF-SCORE:    0.00 PKD
ROOT
HETATM    1  C   UNL     1     -12.113  16.157  69.094  1.00  0.00     0.060 C  
HETATM    2  S   UNL     1     -10.557  15.186  69.094  1.00  0.00    -0.266 SA 
HETATM    3  C   UNL     1      -9.536  16.511  68.350  1.00  0.00    -0.233 C  
HETATM    4  CA  UNL     1     -10.257  17.825  68.727  1.00  0.00    -0.373 C  
HETATM    5  C   UNL     1      -9.513  16.285  66.826  1.00  0.00    -0.253 C  
HETATM    6  C   UNL     1      -8.100  16.345  68.854  1.00  0.00    -0.236 C  
HETATM    7  N   UNL     1     -11.711  17.540  68.738  1.00  0.00     1.383 N  
HETATM    8  C   UNL     1      -9.847  18.441  70.077  1.00  0.00     1.125 C  
HETATM    9  C   UNL     1     -12.395  17.522  67.548  1.00  0.00     3.606 C  
HETATM   10  OXT UNL     1      -8.700  18.716  70.398  1.00  0.00     2.197 OA 
HETATM   11  O   UNL     1     -10.899  18.751  70.879  1.00  0.00     1.937 OA 
HETATM   12  CA  UNL     1     -13.029  16.142  67.834  1.00  0.00     3.354 C  
HETATM   13  O   UNL     1     -12.322  18.272  66.600  1.00  0.00     4.006 OA 
ENDROOT
BRANCH  12  14
HETATM   14  N   UNL     1     -12.835  15.084  66.789  1.00  0.00     0.585 N  
HETATM   15  C   UNL     1     -12.576  13.784  67.171  1.00  0.00     0.176 C  
HETATM   16  H   UNL     1     -12.893  15.325  65.801  1.00  0.00     0.000 HD 
HETATM   17  O   UNL     1     -12.531  13.523  68.368  1.00  0.00    -0.059 OA 
BRANCH  15  18
HETATM   18  C   UNL     1     -12.364  12.720  66.125  1.00  0.00    -0.190 A  
HETATM   19  C   UNL     1     -12.365  13.004  64.731  1.00  0.00    -0.436 A  
HETATM   20  C   UNL     1     -12.046  11.991  63.803  1.00  0.00    -0.599 A  
HETATM   21  C   UNL     1     -12.029  11.404  66.536  1.00  0.00     0.848 A  
HETATM   22  C   UNL     1     -11.676  10.720  64.233  1.00  0.00     1.651 A  
HETATM   23  C   UNL     1     -11.664  10.435  65.589  1.00  0.00     2.445 A  
BRANCH  19  24
HETATM   24  O   UNL     1     -12.679  14.278  64.303  1.00  0.00    -0.660 OA 
HETATM   25  C   UNL     1     -12.534  14.510  62.896  1.00  0.00     2.127 C  
ENDBRANCH  19  24
BRANCH  21  26
HETATM   26  O   UNL     1     -11.885  10.941  67.820  1.00  0.00    -0.579 OA 
HETATM   27  C   UNL     1     -11.703  11.921  68.840  1.00  0.00    -0.323 C  
ENDBRANCH  21  26
ENDBRANCH  15  18
ENDBRANCH  12  14
TORSDOF 4
ENDMDL
MODEL      196
REMARK 921   NORMALIZED FREE ENERGY PREDICTED BY IDOCK:   24.65 KCAL/MOL
REMARK 922        TOTAL FREE ENERGY PREDICTED BY IDOCK:   29.49 KCAL/MOL
REMARK 923 INTER-LIGAND FREE ENERGY PREDICTED BY IDOCK:   17.40 KCAL/MOL
REMARK 924 INTRA-LIGAND FREE ENERGY PREDICTED BY IDOCK:   12.09 KCAL/MOL
REMARK 927      BINDING AFFINITY PREDICTED BY RF-SCORE:    0.00 PKD
ROOT
HETATM    1  C   UNL     1      -9.465  13.119  68.336  1.00  0.00    -0.166 C  
HETATM    2  S   UNL     1     -10.310  12.103  67.065  1.00  0.00    -0.213 SA 
HETATM    3  C   UNL     1     -11.912  12.030  67.950  1.00  0.00    -0.134 C  
HETATM    4  CA  UNL     1     -11.932  13.295  68.837  1.00  0.00    -0.297 C  
HETATM    5  C   UNL     1     -11.924  10.739  68.790  1.00  0.00    -0.157 C  
HETATM    6  C   UNL     1     -13.025  11.903  66.906  1.00  0.00     4.293 C  
HETATM    7  N   UNL     1     -10.537  13.550  69.268  1.00  0.00    -0.021 N  
HETATM    8  C   UNL     1     -12.500  14.561  68.171  1.00  0.00     0.265 C  
HETATM    9  C   UNL     1     -10.024  12.837  70.322  1.00  0.00     3.670 C  
HETATM   10  OXT UNL     1     -13.602  14.638  67.648  1.00  0.00     3.718 OA 
HETATM   11  O   UNL     1     -11.698  15.650  68.290  1.00  0.00    -0.349 OA 
HETATM   12  CA  UNL     1      -8.760  12.420  69.536  1.00  0.00     1.583 C  
HETATM   13  O   UNL     1     -10.534  12.541  71.379  1.00  0.00     5.933 OA 
ENDROOT
BRANCH  12  14
HETATM   14  N   UNL     1      -8.464  10.952  69.469  1.00  0.00    -0.376 N  
HETATM   15  C   UNL     1      -9.340  10.051  70.038  1.00  0.00    -0.119 C  
HETATM   16  H   UNL     1      -7.620  10.621  69.005  1.00  0.00     0.000 HD 
HETATM   17  O   UNL     1     -10.357  10.480  70.573  1.00  0.00     0.072 OA 
BRANCH  15  18
HETATM   18  C   UNL     1      -9.041   8.574  69.989  1.00  0.00    -0.147 A  
HETATM   19  C   UNL     1      -7.926   7.996  70.657  1.00  0.00    -0.096 A  
HETATM   20  C   UNL     1      -7.760   6.596  70.673  1.00  0.00    -0.104 A  
HETATM   21  C   UNL     1      -9.964   7.703  69.357  1.00  0.00    -0.180 A  
HETATM   22  C   UNL     1      -8.705   5.759  70.086  1.00  0.00    -0.140 A  
HETATM   23  C   UNL     1      -9.799   6.312  69.439  1.00  0.00    -0.180 A  
BRANCH  19  24
HETATM   24  O   UNL     1      -7.016   8.820  71.288  1.00  0.00    -0.074 OA 
HETATM   25  C   UNL     1      -6.341   8.247  72.415  1.00  0.00    -0.073 C  
ENDBRANCH  19  24
BRANCH  21  26
HETATM   26  O   UNL     1     -11.141   8.040  68.736  1.00  0.00     0.099 OA 
HETATM   27  C   UNL     1     -11.587   9.385  68.893  1.00  0.00     0.592 C  
ENDBRANCH  21  26
ENDBRANCH  15  18
ENDBRANCH  12  14
TORSDOF 4
ENDMDL
MODEL      197
REMARK 921   NORMALIZED FREE ENERGY PREDICTED BY IDOCK:   26.12 KCAL/MOL
REMARK 922        TOTAL FREE ENERGY PREDICTED BY IDOCK:   31.30 KCAL/MOL
REMARK 923 INTER-LIGAND FREE ENERGY PREDICTED BY IDOCK:   31.98 KCAL/MOL
REMARK 924 INTRA-LIGAND FREE ENERGY PREDICTED BY IDOCK:   -0.69 KCAL/MOL
REMARK 927      BINDING AFFINITY PREDICTED BY RF-SCORE:    0.00 PKD
ROOT
HETATM    1  C   UNL     1      -7.042  12.729  72.117  1.00  0.00     7.733 C  
HETATM    2  S   UNL     1      -8.752  12.071  72.016  1.00  0.00    20.945 SA 
HETATM    3  C   UNL     1      -8.335  10.705  70.870  1.00  0.00     3.092 C  
HETATM    4  CA  UNL     1      -6.837  10.420  71.122  1.00  0.00     0.889 C  
HETATM    5  C   UNL     1      -8.591  11.204  69.435  1.00  0.00     0.278 C  
HETATM    6  C   UNL     1      -9.308   9.553  71.130  1.00  0.00     0.022 C  
HETATM    7  N   UNL     1      -6.192  11.714  71.446  1.00  0.00     1.174 N  
HETATM    8  C   UNL     1      -6.536   9.406  72.240  1.00  0.00     0.386 C  
HETATM    9  C   UNL     1      -5.845  12.560  70.423  1.00  0.00    -0.150 C  
HETATM   10  OXT UNL     1      -6.991   8.272  72.294  1.00  0.00    -0.083 OA 
HETATM   11  O   UNL     1      -5.625   9.845  73.147  1.00  0.00    -0.317 OA 
HETATM   12  CA  UNL     1      -6.557  13.771  71.067  1.00  0.00     0.800 C  
HETATM   13  O   UNL     1      -5.328  12.315  69.356  1.00  0.00    -0.064 OA 
ENDROOT
BRANCH  12  14
HETATM   14  N   UNL     1      -7.560  14.490  70.217  1.00  0.00    -0.100 N  
HETATM   15  C   UNL     1      -7.135  15.441  69.312  1.00  0.00    -0.179 C  
HETATM   16  H   UNL     1      -8.553  14.277  70.307  1.00  0.00     0.000 HD 
HETATM   17  O   UNL     1      -5.933  15.661  69.215  1.00  0.00    -0.104 OA 
BRANCH  15  18
HETATM   18  C   UNL     1      -8.141  16.179  68.466  1.00  0.00    -0.181 A  
HETATM   19  C   UNL     1      -7.983  17.547  68.108  1.00  0.00    -0.250 A  
HETATM   20  C   UNL     1      -8.893  18.155  67.219  1.00  0.00    -0.251 A  
HETATM   21  C   UNL     1      -9.225  15.464  67.899  1.00  0.00    -0.180 A  
HETATM   22  C   UNL     1      -9.923  17.419  66.639  1.00  0.00    -0.308 A  
HETATM   23  C   UNL     1     -10.081  16.084  66.975  1.00  0.00    -0.271 A  
BRANCH  19  24
HETATM   24  O   UNL     1      -6.931  18.267  68.639  1.00  0.00    -0.243 OA 
HETATM   25  C   UNL     1      -6.192  19.062  67.704  1.00  0.00    -0.203 C  
ENDBRANCH  19  24
BRANCH  21  26
HETATM   26  O   UNL     1      -9.510  14.128  68.039  1.00  0.00    -0.200 OA 
HETATM   27  C   UNL     1     -10.881  13.778  68.207  1.00  0.00    -0.250 C  
ENDBRANCH  21  26
ENDBRANCH  15  18
ENDBRANCH  12  14
TORSDOF 4
ENDMDL
MODEL      198
REMARK 921   NORMALIZED FREE ENERGY PREDICTED BY IDOCK:   41.92 KCAL/MOL
REMARK 922        TOTAL FREE ENERGY PREDICTED BY IDOCK:   50.79 KCAL/MOL
REMARK 923 INTER-LIGAND FREE ENERGY PREDICTED BY IDOCK:   40.25 KCAL/MOL
REMARK 924 INTRA-LIGAND FREE ENERGY PREDICTED BY IDOCK:   10.54 KCAL/MOL
REMARK 927      BINDING AFFINITY PREDICTED BY RF-SCORE:    0.00 PKD
ROOT
HETATM    1  C   UNL     1     -10.045  13.430  68.492  1.00  0.00    -0.207 C  
HETATM    2  S   UNL     1      -8.251  13.799  68.387  1.00  0.00    -0.133 SA 
HETATM    3  C   UNL     1      -7.920  12.618  67.027  1.00  0.00    -0.059 C  
HETATM    4  CA  UNL     1      -9.270  12.475  66.289  1.00  0.00    -0.132 C  
HETATM    5  C   UNL     1      -7.467  11.289  67.660  1.00  0.00    -0.101 C  
HETATM    6  C   UNL     1      -6.742  13.155  66.208  1.00  0.00     3.113 C  
HETATM    7  N   UNL     1     -10.340  12.585  67.308  1.00  0.00    -0.219 N  
HETATM    8  C   UNL     1      -9.524  13.500  65.169  1.00  0.00     0.429 C  
HETATM    9  C   UNL     1     -10.653  11.485  68.067  1.00  0.00    -0.190 C  
HETATM   10  OXT UNL     1      -8.775  13.701  64.225  1.00  0.00     3.399 OA 
HETATM   11  O   UNL     1     -10.727  14.124  65.261  1.00  0.00    -0.321 OA 
HETATM   12  CA  UNL     1     -10.538  12.262  69.397  1.00  0.00     0.229 C  
HETATM   13  O   UNL     1     -10.776  10.326  67.738  1.00  0.00    -0.233 OA 
ENDROOT
BRANCH  12  14
HETATM   14  N   UNL     1      -9.618  11.688  70.433  1.00  0.00     2.669 N  
HETATM   15  C   UNL     1      -8.258  11.665  70.203  1.00  0.00     2.700 C  
HETATM   16  H   UNL     1      -9.996  11.315  71.303  1.00  0.00     0.000 HD 
HETATM   17  O   UNL     1      -7.833  12.138  69.154  1.00  0.00     0.091 OA 
BRANCH  15  18
HETATM   18  C   UNL     1      -7.329  11.074  71.232  1.00  0.00     3.858 A  
HETATM   19  C   UNL     1      -6.869   9.729  71.167  1.00  0.00     0.162 A  
HETATM   20  C   UNL     1      -5.911   9.264  72.091  1.00  0.00    -0.014 A  
HETATM   21  C   UNL     1      -6.791  11.913  72.241  1.00  0.00     7.082 A  
HETATM   22  C   UNL     1      -5.363  10.119  73.042  1.00  0.00     0.268 A  
HETATM   23  C   UNL     1      -5.798  11.434  73.110  1.00  0.00     2.185 A  
BRANCH  19  24
HETATM   24  O   UNL     1      -7.370   8.892  70.191  1.00  0.00    -0.050 OA 
HETATM   25  C   UNL     1      -6.488   7.848  69.759  1.00  0.00    -0.034 C  
ENDBRANCH  19  24
BRANCH  21  26
HETATM   26  O   UNL     1      -7.028  13.252  72.428  1.00  0.00     3.685 OA 
HETATM   27  C   UNL     1      -8.392  13.668  72.431  1.00  0.00    12.078 C  
ENDBRANCH  21  26
ENDBRANCH  15  18
ENDBRANCH  12  14
TORSDOF 4
ENDMDL
MODEL      199
REMARK 921   NORMALIZED FREE ENERGY PREDICTED BY IDOCK:   44.57 KCAL/MOL
REMARK 922        TOTAL FREE ENERGY PREDICTED BY IDOCK:   54.07 KCAL/MOL
REMARK 923 INTER-LIGAND FREE ENERGY PREDICTED BY IDOCK:   47.56 KCAL/MOL
REMARK 924 INTRA-LIGAND FREE ENERGY PREDICTED BY IDOCK:    6.51 KCAL/MOL
REMARK 927      BINDING AFFINITY PREDICTED BY RF-SCORE:    0.00 PKD
ROOT
HETATM    1  C   UNL     1      -6.974  12.382  72.914  1.00  0.00     8.974 C  
HETATM    2  S   UNL     1      -8.661  11.671  72.803  1.00  0.00    23.902 SA 
HETATM    3  C   UNL     1      -8.191  10.310  71.671  1.00  0.00     3.964 C  
HETATM    4  CA  UNL     1      -6.688  10.073  71.940  1.00  0.00     1.209 C  
HETATM    5  C   UNL     1      -8.449  10.789  70.230  1.00  0.00     1.417 C  
HETATM    6  C   UNL     1      -9.132   9.130  71.932  1.00  0.00     0.138 C  
HETATM    7  N   UNL     1      -6.087  11.389  72.259  1.00  0.00     2.059 N  
HETATM    8  C   UNL     1      -6.367   9.077  73.068  1.00  0.00     0.159 C  
HETATM    9  C   UNL     1      -5.755  12.237  71.232  1.00  0.00     0.269 C  
HETATM   10  OXT UNL     1      -6.787   7.931  73.128  1.00  0.00    -0.079 OA 
HETATM   11  O   UNL     1      -5.478   9.551  73.980  1.00  0.00    -0.232 OA 
HETATM   12  CA  UNL     1      -6.510  13.431  71.860  1.00  0.00     2.303 C  
HETATM   13  O   UNL     1      -5.222  11.999  70.172  1.00  0.00    -0.075 OA 
ENDROOT
BRANCH  12  14
HETATM   14  N   UNL     1      -7.528  14.112  70.994  1.00  0.00     1.470 N  
HETATM   15  C   UNL     1      -7.921  13.525  69.810  1.00  0.00     1.330 C  
HETATM   16  H   UNL     1      -7.927  15.005  71.280  1.00  0.00     0.000 HD 
HETATM   17  O   UNL     1      -7.436  12.441  69.503  1.00  0.00     0.282 OA 
BRANCH  15  18
HETATM   18  C   UNL     1      -8.931  14.212  68.927  1.00  0.00     0.019 A  
HETATM   19  C   UNL     1      -9.641  13.529  67.900  1.00  0.00    -0.218 A  
HETATM   20  C   UNL     1     -10.657  14.192  67.182  1.00  0.00    -0.278 A  
HETATM   21  C   UNL     1      -9.285  15.558  69.198  1.00  0.00    -0.246 A  
HETATM   22  C   UNL     1     -11.018  15.499  67.498  1.00  0.00    -0.316 A  
HETATM   23  C   UNL     1     -10.338  16.171  68.502  1.00  0.00    -0.254 A  
BRANCH  19  24
HETATM   24  O   UNL     1      -9.323  12.216  67.619  1.00  0.00    -0.177 OA 
HETATM   25  C   UNL     1     -10.078  11.231  68.336  1.00  0.00    -0.195 C  
ENDBRANCH  19  24
BRANCH  21  26
HETATM   26  O   UNL     1      -8.793  16.367  70.192  1.00  0.00     0.922 OA 
HETATM   27  C   UNL     1      -8.130  17.560  69.780  1.00  0.00     1.211 C  
ENDBRANCH  21  26
ENDBRANCH  15  18
ENDBRANCH  12  14
TORSDOF 4
ENDMDL
MODEL      200
REMARK 921   NORMALIZED FREE ENERGY PREDICTED BY IDOCK:   46.22 KCAL/MOL
REMARK 922        TOTAL FREE ENERGY PREDICTED BY IDOCK:   56.10 KCAL/MOL
REMARK 923 INTER-LIGAND FREE ENERGY PREDICTED BY IDOCK:   50.91 KCAL/MOL
REMARK 924 INTRA-LIGAND FREE ENERGY PREDICTED BY IDOCK:    5.19 KCAL/MOL
REMARK 927      BINDING AFFINITY PREDICTED BY RF-SCORE:    0.00 PKD
ROOT
HETATM    1  C   UNL     1      -8.869  15.717  71.381  1.00  0.00     4.782 C  
HETATM    2  S   UNL     1      -9.210  16.138  69.628  1.00  0.00     0.239 SA 
HETATM    3  C   UNL     1     -10.915  16.732  69.931  1.00  0.00    -0.054 C  
HETATM    4  CA  UNL     1     -10.921  17.185  71.409  1.00  0.00     1.400 C  
HETATM    5  C   UNL     1     -11.873  15.550  69.689  1.00  0.00    -0.384 C  
HETATM    6  C   UNL     1     -11.239  17.801  68.883  1.00  0.00     0.964 C  
HETATM    7  N   UNL     1     -10.008  16.281  72.147  1.00  0.00     4.676 N  
HETATM    8  C   UNL     1     -10.502  18.645  71.655  1.00  0.00     3.451 C  
HETATM    9  C   UNL     1     -10.464  15.047  72.538  1.00  0.00     2.490 C  
HETATM   10  OXT UNL     1     -11.018  19.617  71.123  1.00  0.00     2.704 OA 
HETATM   11  O   UNL     1      -9.545  18.788  72.608  1.00  0.00     5.707 OA 
HETATM   12  CA  UNL     1      -9.253  14.309  71.923  1.00  0.00     7.401 C  
HETATM   13  O   UNL     1     -11.529  14.731  73.019  1.00  0.00    -0.045 OA 
ENDROOT
BRANCH  12  14
HETATM   14  N   UNL     1      -9.561  13.202  70.959  1.00  0.00     7.429 N  
HETATM   15  C   UNL     1     -10.741  12.499  71.079  1.00  0.00     4.633 C  
HETATM   16  H   UNL     1      -8.900  12.971  70.218  1.00  0.00     0.000 HD 
HETATM   17  O   UNL     1     -11.523  12.814  71.969  1.00  0.00     2.966 OA 
BRANCH  15  18
HETATM   18  C   UNL     1     -11.049  11.374  70.123  1.00  0.00     0.064 A  
HETATM   19  C   UNL     1     -12.042  10.392  70.391  1.00  0.00    -0.315 A  
HETATM   20  C   UNL     1     -12.369   9.431  69.412  1.00  0.00     1.444 A  
HETATM   21  C   UNL     1     -10.417  11.353  68.854  1.00  0.00    -0.193 A  
HETATM   22  C   UNL     1     -11.768   9.459  68.157  1.00  0.00     1.392 A  
HETATM   23  C   UNL     1     -10.805  10.417  67.882  1.00  0.00    -0.331 A  
BRANCH  19  24
HETATM   24  O   UNL     1     -12.679  10.393  71.616  1.00  0.00    -0.400 OA 
HETATM   25  C   UNL     1     -11.954   9.784  72.691  1.00  0.00     1.325 C  
ENDBRANCH  19  24
BRANCH  21  26
HETATM   26  O   UNL     1      -9.503  12.250  68.361  1.00  0.00    -0.211 OA 
HETATM   27  C   UNL     1      -9.848  13.631  68.445  1.00  0.00    -0.223 C  
ENDBRANCH  21  26
ENDBRANCH  15  18
ENDBRANCH  12  14
TORSDOF 4
ENDMDL
MODEL      201
REMARK 921   NORMALIZED FREE ENERGY PREDICTED BY IDOCK:   50.97 KCAL/MOL
REMARK 922        TOTAL FREE ENERGY PREDICTED BY IDOCK:   61.96 KCAL/MOL
REMARK 923 INTER-LIGAND FREE ENERGY PREDICTED BY IDOCK:   62.61 KCAL/MOL
REMARK 924 INTRA-LIGAND FREE ENERGY PREDICTED BY IDOCK:   -0.65 KCAL/MOL
REMARK 927      BINDING AFFINITY PREDICTED BY RF-SCORE:    0.00 PKD
ROOT
HETATM    1  C   UNL     1      -9.061   5.902  70.699  1.00  0.00    -0.149 C  
HETATM    2  S   UNL     1     -10.856   5.829  71.070  1.00  0.00    -0.215 SA 
HETATM    3  C   UNL     1     -10.952   4.000  71.053  1.00  0.00     1.797 C  
HETATM    4  CA  UNL     1      -9.524   3.525  71.405  1.00  0.00    -0.156 C  
HETATM    5  C   UNL     1     -11.369   3.566  69.635  1.00  0.00     7.629 C  
HETATM    6  C   UNL     1     -12.074   3.575  72.005  1.00  0.00     3.873 C  
HETATM    7  N   UNL     1      -8.579   4.503  70.817  1.00  0.00    -0.090 N  
HETATM    8  C   UNL     1      -9.230   3.370  72.908  1.00  0.00    -0.095 C  
HETATM    9  C   UNL     1      -8.267   4.410  69.484  1.00  0.00    -0.059 C  
HETATM   10  OXT UNL     1      -9.889   2.689  73.680  1.00  0.00    -0.096 OA 
HETATM   11  O   UNL     1      -8.094   3.995  73.310  1.00  0.00    -0.087 OA 
HETATM   12  CA  UNL     1      -8.580   5.899  69.218  1.00  0.00    -0.112 C  
HETATM   13  O   UNL     1      -8.024   3.433  68.811  1.00  0.00    -0.061 OA 
ENDROOT
BRANCH  12  14
HETATM   14  N   UNL     1      -9.559   6.194  68.121  1.00  0.00    -0.116 N  
HETATM   15  C   UNL     1      -9.241   7.121  67.151  1.00  0.00    -0.134 C  
HETATM   16  H   UNL     1     -10.456   5.711  68.092  1.00  0.00     0.000 HD 
HETATM   17  O   UNL     1      -8.146   7.671  67.203  1.00  0.00    -0.114 OA 
BRANCH  15  18
HETATM   18  C   UNL     1     -10.226   7.434  66.054  1.00  0.00     0.669 A  
HETATM   19  C   UNL     1     -10.405   8.747  65.537  1.00  0.00     1.481 A  
HETATM   20  C   UNL     1     -11.256   8.962  64.433  1.00  0.00     9.991 A  
HETATM   21  C   UNL     1     -10.920   6.370  65.423  1.00  0.00     3.470 A  
HETATM   22  C   UNL     1     -11.889   7.895  63.801  1.00  0.00    22.696 A  
HETATM   23  C   UNL     1     -11.715   6.611  64.293  1.00  0.00    13.211 A  
BRANCH  19  24
HETATM   24  O   UNL     1      -9.737   9.801  66.126  1.00  0.00    -0.208 OA 
HETATM   25  C   UNL     1     -10.379  11.078  66.019  1.00  0.00    -0.254 C  
ENDBRANCH  19  24
BRANCH  21  26
HETATM   26  O   UNL     1     -10.825   5.029  65.703  1.00  0.00    -0.155 OA 
HETATM   27  C   UNL     1     -10.839   4.139  64.590  1.00  0.00    -0.101 C  
ENDBRANCH  21  26
ENDBRANCH  15  18
ENDBRANCH  12  14
TORSDOF 4
ENDMDL
