MODEL        1
REMARK 921   NORMALIZED FREE ENERGY PREDICTED BY IDOCK:   -6.18 KCAL/MOL
REMARK 922        TOTAL FREE ENERGY PREDICTED BY IDOCK:  -10.30 KCAL/MOL
REMARK 923 INTER-LIGAND FREE ENERGY PREDICTED BY IDOCK:   -9.06 KCAL/MOL
REMARK 924 INTRA-LIGAND FREE ENERGY PREDICTED BY IDOCK:   -1.24 KCAL/MOL
REMARK 927      BINDING AFFINITY PREDICTED BY RF-SCORE:    0.00 PKD
ROOT
HETATM    1  C   UNL     1     -10.794   6.091  71.770  1.00  0.00    -0.312 C  
HETATM    2  C   UNL     1     -10.639   7.087  72.920  1.00  0.00    -0.272 C  
HETATM    3  C   UNL     1      -9.446   8.006  72.645  1.00  0.00    -0.317 C  
ENDROOT
BRANCH   2   4
HETATM    4  N   UNL     1     -11.892   7.839  73.047  1.00  0.00    -0.631 NA 
HETATM    5  H   UNL     1     -11.720   8.769  73.430  1.00  0.00     0.000 HD 
BRANCH   4   6
HETATM    6  C   UNL     1     -12.645   7.922  71.790  1.00  0.00    -0.328 C  
BRANCH   6   7
HETATM    7  C   UNL     1     -13.612   9.122  71.811  1.00  0.00    -0.415 C  
HETATM    8  O   UNL     1     -14.367   9.110  73.030  1.00  0.00    -1.075 OA 
HETATM    9  H   UNL     1     -14.964   9.850  73.044  1.00  0.00     0.000 HD 
BRANCH   7  10
HETATM   10  C   UNL     1     -12.838  10.442  71.690  1.00  0.00    -0.474 C  
BRANCH  10  11
HETATM   11  O   UNL     1     -11.609  10.181  70.988  1.00  0.00    -0.349 OA 
BRANCH  11  12
HETATM   12  C   UNL     1     -11.501  10.737  69.742  1.00  0.00    -0.311 A  
HETATM   13  C   UNL     1     -10.921   9.948  68.731  1.00  0.00    -0.217 A  
HETATM   14  C   UNL     1     -10.797  10.485  67.427  1.00  0.00    -0.349 A  
HETATM   15  C   UNL     1     -10.409   8.563  69.045  1.00  0.00    -0.229 C  
HETATM   16  C   UNL     1     -10.212   9.687  66.285  1.00  0.00    -0.286 C  
HETATM   17  C   UNL     1     -11.211  11.818  67.179  1.00  0.00    -0.316 A  
HETATM   18  C   UNL     1     -11.696  12.634  68.207  1.00  0.00    -0.389 A  
HETATM   19  C   UNL     1     -12.032  14.088  68.053  1.00  0.00    -0.386 C  
HETATM   20  C   UNL     1     -11.869  12.060  69.472  1.00  0.00    -0.390 A  
BRANCH  17  21
HETATM   21  O   UNL     1     -10.935  12.292  65.864  1.00  0.00    -0.280 OA 
BRANCH  21  22
HETATM   22  C   UNL     1     -11.843  12.383  64.809  1.00  0.00    -0.382 C  
HETATM   23  C   UNL     1     -11.101  12.171  63.518  1.00  0.00    -0.525 C  
HETATM   24  O   UNL     1     -13.052  12.543  64.890  1.00  0.00    -0.833 OA 
ENDBRANCH  21  22
ENDBRANCH  17  21
ENDBRANCH  11  12
ENDBRANCH  10  11
ENDBRANCH   7  10
ENDBRANCH   6   7
ENDBRANCH   4   6
ENDBRANCH   2   4
TORSDOF 8
ENDMDL
MODEL        2
REMARK 921   NORMALIZED FREE ENERGY PREDICTED BY IDOCK:   -5.94 KCAL/MOL
REMARK 922        TOTAL FREE ENERGY PREDICTED BY IDOCK:   -9.95 KCAL/MOL
REMARK 923 INTER-LIGAND FREE ENERGY PREDICTED BY IDOCK:   -9.13 KCAL/MOL
REMARK 924 INTRA-LIGAND FREE ENERGY PREDICTED BY IDOCK:   -0.82 KCAL/MOL
REMARK 927      BINDING AFFINITY PREDICTED BY RF-SCORE:    0.00 PKD
ROOT
HETATM    1  C   UNL     1     -10.677   6.806  68.945  1.00  0.00    -0.276 C  
HETATM    2  C   UNL     1     -11.378   6.263  70.192  1.00  0.00    -0.406 C  
HETATM    3  C   UNL     1     -10.467   6.437  71.409  1.00  0.00    -0.257 C  
ENDROOT
BRANCH   2   4
HETATM    4  N   UNL     1     -12.649   6.978  70.351  1.00  0.00    -0.571 NA 
HETATM    5  H   UNL     1     -13.409   6.475  69.894  1.00  0.00     0.000 HD 
BRANCH   4   6
HETATM    6  C   UNL     1     -12.978   7.263  71.753  1.00  0.00    -0.326 C  
BRANCH   6   7
HETATM    7  C   UNL     1     -13.413   8.732  71.924  1.00  0.00    -0.404 C  
HETATM    8  O   UNL     1     -14.012   8.909  73.215  1.00  0.00    -1.203 OA 
HETATM    9  H   UNL     1     -14.280   9.814  73.322  1.00  0.00     0.000 HD 
BRANCH   7  10
HETATM   10  C   UNL     1     -12.209   9.672  71.775  1.00  0.00    -0.384 C  
BRANCH  10  11
HETATM   11  O   UNL     1     -12.702  11.007  71.570  1.00  0.00    -0.410 OA 
BRANCH  11  12
HETATM   12  C   UNL     1     -12.262  11.642  70.441  1.00  0.00    -0.347 A  
HETATM   13  C   UNL     1     -12.389  13.044  70.395  1.00  0.00    -0.351 A  
HETATM   14  C   UNL     1     -11.939  13.738  69.247  1.00  0.00    -0.399 A  
HETATM   15  C   UNL     1     -13.027  13.787  71.544  1.00  0.00    -0.444 C  
HETATM   16  C   UNL     1     -12.017  15.243  69.140  1.00  0.00    -0.308 C  
HETATM   17  C   UNL     1     -11.420  13.007  68.149  1.00  0.00    -0.319 A  
HETATM   18  C   UNL     1     -11.385  11.609  68.155  1.00  0.00    -0.358 A  
HETATM   19  C   UNL     1     -10.973  10.762  66.987  1.00  0.00    -0.292 C  
HETATM   20  C   UNL     1     -11.775  10.949  69.327  1.00  0.00    -0.395 A  
BRANCH  17  21
HETATM   21  O   UNL     1     -11.106  13.796  67.004  1.00  0.00    -0.293 OA 
BRANCH  21  22
HETATM   22  C   UNL     1     -11.798  13.807  65.792  1.00  0.00    -0.372 C  
HETATM   23  C   UNL     1     -10.804  13.659  64.672  1.00  0.00    -0.416 C  
HETATM   24  O   UNL     1     -13.009  13.861  65.635  1.00  0.00    -0.599 OA 
ENDBRANCH  21  22
ENDBRANCH  17  21
ENDBRANCH  11  12
ENDBRANCH  10  11
ENDBRANCH   7  10
ENDBRANCH   6   7
ENDBRANCH   4   6
ENDBRANCH   2   4
TORSDOF 8
ENDMDL
MODEL        3
REMARK 921   NORMALIZED FREE ENERGY PREDICTED BY IDOCK:   -5.92 KCAL/MOL
REMARK 922        TOTAL FREE ENERGY PREDICTED BY IDOCK:   -9.92 KCAL/MOL
REMARK 923 INTER-LIGAND FREE ENERGY PREDICTED BY IDOCK:   -8.98 KCAL/MOL
REMARK 924 INTRA-LIGAND FREE ENERGY PREDICTED BY IDOCK:   -0.94 KCAL/MOL
REMARK 927      BINDING AFFINITY PREDICTED BY RF-SCORE:    0.00 PKD
ROOT
HETATM    1  C   UNL     1     -11.199   6.249  68.859  1.00  0.00    -0.387 C  
HETATM    2  C   UNL     1     -11.291   6.570  70.352  1.00  0.00    -0.383 C  
HETATM    3  C   UNL     1      -9.932   7.065  70.854  1.00  0.00    -0.200 C  
ENDROOT
BRANCH   2   4
HETATM    4  N   UNL     1     -12.343   7.574  70.541  1.00  0.00    -0.527 NA 
HETATM    5  H   UNL     1     -13.259   7.189  70.307  1.00  0.00     0.000 HD 
BRANCH   4   6
HETATM    6  C   UNL     1     -12.350   8.156  71.888  1.00  0.00    -0.332 C  
BRANCH   6   7
HETATM    7  C   UNL     1     -13.549   9.109  72.066  1.00  0.00    -0.459 C  
HETATM    8  O   UNL     1     -14.145   8.897  73.353  1.00  0.00    -1.256 OA 
HETATM    9  H   UNL     1     -14.884   9.484  73.463  1.00  0.00     0.000 HD 
BRANCH   7  10
HETATM   10  C   UNL     1     -13.101  10.570  71.932  1.00  0.00    -0.462 C  
BRANCH  10  11
HETATM   11  O   UNL     1     -11.989  10.620  71.020  1.00  0.00    -0.343 OA 
BRANCH  11  12
HETATM   12  C   UNL     1     -11.967  11.683  70.160  1.00  0.00    -0.359 A  
HETATM   13  C   UNL     1     -11.573  11.432  68.831  1.00  0.00    -0.388 A  
HETATM   14  C   UNL     1     -11.544  12.505  67.909  1.00  0.00    -0.403 A  
HETATM   15  C   UNL     1     -11.157  10.044  68.411  1.00  0.00    -0.236 C  
HETATM   16  C   UNL     1     -11.161  12.306  66.461  1.00  0.00    -0.343 C  
HETATM   17  C   UNL     1     -11.860  13.814  68.351  1.00  0.00    -0.376 A  
HETATM   18  C   UNL     1     -12.156  14.079  69.692  1.00  0.00    -0.408 A  
HETATM   19  C   UNL     1     -12.374  15.450  70.261  1.00  0.00    -0.425 C  
HETATM   20  C   UNL     1     -12.242  12.993  70.571  1.00  0.00    -0.392 A  
BRANCH  17  21
HETATM   21  O   UNL     1     -11.687  14.833  67.369  1.00  0.00    -0.373 OA 
BRANCH  21  22
HETATM   22  C   UNL     1     -10.543  15.609  67.175  1.00  0.00    -0.308 C  
HETATM   23  C   UNL     1     -10.195  15.591  65.711  1.00  0.00    -0.390 C  
HETATM   24  O   UNL     1      -9.942  16.257  68.018  1.00  0.00    -0.233 OA 
ENDBRANCH  21  22
ENDBRANCH  17  21
ENDBRANCH  11  12
ENDBRANCH  10  11
ENDBRANCH   7  10
ENDBRANCH   6   7
ENDBRANCH   4   6
ENDBRANCH   2   4
TORSDOF 8
ENDMDL
MODEL        4
REMARK 921   NORMALIZED FREE ENERGY PREDICTED BY IDOCK:   -5.74 KCAL/MOL
REMARK 922        TOTAL FREE ENERGY PREDICTED BY IDOCK:   -9.66 KCAL/MOL
REMARK 923 INTER-LIGAND FREE ENERGY PREDICTED BY IDOCK:   -9.05 KCAL/MOL
REMARK 924 INTRA-LIGAND FREE ENERGY PREDICTED BY IDOCK:   -0.61 KCAL/MOL
REMARK 927      BINDING AFFINITY PREDICTED BY RF-SCORE:    0.00 PKD
ROOT
HETATM    1  C   UNL     1     -10.650   5.960  69.689  1.00  0.00    -0.383 C  
HETATM    2  C   UNL     1     -11.573   6.104  70.900  1.00  0.00    -0.189 C  
HETATM    3  C   UNL     1     -10.734   6.352  72.157  1.00  0.00    -0.259 C  
ENDROOT
BRANCH   2   4
HETATM    4  N   UNL     1     -12.506   7.205  70.638  1.00  0.00    -0.610 NA 
HETATM    5  H   UNL     1     -12.885   7.143  69.693  1.00  0.00     0.000 HD 
BRANCH   4   6
HETATM    6  C   UNL     1     -13.584   7.296  71.629  1.00  0.00    -0.349 C  
BRANCH   6   7
HETATM    7  C   UNL     1     -13.875   8.768  71.986  1.00  0.00    -0.451 C  
HETATM    8  O   UNL     1     -14.267   8.860  73.362  1.00  0.00    -1.241 OA 
HETATM    9  H   UNL     1     -14.447   9.767  73.583  1.00  0.00     0.000 HD 
BRANCH   7  10
HETATM   10  C   UNL     1     -12.636   9.638  71.737  1.00  0.00    -0.409 C  
BRANCH  10  11
HETATM   11  O   UNL     1     -13.014  11.017  71.895  1.00  0.00    -0.457 OA 
BRANCH  11  12
HETATM   12  C   UNL     1     -12.609  11.867  70.902  1.00  0.00    -0.266 A  
HETATM   13  C   UNL     1     -12.779  13.247  71.123  1.00  0.00    -0.404 A  
HETATM   14  C   UNL     1     -12.365  14.160  70.124  1.00  0.00    -0.413 A  
HETATM   15  C   UNL     1     -13.423  13.740  72.397  1.00  0.00    -0.672 C  
HETATM   16  C   UNL     1     -12.489  15.654  70.303  1.00  0.00    -0.369 C  
HETATM   17  C   UNL     1     -11.840  13.666  68.903  1.00  0.00    -0.364 A  
HETATM   18  C   UNL     1     -11.763  12.294  68.644  1.00  0.00    -0.377 A  
HETATM   19  C   UNL     1     -11.342  11.696  67.335  1.00  0.00    -0.367 C  
HETATM   20  C   UNL     1     -12.117  11.412  69.673  1.00  0.00    -0.373 A  
BRANCH  17  21
HETATM   21  O   UNL     1     -11.565  14.666  67.925  1.00  0.00    -0.319 OA 
BRANCH  21  22
HETATM   22  C   UNL     1     -10.312  15.194  67.610  1.00  0.00    -0.248 C  
HETATM   23  C   UNL     1      -9.839  14.570  66.325  1.00  0.00    -0.322 C  
HETATM   24  O   UNL     1      -9.704  16.062  68.219  1.00  0.00    -0.210 OA 
ENDBRANCH  21  22
ENDBRANCH  17  21
ENDBRANCH  11  12
ENDBRANCH  10  11
ENDBRANCH   7  10
ENDBRANCH   6   7
ENDBRANCH   4   6
ENDBRANCH   2   4
TORSDOF 8
ENDMDL
MODEL        5
REMARK 921   NORMALIZED FREE ENERGY PREDICTED BY IDOCK:   -5.70 KCAL/MOL
REMARK 922        TOTAL FREE ENERGY PREDICTED BY IDOCK:   -9.60 KCAL/MOL
REMARK 923 INTER-LIGAND FREE ENERGY PREDICTED BY IDOCK:   -8.50 KCAL/MOL
REMARK 924 INTRA-LIGAND FREE ENERGY PREDICTED BY IDOCK:   -1.10 KCAL/MOL
REMARK 927      BINDING AFFINITY PREDICTED BY RF-SCORE:    0.00 PKD
ROOT
HETATM    1  C   UNL     1     -12.078   8.078  72.231  1.00  0.00    -0.392 C  
HETATM    2  C   UNL     1     -12.939   7.040  71.510  1.00  0.00    -0.359 C  
HETATM    3  C   UNL     1     -14.407   7.470  71.557  1.00  0.00    -0.603 C  
ENDROOT
BRANCH   2   4
HETATM    4  N   UNL     1     -12.449   6.915  70.133  1.00  0.00    -0.465 NA 
HETATM    5  H   UNL     1     -12.380   7.830  69.687  1.00  0.00     0.000 HD 
BRANCH   4   6
HETATM    6  C   UNL     1     -11.177   6.190  70.037  1.00  0.00    -0.401 C  
BRANCH   6   7
HETATM    7  C   UNL     1     -10.504   6.444  68.673  1.00  0.00    -0.223 C  
HETATM    8  O   UNL     1     -11.507   6.546  67.654  1.00  0.00    -0.694 OA 
HETATM    9  H   UNL     1     -11.093   6.702  66.813  1.00  0.00     0.000 HD 
BRANCH   7  10
HETATM   10  C   UNL     1      -9.671   7.732  68.715  1.00  0.00    -0.157 C  
BRANCH  10  11
HETATM   11  O   UNL     1     -10.525   8.808  69.143  1.00  0.00    -0.222 OA 
BRANCH  11  12
HETATM   12  C   UNL     1     -10.639   9.863  68.278  1.00  0.00    -0.229 A  
HETATM   13  C   UNL     1     -11.239  11.038  68.768  1.00  0.00    -0.327 A  
HETATM   14  C   UNL     1     -11.370  12.154  67.906  1.00  0.00    -0.361 A  
HETATM   15  C   UNL     1     -11.765  11.092  70.182  1.00  0.00    -0.442 C  
HETATM   16  C   UNL     1     -11.976  13.457  68.370  1.00  0.00    -0.359 C  
HETATM   17  C   UNL     1     -10.943  12.048  66.559  1.00  0.00    -0.295 A  
HETATM   18  C   UNL     1     -10.437  10.849  66.046  1.00  0.00    -0.287 A  
HETATM   19  C   UNL     1     -10.086  10.619  64.606  1.00  0.00    -0.417 C  
HETATM   20  C   UNL     1     -10.258   9.781  66.933  1.00  0.00    -0.310 A  
BRANCH  17  21
HETATM   21  O   UNL     1     -11.226  13.189  65.753  1.00  0.00    -0.283 OA 
BRANCH  21  22
HETATM   22  C   UNL     1     -12.270  13.315  64.835  1.00  0.00    -0.420 C  
HETATM   23  C   UNL     1     -12.208  14.688  64.225  1.00  0.00    -0.432 C  
HETATM   24  O   UNL     1     -13.075  12.453  64.513  1.00  0.00    -0.823 OA 
ENDBRANCH  21  22
ENDBRANCH  17  21
ENDBRANCH  11  12
ENDBRANCH  10  11
ENDBRANCH   7  10
ENDBRANCH   6   7
ENDBRANCH   4   6
ENDBRANCH   2   4
TORSDOF 8
ENDMDL
MODEL        6
REMARK 921   NORMALIZED FREE ENERGY PREDICTED BY IDOCK:   -5.66 KCAL/MOL
REMARK 922        TOTAL FREE ENERGY PREDICTED BY IDOCK:   -9.55 KCAL/MOL
REMARK 923 INTER-LIGAND FREE ENERGY PREDICTED BY IDOCK:   -8.46 KCAL/MOL
REMARK 924 INTRA-LIGAND FREE ENERGY PREDICTED BY IDOCK:   -1.09 KCAL/MOL
REMARK 927      BINDING AFFINITY PREDICTED BY RF-SCORE:    0.00 PKD
ROOT
HETATM    1  C   UNL     1     -10.990  16.147  67.469  1.00  0.00    -0.238 C  
HETATM    2  C   UNL     1      -9.926  16.191  66.371  1.00  0.00    -0.299 C  
HETATM    3  C   UNL     1      -8.900  15.079  66.606  1.00  0.00    -0.307 C  
ENDROOT
BRANCH   2   4
HETATM    4  N   UNL     1     -10.600  16.049  65.075  1.00  0.00    -0.606 NA 
HETATM    5  H   UNL     1     -10.158  16.638  64.370  1.00  0.00     0.000 HD 
BRANCH   4   6
HETATM    6  C   UNL     1     -10.683  14.658  64.617  1.00  0.00    -0.286 C  
BRANCH   6   7
HETATM    7  C   UNL     1     -12.153  14.221  64.459  1.00  0.00    -0.480 C  
HETATM    8  O   UNL     1     -12.419  13.919  63.082  1.00  0.00    -1.121 OA 
HETATM    9  H   UNL     1     -13.325  13.650  62.984  1.00  0.00     0.000 HD 
BRANCH   7  10
HETATM   10  C   UNL     1     -12.447  12.992  65.329  1.00  0.00    -0.499 C  
BRANCH  10  11
HETATM   11  O   UNL     1     -11.194  12.449  65.781  1.00  0.00    -0.305 OA 
BRANCH  11  12
HETATM   12  C   UNL     1     -11.182  11.949  67.054  1.00  0.00    -0.323 A  
HETATM   13  C   UNL     1     -10.705  10.635  67.229  1.00  0.00    -0.338 A  
HETATM   14  C   UNL     1     -10.670  10.085  68.532  1.00  0.00    -0.264 A  
HETATM   15  C   UNL     1     -10.271   9.819  66.036  1.00  0.00    -0.263 C  
HETATM   16  C   UNL     1     -10.145   8.694  68.800  1.00  0.00    -0.210 C  
HETATM   17  C   UNL     1     -11.162  10.844  69.624  1.00  0.00    -0.282 A  
HETATM   18  C   UNL     1     -11.726  12.110  69.436  1.00  0.00    -0.391 A  
HETATM   19  C   UNL     1     -12.382  12.919  70.516  1.00  0.00    -0.362 C  
HETATM   20  C   UNL     1     -11.690  12.659  68.149  1.00  0.00    -0.396 A  
BRANCH  17  21
HETATM   21  O   UNL     1     -11.186  10.150  70.869  1.00  0.00    -0.337 OA 
BRANCH  21  22
HETATM   22  C   UNL     1     -12.257   9.422  71.390  1.00  0.00    -0.356 C  
HETATM   23  C   UNL     1     -11.720   8.423  72.378  1.00  0.00    -0.452 C  
HETATM   24  O   UNL     1     -13.444   9.588  71.153  1.00  0.00    -0.341 OA 
ENDBRANCH  21  22
ENDBRANCH  17  21
ENDBRANCH  11  12
ENDBRANCH  10  11
ENDBRANCH   7  10
ENDBRANCH   6   7
ENDBRANCH   4   6
ENDBRANCH   2   4
TORSDOF 8
ENDMDL
MODEL        7
REMARK 921   NORMALIZED FREE ENERGY PREDICTED BY IDOCK:   -5.66 KCAL/MOL
REMARK 922        TOTAL FREE ENERGY PREDICTED BY IDOCK:   -9.54 KCAL/MOL
REMARK 923 INTER-LIGAND FREE ENERGY PREDICTED BY IDOCK:   -8.90 KCAL/MOL
REMARK 924 INTRA-LIGAND FREE ENERGY PREDICTED BY IDOCK:   -0.64 KCAL/MOL
REMARK 927      BINDING AFFINITY PREDICTED BY RF-SCORE:    0.00 PKD
ROOT
HETATM    1  C   UNL     1      -9.324   8.185  72.969  1.00  0.00    -0.335 C  
HETATM    2  C   UNL     1     -10.208   6.967  73.241  1.00  0.00    -0.258 C  
HETATM    3  C   UNL     1      -9.791   6.315  74.562  1.00  0.00    -0.338 C  
ENDROOT
BRANCH   2   4
HETATM    4  N   UNL     1     -11.605   7.411  73.266  1.00  0.00    -0.572 NA 
HETATM    5  H   UNL     1     -11.915   7.583  74.223  1.00  0.00     0.000 HD 
BRANCH   4   6
HETATM    6  C   UNL     1     -11.853   8.583  72.419  1.00  0.00    -0.367 C  
BRANCH   6   7
HETATM    7  C   UNL     1     -13.354   8.713  72.092  1.00  0.00    -0.396 C  
HETATM    8  O   UNL     1     -14.105   8.819  73.309  1.00  0.00    -1.180 OA 
HETATM    9  H   UNL     1     -15.030   8.899  73.108  1.00  0.00     0.000 HD 
BRANCH   7  10
HETATM   10  C   UNL     1     -13.610   9.945  71.213  1.00  0.00    -0.195 C  
BRANCH  10  11
HETATM   11  O   UNL     1     -12.564  10.901  71.461  1.00  0.00    -0.384 OA 
BRANCH  11  12
HETATM   12  C   UNL     1     -12.183  11.664  70.391  1.00  0.00    -0.347 A  
HETATM   13  C   UNL     1     -12.350  13.058  70.498  1.00  0.00    -0.365 A  
HETATM   14  C   UNL     1     -11.962  13.882  69.416  1.00  0.00    -0.402 A  
HETATM   15  C   UNL     1     -12.967  13.656  71.739  1.00  0.00    -0.441 C  
HETATM   16  C   UNL     1     -12.084  15.387  69.470  1.00  0.00    -0.332 C  
HETATM   17  C   UNL     1     -11.463  13.287  68.230  1.00  0.00    -0.316 A  
HETATM   18  C   UNL     1     -11.389  11.897  68.086  1.00  0.00    -0.350 A  
HETATM   19  C   UNL     1     -10.996  11.191  66.823  1.00  0.00    -0.309 C  
HETATM   20  C   UNL     1     -11.718  11.106  69.194  1.00  0.00    -0.408 A  
BRANCH  17  21
HETATM   21  O   UNL     1     -11.212  14.200  67.165  1.00  0.00    -0.298 OA 
BRANCH  21  22
HETATM   22  C   UNL     1     -11.989  14.366  66.017  1.00  0.00    -0.367 C  
HETATM   23  C   UNL     1     -11.168  15.089  64.984  1.00  0.00    -0.413 C  
HETATM   24  O   UNL     1     -13.123  13.951  65.829  1.00  0.00    -0.526 OA 
ENDBRANCH  21  22
ENDBRANCH  17  21
ENDBRANCH  11  12
ENDBRANCH  10  11
ENDBRANCH   7  10
ENDBRANCH   6   7
ENDBRANCH   4   6
ENDBRANCH   2   4
TORSDOF 8
ENDMDL
MODEL        8
REMARK 921   NORMALIZED FREE ENERGY PREDICTED BY IDOCK:   -5.65 KCAL/MOL
REMARK 922        TOTAL FREE ENERGY PREDICTED BY IDOCK:   -9.53 KCAL/MOL
REMARK 923 INTER-LIGAND FREE ENERGY PREDICTED BY IDOCK:   -8.93 KCAL/MOL
REMARK 924 INTRA-LIGAND FREE ENERGY PREDICTED BY IDOCK:   -0.61 KCAL/MOL
REMARK 927      BINDING AFFINITY PREDICTED BY RF-SCORE:    0.00 PKD
ROOT
HETATM    1  C   UNL     1     -12.571  15.136  73.533  1.00  0.00    -0.682 C  
HETATM    2  C   UNL     1     -13.699  14.587  72.657  1.00  0.00    -0.440 C  
HETATM    3  C   UNL     1     -13.534  15.105  71.226  1.00  0.00    -0.559 C  
ENDROOT
BRANCH   2   4
HETATM    4  N   UNL     1     -13.655  13.122  72.717  1.00  0.00    -0.685 NA 
HETATM    5  H   UNL     1     -14.557  12.743  73.007  1.00  0.00     0.000 HD 
BRANCH   4   6
HETATM    6  C   UNL     1     -13.207  12.506  71.463  1.00  0.00    -0.204 C  
BRANCH   6   7
HETATM    7  C   UNL     1     -12.682  11.079  71.712  1.00  0.00    -0.303 C  
HETATM    8  O   UNL     1     -13.645  10.338  72.474  1.00  0.00    -0.607 OA 
HETATM    9  H   UNL     1     -13.322   9.457  72.628  1.00  0.00     0.000 HD 
BRANCH   7  10
HETATM   10  C   UNL     1     -12.408  10.365  70.382  1.00  0.00    -0.286 C  
BRANCH  10  11
HETATM   11  O   UNL     1     -11.149  10.834  69.869  1.00  0.00    -0.266 OA 
BRANCH  11  12
HETATM   12  C   UNL     1     -11.178  11.377  68.613  1.00  0.00    -0.243 A  
HETATM   13  C   UNL     1     -10.611  10.622  67.569  1.00  0.00    -0.297 A  
HETATM   14  C   UNL     1     -10.628  11.146  66.254  1.00  0.00    -0.309 A  
HETATM   15  C   UNL     1      -9.967   9.288  67.858  1.00  0.00    -0.228 C  
HETATM   16  C   UNL     1     -10.065  10.381  65.080  1.00  0.00    -0.379 C  
HETATM   17  C   UNL     1     -11.165  12.438  66.025  1.00  0.00    -0.335 A  
HETATM   18  C   UNL     1     -11.638  13.228  67.078  1.00  0.00    -0.404 A  
HETATM   19  C   UNL     1     -12.100  14.648  66.936  1.00  0.00    -0.224 C  
HETATM   20  C   UNL     1     -11.671  12.662  68.359  1.00  0.00    -0.377 A  
BRANCH  17  21
HETATM   21  O   UNL     1     -11.025  12.913  64.689  1.00  0.00    -0.301 OA 
BRANCH  21  22
HETATM   22  C   UNL     1     -12.061  13.282  63.829  1.00  0.00    -0.482 C  
HETATM   23  C   UNL     1     -12.639  12.036  63.214  1.00  0.00    -0.512 C  
HETATM   24  O   UNL     1     -12.490  14.409  63.635  1.00  0.00    -0.805 OA 
ENDBRANCH  21  22
ENDBRANCH  17  21
ENDBRANCH  11  12
ENDBRANCH  10  11
ENDBRANCH   7  10
ENDBRANCH   6   7
ENDBRANCH   4   6
ENDBRANCH   2   4
TORSDOF 8
ENDMDL
MODEL        9
REMARK 921   NORMALIZED FREE ENERGY PREDICTED BY IDOCK:   -5.64 KCAL/MOL
REMARK 922        TOTAL FREE ENERGY PREDICTED BY IDOCK:   -9.51 KCAL/MOL
REMARK 923 INTER-LIGAND FREE ENERGY PREDICTED BY IDOCK:   -8.55 KCAL/MOL
REMARK 924 INTRA-LIGAND FREE ENERGY PREDICTED BY IDOCK:   -0.96 KCAL/MOL
REMARK 927      BINDING AFFINITY PREDICTED BY RF-SCORE:    0.00 PKD
ROOT
HETATM    1  C   UNL     1      -9.785   6.441  72.199  1.00  0.00    -0.161 C  
HETATM    2  C   UNL     1     -10.193   7.824  72.707  1.00  0.00    -0.299 C  
HETATM    3  C   UNL     1      -9.775   8.888  71.689  1.00  0.00    -0.379 C  
ENDROOT
BRANCH   2   4
HETATM    4  N   UNL     1     -11.642   7.821  72.932  1.00  0.00    -0.603 NA 
HETATM    5  H   UNL     1     -11.921   8.612  73.513  1.00  0.00     0.000 HD 
BRANCH   4   6
HETATM    6  C   UNL     1     -12.419   7.787  71.688  1.00  0.00    -0.326 C  
BRANCH   6   7
HETATM    7  C   UNL     1     -13.755   8.536  71.857  1.00  0.00    -0.415 C  
HETATM    8  O   UNL     1     -13.949   8.869  73.238  1.00  0.00    -1.203 OA 
HETATM    9  H   UNL     1     -14.773   9.331  73.343  1.00  0.00     0.000 HD 
BRANCH   7  10
HETATM   10  C   UNL     1     -13.769   9.813  71.006  1.00  0.00    -0.019 C  
BRANCH  10  11
HETATM   11  O   UNL     1     -12.751  10.699  71.506  1.00  0.00    -0.391 OA 
BRANCH  11  12
HETATM   12  C   UNL     1     -12.391  11.726  70.677  1.00  0.00    -0.328 A  
HETATM   13  C   UNL     1     -12.653  13.037  71.120  1.00  0.00    -0.388 A  
HETATM   14  C   UNL     1     -12.288  14.127  70.294  1.00  0.00    -0.421 A  
HETATM   15  C   UNL     1     -13.342  13.269  72.442  1.00  0.00    -0.616 C  
HETATM   16  C   UNL     1     -12.511  15.560  70.716  1.00  0.00    -0.491 C  
HETATM   17  C   UNL     1     -11.717  13.878  69.021  1.00  0.00    -0.338 A  
HETATM   18  C   UNL     1     -11.548  12.575  68.540  1.00  0.00    -0.364 A  
HETATM   19  C   UNL     1     -11.073  12.231  67.160  1.00  0.00    -0.330 C  
HETATM   20  C   UNL     1     -11.855  11.514  69.401  1.00  0.00    -0.417 A  
BRANCH  17  21
HETATM   21  O   UNL     1     -11.497  15.041  68.229  1.00  0.00    -0.305 OA 
BRANCH  21  22
HETATM   22  C   UNL     1     -10.295  15.740  68.099  1.00  0.00    -0.242 C  
HETATM   23  C   UNL     1     -10.044  15.994  66.638  1.00  0.00    -0.287 C  
HETATM   24  O   UNL     1      -9.579  16.146  69.003  1.00  0.00    -0.227 OA 
ENDBRANCH  21  22
ENDBRANCH  17  21
ENDBRANCH  11  12
ENDBRANCH  10  11
ENDBRANCH   7  10
ENDBRANCH   6   7
ENDBRANCH   4   6
ENDBRANCH   2   4
TORSDOF 8
ENDMDL
MODEL       10
REMARK 921   NORMALIZED FREE ENERGY PREDICTED BY IDOCK:   -5.61 KCAL/MOL
REMARK 922        TOTAL FREE ENERGY PREDICTED BY IDOCK:   -9.47 KCAL/MOL
REMARK 923 INTER-LIGAND FREE ENERGY PREDICTED BY IDOCK:   -8.55 KCAL/MOL
REMARK 924 INTRA-LIGAND FREE ENERGY PREDICTED BY IDOCK:   -0.92 KCAL/MOL
REMARK 927      BINDING AFFINITY PREDICTED BY RF-SCORE:    0.00 PKD
ROOT
HETATM    1  C   UNL     1     -10.419   6.059  73.195  1.00  0.00    -0.250 C  
HETATM    2  C   UNL     1     -10.464   6.527  71.740  1.00  0.00    -0.211 C  
HETATM    3  C   UNL     1     -10.286   5.324  70.809  1.00  0.00    -0.309 C  
ENDROOT
BRANCH   2   4
HETATM    4  N   UNL     1     -11.745   7.207  71.517  1.00  0.00    -0.274 NA 
HETATM    5  H   UNL     1     -12.513   6.536  71.490  1.00  0.00     0.000 HD 
BRANCH   4   6
HETATM    6  C   UNL     1     -12.011   8.269  72.494  1.00  0.00    -0.356 C  
BRANCH   6   7
HETATM    7  C   UNL     1     -13.335   8.990  72.169  1.00  0.00    -0.455 C  
HETATM    8  O   UNL     1     -14.167   9.016  73.337  1.00  0.00    -1.202 OA 
HETATM    9  H   UNL     1     -14.983   9.460  73.137  1.00  0.00     0.000 HD 
BRANCH   7  10
HETATM   10  C   UNL     1     -13.065  10.422  71.689  1.00  0.00    -0.448 C  
BRANCH  10  11
HETATM   11  O   UNL     1     -11.775  10.448  71.052  1.00  0.00    -0.348 OA 
BRANCH  11  12
HETATM   12  C   UNL     1     -11.698  11.154  69.882  1.00  0.00    -0.355 A  
HETATM   13  C   UNL     1     -11.204  10.477  68.750  1.00  0.00    -0.317 A  
HETATM   14  C   UNL     1     -11.116  11.170  67.519  1.00  0.00    -0.353 A  
HETATM   15  C   UNL     1     -10.746   9.043  68.862  1.00  0.00    -0.149 C  
HETATM   16  C   UNL     1     -10.624  10.501  66.258  1.00  0.00    -0.203 C  
HETATM   17  C   UNL     1     -11.476  12.540  67.463  1.00  0.00    -0.336 A  
HETATM   18  C   UNL     1     -11.873  13.237  68.608  1.00  0.00    -0.380 A  
HETATM   19  C   UNL     1     -12.145  14.712  68.656  1.00  0.00    -0.237 C  
HETATM   20  C   UNL     1     -12.014  12.515  69.799  1.00  0.00    -0.359 A  
BRANCH  17  21
HETATM   21  O   UNL     1     -11.239  13.166  66.205  1.00  0.00    -0.287 OA 
BRANCH  21  22
HETATM   22  C   UNL     1     -12.189  13.419  65.214  1.00  0.00    -0.440 C  
HETATM   23  C   UNL     1     -11.858  14.731  64.557  1.00  0.00    -0.428 C  
HETATM   24  O   UNL     1     -13.107  12.689  64.871  1.00  0.00    -0.850 OA 
ENDBRANCH  21  22
ENDBRANCH  17  21
ENDBRANCH  11  12
ENDBRANCH  10  11
ENDBRANCH   7  10
ENDBRANCH   6   7
ENDBRANCH   4   6
ENDBRANCH   2   4
TORSDOF 8
ENDMDL
MODEL       11
REMARK 921   NORMALIZED FREE ENERGY PREDICTED BY IDOCK:   -5.59 KCAL/MOL
REMARK 922        TOTAL FREE ENERGY PREDICTED BY IDOCK:   -9.44 KCAL/MOL
REMARK 923 INTER-LIGAND FREE ENERGY PREDICTED BY IDOCK:   -8.41 KCAL/MOL
REMARK 924 INTRA-LIGAND FREE ENERGY PREDICTED BY IDOCK:   -1.03 KCAL/MOL
REMARK 927      BINDING AFFINITY PREDICTED BY RF-SCORE:    0.00 PKD
ROOT
HETATM    1  C   UNL     1     -10.430  10.926  64.273  1.00  0.00    -0.405 C  
HETATM    2  C   UNL     1     -10.952  12.195  63.598  1.00  0.00    -0.461 C  
HETATM    3  C   UNL     1     -12.408  12.432  64.008  1.00  0.00    -0.579 C  
ENDROOT
BRANCH   2   4
HETATM    4  N   UNL     1     -10.085  13.312  63.988  1.00  0.00    -0.776 NA 
HETATM    5  H   UNL     1      -9.592  13.690  63.179  1.00  0.00     0.000 HD 
BRANCH   4   6
HETATM    6  C   UNL     1     -10.799  14.373  64.707  1.00  0.00    -0.399 C  
BRANCH   6   7
HETATM    7  C   UNL     1      -9.833  15.172  65.604  1.00  0.00    -0.343 C  
HETATM    8  O   UNL     1     -10.229  16.550  65.630  1.00  0.00    -0.466 OA 
HETATM    9  H   UNL     1      -9.633  17.043  66.183  1.00  0.00     0.000 HD 
BRANCH   7  10
HETATM   10  C   UNL     1      -9.826  14.604  67.030  1.00  0.00    -0.244 C  
BRANCH  10  11
HETATM   11  O   UNL     1     -11.190  14.453  67.461  1.00  0.00    -0.291 OA 
BRANCH  11  12
HETATM   12  C   UNL     1     -11.468  13.324  68.184  1.00  0.00    -0.312 A  
HETATM   13  C   UNL     1     -11.966  13.498  69.489  1.00  0.00    -0.390 A  
HETATM   14  C   UNL     1     -12.273  12.356  70.266  1.00  0.00    -0.345 A  
HETATM   15  C   UNL     1     -12.138  14.886  70.058  1.00  0.00    -0.387 C  
HETATM   16  C   UNL     1     -12.839  12.465  71.662  1.00  0.00    -0.375 C  
HETATM   17  C   UNL     1     -12.024  11.065  69.736  1.00  0.00    -0.356 A  
HETATM   18  C   UNL     1     -11.437  10.894  68.478  1.00  0.00    -0.380 A  
HETATM   19  C   UNL     1     -11.025   9.571  67.903  1.00  0.00    -0.172 C  
HETATM   20  C   UNL     1     -11.203  12.036  67.703  1.00  0.00    -0.343 A  
BRANCH  17  21
HETATM   21  O   UNL     1     -12.260   9.993  70.645  1.00  0.00    -0.281 OA 
BRANCH  21  22
HETATM   22  C   UNL     1     -11.298   9.326  71.406  1.00  0.00    -0.364 C  
HETATM   23  C   UNL     1     -12.002   8.486  72.437  1.00  0.00    -0.434 C  
HETATM   24  O   UNL     1     -10.087   9.349  71.245  1.00  0.00    -0.302 OA 
ENDBRANCH  21  22
ENDBRANCH  17  21
ENDBRANCH  11  12
ENDBRANCH  10  11
ENDBRANCH   7  10
ENDBRANCH   6   7
ENDBRANCH   4   6
ENDBRANCH   2   4
TORSDOF 8
ENDMDL
MODEL       12
REMARK 921   NORMALIZED FREE ENERGY PREDICTED BY IDOCK:   -5.57 KCAL/MOL
REMARK 922        TOTAL FREE ENERGY PREDICTED BY IDOCK:   -9.42 KCAL/MOL
REMARK 923 INTER-LIGAND FREE ENERGY PREDICTED BY IDOCK:   -8.66 KCAL/MOL
REMARK 924 INTRA-LIGAND FREE ENERGY PREDICTED BY IDOCK:   -0.75 KCAL/MOL
REMARK 927      BINDING AFFINITY PREDICTED BY RF-SCORE:    0.00 PKD
ROOT
HETATM    1  C   UNL     1     -12.911  11.622  63.405  1.00  0.00    -0.154 C  
HETATM    2  C   UNL     1     -11.845  12.620  63.859  1.00  0.00    -0.467 C  
HETATM    3  C   UNL     1     -10.474  12.180  63.336  1.00  0.00    -0.450 C  
ENDROOT
BRANCH   2   4
HETATM    4  N   UNL     1     -12.219  13.949  63.362  1.00  0.00    -1.102 NA 
HETATM    5  H   UNL     1     -13.095  13.908  62.841  1.00  0.00     0.000 HD 
BRANCH   4   6
HETATM    6  C   UNL     1     -12.287  14.962  64.421  1.00  0.00    -0.323 C  
BRANCH   6   7
HETATM    7  C   UNL     1     -10.996  15.804  64.455  1.00  0.00    -0.189 C  
HETATM    8  O   UNL     1     -11.331  17.198  64.474  1.00  0.00    -1.034 OA 
HETATM    9  H   UNL     1     -10.535  17.718  64.495  1.00  0.00     0.000 HD 
BRANCH   7  10
HETATM   10  C   UNL     1     -10.156  15.453  65.690  1.00  0.00    -0.376 C  
BRANCH  10  11
HETATM   11  O   UNL     1     -10.613  16.258  66.791  1.00  0.00    -0.305 OA 
BRANCH  11  12
HETATM   12  C   UNL     1     -11.018  15.575  67.906  1.00  0.00    -0.316 A  
HETATM   13  C   UNL     1     -11.050  16.284  69.122  1.00  0.00    -0.322 A  
HETATM   14  C   UNL     1     -11.470  15.615  70.297  1.00  0.00    -0.361 A  
HETATM   15  C   UNL     1     -10.610  17.727  69.173  1.00  0.00     0.074 C  
HETATM   16  C   UNL     1     -11.557  16.319  71.630  1.00  0.00    -0.436 C  
HETATM   17  C   UNL     1     -11.798  14.238  70.235  1.00  0.00    -0.307 A  
HETATM   18  C   UNL     1     -11.671  13.510  69.047  1.00  0.00    -0.370 A  
HETATM   19  C   UNL     1     -11.874  12.028  68.930  1.00  0.00    -0.356 C  
HETATM   20  C   UNL     1     -11.317  14.208  67.886  1.00  0.00    -0.318 A  
BRANCH  17  21
HETATM   21  O   UNL     1     -12.094  13.639  71.494  1.00  0.00    -0.148 OA 
BRANCH  21  22
HETATM   22  C   UNL     1     -13.320  13.100  71.886  1.00  0.00    -0.455 C  
HETATM   23  C   UNL     1     -14.286  14.228  72.124  1.00  0.00    -0.608 C  
HETATM   24  O   UNL     1     -13.610  11.915  71.970  1.00  0.00    -0.339 OA 
ENDBRANCH  21  22
ENDBRANCH  17  21
ENDBRANCH  11  12
ENDBRANCH  10  11
ENDBRANCH   7  10
ENDBRANCH   6   7
ENDBRANCH   4   6
ENDBRANCH   2   4
TORSDOF 8
ENDMDL
MODEL       13
REMARK 921   NORMALIZED FREE ENERGY PREDICTED BY IDOCK:   -5.57 KCAL/MOL
REMARK 922        TOTAL FREE ENERGY PREDICTED BY IDOCK:   -9.41 KCAL/MOL
REMARK 923 INTER-LIGAND FREE ENERGY PREDICTED BY IDOCK:   -8.44 KCAL/MOL
REMARK 924 INTRA-LIGAND FREE ENERGY PREDICTED BY IDOCK:   -0.97 KCAL/MOL
REMARK 927      BINDING AFFINITY PREDICTED BY RF-SCORE:    0.00 PKD
ROOT
HETATM    1  C   UNL     1     -10.612   8.094  71.200  1.00  0.00    -0.242 C  
HETATM    2  C   UNL     1     -11.552   6.961  70.783  1.00  0.00    -0.349 C  
HETATM    3  C   UNL     1     -12.957   7.234  71.327  1.00  0.00    -0.377 C  
ENDROOT
BRANCH   2   4
HETATM    4  N   UNL     1     -11.540   6.871  69.319  1.00  0.00    -0.581 NA 
HETATM    5  H   UNL     1     -12.264   7.463  68.913  1.00  0.00     0.000 HD 
BRANCH   4   6
HETATM    6  C   UNL     1     -10.229   7.172  68.733  1.00  0.00    -0.179 C  
BRANCH   6   7
HETATM    7  C   UNL     1     -10.293   7.123  67.194  1.00  0.00    -0.289 C  
HETATM    8  O   UNL     1     -11.548   6.563  66.783  1.00  0.00    -0.731 OA 
HETATM    9  H   UNL     1     -11.589   6.533  65.834  1.00  0.00     0.000 HD 
BRANCH   7  10
HETATM   10  C   UNL     1     -10.131   8.529  66.602  1.00  0.00    -0.294 C  
BRANCH  10  11
HETATM   11  O   UNL     1     -10.741   9.471  67.503  1.00  0.00    -0.282 OA 
BRANCH  11  12
HETATM   12  C   UNL     1     -10.957  10.726  67.002  1.00  0.00    -0.227 A  
HETATM   13  C   UNL     1     -11.360  11.724  67.910  1.00  0.00    -0.362 A  
HETATM   14  C   UNL     1     -11.587  13.037  67.432  1.00  0.00    -0.407 A  
HETATM   15  C   UNL     1     -11.576  11.386  69.365  1.00  0.00    -0.391 C  
HETATM   16  C   UNL     1     -11.991  14.164  68.352  1.00  0.00    -0.366 C  
HETATM   17  C   UNL     1     -11.456  13.307  66.047  1.00  0.00    -0.330 A  
HETATM   18  C   UNL     1     -11.152  12.294  65.131  1.00  0.00    -0.361 A  
HETATM   19  C   UNL     1     -11.123  12.472  63.642  1.00  0.00    -0.523 C  
HETATM   20  C   UNL     1     -10.869  11.018  65.636  1.00  0.00    -0.160 A  
BRANCH  17  21
HETATM   21  O   UNL     1     -11.820  14.630  65.661  1.00  0.00    -0.341 OA 
BRANCH  21  22
HETATM   22  C   UNL     1     -10.984  15.580  65.073  1.00  0.00    -0.440 C  
HETATM   23  C   UNL     1      -9.607  15.437  65.662  1.00  0.00    -0.323 C  
HETATM   24  O   UNL     1     -11.274  16.366  64.184  1.00  0.00    -0.882 OA 
ENDBRANCH  21  22
ENDBRANCH  17  21
ENDBRANCH  11  12
ENDBRANCH  10  11
ENDBRANCH   7  10
ENDBRANCH   6   7
ENDBRANCH   4   6
ENDBRANCH   2   4
TORSDOF 8
ENDMDL
MODEL       14
REMARK 921   NORMALIZED FREE ENERGY PREDICTED BY IDOCK:   -5.53 KCAL/MOL
REMARK 922        TOTAL FREE ENERGY PREDICTED BY IDOCK:   -9.35 KCAL/MOL
REMARK 923 INTER-LIGAND FREE ENERGY PREDICTED BY IDOCK:   -8.69 KCAL/MOL
REMARK 924 INTRA-LIGAND FREE ENERGY PREDICTED BY IDOCK:   -0.66 KCAL/MOL
REMARK 927      BINDING AFFINITY PREDICTED BY RF-SCORE:    0.00 PKD
ROOT
HETATM    1  C   UNL     1     -11.240   6.004  71.945  1.00  0.00    -0.338 C  
HETATM    2  C   UNL     1     -10.768   6.842  70.756  1.00  0.00    -0.233 C  
HETATM    3  C   UNL     1     -11.253   6.202  69.453  1.00  0.00    -0.466 C  
ENDROOT
BRANCH   2   4
HETATM    4  N   UNL     1     -11.285   8.205  70.922  1.00  0.00    -0.263 NA 
HETATM    5  H   UNL     1     -11.947   8.436  70.180  1.00  0.00     0.000 HD 
BRANCH   4   6
HETATM    6  C   UNL     1     -11.879   8.440  72.243  1.00  0.00    -0.389 C  
BRANCH   6   7
HETATM    7  C   UNL     1     -13.272   9.085  72.109  1.00  0.00    -0.446 C  
HETATM    8  O   UNL     1     -14.007   8.899  73.327  1.00  0.00    -1.203 OA 
HETATM    9  H   UNL     1     -14.867   9.297  73.245  1.00  0.00     0.000 HD 
BRANCH   7  10
HETATM   10  C   UNL     1     -13.146  10.583  71.799  1.00  0.00    -0.464 C  
BRANCH  10  11
HETATM   11  O   UNL     1     -12.472  10.727  70.537  1.00  0.00    -0.320 OA 
BRANCH  11  12
HETATM   12  C   UNL     1     -12.276  12.010  70.105  1.00  0.00    -0.231 A  
HETATM   13  C   UNL     1     -11.768  12.184  68.803  1.00  0.00    -0.374 A  
HETATM   14  C   UNL     1     -11.558  13.497  68.317  1.00  0.00    -0.381 A  
HETATM   15  C   UNL     1     -11.425  10.985  67.954  1.00  0.00    -0.358 C  
HETATM   16  C   UNL     1     -11.044  13.761  66.922  1.00  0.00    -0.311 C  
HETATM   17  C   UNL     1     -11.811  14.604  69.166  1.00  0.00    -0.312 A  
HETATM   18  C   UNL     1     -12.221  14.428  70.492  1.00  0.00    -0.411 A  
HETATM   19  C   UNL     1     -12.385  15.537  71.487  1.00  0.00    -0.465 C  
HETATM   20  C   UNL     1     -12.485  13.123  70.928  1.00  0.00    -0.407 A  
BRANCH  17  21
HETATM   21  O   UNL     1     -11.455  15.869  68.616  1.00  0.00    -0.363 OA 
BRANCH  21  22
HETATM   22  C   UNL     1     -10.358  16.651  68.980  1.00  0.00    -0.317 C  
HETATM   23  C   UNL     1      -9.242  15.739  69.411  1.00  0.00    -0.263 C  
HETATM   24  O   UNL     1     -10.266  17.868  68.911  1.00  0.00    -0.374 OA 
ENDBRANCH  21  22
ENDBRANCH  17  21
ENDBRANCH  11  12
ENDBRANCH  10  11
ENDBRANCH   7  10
ENDBRANCH   6   7
ENDBRANCH   4   6
ENDBRANCH   2   4
TORSDOF 8
ENDMDL
MODEL       15
REMARK 921   NORMALIZED FREE ENERGY PREDICTED BY IDOCK:   -5.50 KCAL/MOL
REMARK 922        TOTAL FREE ENERGY PREDICTED BY IDOCK:   -9.32 KCAL/MOL
REMARK 923 INTER-LIGAND FREE ENERGY PREDICTED BY IDOCK:   -8.15 KCAL/MOL
REMARK 924 INTRA-LIGAND FREE ENERGY PREDICTED BY IDOCK:   -1.17 KCAL/MOL
REMARK 927      BINDING AFFINITY PREDICTED BY RF-SCORE:    0.00 PKD
ROOT
HETATM    1  C   UNL     1      -9.917  10.971  63.333  1.00  0.00    -0.428 C  
HETATM    2  C   UNL     1     -10.664  12.300  63.463  1.00  0.00    -0.451 C  
HETATM    3  C   UNL     1     -12.165  12.033  63.599  1.00  0.00    -0.642 C  
ENDROOT
BRANCH   2   4
HETATM    4  N   UNL     1     -10.127  13.015  64.626  1.00  0.00    -0.568 NA 
HETATM    5  H   UNL     1      -9.125  13.174  64.525  1.00  0.00     0.000 HD 
BRANCH   4   6
HETATM    6  C   UNL     1     -10.831  14.272  64.905  1.00  0.00    -0.416 C  
BRANCH   6   7
HETATM    7  C   UNL     1     -11.344  14.300  66.359  1.00  0.00    -0.343 C  
HETATM    8  O   UNL     1     -12.760  14.068  66.374  1.00  0.00    -0.501 OA 
HETATM    9  H   UNL     1     -13.077  14.086  67.270  1.00  0.00     0.000 HD 
BRANCH   7  10
HETATM   10  C   UNL     1     -10.633  13.233  67.202  1.00  0.00    -0.258 C  
BRANCH  10  11
HETATM   11  O   UNL     1     -11.343  11.991  67.052  1.00  0.00    -0.299 OA 
BRANCH  11  12
HETATM   12  C   UNL     1     -11.363  11.175  68.150  1.00  0.00    -0.309 A  
HETATM   13  C   UNL     1     -10.746   9.915  68.031  1.00  0.00    -0.296 A  
HETATM   14  C   UNL     1     -10.739   9.045  69.147  1.00  0.00    -0.176 A  
HETATM   15  C   UNL     1     -10.132   9.490  66.720  1.00  0.00    -0.312 C  
HETATM   16  C   UNL     1     -10.072   7.691  69.102  1.00  0.00    -0.194 C  
HETATM   17  C   UNL     1     -11.396   9.436  70.341  1.00  0.00    -0.248 A  
HETATM   18  C   UNL     1     -12.093  10.646  70.427  1.00  0.00    -0.430 A  
HETATM   19  C   UNL     1     -12.918  11.073  71.605  1.00  0.00    -0.561 C  
HETATM   20  C   UNL     1     -12.030  11.518  69.332  1.00  0.00    -0.392 A  
BRANCH  17  21
HETATM   21  O   UNL     1     -11.427   8.439  71.358  1.00  0.00    -0.257 OA 
BRANCH  21  22
HETATM   22  C   UNL     1     -12.420   7.475  71.543  1.00  0.00    -0.346 C  
HETATM   23  C   UNL     1     -11.779   6.223  72.075  1.00  0.00    -0.374 C  
HETATM   24  O   UNL     1     -13.622   7.615  71.372  1.00  0.00    -0.347 OA 
ENDBRANCH  21  22
ENDBRANCH  17  21
ENDBRANCH  11  12
ENDBRANCH  10  11
ENDBRANCH   7  10
ENDBRANCH   6   7
ENDBRANCH   4   6
ENDBRANCH   2   4
TORSDOF 8
ENDMDL
MODEL       16
REMARK 921   NORMALIZED FREE ENERGY PREDICTED BY IDOCK:   -5.50 KCAL/MOL
REMARK 922        TOTAL FREE ENERGY PREDICTED BY IDOCK:   -9.32 KCAL/MOL
REMARK 923 INTER-LIGAND FREE ENERGY PREDICTED BY IDOCK:   -8.40 KCAL/MOL
REMARK 924 INTRA-LIGAND FREE ENERGY PREDICTED BY IDOCK:   -0.91 KCAL/MOL
REMARK 927      BINDING AFFINITY PREDICTED BY RF-SCORE:    0.00 PKD
ROOT
HETATM    1  C   UNL     1     -14.036  13.784  72.394  1.00  0.00    -0.651 C  
HETATM    2  C   UNL     1     -14.032  15.299  72.181  1.00  0.00    -0.549 C  
HETATM    3  C   UNL     1     -13.156  15.964  73.247  1.00  0.00    -0.694 C  
ENDROOT
BRANCH   2   4
HETATM    4  N   UNL     1     -13.545  15.570  70.825  1.00  0.00    -0.847 NA 
HETATM    5  H   UNL     1     -14.056  16.346  70.403  1.00  0.00     0.000 HD 
BRANCH   4   6
HETATM    6  C   UNL     1     -12.098  15.805  70.768  1.00  0.00    -0.408 C  
BRANCH   6   7
HETATM    7  C   UNL     1     -11.488  15.159  69.508  1.00  0.00    -0.296 C  
HETATM    8  O   UNL     1     -10.099  14.883  69.733  1.00  0.00    -0.415 OA 
HETATM    9  H   UNL     1      -9.722  14.484  68.957  1.00  0.00     0.000 HD 
BRANCH   7  10
HETATM   10  C   UNL     1     -12.228  13.861  69.156  1.00  0.00    -0.267 C  
BRANCH  10  11
HETATM   11  O   UNL     1     -11.254  12.882  68.753  1.00  0.00    -0.249 OA 
BRANCH  11  12
HETATM   12  C   UNL     1     -11.332  11.667  69.376  1.00  0.00    -0.278 A  
HETATM   13  C   UNL     1     -10.603  10.602  68.812  1.00  0.00    -0.234 A  
HETATM   14  C   UNL     1     -10.652   9.331  69.432  1.00  0.00    -0.234 A  
HETATM   15  C   UNL     1      -9.809  10.812  67.545  1.00  0.00    -0.197 C  
HETATM   16  C   UNL     1      -9.874   8.151  68.900  1.00  0.00    -0.178 C  
HETATM   17  C   UNL     1     -11.472   9.142  70.573  1.00  0.00    -0.229 A  
HETATM   18  C   UNL     1     -12.272  10.174  71.075  1.00  0.00    -0.474 A  
HETATM   19  C   UNL     1     -13.258  10.020  72.194  1.00  0.00    -0.489 C  
HETATM   20  C   UNL     1     -12.156  11.439  70.485  1.00  0.00    -0.487 A  
BRANCH  17  21
HETATM   21  O   UNL     1     -11.536   7.799  71.045  1.00  0.00    -0.275 OA 
BRANCH  21  22
HETATM   22  C   UNL     1     -11.063   7.329  72.271  1.00  0.00    -0.260 C  
HETATM   23  C   UNL     1     -11.422   5.873  72.396  1.00  0.00    -0.358 C  
HETATM   24  O   UNL     1     -10.411   7.951  73.096  1.00  0.00    -0.332 OA 
ENDBRANCH  21  22
ENDBRANCH  17  21
ENDBRANCH  11  12
ENDBRANCH  10  11
ENDBRANCH   7  10
ENDBRANCH   6   7
ENDBRANCH   4   6
ENDBRANCH   2   4
TORSDOF 8
ENDMDL
MODEL       17
REMARK 921   NORMALIZED FREE ENERGY PREDICTED BY IDOCK:   -5.48 KCAL/MOL
REMARK 922        TOTAL FREE ENERGY PREDICTED BY IDOCK:   -9.27 KCAL/MOL
REMARK 923 INTER-LIGAND FREE ENERGY PREDICTED BY IDOCK:   -8.44 KCAL/MOL
REMARK 924 INTRA-LIGAND FREE ENERGY PREDICTED BY IDOCK:   -0.84 KCAL/MOL
REMARK 927      BINDING AFFINITY PREDICTED BY RF-SCORE:    0.00 PKD
ROOT
HETATM    1  C   UNL     1      -9.501  10.319  62.603  1.00  0.00    -0.309 C  
HETATM    2  C   UNL     1     -10.349  10.893  63.739  1.00  0.00    -0.317 C  
HETATM    3  C   UNL     1      -9.512  10.960  65.019  1.00  0.00    -0.274 C  
ENDROOT
BRANCH   2   4
HETATM    4  N   UNL     1     -10.829  12.217  63.328  1.00  0.00    -0.632 NA 
HETATM    5  H   UNL     1     -11.822  12.187  63.095  1.00  0.00     0.000 HD 
BRANCH   4   6
HETATM    6  C   UNL     1     -10.557  13.263  64.321  1.00  0.00    -0.384 C  
BRANCH   6   7
HETATM    7  C   UNL     1     -11.747  14.236  64.429  1.00  0.00    -0.389 C  
HETATM    8  O   UNL     1     -12.613  14.066  63.299  1.00  0.00    -1.073 OA 
HETATM    9  H   UNL     1     -13.346  14.667  63.365  1.00  0.00     0.000 HD 
BRANCH   7  10
HETATM   10  C   UNL     1     -12.529  13.990  65.726  1.00  0.00    -0.494 C  
BRANCH  10  11
HETATM   11  O   UNL     1     -11.643  14.214  66.837  1.00  0.00    -0.351 OA 
BRANCH  11  12
HETATM   12  C   UNL     1     -11.705  13.294  67.848  1.00  0.00    -0.357 A  
HETATM   13  C   UNL     1     -12.072  13.760  69.125  1.00  0.00    -0.374 A  
HETATM   14  C   UNL     1     -12.153  12.838  70.196  1.00  0.00    -0.370 A  
HETATM   15  C   UNL     1     -12.341  15.228  69.351  1.00  0.00    -0.168 C  
HETATM   16  C   UNL     1     -12.569  13.260  71.586  1.00  0.00    -0.254 C  
HETATM   17  C   UNL     1     -11.815  11.479  69.974  1.00  0.00    -0.355 A  
HETATM   18  C   UNL     1     -11.356  11.036  68.729  1.00  0.00    -0.349 A  
HETATM   19  C   UNL     1     -10.857   9.649  68.450  1.00  0.00    -0.212 C  
HETATM   20  C   UNL     1     -11.346  11.953  67.670  1.00  0.00    -0.372 A  
BRANCH  17  21
HETATM   21  O   UNL     1     -11.820  10.666  71.144  1.00  0.00    -0.328 OA 
BRANCH  21  22
HETATM   22  C   UNL     1     -12.702   9.619  71.421  1.00  0.00    -0.374 C  
HETATM   23  C   UNL     1     -11.986   8.600  72.264  1.00  0.00    -0.438 C  
HETATM   24  O   UNL     1     -13.879   9.545  71.101  1.00  0.00    -0.266 OA 
ENDBRANCH  21  22
ENDBRANCH  17  21
ENDBRANCH  11  12
ENDBRANCH  10  11
ENDBRANCH   7  10
ENDBRANCH   6   7
ENDBRANCH   4   6
ENDBRANCH   2   4
TORSDOF 8
ENDMDL
MODEL       18
REMARK 921   NORMALIZED FREE ENERGY PREDICTED BY IDOCK:   -5.45 KCAL/MOL
REMARK 922        TOTAL FREE ENERGY PREDICTED BY IDOCK:   -9.24 KCAL/MOL
REMARK 923 INTER-LIGAND FREE ENERGY PREDICTED BY IDOCK:   -8.70 KCAL/MOL
REMARK 924 INTRA-LIGAND FREE ENERGY PREDICTED BY IDOCK:   -0.54 KCAL/MOL
REMARK 927      BINDING AFFINITY PREDICTED BY RF-SCORE:    0.00 PKD
ROOT
HETATM    1  C   UNL     1     -10.620  19.906  66.556  1.00  0.00    -0.531 C  
HETATM    2  C   UNL     1      -9.929  18.555  66.748  1.00  0.00    -0.360 C  
HETATM    3  C   UNL     1     -10.366  17.940  68.080  1.00  0.00    -0.395 C  
ENDROOT
BRANCH   2   4
HETATM    4  N   UNL     1     -10.276  17.697  65.610  1.00  0.00    -0.614 NA 
HETATM    5  H   UNL     1      -9.707  17.928  64.795  1.00  0.00     0.000 HD 
BRANCH   4   6
HETATM    6  C   UNL     1     -10.190  16.265  65.919  1.00  0.00    -0.364 C  
BRANCH   6   7
HETATM    7  C   UNL     1     -11.201  15.463  65.076  1.00  0.00    -0.387 C  
HETATM    8  O   UNL     1     -11.598  16.236  63.935  1.00  0.00    -1.489 OA 
HETATM    9  H   UNL     1     -12.221  15.742  63.416  1.00  0.00     0.000 HD 
BRANCH   7  10
HETATM   10  C   UNL     1     -10.586  14.134  64.618  1.00  0.00    -0.368 C  
BRANCH  10  11
HETATM   11  O   UNL     1     -11.553  13.091  64.832  1.00  0.00    -0.307 OA 
BRANCH  11  12
HETATM   12  C   UNL     1     -11.270  12.209  65.839  1.00  0.00    -0.339 A  
HETATM   13  C   UNL     1     -10.530  11.059  65.502  1.00  0.00    -0.302 A  
HETATM   14  C   UNL     1     -10.211  10.126  66.517  1.00  0.00    -0.288 A  
HETATM   15  C   UNL     1     -10.114  10.814  64.072  1.00  0.00    -0.410 C  
HETATM   16  C   UNL     1      -9.396   8.885  66.236  1.00  0.00    -0.279 C  
HETATM   17  C   UNL     1     -10.686  10.339  67.836  1.00  0.00    -0.264 A  
HETATM   18  C   UNL     1     -11.503  11.430  68.149  1.00  0.00    -0.375 A  
HETATM   19  C   UNL     1     -12.149  11.656  69.484  1.00  0.00    -0.336 C  
HETATM   20  C   UNL     1     -11.751  12.373  67.143  1.00  0.00    -0.415 A  
BRANCH  17  21
HETATM   21  O   UNL     1     -10.405   9.281  68.749  1.00  0.00    -0.201 OA 
BRANCH  21  22
HETATM   22  C   UNL     1      -9.620   9.368  69.899  1.00  0.00    -0.212 C  
HETATM   23  C   UNL     1     -10.310   8.620  71.007  1.00  0.00    -0.275 C  
HETATM   24  O   UNL     1      -8.523   9.898  70.004  1.00  0.00    -0.193 OA 
ENDBRANCH  21  22
ENDBRANCH  17  21
ENDBRANCH  11  12
ENDBRANCH  10  11
ENDBRANCH   7  10
ENDBRANCH   6   7
ENDBRANCH   4   6
ENDBRANCH   2   4
TORSDOF 8
ENDMDL
MODEL       19
REMARK 921   NORMALIZED FREE ENERGY PREDICTED BY IDOCK:   -5.43 KCAL/MOL
REMARK 922        TOTAL FREE ENERGY PREDICTED BY IDOCK:   -9.20 KCAL/MOL
REMARK 923 INTER-LIGAND FREE ENERGY PREDICTED BY IDOCK:   -8.06 KCAL/MOL
REMARK 924 INTRA-LIGAND FREE ENERGY PREDICTED BY IDOCK:   -1.14 KCAL/MOL
REMARK 927      BINDING AFFINITY PREDICTED BY RF-SCORE:    0.00 PKD
ROOT
HETATM    1  C   UNL     1     -10.716  14.809  66.098  1.00  0.00    -0.314 C  
HETATM    2  C   UNL     1     -12.083  14.155  66.303  1.00  0.00    -0.442 C  
HETATM    3  C   UNL     1     -11.974  12.649  66.048  1.00  0.00    -0.478 C  
ENDROOT
BRANCH   2   4
HETATM    4  N   UNL     1     -12.530  14.447  67.669  1.00  0.00    -0.530 NA 
HETATM    5  H   UNL     1     -13.110  13.690  68.032  1.00  0.00     0.000 HD 
BRANCH   4   6
HETATM    6  C   UNL     1     -11.425  14.745  68.587  1.00  0.00    -0.302 C  
BRANCH   6   7
HETATM    7  C   UNL     1     -11.949  14.970  70.019  1.00  0.00    -0.332 C  
HETATM    8  O   UNL     1     -13.125  15.790  69.978  1.00  0.00    -0.648 OA 
HETATM    9  H   UNL     1     -13.448  15.929  70.861  1.00  0.00     0.000 HD 
BRANCH   7  10
HETATM   10  C   UNL     1     -12.271  13.629  70.692  1.00  0.00    -0.360 C  
BRANCH  10  11
HETATM   11  O   UNL     1     -12.090  12.582  69.722  1.00  0.00    -0.287 OA 
BRANCH  11  12
HETATM   12  C   UNL     1     -11.961  11.315  70.224  1.00  0.00    -0.379 A  
HETATM   13  C   UNL     1     -10.884  10.540  69.752  1.00  0.00    -0.335 A  
HETATM   14  C   UNL     1     -10.712   9.227  70.252  1.00  0.00    -0.284 A  
HETATM   15  C   UNL     1      -9.950  11.093  68.704  1.00  0.00    -0.210 C  
HETATM   16  C   UNL     1      -9.564   8.348  69.815  1.00  0.00    -0.170 C  
HETATM   17  C   UNL     1     -11.653   8.703  71.174  1.00  0.00    -0.281 A  
HETATM   18  C   UNL     1     -12.776   9.438  71.567  1.00  0.00    -0.444 A  
HETATM   19  C   UNL     1     -13.880   8.908  72.434  1.00  0.00    -0.518 C  
HETATM   20  C   UNL     1     -12.889  10.756  71.110  1.00  0.00    -0.513 A  
BRANCH  17  21
HETATM   21  O   UNL     1     -11.448   7.336  71.521  1.00  0.00    -0.249 OA 
BRANCH  21  22
HETATM   22  C   UNL     1     -10.967   6.854  72.740  1.00  0.00    -0.280 C  
HETATM   23  C   UNL     1     -11.266   5.382  72.825  1.00  0.00    -0.358 C  
HETATM   24  O   UNL     1     -10.348   7.482  73.587  1.00  0.00    -0.344 OA 
ENDBRANCH  21  22
ENDBRANCH  17  21
ENDBRANCH  11  12
ENDBRANCH  10  11
ENDBRANCH   7  10
ENDBRANCH   6   7
ENDBRANCH   4   6
ENDBRANCH   2   4
TORSDOF 8
ENDMDL
MODEL       20
REMARK 921   NORMALIZED FREE ENERGY PREDICTED BY IDOCK:   -5.41 KCAL/MOL
REMARK 922        TOTAL FREE ENERGY PREDICTED BY IDOCK:   -9.18 KCAL/MOL
REMARK 923 INTER-LIGAND FREE ENERGY PREDICTED BY IDOCK:   -8.41 KCAL/MOL
REMARK 924 INTRA-LIGAND FREE ENERGY PREDICTED BY IDOCK:   -0.77 KCAL/MOL
REMARK 927      BINDING AFFINITY PREDICTED BY RF-SCORE:    0.00 PKD
ROOT
HETATM    1  C   UNL     1     -10.602  19.699  67.086  1.00  0.00    -0.611 C  
HETATM    2  C   UNL     1      -9.910  18.336  67.041  1.00  0.00    -0.326 C  
HETATM    3  C   UNL     1     -10.462  17.444  68.156  1.00  0.00    -0.389 C  
ENDROOT
BRANCH   2   4
HETATM    4  N   UNL     1     -10.132  17.753  65.713  1.00  0.00    -0.581 NA 
HETATM    5  H   UNL     1      -9.490  18.153  65.029  1.00  0.00     0.000 HD 
BRANCH   4   6
HETATM    6  C   UNL     1     -10.058  16.288  65.707  1.00  0.00    -0.347 C  
BRANCH   6   7
HETATM    7  C   UNL     1     -11.222  15.685  64.896  1.00  0.00    -0.369 C  
HETATM    8  O   UNL     1     -11.454  16.478  63.724  1.00  0.00    -1.615 OA 
HETATM    9  H   UNL     1     -12.172  16.107  63.224  1.00  0.00     0.000 HD 
BRANCH   7  10
HETATM   10  C   UNL     1     -10.906  14.239  64.492  1.00  0.00    -0.288 C  
BRANCH  10  11
HETATM   11  O   UNL     1     -11.880  13.376  65.106  1.00  0.00    -0.325 OA 
BRANCH  11  12
HETATM   12  C   UNL     1     -11.383  12.280  65.759  1.00  0.00    -0.355 A  
HETATM   13  C   UNL     1     -11.566  12.221  67.154  1.00  0.00    -0.423 A  
HETATM   14  C   UNL     1     -11.073  11.101  67.865  1.00  0.00    -0.331 A  
HETATM   15  C   UNL     1     -12.249  13.355  67.880  1.00  0.00    -0.149 C  
HETATM   16  C   UNL     1     -11.258  10.955  69.357  1.00  0.00    -0.335 C  
HETATM   17  C   UNL     1     -10.362  10.091  67.169  1.00  0.00    -0.241 A  
HETATM   18  C   UNL     1     -10.096  10.198  65.800  1.00  0.00    -0.324 A  
HETATM   19  C   UNL     1      -9.244   9.240  65.020  1.00  0.00    -0.242 C  
HETATM   20  C   UNL     1     -10.649  11.282  65.107  1.00  0.00    -0.343 A  
BRANCH  17  21
HETATM   21  O   UNL     1      -9.812   9.071  67.998  1.00  0.00    -0.155 OA 
BRANCH  21  22
HETATM   22  C   UNL     1     -10.328   7.788  68.185  1.00  0.00    -0.200 C  
HETATM   23  C   UNL     1     -10.110   7.387  69.619  1.00  0.00    -0.186 C  
HETATM   24  O   UNL     1     -10.919   7.105  67.361  1.00  0.00    -0.274 OA 
ENDBRANCH  21  22
ENDBRANCH  17  21
ENDBRANCH  11  12
ENDBRANCH  10  11
ENDBRANCH   7  10
ENDBRANCH   6   7
ENDBRANCH   4   6
ENDBRANCH   2   4
TORSDOF 8
ENDMDL
MODEL       21
REMARK 921   NORMALIZED FREE ENERGY PREDICTED BY IDOCK:   -5.40 KCAL/MOL
REMARK 922        TOTAL FREE ENERGY PREDICTED BY IDOCK:   -9.16 KCAL/MOL
REMARK 923 INTER-LIGAND FREE ENERGY PREDICTED BY IDOCK:   -8.43 KCAL/MOL
REMARK 924 INTRA-LIGAND FREE ENERGY PREDICTED BY IDOCK:   -0.73 KCAL/MOL
REMARK 927      BINDING AFFINITY PREDICTED BY RF-SCORE:    0.00 PKD
ROOT
HETATM    1  C   UNL     1      -9.592  16.636  66.553  1.00  0.00    -0.292 C  
HETATM    2  C   UNL     1     -10.787  17.316  65.883  1.00  0.00    -0.003 C  
HETATM    3  C   UNL     1     -10.555  18.829  65.833  1.00  0.00    -0.405 C  
ENDROOT
BRANCH   2   4
HETATM    4  N   UNL     1     -10.948  16.743  64.543  1.00  0.00    -1.079 NA 
HETATM    5  H   UNL     1     -10.248  17.116  63.901  1.00  0.00     0.000 HD 
BRANCH   4   6
HETATM    6  C   UNL     1     -10.933  15.275  64.537  1.00  0.00    -0.192 C  
BRANCH   6   7
HETATM    7  C   UNL     1     -12.360  14.715  64.374  1.00  0.00    -0.398 C  
HETATM    8  O   UNL     1     -12.479  14.067  63.100  1.00  0.00    -1.137 OA 
HETATM    9  H   UNL     1     -13.359  13.721  62.998  1.00  0.00     0.000 HD 
BRANCH   7  10
HETATM   10  C   UNL     1     -12.681  13.720  65.497  1.00  0.00    -0.488 C  
BRANCH  10  11
HETATM   11  O   UNL     1     -11.524  13.609  66.345  1.00  0.00    -0.318 OA 
BRANCH  11  12
HETATM   12  C   UNL     1     -11.514  12.548  67.210  1.00  0.00    -0.353 A  
HETATM   13  C   UNL     1     -11.875  12.802  68.547  1.00  0.00    -0.345 A  
HETATM   14  C   UNL     1     -11.884  11.730  69.471  1.00  0.00    -0.402 A  
HETATM   15  C   UNL     1     -12.214  14.204  68.991  1.00  0.00    -0.274 C  
HETATM   16  C   UNL     1     -12.288  11.921  70.914  1.00  0.00    -0.400 C  
HETATM   17  C   UNL     1     -11.482  10.439  69.047  1.00  0.00    -0.193 A  
HETATM   18  C   UNL     1     -11.030  10.208  67.743  1.00  0.00    -0.338 A  
HETATM   19  C   UNL     1     -10.468   8.906  67.254  1.00  0.00    -0.348 C  
HETATM   20  C   UNL     1     -11.092  11.269  66.831  1.00  0.00    -0.339 A  
BRANCH  17  21
HETATM   21  O   UNL     1     -11.418   9.463  70.084  1.00  0.00    -0.230 OA 
BRANCH  21  22
HETATM   22  C   UNL     1     -10.318   9.190  70.897  1.00  0.00    -0.280 C  
HETATM   23  C   UNL     1     -10.816   8.702  72.230  1.00  0.00    -0.392 C  
HETATM   24  O   UNL     1      -9.138   9.264  70.587  1.00  0.00    -0.226 OA 
ENDBRANCH  21  22
ENDBRANCH  17  21
ENDBRANCH  11  12
ENDBRANCH  10  11
ENDBRANCH   7  10
ENDBRANCH   6   7
ENDBRANCH   4   6
ENDBRANCH   2   4
TORSDOF 8
ENDMDL
MODEL       22
REMARK 921   NORMALIZED FREE ENERGY PREDICTED BY IDOCK:   -5.40 KCAL/MOL
REMARK 922        TOTAL FREE ENERGY PREDICTED BY IDOCK:   -9.16 KCAL/MOL
REMARK 923 INTER-LIGAND FREE ENERGY PREDICTED BY IDOCK:   -8.31 KCAL/MOL
REMARK 924 INTRA-LIGAND FREE ENERGY PREDICTED BY IDOCK:   -0.85 KCAL/MOL
REMARK 927      BINDING AFFINITY PREDICTED BY RF-SCORE:    0.00 PKD
ROOT
HETATM    1  C   UNL     1     -13.901  13.525  72.236  1.00  0.00    -0.680 C  
HETATM    2  C   UNL     1     -14.170  15.017  72.036  1.00  0.00    -0.555 C  
HETATM    3  C   UNL     1     -13.411  15.822  73.094  1.00  0.00    -0.685 C  
ENDROOT
BRANCH   2   4
HETATM    4  N   UNL     1     -13.760  15.378  70.674  1.00  0.00    -0.841 NA 
HETATM    5  H   UNL     1     -14.093  16.311  70.430  1.00  0.00     0.000 HD 
BRANCH   4   6
HETATM    6  C   UNL     1     -12.313  15.267  70.459  1.00  0.00    -0.387 C  
BRANCH   6   7
HETATM    7  C   UNL     1     -11.866  16.151  69.278  1.00  0.00    -0.172 C  
HETATM    8  O   UNL     1     -10.831  17.044  69.711  1.00  0.00    -0.389 OA 
HETATM    9  H   UNL     1     -10.555  17.589  68.983  1.00  0.00     0.000 HD 
BRANCH   7  10
HETATM   10  C   UNL     1     -11.357  15.285  68.118  1.00  0.00    -0.338 C  
BRANCH  10  11
HETATM   11  O   UNL     1     -12.216  14.137  68.002  1.00  0.00    -0.310 OA 
BRANCH  11  12
HETATM   12  C   UNL     1     -11.746  13.112  67.226  1.00  0.00    -0.374 A  
HETATM   13  C   UNL     1     -11.417  11.907  67.875  1.00  0.00    -0.385 A  
HETATM   14  C   UNL     1     -10.935  10.822  67.106  1.00  0.00    -0.324 A  
HETATM   15  C   UNL     1     -11.548  11.791  69.374  1.00  0.00    -0.386 C  
HETATM   16  C   UNL     1     -10.589   9.490  67.729  1.00  0.00    -0.318 C  
HETATM   17  C   UNL     1     -10.743  10.986  65.711  1.00  0.00    -0.148 A  
HETATM   18  C   UNL     1     -10.977  12.213  65.082  1.00  0.00    -0.355 A  
HETATM   19  C   UNL     1     -10.677  12.503  63.641  1.00  0.00    -0.469 C  
HETATM   20  C   UNL     1     -11.515  13.252  65.852  1.00  0.00    -0.359 A  
BRANCH  17  21
HETATM   21  O   UNL     1     -10.146   9.870  65.057  1.00  0.00    -0.286 OA 
BRANCH  21  22
HETATM   22  C   UNL     1      -8.838   9.796  64.574  1.00  0.00    -0.216 C  
HETATM   23  C   UNL     1      -8.885   9.405  63.122  1.00  0.00    -0.207 C  
HETATM   24  O   UNL     1      -7.812  10.060  65.184  1.00  0.00    -0.125 OA 
ENDBRANCH  21  22
ENDBRANCH  17  21
ENDBRANCH  11  12
ENDBRANCH  10  11
ENDBRANCH   7  10
ENDBRANCH   6   7
ENDBRANCH   4   6
ENDBRANCH   2   4
TORSDOF 8
ENDMDL
MODEL       23
REMARK 921   NORMALIZED FREE ENERGY PREDICTED BY IDOCK:   -5.40 KCAL/MOL
REMARK 922        TOTAL FREE ENERGY PREDICTED BY IDOCK:   -9.16 KCAL/MOL
REMARK 923 INTER-LIGAND FREE ENERGY PREDICTED BY IDOCK:   -8.02 KCAL/MOL
REMARK 924 INTRA-LIGAND FREE ENERGY PREDICTED BY IDOCK:   -1.13 KCAL/MOL
REMARK 927      BINDING AFFINITY PREDICTED BY RF-SCORE:    0.00 PKD
ROOT
HETATM    1  C   UNL     1     -12.280  14.959  64.540  1.00  0.00    -0.396 C  
HETATM    2  C   UNL     1     -10.761  15.117  64.624  1.00  0.00    -0.208 C  
HETATM    3  C   UNL     1     -10.382  15.707  65.985  1.00  0.00    -0.351 C  
ENDROOT
BRANCH   2   4
HETATM    4  N   UNL     1     -10.151  13.801  64.409  1.00  0.00    -0.752 NA 
HETATM    5  H   UNL     1      -9.743  13.443  65.273  1.00  0.00     0.000 HD 
BRANCH   4   6
HETATM    6  C   UNL     1     -11.077  12.825  63.824  1.00  0.00    -0.427 C  
BRANCH   6   7
HETATM    7  C   UNL     1     -10.425  11.429  63.751  1.00  0.00    -0.399 C  
HETATM    8  O   UNL     1      -9.162  11.522  63.079  1.00  0.00    -0.488 OA 
HETATM    9  H   UNL     1      -8.760  10.662  63.034  1.00  0.00     0.000 HD 
BRANCH   7  10
HETATM   10  C   UNL     1     -10.226  10.853  65.159  1.00  0.00    -0.297 C  
BRANCH  10  11
HETATM   11  O   UNL     1     -11.114  11.541  66.058  1.00  0.00    -0.291 OA 
BRANCH  11  12
HETATM   12  C   UNL     1     -11.147  11.073  67.344  1.00  0.00    -0.305 A  
HETATM   13  C   UNL     1     -11.608  11.954  68.341  1.00  0.00    -0.376 A  
HETATM   14  C   UNL     1     -11.664  11.505  69.682  1.00  0.00    -0.419 A  
HETATM   15  C   UNL     1     -12.005  13.366  67.984  1.00  0.00    -0.357 C  
HETATM   16  C   UNL     1     -12.176  12.383  70.799  1.00  0.00    -0.336 C  
HETATM   17  C   UNL     1     -11.207  10.202  70.001  1.00  0.00    -0.299 A  
HETATM   18  C   UNL     1     -10.657   9.363  69.026  1.00  0.00    -0.233 A  
HETATM   19  C   UNL     1     -10.036   8.026  69.304  1.00  0.00    -0.198 C  
HETATM   20  C   UNL     1     -10.673   9.805  67.697  1.00  0.00    -0.334 A  
BRANCH  17  21
HETATM   21  O   UNL     1     -11.200   9.897  71.393  1.00  0.00    -0.348 OA 
BRANCH  21  22
HETATM   22  C   UNL     1     -12.110   9.080  72.066  1.00  0.00    -0.370 C  
HETATM   23  C   UNL     1     -11.347   7.987  72.763  1.00  0.00    -0.439 C  
HETATM   24  O   UNL     1     -13.320   9.236  72.147  1.00  0.00    -0.402 OA 
ENDBRANCH  21  22
ENDBRANCH  17  21
ENDBRANCH  11  12
ENDBRANCH  10  11
ENDBRANCH   7  10
ENDBRANCH   6   7
ENDBRANCH   4   6
ENDBRANCH   2   4
TORSDOF 8
ENDMDL
MODEL       24
REMARK 921   NORMALIZED FREE ENERGY PREDICTED BY IDOCK:   -5.37 KCAL/MOL
REMARK 922        TOTAL FREE ENERGY PREDICTED BY IDOCK:   -9.13 KCAL/MOL
REMARK 923 INTER-LIGAND FREE ENERGY PREDICTED BY IDOCK:   -8.36 KCAL/MOL
REMARK 924 INTRA-LIGAND FREE ENERGY PREDICTED BY IDOCK:   -0.77 KCAL/MOL
REMARK 927      BINDING AFFINITY PREDICTED BY RF-SCORE:    0.00 PKD
ROOT
HETATM    1  C   UNL     1     -13.862  13.516  72.264  1.00  0.00    -0.680 C  
HETATM    2  C   UNL     1     -14.169  15.000  72.058  1.00  0.00    -0.555 C  
HETATM    3  C   UNL     1     -13.508  15.819  73.169  1.00  0.00    -0.652 C  
ENDROOT
BRANCH   2   4
HETATM    4  N   UNL     1     -13.685  15.389  70.729  1.00  0.00    -0.845 NA 
HETATM    5  H   UNL     1     -14.287  16.101  70.317  1.00  0.00     0.000 HD 
BRANCH   4   6
HETATM    6  C   UNL     1     -12.284  15.825  70.730  1.00  0.00    -0.399 C  
BRANCH   6   7
HETATM    7  C   UNL     1     -11.530  15.245  69.517  1.00  0.00    -0.305 C  
HETATM    8  O   UNL     1     -10.178  14.946  69.888  1.00  0.00    -0.436 OA 
HETATM    9  H   UNL     1      -9.713  14.589  69.140  1.00  0.00     0.000 HD 
BRANCH   7  10
HETATM   10  C   UNL     1     -12.225  13.976  69.007  1.00  0.00    -0.245 C  
BRANCH  10  11
HETATM   11  O   UNL     1     -12.238  14.015  67.569  1.00  0.00    -0.366 OA 
BRANCH  11  12
HETATM   12  C   UNL     1     -11.624  12.969  66.935  1.00  0.00    -0.366 A  
HETATM   13  C   UNL     1     -11.435  13.076  65.544  1.00  0.00    -0.352 A  
HETATM   14  C   UNL     1     -10.797  12.018  64.853  1.00  0.00    -0.349 A  
HETATM   15  C   UNL     1     -11.936  14.290  64.800  1.00  0.00    -0.449 C  
HETATM   16  C   UNL     1     -10.534  12.077  63.367  1.00  0.00    -0.474 C  
HETATM   17  C   UNL     1     -10.411  10.854  65.563  1.00  0.00    -0.219 A  
HETATM   18  C   UNL     1     -10.688  10.706  66.927  1.00  0.00    -0.297 A  
HETATM   19  C   UNL     1     -10.429   9.458  67.718  1.00  0.00    -0.310 C  
HETATM   20  C   UNL     1     -11.260  11.792  67.601  1.00  0.00    -0.345 A  
BRANCH  17  21
HETATM   21  O   UNL     1      -9.886   9.808  64.751  1.00  0.00    -0.258 OA 
BRANCH  21  22
HETATM   22  C   UNL     1      -8.621   9.228  64.863  1.00  0.00    -0.181 C  
HETATM   23  C   UNL     1      -7.622  10.313  65.164  1.00  0.00    -0.133 C  
HETATM   24  O   UNL     1      -8.347   8.039  64.797  1.00  0.00    -0.144 OA 
ENDBRANCH  21  22
ENDBRANCH  17  21
ENDBRANCH  11  12
ENDBRANCH  10  11
ENDBRANCH   7  10
ENDBRANCH   6   7
ENDBRANCH   4   6
ENDBRANCH   2   4
TORSDOF 8
ENDMDL
MODEL       25
REMARK 921   NORMALIZED FREE ENERGY PREDICTED BY IDOCK:   -5.36 KCAL/MOL
REMARK 922        TOTAL FREE ENERGY PREDICTED BY IDOCK:   -9.11 KCAL/MOL
REMARK 923 INTER-LIGAND FREE ENERGY PREDICTED BY IDOCK:   -8.20 KCAL/MOL
REMARK 924 INTRA-LIGAND FREE ENERGY PREDICTED BY IDOCK:   -0.91 KCAL/MOL
REMARK 927      BINDING AFFINITY PREDICTED BY RF-SCORE:    0.00 PKD
ROOT
HETATM    1  C   UNL     1     -14.077   8.665  71.975  1.00  0.00    -0.523 C  
HETATM    2  C   UNL     1     -12.612   9.059  71.784  1.00  0.00    -0.367 C  
HETATM    3  C   UNL     1     -11.710   7.886  72.177  1.00  0.00    -0.385 C  
ENDROOT
BRANCH   2   4
HETATM    4  N   UNL     1     -12.421   9.452  70.384  1.00  0.00    -0.460 NA 
HETATM    5  H   UNL     1     -13.135  10.120  70.093  1.00  0.00     0.000 HD 
BRANCH   4   6
HETATM    6  C   UNL     1     -11.076   9.970  70.108  1.00  0.00    -0.310 C  
BRANCH   6   7
HETATM    7  C   UNL     1     -10.674   9.695  68.645  1.00  0.00    -0.201 C  
HETATM    8  O   UNL     1     -11.095   8.377  68.270  1.00  0.00    -0.433 OA 
HETATM    9  H   UNL     1     -10.847   8.207  67.368  1.00  0.00     0.000 HD 
BRANCH   7  10
HETATM   10  C   UNL     1     -11.308  10.732  67.708  1.00  0.00    -0.279 C  
BRANCH  10  11
HETATM   11  O   UNL     1     -12.124  11.615  68.498  1.00  0.00    -0.491 OA 
BRANCH  11  12
HETATM   12  C   UNL     1     -11.804  12.944  68.435  1.00  0.00    -0.318 A  
HETATM   13  C   UNL     1     -11.952  13.701  69.613  1.00  0.00    -0.402 A  
HETATM   14  C   UNL     1     -11.625  15.078  69.591  1.00  0.00    -0.333 A  
HETATM   15  C   UNL     1     -12.483  13.056  70.870  1.00  0.00    -0.396 C  
HETATM   16  C   UNL     1     -11.730  15.946  70.822  1.00  0.00    -0.433 C  
HETATM   17  C   UNL     1     -11.207  15.676  68.375  1.00  0.00    -0.352 A  
HETATM   18  C   UNL     1     -11.155  14.945  67.183  1.00  0.00    -0.332 A  
HETATM   19  C   UNL     1     -10.849  15.532  65.837  1.00  0.00    -0.317 C  
HETATM   20  C   UNL     1     -11.420  13.572  67.245  1.00  0.00    -0.369 A  
BRANCH  17  21
HETATM   21  O   UNL     1     -11.016  17.087  68.440  1.00  0.00    -0.352 OA 
BRANCH  21  22
HETATM   22  C   UNL     1      -9.792  17.756  68.456  1.00  0.00    -0.355 C  
HETATM   23  C   UNL     1     -10.054  19.235  68.366  1.00  0.00    -0.518 C  
HETATM   24  O   UNL     1      -8.683  17.259  68.585  1.00  0.00    -0.272 OA 
ENDBRANCH  21  22
ENDBRANCH  17  21
ENDBRANCH  11  12
ENDBRANCH  10  11
ENDBRANCH   7  10
ENDBRANCH   6   7
ENDBRANCH   4   6
ENDBRANCH   2   4
TORSDOF 8
ENDMDL
MODEL       26
REMARK 921   NORMALIZED FREE ENERGY PREDICTED BY IDOCK:   -5.36 KCAL/MOL
REMARK 922        TOTAL FREE ENERGY PREDICTED BY IDOCK:   -9.10 KCAL/MOL
REMARK 923 INTER-LIGAND FREE ENERGY PREDICTED BY IDOCK:   -8.29 KCAL/MOL
REMARK 924 INTRA-LIGAND FREE ENERGY PREDICTED BY IDOCK:   -0.81 KCAL/MOL
REMARK 927      BINDING AFFINITY PREDICTED BY RF-SCORE:    0.00 PKD
ROOT
HETATM    1  C   UNL     1      -9.689  19.556  68.351  1.00  0.00    -0.498 C  
HETATM    2  C   UNL     1     -10.704  18.997  67.353  1.00  0.00    -0.473 C  
HETATM    3  C   UNL     1     -10.423  19.570  65.961  1.00  0.00    -0.611 C  
ENDROOT
BRANCH   2   4
HETATM    4  N   UNL     1     -10.609  17.534  67.372  1.00  0.00    -0.340 NA 
HETATM    5  H   UNL     1     -11.485  17.117  67.685  1.00  0.00     0.000 HD 
BRANCH   4   6
HETATM    6  C   UNL     1     -10.189  16.966  66.086  1.00  0.00    -0.341 C  
BRANCH   6   7
HETATM    7  C   UNL     1     -11.304  16.087  65.487  1.00  0.00     0.140 C  
HETATM    8  O   UNL     1     -11.199  16.084  64.057  1.00  0.00    -1.078 OA 
HETATM    9  H   UNL     1     -11.886  15.542  63.687  1.00  0.00     0.000 HD 
BRANCH   7  10
HETATM   10  C   UNL     1     -11.204  14.651  66.020  1.00  0.00    -0.342 C  
BRANCH  10  11
HETATM   11  O   UNL     1     -11.175  14.704  67.457  1.00  0.00    -0.307 OA 
BRANCH  11  12
HETATM   12  C   UNL     1     -11.419  13.525  68.106  1.00  0.00    -0.303 A  
HETATM   13  C   UNL     1     -11.949  13.600  69.408  1.00  0.00    -0.394 A  
HETATM   14  C   UNL     1     -12.222  12.402  70.110  1.00  0.00    -0.303 A  
HETATM   15  C   UNL     1     -12.188  14.943  70.055  1.00  0.00    -0.381 C  
HETATM   16  C   UNL     1     -12.818  12.405  71.498  1.00  0.00    -0.377 C  
HETATM   17  C   UNL     1     -11.910  11.156  69.511  1.00  0.00    -0.353 A  
HETATM   18  C   UNL     1     -11.293  11.084  68.257  1.00  0.00    -0.366 A  
HETATM   19  C   UNL     1     -10.816   9.816  67.615  1.00  0.00    -0.301 C  
HETATM   20  C   UNL     1     -11.093  12.279  67.556  1.00  0.00    -0.326 A  
BRANCH  17  21
HETATM   21  O   UNL     1     -12.118  10.023  70.350  1.00  0.00    -0.258 OA 
BRANCH  21  22
HETATM   22  C   UNL     1     -11.178   9.439  71.200  1.00  0.00    -0.357 C  
HETATM   23  C   UNL     1     -11.903   8.564  72.187  1.00  0.00    -0.448 C  
HETATM   24  O   UNL     1      -9.962   9.548  71.139  1.00  0.00    -0.269 OA 
ENDBRANCH  21  22
ENDBRANCH  17  21
ENDBRANCH  11  12
ENDBRANCH  10  11
ENDBRANCH   7  10
ENDBRANCH   6   7
ENDBRANCH   4   6
ENDBRANCH   2   4
TORSDOF 8
ENDMDL
MODEL       27
REMARK 921   NORMALIZED FREE ENERGY PREDICTED BY IDOCK:   -5.35 KCAL/MOL
REMARK 922        TOTAL FREE ENERGY PREDICTED BY IDOCK:   -9.08 KCAL/MOL
REMARK 923 INTER-LIGAND FREE ENERGY PREDICTED BY IDOCK:   -7.95 KCAL/MOL
REMARK 924 INTRA-LIGAND FREE ENERGY PREDICTED BY IDOCK:   -1.14 KCAL/MOL
REMARK 927      BINDING AFFINITY PREDICTED BY RF-SCORE:    0.00 PKD
ROOT
HETATM    1  C   UNL     1     -14.285  15.205  72.094  1.00  0.00    -0.656 C  
HETATM    2  C   UNL     1     -13.013  15.707  71.409  1.00  0.00    -0.487 C  
HETATM    3  C   UNL     1     -11.786  15.205  72.174  1.00  0.00    -0.501 C  
ENDROOT
BRANCH   2   4
HETATM    4  N   UNL     1     -13.024  15.234  70.020  1.00  0.00    -0.646 NA 
HETATM    5  H   UNL     1     -13.660  15.793  69.451  1.00  0.00     0.000 HD 
BRANCH   4   6
HETATM    6  C   UNL     1     -11.687  15.186  69.417  1.00  0.00    -0.332 C  
BRANCH   6   7
HETATM    7  C   UNL     1     -11.754  14.615  67.986  1.00  0.00    -0.342 C  
HETATM    8  O   UNL     1     -10.661  15.129  67.212  1.00  0.00    -0.291 OA 
HETATM    9  H   UNL     1     -10.702  14.777  66.330  1.00  0.00     0.000 HD 
BRANCH   7  10
HETATM   10  C   UNL     1     -11.698  13.082  68.015  1.00  0.00    -0.355 C  
BRANCH  10  11
HETATM   11  O   UNL     1     -11.958  12.646  69.360  1.00  0.00    -0.301 OA 
BRANCH  11  12
HETATM   12  C   UNL     1     -11.523  11.388  69.678  1.00  0.00    -0.309 A  
HETATM   13  C   UNL     1     -12.106  10.765  70.798  1.00  0.00    -0.473 A  
HETATM   14  C   UNL     1     -11.687   9.461  71.155  1.00  0.00    -0.418 A  
HETATM   15  C   UNL     1     -13.138  11.495  71.622  1.00  0.00    -0.478 C  
HETATM   16  C   UNL     1     -12.288   8.720  72.326  1.00  0.00    -0.448 C  
HETATM   17  C   UNL     1     -10.657   8.832  70.412  1.00  0.00    -0.221 A  
HETATM   18  C   UNL     1     -10.010   9.489  69.361  1.00  0.00    -0.199 A  
HETATM   19  C   UNL     1      -8.829   8.944  68.613  1.00  0.00    -0.137 C  
HETATM   20  C   UNL     1     -10.485  10.752  68.986  1.00  0.00    -0.239 A  
BRANCH  17  21
HETATM   21  O   UNL     1     -10.235   7.572  70.928  1.00  0.00    -0.193 OA 
BRANCH  21  22
HETATM   22  C   UNL     1     -10.653   6.315  70.488  1.00  0.00    -0.249 C  
HETATM   23  C   UNL     1     -10.075   5.270  71.404  1.00  0.00    -0.266 C  
HETATM   24  O   UNL     1     -11.409   6.075  69.559  1.00  0.00    -0.405 OA 
ENDBRANCH  21  22
ENDBRANCH  17  21
ENDBRANCH  11  12
ENDBRANCH  10  11
ENDBRANCH   7  10
ENDBRANCH   6   7
ENDBRANCH   4   6
ENDBRANCH   2   4
TORSDOF 8
ENDMDL
MODEL       28
REMARK 921   NORMALIZED FREE ENERGY PREDICTED BY IDOCK:   -5.32 KCAL/MOL
REMARK 922        TOTAL FREE ENERGY PREDICTED BY IDOCK:   -9.04 KCAL/MOL
REMARK 923 INTER-LIGAND FREE ENERGY PREDICTED BY IDOCK:   -8.21 KCAL/MOL
REMARK 924 INTRA-LIGAND FREE ENERGY PREDICTED BY IDOCK:   -0.83 KCAL/MOL
REMARK 927      BINDING AFFINITY PREDICTED BY RF-SCORE:    0.00 PKD
ROOT
HETATM    1  C   UNL     1     -10.798  15.851  65.022  1.00  0.00    -0.444 C  
HETATM    2  C   UNL     1     -10.914  14.364  65.360  1.00  0.00    -0.339 C  
HETATM    3  C   UNL     1     -12.388  13.990  65.531  1.00  0.00    -0.503 C  
ENDROOT
BRANCH   2   4
HETATM    4  N   UNL     1     -10.276  13.598  64.284  1.00  0.00    -0.753 NA 
HETATM    5  H   UNL     1      -9.407  13.171  64.607  1.00  0.00     0.000 HD 
BRANCH   4   6
HETATM    6  C   UNL     1     -11.163  12.591  63.689  1.00  0.00    -0.483 C  
BRANCH   6   7
HETATM    7  C   UNL     1     -10.461  11.221  63.613  1.00  0.00    -0.405 C  
HETATM    8  O   UNL     1      -9.587  11.189  62.477  1.00  0.00    -0.548 OA 
HETATM    9  H   UNL     1      -9.154  10.345  62.430  1.00  0.00     0.000 HD 
BRANCH   7  10
HETATM   10  C   UNL     1      -9.661  10.954  64.895  1.00  0.00    -0.248 C  
BRANCH  10  11
HETATM   11  O   UNL     1     -10.246   9.823  65.565  1.00  0.00    -0.256 OA 
BRANCH  11  12
HETATM   12  C   UNL     1     -10.532   9.994  66.892  1.00  0.00    -0.218 A  
HETATM   13  C   UNL     1     -10.465   8.857  67.720  1.00  0.00    -0.300 A  
HETATM   14  C   UNL     1     -10.747   8.995  69.100  1.00  0.00    -0.176 A  
HETATM   15  C   UNL     1     -10.128   7.508  67.133  1.00  0.00    -0.317 C  
HETATM   16  C   UNL     1     -10.666   7.826  70.054  1.00  0.00    -0.245 C  
HETATM   17  C   UNL     1     -11.140  10.258  69.609  1.00  0.00    -0.274 A  
HETATM   18  C   UNL     1     -11.302  11.364  68.769  1.00  0.00    -0.334 A  
HETATM   19  C   UNL     1     -11.838  12.695  69.207  1.00  0.00    -0.358 C  
HETATM   20  C   UNL     1     -10.955  11.220  67.420  1.00  0.00    -0.337 A  
BRANCH  17  21
HETATM   21  O   UNL     1     -11.512  10.256  70.985  1.00  0.00    -0.350 OA 
BRANCH  21  22
HETATM   22  C   UNL     1     -12.794  10.459  71.497  1.00  0.00    -0.464 C  
HETATM   23  C   UNL     1     -13.576   9.182  71.351  1.00  0.00    -0.348 C  
HETATM   24  O   UNL     1     -13.220  11.470  72.036  1.00  0.00    -0.509 OA 
ENDBRANCH  21  22
ENDBRANCH  17  21
ENDBRANCH  11  12
ENDBRANCH  10  11
ENDBRANCH   7  10
ENDBRANCH   6   7
ENDBRANCH   4   6
ENDBRANCH   2   4
TORSDOF 8
ENDMDL
MODEL       29
REMARK 921   NORMALIZED FREE ENERGY PREDICTED BY IDOCK:   -5.31 KCAL/MOL
REMARK 922        TOTAL FREE ENERGY PREDICTED BY IDOCK:   -9.03 KCAL/MOL
REMARK 923 INTER-LIGAND FREE ENERGY PREDICTED BY IDOCK:   -8.12 KCAL/MOL
REMARK 924 INTRA-LIGAND FREE ENERGY PREDICTED BY IDOCK:   -0.92 KCAL/MOL
REMARK 927      BINDING AFFINITY PREDICTED BY RF-SCORE:    0.00 PKD
ROOT
HETATM    1  C   UNL     1     -13.858  13.560  72.208  1.00  0.00    -0.680 C  
HETATM    2  C   UNL     1     -14.124  15.049  71.982  1.00  0.00    -0.535 C  
HETATM    3  C   UNL     1     -13.417  15.866  73.066  1.00  0.00    -0.653 C  
ENDROOT
BRANCH   2   4
HETATM    4  N   UNL     1     -13.654  15.400  70.638  1.00  0.00    -0.826 NA 
HETATM    5  H   UNL     1     -14.092  16.262  70.313  1.00  0.00     0.000 HD 
BRANCH   4   6
HETATM    6  C   UNL     1     -12.192  15.488  70.543  1.00  0.00    -0.404 C  
BRANCH   6   7
HETATM    7  C   UNL     1     -11.756  15.800  69.097  1.00  0.00    -0.388 C  
HETATM    8  O   UNL     1     -10.938  16.978  69.085  1.00  0.00    -0.286 OA 
HETATM    9  H   UNL     1     -10.670  17.171  68.194  1.00  0.00     0.000 HD 
BRANCH   7  10
HETATM   10  C   UNL     1     -10.978  14.619  68.502  1.00  0.00    -0.252 C  
BRANCH  10  11
HETATM   11  O   UNL     1     -11.926  13.624  68.075  1.00  0.00    -0.360 OA 
BRANCH  11  12
HETATM   12  C   UNL     1     -11.608  12.327  68.372  1.00  0.00    -0.326 A  
HETATM   13  C   UNL     1     -11.200  11.501  67.308  1.00  0.00    -0.365 A  
HETATM   14  C   UNL     1     -10.856  10.154  67.576  1.00  0.00    -0.349 A  
HETATM   15  C   UNL     1     -11.162  12.039  65.898  1.00  0.00    -0.385 C  
HETATM   16  C   UNL     1     -10.381   9.218  66.490  1.00  0.00    -0.270 C  
HETATM   17  C   UNL     1     -10.979   9.652  68.896  1.00  0.00    -0.121 A  
HETATM   18  C   UNL     1     -11.479  10.446  69.934  1.00  0.00    -0.368 A  
HETATM   19  C   UNL     1     -11.760   9.953  71.323  1.00  0.00    -0.472 C  
HETATM   20  C   UNL     1     -11.750  11.791  69.658  1.00  0.00    -0.413 A  
BRANCH  17  21
HETATM   21  O   UNL     1     -10.719   8.258  69.030  1.00  0.00    -0.184 OA 
BRANCH  21  22
HETATM   22  C   UNL     1      -9.576   7.678  69.584  1.00  0.00    -0.160 C  
HETATM   23  C   UNL     1      -9.862   6.228  69.862  1.00  0.00    -0.198 C  
HETATM   24  O   UNL     1      -8.494   8.215  69.767  1.00  0.00    -0.122 OA 
ENDBRANCH  21  22
ENDBRANCH  17  21
ENDBRANCH  11  12
ENDBRANCH  10  11
ENDBRANCH   7  10
ENDBRANCH   6   7
ENDBRANCH   4   6
ENDBRANCH   2   4
TORSDOF 8
ENDMDL
MODEL       30
REMARK 921   NORMALIZED FREE ENERGY PREDICTED BY IDOCK:   -5.31 KCAL/MOL
REMARK 922        TOTAL FREE ENERGY PREDICTED BY IDOCK:   -9.03 KCAL/MOL
REMARK 923 INTER-LIGAND FREE ENERGY PREDICTED BY IDOCK:   -8.26 KCAL/MOL
REMARK 924 INTRA-LIGAND FREE ENERGY PREDICTED BY IDOCK:   -0.77 KCAL/MOL
REMARK 927      BINDING AFFINITY PREDICTED BY RF-SCORE:    0.00 PKD
ROOT
HETATM    1  C   UNL     1     -10.127  10.548  64.863  1.00  0.00    -0.403 C  
HETATM    2  C   UNL     1     -10.162  11.252  63.505  1.00  0.00    -0.403 C  
HETATM    3  C   UNL     1      -9.372  10.432  62.482  1.00  0.00    -0.318 C  
ENDROOT
BRANCH   2   4
HETATM    4  N   UNL     1     -11.565  11.417  63.110  1.00  0.00    -0.873 NA 
HETATM    5  H   UNL     1     -12.004  10.512  62.943  1.00  0.00     0.000 HD 
BRANCH   4   6
HETATM    6  C   UNL     1     -12.345  12.208  64.068  1.00  0.00    -0.451 C  
BRANCH   6   7
HETATM    7  C   UNL     1     -11.847  13.667  64.106  1.00  0.00    -0.422 C  
HETATM    8  O   UNL     1     -12.534  14.436  63.109  1.00  0.00    -1.009 OA 
HETATM    9  H   UNL     1     -12.227  15.335  63.132  1.00  0.00     0.000 HD 
BRANCH   7  10
HETATM   10  C   UNL     1     -12.083  14.281  65.492  1.00  0.00    -0.394 C  
BRANCH  10  11
HETATM   11  O   UNL     1     -10.857  14.190  66.240  1.00  0.00    -0.295 OA 
BRANCH  11  12
HETATM   12  C   UNL     1     -10.121  15.341  66.328  1.00  0.00    -0.281 A  
HETATM   13  C   UNL     1      -8.800  15.229  66.801  1.00  0.00    -0.302 A  
HETATM   14  C   UNL     1      -8.004  16.395  66.899  1.00  0.00    -0.269 A  
HETATM   15  C   UNL     1      -8.256  13.887  67.226  1.00  0.00    -0.176 C  
HETATM   16  C   UNL     1      -6.570  16.348  67.370  1.00  0.00    -0.204 C  
HETATM   17  C   UNL     1      -8.568  17.654  66.571  1.00  0.00    -0.259 A  
HETATM   18  C   UNL     1      -9.910  17.776  66.195  1.00  0.00    -0.254 A  
HETATM   19  C   UNL     1     -10.612  19.080  65.958  1.00  0.00    -0.499 C  
HETATM   20  C   UNL     1     -10.657  16.602  66.043  1.00  0.00    -0.238 A  
BRANCH  17  21
HETATM   21  O   UNL     1      -7.716  18.770  66.816  1.00  0.00    -0.228 OA 
BRANCH  21  22
HETATM   22  C   UNL     1      -7.744  19.601  67.937  1.00  0.00    -0.296 C  
HETATM   23  C   UNL     1      -7.056  20.894  67.591  1.00  0.00    -0.339 C  
HETATM   24  O   UNL     1      -8.282  19.372  69.010  1.00  0.00    -0.346 OA 
ENDBRANCH  21  22
ENDBRANCH  17  21
ENDBRANCH  11  12
ENDBRANCH  10  11
ENDBRANCH   7  10
ENDBRANCH   6   7
ENDBRANCH   4   6
ENDBRANCH   2   4
TORSDOF 8
ENDMDL
MODEL       31
REMARK 921   NORMALIZED FREE ENERGY PREDICTED BY IDOCK:   -5.28 KCAL/MOL
REMARK 922        TOTAL FREE ENERGY PREDICTED BY IDOCK:   -8.99 KCAL/MOL
REMARK 923 INTER-LIGAND FREE ENERGY PREDICTED BY IDOCK:   -7.89 KCAL/MOL
REMARK 924 INTRA-LIGAND FREE ENERGY PREDICTED BY IDOCK:   -1.10 KCAL/MOL
REMARK 927      BINDING AFFINITY PREDICTED BY RF-SCORE:    0.00 PKD
ROOT
HETATM    1  C   UNL     1      -9.840  10.905  63.724  1.00  0.00    -0.391 C  
HETATM    2  C   UNL     1     -10.609  12.217  63.562  1.00  0.00    -0.458 C  
HETATM    3  C   UNL     1     -12.109  11.926  63.483  1.00  0.00    -0.575 C  
ENDROOT
BRANCH   2   4
HETATM    4  N   UNL     1     -10.278  13.085  64.697  1.00  0.00    -0.519 NA 
HETATM    5  H   UNL     1      -9.278  13.288  64.720  1.00  0.00     0.000 HD 
BRANCH   4   6
HETATM    6  C   UNL     1     -11.063  14.324  64.724  1.00  0.00    -0.391 C  
BRANCH   6   7
HETATM    7  C   UNL     1     -11.838  14.451  66.051  1.00  0.00    -0.372 C  
HETATM    8  O   UNL     1     -13.180  13.981  65.872  1.00  0.00    -0.571 OA 
HETATM    9  H   UNL     1     -13.658  14.059  66.690  1.00  0.00     0.000 HD 
BRANCH   7  10
HETATM   10  C   UNL     1     -11.146  13.645  67.158  1.00  0.00    -0.297 C  
BRANCH  10  11
HETATM   11  O   UNL     1     -12.105  12.730  67.717  1.00  0.00    -0.314 OA 
BRANCH  11  12
HETATM   12  C   UNL     1     -11.615  11.516  68.115  1.00  0.00    -0.308 A  
HETATM   13  C   UNL     1     -11.667  11.216  69.489  1.00  0.00    -0.405 A  
HETATM   14  C   UNL     1     -11.177   9.968  69.940  1.00  0.00    -0.327 A  
HETATM   15  C   UNL     1     -12.209  12.229  70.468  1.00  0.00    -0.387 C  
HETATM   16  C   UNL     1     -11.227   9.565  71.395  1.00  0.00    -0.452 C  
HETATM   17  C   UNL     1     -10.597   9.069  69.009  1.00  0.00    -0.190 A  
HETATM   18  C   UNL     1     -10.456   9.408  67.659  1.00  0.00    -0.328 A  
HETATM   19  C   UNL     1      -9.741   8.570  66.641  1.00  0.00    -0.318 C  
HETATM   20  C   UNL     1     -11.007  10.620  67.227  1.00  0.00    -0.348 A  
BRANCH  17  21
HETATM   21  O   UNL     1     -10.033   7.895  69.587  1.00  0.00    -0.184 OA 
BRANCH  21  22
HETATM   22  C   UNL     1     -10.612   6.626  69.616  1.00  0.00    -0.234 C  
HETATM   23  C   UNL     1      -9.910   5.802  70.661  1.00  0.00    -0.240 C  
HETATM   24  O   UNL     1     -11.570   6.239  68.962  1.00  0.00    -0.278 OA 
ENDBRANCH  21  22
ENDBRANCH  17  21
ENDBRANCH  11  12
ENDBRANCH  10  11
ENDBRANCH   7  10
ENDBRANCH   6   7
ENDBRANCH   4   6
ENDBRANCH   2   4
TORSDOF 8
ENDMDL
MODEL       32
REMARK 921   NORMALIZED FREE ENERGY PREDICTED BY IDOCK:   -5.28 KCAL/MOL
REMARK 922        TOTAL FREE ENERGY PREDICTED BY IDOCK:   -8.99 KCAL/MOL
REMARK 923 INTER-LIGAND FREE ENERGY PREDICTED BY IDOCK:   -7.88 KCAL/MOL
REMARK 924 INTRA-LIGAND FREE ENERGY PREDICTED BY IDOCK:   -1.11 KCAL/MOL
REMARK 927      BINDING AFFINITY PREDICTED BY RF-SCORE:    0.00 PKD
ROOT
HETATM    1  C   UNL     1      -9.076  15.477  69.466  1.00  0.00    -0.260 C  
HETATM    2  C   UNL     1     -10.387  16.130  69.906  1.00  0.00    -0.209 C  
HETATM    3  C   UNL     1     -11.385  16.110  68.745  1.00  0.00    -0.359 C  
ENDROOT
BRANCH   2   4
HETATM    4  N   UNL     1     -10.892  15.402  71.075  1.00  0.00    -0.465 NA 
HETATM    5  H   UNL     1     -10.248  15.486  71.862  1.00  0.00     0.000 HD 
BRANCH   4   6
HETATM    6  C   UNL     1     -12.248  15.806  71.465  1.00  0.00    -0.453 C  
BRANCH   6   7
HETATM    7  C   UNL     1     -12.699  15.056  72.734  1.00  0.00    -0.400 C  
HETATM    8  O   UNL     1     -13.515  15.917  73.539  1.00  0.00    -0.694 OA 
HETATM    9  H   UNL     1     -13.793  15.455  74.321  1.00  0.00     0.000 HD 
BRANCH   7  10
HETATM   10  C   UNL     1     -13.484  13.791  72.362  1.00  0.00    -0.571 C  
BRANCH  10  11
HETATM   11  O   UNL     1     -13.019  13.332  71.080  1.00  0.00    -0.296 OA 
BRANCH  11  12
HETATM   12  C   UNL     1     -12.659  12.013  71.011  1.00  0.00    -0.273 A  
HETATM   13  C   UNL     1     -11.796  11.633  69.965  1.00  0.00    -0.435 A  
HETATM   14  C   UNL     1     -11.396  10.279  69.863  1.00  0.00    -0.354 A  
HETATM   15  C   UNL     1     -11.335  12.651  68.951  1.00  0.00    -0.345 C  
HETATM   16  C   UNL     1     -10.449   9.804  68.786  1.00  0.00    -0.240 C  
HETATM   17  C   UNL     1     -11.910   9.328  70.779  1.00  0.00    -0.243 A  
HETATM   18  C   UNL     1     -12.844   9.688  71.757  1.00  0.00    -0.514 A  
HETATM   19  C   UNL     1     -13.530   8.722  72.677  1.00  0.00    -0.349 C  
HETATM   20  C   UNL     1     -13.174  11.044  71.879  1.00  0.00    -0.503 A  
BRANCH  17  21
HETATM   21  O   UNL     1     -11.533   7.980  70.514  1.00  0.00    -0.264 OA 
BRANCH  21  22
HETATM   22  C   UNL     1     -10.651   7.203  71.267  1.00  0.00    -0.213 C  
HETATM   23  C   UNL     1     -11.271   5.850  71.486  1.00  0.00    -0.290 C  
HETATM   24  O   UNL     1      -9.532   7.518  71.644  1.00  0.00    -0.149 OA 
ENDBRANCH  21  22
ENDBRANCH  17  21
ENDBRANCH  11  12
ENDBRANCH  10  11
ENDBRANCH   7  10
ENDBRANCH   6   7
ENDBRANCH   4   6
ENDBRANCH   2   4
TORSDOF 8
ENDMDL
MODEL       33
REMARK 921   NORMALIZED FREE ENERGY PREDICTED BY IDOCK:   -5.28 KCAL/MOL
REMARK 922        TOTAL FREE ENERGY PREDICTED BY IDOCK:   -8.99 KCAL/MOL
REMARK 923 INTER-LIGAND FREE ENERGY PREDICTED BY IDOCK:   -7.93 KCAL/MOL
REMARK 924 INTRA-LIGAND FREE ENERGY PREDICTED BY IDOCK:   -1.05 KCAL/MOL
REMARK 927      BINDING AFFINITY PREDICTED BY RF-SCORE:    0.00 PKD
ROOT
HETATM    1  C   UNL     1     -12.627  15.505  74.067  1.00  0.00    -0.766 C  
HETATM    2  C   UNL     1     -12.743  14.471  72.946  1.00  0.00    -0.381 C  
HETATM    3  C   UNL     1     -14.117  14.589  72.280  1.00  0.00    -0.594 C  
ENDROOT
BRANCH   2   4
HETATM    4  N   UNL     1     -11.651  14.701  71.995  1.00  0.00    -0.342 NA 
HETATM    5  H   UNL     1     -11.587  13.936  71.323  1.00  0.00     0.000 HD 
BRANCH   4   6
HETATM    6  C   UNL     1     -11.747  15.994  71.308  1.00  0.00    -0.461 C  
BRANCH   6   7
HETATM    7  C   UNL     1     -10.838  16.021  70.064  1.00  0.00    -0.353 C  
HETATM    8  O   UNL     1      -9.823  15.016  70.187  1.00  0.00    -0.488 OA 
HETATM    9  H   UNL     1      -9.262  15.032  69.420  1.00  0.00     0.000 HD 
BRANCH   7  10
HETATM   10  C   UNL     1     -11.660  15.779  68.791  1.00  0.00    -0.395 C  
BRANCH  10  11
HETATM   11  O   UNL     1     -12.292  14.491  68.900  1.00  0.00    -0.204 OA 
BRANCH  11  12
HETATM   12  C   UNL     1     -11.935  13.566  67.956  1.00  0.00    -0.337 A  
HETATM   13  C   UNL     1     -11.657  12.260  68.403  1.00  0.00    -0.377 A  
HETATM   14  C   UNL     1     -11.292  11.273  67.458  1.00  0.00    -0.360 A  
HETATM   15  C   UNL     1     -11.717  11.932  69.875  1.00  0.00    -0.383 C  
HETATM   16  C   UNL     1     -11.008   9.845  67.860  1.00  0.00    -0.281 C  
HETATM   17  C   UNL     1     -11.163  11.630  66.092  1.00  0.00    -0.254 A  
HETATM   18  C   UNL     1     -11.343  12.949  65.662  1.00  0.00    -0.344 A  
HETATM   19  C   UNL     1     -11.100  13.430  64.262  1.00  0.00    -0.396 C  
HETATM   20  C   UNL     1     -11.767  13.893  66.606  1.00  0.00    -0.417 A  
BRANCH  17  21
HETATM   21  O   UNL     1     -10.679  10.589  65.247  1.00  0.00    -0.146 OA 
BRANCH  21  22
HETATM   22  C   UNL     1      -9.463  10.576  64.562  1.00  0.00    -0.276 C  
HETATM   23  C   UNL     1      -8.348  10.718  65.563  1.00  0.00    -0.129 C  
HETATM   24  O   UNL     1      -9.296  10.415  63.362  1.00  0.00    -0.250 OA 
ENDBRANCH  21  22
ENDBRANCH  17  21
ENDBRANCH  11  12
ENDBRANCH  10  11
ENDBRANCH   7  10
ENDBRANCH   6   7
ENDBRANCH   4   6
ENDBRANCH   2   4
TORSDOF 8
ENDMDL
MODEL       34
REMARK 921   NORMALIZED FREE ENERGY PREDICTED BY IDOCK:   -5.27 KCAL/MOL
REMARK 922        TOTAL FREE ENERGY PREDICTED BY IDOCK:   -8.98 KCAL/MOL
REMARK 923 INTER-LIGAND FREE ENERGY PREDICTED BY IDOCK:   -8.03 KCAL/MOL
REMARK 924 INTRA-LIGAND FREE ENERGY PREDICTED BY IDOCK:   -0.95 KCAL/MOL
REMARK 927      BINDING AFFINITY PREDICTED BY RF-SCORE:    0.00 PKD
ROOT
HETATM    1  C   UNL     1     -10.231  19.946  68.441  1.00  0.00    -0.557 C  
HETATM    2  C   UNL     1     -10.795  19.286  67.182  1.00  0.00    -0.440 C  
HETATM    3  C   UNL     1     -10.201  19.957  65.941  1.00  0.00    -0.552 C  
ENDROOT
BRANCH   2   4
HETATM    4  N   UNL     1     -10.479  17.854  67.234  1.00  0.00    -0.373 NA 
HETATM    5  H   UNL     1     -10.659  17.409  66.334  1.00  0.00     0.000 HD 
BRANCH   4   6
HETATM    6  C   UNL     1      -9.111  17.582  67.689  1.00  0.00    -0.243 C  
BRANCH   6   7
HETATM    7  C   UNL     1      -9.068  16.312  68.563  1.00  0.00    -0.216 C  
HETATM    8  O   UNL     1      -7.815  16.247  69.256  1.00  0.00    -0.238 OA 
HETATM    9  H   UNL     1      -7.788  15.465  69.795  1.00  0.00     0.000 HD 
BRANCH   7  10
HETATM   10  C   UNL     1     -10.224  16.314  69.573  1.00  0.00    -0.251 C  
BRANCH  10  11
HETATM   11  O   UNL     1     -11.364  15.693  68.955  1.00  0.00    -0.283 OA 
BRANCH  11  12
HETATM   12  C   UNL     1     -11.702  14.454  69.429  1.00  0.00    -0.317 A  
HETATM   13  C   UNL     1     -11.422  13.348  68.603  1.00  0.00    -0.345 A  
HETATM   14  C   UNL     1     -11.750  12.049  69.060  1.00  0.00    -0.382 A  
HETATM   15  C   UNL     1     -10.812  13.553  67.238  1.00  0.00    -0.285 C  
HETATM   16  C   UNL     1     -11.453  10.815  68.242  1.00  0.00    -0.353 C  
HETATM   17  C   UNL     1     -12.397  11.893  70.311  1.00  0.00    -0.207 A  
HETATM   18  C   UNL     1     -12.763  12.998  71.086  1.00  0.00    -0.372 A  
HETATM   19  C   UNL     1     -13.562  12.922  72.354  1.00  0.00    -0.577 C  
HETATM   20  C   UNL     1     -12.371  14.267  70.644  1.00  0.00    -0.431 A  
BRANCH  17  21
HETATM   21  O   UNL     1     -12.784  10.556  70.618  1.00  0.00    -0.345 OA 
BRANCH  21  22
HETATM   22  C   UNL     1     -12.132   9.686  71.494  1.00  0.00    -0.401 C  
HETATM   23  C   UNL     1     -13.163   9.027  72.370  1.00  0.00    -0.507 C  
HETATM   24  O   UNL     1     -10.937   9.433  71.526  1.00  0.00    -0.355 OA 
ENDBRANCH  21  22
ENDBRANCH  17  21
ENDBRANCH  11  12
ENDBRANCH  10  11
ENDBRANCH   7  10
ENDBRANCH   6   7
ENDBRANCH   4   6
ENDBRANCH   2   4
TORSDOF 8
ENDMDL
MODEL       35
REMARK 921   NORMALIZED FREE ENERGY PREDICTED BY IDOCK:   -5.26 KCAL/MOL
REMARK 922        TOTAL FREE ENERGY PREDICTED BY IDOCK:   -8.95 KCAL/MOL
REMARK 923 INTER-LIGAND FREE ENERGY PREDICTED BY IDOCK:   -7.85 KCAL/MOL
REMARK 924 INTRA-LIGAND FREE ENERGY PREDICTED BY IDOCK:   -1.11 KCAL/MOL
REMARK 927      BINDING AFFINITY PREDICTED BY RF-SCORE:    0.00 PKD
ROOT
HETATM    1  C   UNL     1      -9.435   8.555  70.954  1.00  0.00    -0.221 C  
HETATM    2  C   UNL     1     -10.494   7.610  70.385  1.00  0.00    -0.220 C  
HETATM    3  C   UNL     1     -10.498   6.304  71.183  1.00  0.00    -0.271 C  
ENDROOT
BRANCH   2   4
HETATM    4  N   UNL     1     -11.793   8.290  70.442  1.00  0.00    -0.474 NA 
HETATM    5  H   UNL     1     -12.555   7.614  70.495  1.00  0.00     0.000 HD 
BRANCH   4   6
HETATM    6  C   UNL     1     -11.885   9.268  71.532  1.00  0.00    -0.374 C  
BRANCH   6   7
HETATM    7  C   UNL     1     -12.992  10.302  71.247  1.00  0.00    -0.420 C  
HETATM    8  O   UNL     1     -13.696  10.601  72.460  1.00  0.00    -0.477 OA 
HETATM    9  H   UNL     1     -14.379  11.238  72.284  1.00  0.00     0.000 HD 
BRANCH   7  10
HETATM   10  C   UNL     1     -12.391  11.587  70.662  1.00  0.00    -0.364 C  
BRANCH  10  11
HETATM   11  O   UNL     1     -11.410  11.219  69.676  1.00  0.00    -0.260 OA 
BRANCH  11  12
HETATM   12  C   UNL     1     -11.209  12.119  68.665  1.00  0.00    -0.269 A  
HETATM   13  C   UNL     1     -10.791  11.611  67.421  1.00  0.00    -0.298 A  
HETATM   14  C   UNL     1     -10.579  12.509  66.348  1.00  0.00    -0.271 A  
HETATM   15  C   UNL     1     -10.542  10.133  67.248  1.00  0.00    -0.321 C  
HETATM   16  C   UNL     1     -10.159  12.034  64.977  1.00  0.00    -0.293 C  
HETATM   17  C   UNL     1     -10.740  13.901  66.561  1.00  0.00    -0.277 A  
HETATM   18  C   UNL     1     -11.060  14.414  67.823  1.00  0.00    -0.299 A  
HETATM   19  C   UNL     1     -11.121  15.874  68.159  1.00  0.00    -0.338 C  
HETATM   20  C   UNL     1     -11.328  13.502  68.852  1.00  0.00    -0.332 A  
BRANCH  17  21
HETATM   21  O   UNL     1     -10.390  14.719  65.448  1.00  0.00    -0.331 OA 
BRANCH  21  22
HETATM   22  C   UNL     1     -11.250  15.547  64.725  1.00  0.00    -0.390 C  
HETATM   23  C   UNL     1     -12.506  14.778  64.415  1.00  0.00    -0.274 C  
HETATM   24  O   UNL     1     -11.070  16.720  64.433  1.00  0.00    -1.072 OA 
ENDBRANCH  21  22
ENDBRANCH  17  21
ENDBRANCH  11  12
ENDBRANCH  10  11
ENDBRANCH   7  10
ENDBRANCH   6   7
ENDBRANCH   4   6
ENDBRANCH   2   4
TORSDOF 8
ENDMDL
MODEL       36
REMARK 921   NORMALIZED FREE ENERGY PREDICTED BY IDOCK:   -5.23 KCAL/MOL
REMARK 922        TOTAL FREE ENERGY PREDICTED BY IDOCK:   -8.92 KCAL/MOL
REMARK 923 INTER-LIGAND FREE ENERGY PREDICTED BY IDOCK:   -7.56 KCAL/MOL
REMARK 924 INTRA-LIGAND FREE ENERGY PREDICTED BY IDOCK:   -1.36 KCAL/MOL
REMARK 927      BINDING AFFINITY PREDICTED BY RF-SCORE:    0.00 PKD
ROOT
HETATM    1  C   UNL     1     -11.955  14.122  64.533  1.00  0.00    -0.476 C  
HETATM    2  C   UNL     1     -11.860  12.596  64.583  1.00  0.00    -0.380 C  
HETATM    3  C   UNL     1     -12.655  11.994  63.421  1.00  0.00    -0.592 C  
ENDROOT
BRANCH   2   4
HETATM    4  N   UNL     1     -10.442  12.224  64.527  1.00  0.00    -0.293 NA 
HETATM    5  H   UNL     1      -9.927  12.637  65.304  1.00  0.00     0.000 HD 
BRANCH   4   6
HETATM    6  C   UNL     1     -10.229  10.773  64.471  1.00  0.00    -0.359 C  
BRANCH   6   7
HETATM    7  C   UNL     1      -9.120  10.345  65.453  1.00  0.00    -0.189 C  
HETATM    8  O   UNL     1      -7.965  11.174  65.265  1.00  0.00    -0.363 OA 
HETATM    9  H   UNL     1      -7.281  10.911  65.870  1.00  0.00     0.000 HD 
BRANCH   7  10
HETATM   10  C   UNL     1      -9.612  10.456  66.902  1.00  0.00    -0.172 C  
BRANCH  10  11
HETATM   11  O   UNL     1      -9.219  11.742  67.414  1.00  0.00    -0.169 OA 
BRANCH  11  12
HETATM   12  C   UNL     1     -10.163  12.408  68.148  1.00  0.00    -0.225 A  
HETATM   13  C   UNL     1     -10.247  13.804  67.978  1.00  0.00    -0.248 A  
HETATM   14  C   UNL     1     -11.214  14.528  68.714  1.00  0.00    -0.281 A  
HETATM   15  C   UNL     1      -9.294  14.515  67.049  1.00  0.00    -0.249 C  
HETATM   16  C   UNL     1     -11.382  16.022  68.562  1.00  0.00    -0.382 C  
HETATM   17  C   UNL     1     -12.041  13.846  69.641  1.00  0.00    -0.349 A  
HETATM   18  C   UNL     1     -11.890  12.476  69.882  1.00  0.00    -0.373 A  
HETATM   19  C   UNL     1     -12.634  11.709  70.935  1.00  0.00    -0.409 C  
HETATM   20  C   UNL     1     -10.971  11.770  69.095  1.00  0.00    -0.261 A  
BRANCH  17  21
HETATM   21  O   UNL     1     -12.897  14.688  70.409  1.00  0.00    -0.342 OA 
BRANCH  21  22
HETATM   22  C   UNL     1     -12.624  15.215  71.672  1.00  0.00    -0.351 C  
HETATM   23  C   UNL     1     -13.922  15.373  72.416  1.00  0.00    -0.657 C  
HETATM   24  O   UNL     1     -11.524  15.458  72.146  1.00  0.00    -0.442 OA 
ENDBRANCH  21  22
ENDBRANCH  17  21
ENDBRANCH  11  12
ENDBRANCH  10  11
ENDBRANCH   7  10
ENDBRANCH   6   7
ENDBRANCH   4   6
ENDBRANCH   2   4
TORSDOF 8
ENDMDL
MODEL       37
REMARK 921   NORMALIZED FREE ENERGY PREDICTED BY IDOCK:   -5.22 KCAL/MOL
REMARK 922        TOTAL FREE ENERGY PREDICTED BY IDOCK:   -8.90 KCAL/MOL
REMARK 923 INTER-LIGAND FREE ENERGY PREDICTED BY IDOCK:   -7.71 KCAL/MOL
REMARK 924 INTRA-LIGAND FREE ENERGY PREDICTED BY IDOCK:   -1.19 KCAL/MOL
REMARK 927      BINDING AFFINITY PREDICTED BY RF-SCORE:    0.00 PKD
ROOT
HETATM    1  C   UNL     1     -11.828   8.020  72.257  1.00  0.00    -0.424 C  
HETATM    2  C   UNL     1     -12.767   7.064  71.521  1.00  0.00    -0.381 C  
HETATM    3  C   UNL     1     -14.196   7.611  71.568  1.00  0.00    -0.564 C  
ENDROOT
BRANCH   2   4
HETATM    4  N   UNL     1     -12.283   6.914  70.144  1.00  0.00    -0.623 NA 
HETATM    5  H   UNL     1     -12.620   7.676  69.556  1.00  0.00     0.000 HD 
BRANCH   4   6
HETATM    6  C   UNL     1     -10.823   6.792  70.056  1.00  0.00    -0.266 C  
BRANCH   6   7
HETATM    7  C   UNL     1     -10.333   7.112  68.630  1.00  0.00    -0.187 C  
HETATM    8  O   UNL     1     -11.415   6.953  67.702  1.00  0.00    -0.585 OA 
HETATM    9  H   UNL     1     -11.113   7.150  66.823  1.00  0.00     0.000 HD 
BRANCH   7  10
HETATM   10  C   UNL     1      -9.789   8.545  68.556  1.00  0.00    -0.173 C  
BRANCH  10  11
HETATM   11  O   UNL     1     -10.659   9.315  67.709  1.00  0.00    -0.254 OA 
BRANCH  11  12
HETATM   12  C   UNL     1     -11.160  10.467  68.252  1.00  0.00    -0.281 A  
HETATM   13  C   UNL     1     -11.016  11.650  67.504  1.00  0.00    -0.312 A  
HETATM   14  C   UNL     1     -11.528  12.861  68.028  1.00  0.00    -0.361 A  
HETATM   15  C   UNL     1     -10.297  11.629  66.177  1.00  0.00    -0.280 C  
HETATM   16  C   UNL     1     -11.436  14.164  67.269  1.00  0.00    -0.371 C  
HETATM   17  C   UNL     1     -12.125  12.868  69.314  1.00  0.00    -0.182 A  
HETATM   18  C   UNL     1     -12.180  11.711  70.098  1.00  0.00    -0.367 A  
HETATM   19  C   UNL     1     -12.676  11.663  71.513  1.00  0.00    -0.423 C  
HETATM   20  C   UNL     1     -11.726  10.513  69.532  1.00  0.00    -0.313 A  
BRANCH  17  21
HETATM   21  O   UNL     1     -12.499  14.158  69.790  1.00  0.00    -0.332 OA 
BRANCH  21  22
HETATM   22  C   UNL     1     -11.741  14.986  70.618  1.00  0.00    -0.308 C  
HETATM   23  C   UNL     1     -12.583  15.384  71.800  1.00  0.00    -0.455 C  
HETATM   24  O   UNL     1     -10.569  15.302  70.470  1.00  0.00    -0.271 OA 
ENDBRANCH  21  22
ENDBRANCH  17  21
ENDBRANCH  11  12
ENDBRANCH  10  11
ENDBRANCH   7  10
ENDBRANCH   6   7
ENDBRANCH   4   6
ENDBRANCH   2   4
TORSDOF 8
ENDMDL
MODEL       38
REMARK 921   NORMALIZED FREE ENERGY PREDICTED BY IDOCK:   -5.19 KCAL/MOL
REMARK 922        TOTAL FREE ENERGY PREDICTED BY IDOCK:   -8.86 KCAL/MOL
REMARK 923 INTER-LIGAND FREE ENERGY PREDICTED BY IDOCK:   -7.85 KCAL/MOL
REMARK 924 INTRA-LIGAND FREE ENERGY PREDICTED BY IDOCK:   -1.01 KCAL/MOL
REMARK 927      BINDING AFFINITY PREDICTED BY RF-SCORE:    0.00 PKD
ROOT
HETATM    1  C   UNL     1     -11.230   6.054  70.301  1.00  0.00    -0.392 C  
HETATM    2  C   UNL     1     -10.318   6.406  69.125  1.00  0.00    -0.208 C  
HETATM    3  C   UNL     1     -10.154   5.183  68.219  1.00  0.00    -0.199 C  
ENDROOT
BRANCH   2   4
HETATM    4  N   UNL     1     -10.911   7.542  68.410  1.00  0.00    -0.431 NA 
HETATM    5  H   UNL     1     -10.739   8.415  68.909  1.00  0.00     0.000 HD 
BRANCH   4   6
HETATM    6  C   UNL     1     -10.468   7.640  67.015  1.00  0.00    -0.349 C  
BRANCH   6   7
HETATM    7  C   UNL     1      -9.920   9.049  66.713  1.00  0.00    -0.263 C  
HETATM    8  O   UNL     1      -9.763   9.212  65.297  1.00  0.00    -0.462 OA 
HETATM    9  H   UNL     1      -9.425  10.080  65.111  1.00  0.00     0.000 HD 
BRANCH   7  10
HETATM   10  C   UNL     1     -10.869  10.124  67.259  1.00  0.00    -0.230 C  
BRANCH  10  11
HETATM   11  O   UNL     1     -10.471  10.436  68.606  1.00  0.00    -0.175 OA 
BRANCH  11  12
HETATM   12  C   UNL     1     -11.086  11.516  69.179  1.00  0.00    -0.259 A  
HETATM   13  C   UNL     1     -11.865  11.283  70.328  1.00  0.00    -0.446 A  
HETATM   14  C   UNL     1     -12.511  12.376  70.953  1.00  0.00    -0.367 A  
HETATM   15  C   UNL     1     -12.033   9.881  70.861  1.00  0.00    -0.434 C  
HETATM   16  C   UNL     1     -13.340  12.206  72.205  1.00  0.00    -0.438 C  
HETATM   17  C   UNL     1     -12.404  13.669  70.383  1.00  0.00    -0.345 A  
HETATM   18  C   UNL     1     -11.710  13.883  69.187  1.00  0.00    -0.382 A  
HETATM   19  C   UNL     1     -11.659  15.192  68.455  1.00  0.00    -0.356 C  
HETATM   20  C   UNL     1     -11.026  12.800  68.623  1.00  0.00    -0.295 A  
BRANCH  17  21
HETATM   21  O   UNL     1     -13.186  14.671  71.027  1.00  0.00    -0.364 OA 
BRANCH  21  22
HETATM   22  C   UNL     1     -12.717  15.655  71.898  1.00  0.00    -0.442 C  
HETATM   23  C   UNL     1     -13.742  15.866  72.979  1.00  0.00    -0.558 C  
HETATM   24  O   UNL     1     -11.636  16.222  71.854  1.00  0.00    -0.456 OA 
ENDBRANCH  21  22
ENDBRANCH  17  21
ENDBRANCH  11  12
ENDBRANCH  10  11
ENDBRANCH   7  10
ENDBRANCH   6   7
ENDBRANCH   4   6
ENDBRANCH   2   4
TORSDOF 8
ENDMDL
MODEL       39
REMARK 921   NORMALIZED FREE ENERGY PREDICTED BY IDOCK:   -5.18 KCAL/MOL
REMARK 922        TOTAL FREE ENERGY PREDICTED BY IDOCK:   -8.85 KCAL/MOL
REMARK 923 INTER-LIGAND FREE ENERGY PREDICTED BY IDOCK:   -8.18 KCAL/MOL
REMARK 924 INTRA-LIGAND FREE ENERGY PREDICTED BY IDOCK:   -0.67 KCAL/MOL
REMARK 927      BINDING AFFINITY PREDICTED BY RF-SCORE:    0.00 PKD
ROOT
HETATM    1  C   UNL     1     -11.597   7.350  72.440  1.00  0.00    -0.327 C  
HETATM    2  C   UNL     1     -12.512   6.547  71.514  1.00  0.00    -0.171 C  
HETATM    3  C   UNL     1     -13.932   7.116  71.576  1.00  0.00    -0.440 C  
ENDROOT
BRANCH   2   4
HETATM    4  N   UNL     1     -11.958   6.607  70.157  1.00  0.00    -0.615 NA 
HETATM    5  H   UNL     1     -12.560   7.154  69.542  1.00  0.00     0.000 HD 
BRANCH   4   6
HETATM    6  C   UNL     1     -10.578   7.106  70.119  1.00  0.00    -0.230 C  
BRANCH   6   7
HETATM    7  C   UNL     1     -10.264   7.737  68.748  1.00  0.00    -0.201 C  
HETATM    8  O   UNL     1     -11.190   7.248  67.769  1.00  0.00    -0.510 OA 
HETATM    9  H   UNL     1     -10.996   7.637  66.924  1.00  0.00     0.000 HD 
BRANCH   7  10
HETATM   10  C   UNL     1     -10.348   9.267  68.828  1.00  0.00    -0.211 C  
BRANCH  10  11
HETATM   11  O   UNL     1     -11.482   9.615  69.641  1.00  0.00    -0.142 OA 
BRANCH  11  12
HETATM   12  C   UNL     1     -11.717  10.954  69.801  1.00  0.00    -0.338 A  
HETATM   13  C   UNL     1     -12.441  11.351  70.942  1.00  0.00    -0.478 A  
HETATM   14  C   UNL     1     -12.698  12.727  71.148  1.00  0.00    -0.355 A  
HETATM   15  C   UNL     1     -12.960  10.317  71.912  1.00  0.00    -0.554 C  
HETATM   16  C   UNL     1     -13.442  13.230  72.363  1.00  0.00    -0.670 C  
HETATM   17  C   UNL     1     -12.270  13.669  70.179  1.00  0.00    -0.342 A  
HETATM   18  C   UNL     1     -11.639  13.265  68.998  1.00  0.00    -0.359 A  
HETATM   19  C   UNL     1     -11.273  14.184  67.870  1.00  0.00    -0.299 C  
HETATM   20  C   UNL     1     -11.337  11.906  68.848  1.00  0.00    -0.335 A  
BRANCH  17  21
HETATM   21  O   UNL     1     -12.683  15.010  70.429  1.00  0.00    -0.351 OA 
BRANCH  21  22
HETATM   22  C   UNL     1     -11.866  16.065  70.839  1.00  0.00    -0.373 C  
HETATM   23  C   UNL     1     -11.986  16.211  72.331  1.00  0.00    -0.649 C  
HETATM   24  O   UNL     1     -11.120  16.734  70.138  1.00  0.00    -0.228 OA 
ENDBRANCH  21  22
ENDBRANCH  17  21
ENDBRANCH  11  12
ENDBRANCH  10  11
ENDBRANCH   7  10
ENDBRANCH   6   7
ENDBRANCH   4   6
ENDBRANCH   2   4
TORSDOF 8
ENDMDL
MODEL       40
REMARK 921   NORMALIZED FREE ENERGY PREDICTED BY IDOCK:   -5.18 KCAL/MOL
REMARK 922        TOTAL FREE ENERGY PREDICTED BY IDOCK:   -8.84 KCAL/MOL
REMARK 923 INTER-LIGAND FREE ENERGY PREDICTED BY IDOCK:   -7.73 KCAL/MOL
REMARK 924 INTRA-LIGAND FREE ENERGY PREDICTED BY IDOCK:   -1.10 KCAL/MOL
REMARK 927      BINDING AFFINITY PREDICTED BY RF-SCORE:    0.00 PKD
ROOT
HETATM    1  C   UNL     1     -10.472   6.922  68.692  1.00  0.00    -0.217 C  
HETATM    2  C   UNL     1     -11.362   6.191  69.698  1.00  0.00    -0.372 C  
HETATM    3  C   UNL     1     -10.487   5.436  70.702  1.00  0.00    -0.329 C  
ENDROOT
BRANCH   2   4
HETATM    4  N   UNL     1     -12.219   7.183  70.357  1.00  0.00    -0.596 NA 
HETATM    5  H   UNL     1     -13.198   7.042  70.105  1.00  0.00     0.000 HD 
BRANCH   4   6
HETATM    6  C   UNL     1     -12.054   7.211  71.814  1.00  0.00    -0.328 C  
BRANCH   6   7
HETATM    7  C   UNL     1     -11.621   8.613  72.288  1.00  0.00    -0.354 C  
HETATM    8  O   UNL     1     -10.272   8.867  71.872  1.00  0.00    -0.324 OA 
HETATM    9  H   UNL     1     -10.005   9.731  72.164  1.00  0.00     0.000 HD 
BRANCH   7  10
HETATM   10  C   UNL     1     -12.554   9.688  71.714  1.00  0.00    -0.409 C  
BRANCH  10  11
HETATM   11  O   UNL     1     -12.125   9.991  70.375  1.00  0.00    -0.258 OA 
BRANCH  11  12
HETATM   12  C   UNL     1     -12.110  11.316  70.036  1.00  0.00    -0.348 A  
HETATM   13  C   UNL     1     -11.693  11.645  68.732  1.00  0.00    -0.392 A  
HETATM   14  C   UNL     1     -11.671  13.004  68.339  1.00  0.00    -0.386 A  
HETATM   15  C   UNL     1     -11.245  10.561  67.781  1.00  0.00    -0.344 C  
HETATM   16  C   UNL     1     -11.263  13.430  66.948  1.00  0.00    -0.330 C  
HETATM   17  C   UNL     1     -12.017  14.007  69.279  1.00  0.00    -0.353 A  
HETATM   18  C   UNL     1     -12.337  13.687  70.603  1.00  0.00    -0.440 A  
HETATM   19  C   UNL     1     -12.588  14.694  71.686  1.00  0.00    -0.403 C  
HETATM   20  C   UNL     1     -12.415  12.332  70.949  1.00  0.00    -0.371 A  
BRANCH  17  21
HETATM   21  O   UNL     1     -11.849  15.344  68.814  1.00  0.00    -0.351 OA 
BRANCH  21  22
HETATM   22  C   UNL     1     -10.681  16.105  68.887  1.00  0.00    -0.280 C  
HETATM   23  C   UNL     1     -10.791  17.246  67.912  1.00  0.00    -0.283 C  
HETATM   24  O   UNL     1      -9.739  15.936  69.648  1.00  0.00    -0.265 OA 
ENDBRANCH  21  22
ENDBRANCH  17  21
ENDBRANCH  11  12
ENDBRANCH  10  11
ENDBRANCH   7  10
ENDBRANCH   6   7
ENDBRANCH   4   6
ENDBRANCH   2   4
TORSDOF 8
ENDMDL
MODEL       41
REMARK 921   NORMALIZED FREE ENERGY PREDICTED BY IDOCK:   -5.15 KCAL/MOL
REMARK 922        TOTAL FREE ENERGY PREDICTED BY IDOCK:   -8.80 KCAL/MOL
REMARK 923 INTER-LIGAND FREE ENERGY PREDICTED BY IDOCK:   -8.14 KCAL/MOL
REMARK 924 INTRA-LIGAND FREE ENERGY PREDICTED BY IDOCK:   -0.65 KCAL/MOL
REMARK 927      BINDING AFFINITY PREDICTED BY RF-SCORE:    0.00 PKD
ROOT
HETATM    1  C   UNL     1     -10.129  10.928  63.389  1.00  0.00    -0.398 C  
HETATM    2  C   UNL     1     -10.790  12.286  63.628  1.00  0.00    -0.469 C  
HETATM    3  C   UNL     1     -12.298  12.172  63.389  1.00  0.00    -0.648 C  
ENDROOT
BRANCH   2   4
HETATM    4  N   UNL     1     -10.484  12.710  64.999  1.00  0.00    -0.300 NA 
HETATM    5  H   UNL     1     -10.245  13.701  65.028  1.00  0.00     0.000 HD 
BRANCH   4   6
HETATM    6  C   UNL     1     -11.557  12.402  65.951  1.00  0.00    -0.396 C  
BRANCH   6   7
HETATM    7  C   UNL     1     -11.628  13.471  67.059  1.00  0.00    -0.359 C  
HETATM    8  O   UNL     1     -12.613  14.455  66.717  1.00  0.00    -0.540 OA 
HETATM    9  H   UNL     1     -12.657  15.114  67.400  1.00  0.00     0.000 HD 
BRANCH   7  10
HETATM   10  C   UNL     1     -11.980  12.828  68.407  1.00  0.00    -0.231 C  
BRANCH  10  11
HETATM   11  O   UNL     1     -11.915  11.399  68.256  1.00  0.00    -0.566 OA 
BRANCH  11  12
HETATM   12  C   UNL     1     -11.728  10.681  69.406  1.00  0.00    -0.273 A  
HETATM   13  C   UNL     1     -10.432  10.190  69.658  1.00  0.00    -0.282 A  
HETATM   14  C   UNL     1     -10.196   9.449  70.840  1.00  0.00    -0.373 A  
HETATM   15  C   UNL     1      -9.323  10.424  68.661  1.00  0.00    -0.167 C  
HETATM   16  C   UNL     1      -8.827   8.916  71.191  1.00  0.00    -0.297 C  
HETATM   17  C   UNL     1     -11.274   9.174  71.718  1.00  0.00    -0.381 A  
HETATM   18  C   UNL     1     -12.580   9.578  71.419  1.00  0.00    -0.447 A  
HETATM   19  C   UNL     1     -13.790   9.216  72.228  1.00  0.00    -0.527 C  
HETATM   20  C   UNL     1     -12.777  10.364  70.277  1.00  0.00    -0.221 A  
BRANCH  17  21
HETATM   21  O   UNL     1     -10.947   8.325  72.815  1.00  0.00    -0.354 OA 
BRANCH  21  22
HETATM   22  C   UNL     1     -11.068   6.935  72.851  1.00  0.00    -0.261 C  
HETATM   23  C   UNL     1     -10.218   6.409  73.975  1.00  0.00    -0.349 C  
HETATM   24  O   UNL     1     -11.783   6.240  72.144  1.00  0.00    -0.304 OA 
ENDBRANCH  21  22
ENDBRANCH  17  21
ENDBRANCH  11  12
ENDBRANCH  10  11
ENDBRANCH   7  10
ENDBRANCH   6   7
ENDBRANCH   4   6
ENDBRANCH   2   4
TORSDOF 8
ENDMDL
MODEL       42
REMARK 921   NORMALIZED FREE ENERGY PREDICTED BY IDOCK:   -5.14 KCAL/MOL
REMARK 922        TOTAL FREE ENERGY PREDICTED BY IDOCK:   -8.79 KCAL/MOL
REMARK 923 INTER-LIGAND FREE ENERGY PREDICTED BY IDOCK:   -7.50 KCAL/MOL
REMARK 924 INTRA-LIGAND FREE ENERGY PREDICTED BY IDOCK:   -1.28 KCAL/MOL
REMARK 927      BINDING AFFINITY PREDICTED BY RF-SCORE:    0.00 PKD
ROOT
HETATM    1  C   UNL     1     -11.810  15.370  69.142  1.00  0.00    -0.357 C  
HETATM    2  C   UNL     1     -11.870  14.847  70.578  1.00  0.00    -0.303 C  
HETATM    3  C   UNL     1     -13.157  15.336  71.248  1.00  0.00    -0.540 C  
ENDROOT
BRANCH   2   4
HETATM    4  N   UNL     1     -11.796  13.383  70.536  1.00  0.00    -0.536 NA 
HETATM    5  H   UNL     1     -12.382  12.969  71.262  1.00  0.00     0.000 HD 
BRANCH   4   6
HETATM    6  C   UNL     1     -12.124  12.826  69.219  1.00  0.00    -0.172 C  
BRANCH   6   7
HETATM    7  C   UNL     1     -11.403  11.481  69.000  1.00  0.00    -0.276 C  
HETATM    8  O   UNL     1     -12.111  10.710  68.020  1.00  0.00    -0.755 OA 
HETATM    9  H   UNL     1     -11.668   9.881  67.884  1.00  0.00     0.000 HD 
BRANCH   7  10
HETATM   10  C   UNL     1      -9.958  11.713  68.537  1.00  0.00    -0.194 C  
BRANCH  10  11
HETATM   11  O   UNL     1      -9.981  12.039  67.136  1.00  0.00    -0.194 OA 
BRANCH  11  12
HETATM   12  C   UNL     1      -9.728  13.346  66.820  1.00  0.00    -0.262 A  
HETATM   13  C   UNL     1     -10.610  13.976  65.921  1.00  0.00    -0.302 A  
HETATM   14  C   UNL     1     -10.387  15.330  65.575  1.00  0.00    -0.408 A  
HETATM   15  C   UNL     1     -11.755  13.204  65.312  1.00  0.00    -0.375 C  
HETATM   16  C   UNL     1     -11.307  16.080  64.640  1.00  0.00    -0.312 C  
HETATM   17  C   UNL     1      -9.256  16.007  66.098  1.00  0.00    -0.352 A  
HETATM   18  C   UNL     1      -8.327  15.352  66.913  1.00  0.00    -0.290 A  
HETATM   19  C   UNL     1      -7.044  15.958  67.399  1.00  0.00    -0.230 C  
HETATM   20  C   UNL     1      -8.604  14.033  67.293  1.00  0.00    -0.228 A  
BRANCH  17  21
HETATM   21  O   UNL     1      -9.066  17.326  65.594  1.00  0.00    -0.487 OA 
BRANCH  21  22
HETATM   22  C   UNL     1      -9.322  18.518  66.275  1.00  0.00    -0.237 C  
HETATM   23  C   UNL     1      -8.044  19.308  66.354  1.00  0.00    -0.327 C  
HETATM   24  O   UNL     1     -10.401  18.910  66.692  1.00  0.00    -0.366 OA 
ENDBRANCH  21  22
ENDBRANCH  17  21
ENDBRANCH  11  12
ENDBRANCH  10  11
ENDBRANCH   7  10
ENDBRANCH   6   7
ENDBRANCH   4   6
ENDBRANCH   2   4
TORSDOF 8
ENDMDL
MODEL       43
REMARK 921   NORMALIZED FREE ENERGY PREDICTED BY IDOCK:   -5.11 KCAL/MOL
REMARK 922        TOTAL FREE ENERGY PREDICTED BY IDOCK:   -8.74 KCAL/MOL
REMARK 923 INTER-LIGAND FREE ENERGY PREDICTED BY IDOCK:   -7.90 KCAL/MOL
REMARK 924 INTRA-LIGAND FREE ENERGY PREDICTED BY IDOCK:   -0.84 KCAL/MOL
REMARK 927      BINDING AFFINITY PREDICTED BY RF-SCORE:    0.00 PKD
ROOT
HETATM    1  C   UNL     1     -10.940  16.429  68.134  1.00  0.00    -0.339 C  
HETATM    2  C   UNL     1     -11.444  15.052  68.569  1.00  0.00    -0.317 C  
HETATM    3  C   UNL     1     -12.263  15.188  69.855  1.00  0.00    -0.353 C  
ENDROOT
BRANCH   2   4
HETATM    4  N   UNL     1     -12.237  14.487  67.472  1.00  0.00    -0.608 NA 
HETATM    5  H   UNL     1     -13.186  14.860  67.480  1.00  0.00     0.000 HD 
BRANCH   4   6
HETATM    6  C   UNL     1     -11.614  14.670  66.156  1.00  0.00    -0.332 C  
BRANCH   6   7
HETATM    7  C   UNL     1     -11.497  13.324  65.414  1.00  0.00    -0.304 C  
HETATM    8  O   UNL     1     -10.766  13.509  64.194  1.00  0.00    -0.545 OA 
HETATM    9  H   UNL     1     -10.694  12.679  63.736  1.00  0.00     0.000 HD 
BRANCH   7  10
HETATM   10  C   UNL     1     -10.790  12.284  66.293  1.00  0.00    -0.278 C  
BRANCH  10  11
HETATM   11  O   UNL     1     -11.787  11.399  66.835  1.00  0.00    -0.489 OA 
BRANCH  11  12
HETATM   12  C   UNL     1     -11.528  10.897  68.081  1.00  0.00    -0.295 A  
HETATM   13  C   UNL     1     -10.666   9.787  68.165  1.00  0.00    -0.280 A  
HETATM   14  C   UNL     1     -10.368   9.243  69.437  1.00  0.00    -0.223 A  
HETATM   15  C   UNL     1     -10.095   9.171  66.911  1.00  0.00    -0.328 C  
HETATM   16  C   UNL     1      -9.428   8.073  69.608  1.00  0.00    -0.163 C  
HETATM   17  C   UNL     1     -10.983   9.790  70.592  1.00  0.00    -0.331 A  
HETATM   18  C   UNL     1     -11.916  10.828  70.498  1.00  0.00    -0.456 A  
HETATM   19  C   UNL     1     -12.703  11.373  71.653  1.00  0.00    -0.427 C  
HETATM   20  C   UNL     1     -12.144  11.392  69.237  1.00  0.00    -0.356 A  
BRANCH  17  21
HETATM   21  O   UNL     1     -10.703   9.093  71.803  1.00  0.00    -0.355 OA 
BRANCH  21  22
HETATM   22  C   UNL     1     -11.456   8.055  72.354  1.00  0.00    -0.389 C  
HETATM   23  C   UNL     1     -10.569   7.251  73.264  1.00  0.00    -0.428 C  
HETATM   24  O   UNL     1     -12.650   7.846  72.193  1.00  0.00    -0.301 OA 
ENDBRANCH  21  22
ENDBRANCH  17  21
ENDBRANCH  11  12
ENDBRANCH  10  11
ENDBRANCH   7  10
ENDBRANCH   6   7
ENDBRANCH   4   6
ENDBRANCH   2   4
TORSDOF 8
ENDMDL
MODEL       44
REMARK 921   NORMALIZED FREE ENERGY PREDICTED BY IDOCK:   -5.10 KCAL/MOL
REMARK 922        TOTAL FREE ENERGY PREDICTED BY IDOCK:   -8.72 KCAL/MOL
REMARK 923 INTER-LIGAND FREE ENERGY PREDICTED BY IDOCK:   -7.97 KCAL/MOL
REMARK 924 INTRA-LIGAND FREE ENERGY PREDICTED BY IDOCK:   -0.75 KCAL/MOL
REMARK 927      BINDING AFFINITY PREDICTED BY RF-SCORE:    0.00 PKD
ROOT
HETATM    1  C   UNL     1     -11.623   6.166  71.988  1.00  0.00    -0.364 C  
HETATM    2  C   UNL     1     -12.432   7.285  71.331  1.00  0.00    -0.383 C  
HETATM    3  C   UNL     1     -12.519   8.482  72.282  1.00  0.00    -0.448 C  
ENDROOT
BRANCH   2   4
HETATM    4  N   UNL     1     -11.782   7.638  70.064  1.00  0.00    -0.472 NA 
HETATM    5  H   UNL     1     -12.471   7.935  69.372  1.00  0.00     0.000 HD 
BRANCH   4   6
HETATM    6  C   UNL     1     -10.728   8.647  70.218  1.00  0.00    -0.227 C  
BRANCH   6   7
HETATM    7  C   UNL     1     -10.752   9.646  69.044  1.00  0.00    -0.211 C  
HETATM    8  O   UNL     1     -11.154   8.970  67.845  1.00  0.00    -0.506 OA 
HETATM    9  H   UNL     1     -11.169   9.586  67.121  1.00  0.00     0.000 HD 
BRANCH   7  10
HETATM   10  C   UNL     1     -11.716  10.802  69.340  1.00  0.00    -0.306 C  
BRANCH  10  11
HETATM   11  O   UNL     1     -12.077  11.419  68.092  1.00  0.00    -0.623 OA 
BRANCH  11  12
HETATM   12  C   UNL     1     -11.823  12.760  67.991  1.00  0.00    -0.336 A  
HETATM   13  C   UNL     1     -11.362  13.240  66.750  1.00  0.00    -0.359 A  
HETATM   14  C   UNL     1     -11.095  14.622  66.603  1.00  0.00    -0.334 A  
HETATM   15  C   UNL     1     -11.126  12.284  65.606  1.00  0.00    -0.357 C  
HETATM   16  C   UNL     1     -10.627  15.212  65.294  1.00  0.00    -0.432 C  
HETATM   17  C   UNL     1     -11.247  15.484  67.718  1.00  0.00    -0.302 A  
HETATM   18  C   UNL     1     -11.610  14.992  68.976  1.00  0.00    -0.342 A  
HETATM   19  C   UNL     1     -11.666  15.815  70.229  1.00  0.00    -0.373 C  
HETATM   20  C   UNL     1     -11.931  13.633  69.080  1.00  0.00    -0.394 A  
BRANCH  17  21
HETATM   21  O   UNL     1     -10.841  16.831  67.489  1.00  0.00    -0.307 OA 
BRANCH  21  22
HETATM   22  C   UNL     1      -9.633  17.409  67.882  1.00  0.00    -0.267 C  
HETATM   23  C   UNL     1      -9.905  18.814  68.348  1.00  0.00    -0.429 C  
HETATM   24  O   UNL     1      -8.536  16.873  67.915  1.00  0.00    -0.196 OA 
ENDBRANCH  21  22
ENDBRANCH  17  21
ENDBRANCH  11  12
ENDBRANCH  10  11
ENDBRANCH   7  10
ENDBRANCH   6   7
ENDBRANCH   4   6
ENDBRANCH   2   4
TORSDOF 8
ENDMDL
MODEL       45
REMARK 921   NORMALIZED FREE ENERGY PREDICTED BY IDOCK:   -5.09 KCAL/MOL
REMARK 922        TOTAL FREE ENERGY PREDICTED BY IDOCK:   -8.71 KCAL/MOL
REMARK 923 INTER-LIGAND FREE ENERGY PREDICTED BY IDOCK:   -8.10 KCAL/MOL
REMARK 924 INTRA-LIGAND FREE ENERGY PREDICTED BY IDOCK:   -0.61 KCAL/MOL
REMARK 927      BINDING AFFINITY PREDICTED BY RF-SCORE:    0.00 PKD
ROOT
HETATM    1  C   UNL     1     -14.277   8.726  71.969  1.00  0.00    -0.493 C  
HETATM    2  C   UNL     1     -12.934   9.407  72.240  1.00  0.00    -0.400 C  
HETATM    3  C   UNL     1     -11.825   8.353  72.284  1.00  0.00    -0.456 C  
ENDROOT
BRANCH   2   4
HETATM    4  N   UNL     1     -12.703  10.401  71.186  1.00  0.00    -0.380 NA 
HETATM    5  H   UNL     1     -12.816  11.348  71.548  1.00  0.00     0.000 HD 
BRANCH   4   6
HETATM    6  C   UNL     1     -11.404  10.246  70.521  1.00  0.00    -0.341 C  
BRANCH   6   7
HETATM    7  C   UNL     1     -11.308  11.165  69.288  1.00  0.00    -0.281 C  
HETATM    8  O   UNL     1     -12.159  10.665  68.247  1.00  0.00    -0.817 OA 
HETATM    9  H   UNL     1     -12.101  11.231  67.486  1.00  0.00     0.000 HD 
BRANCH   7  10
HETATM   10  C   UNL     1     -11.717  12.599  69.651  1.00  0.00    -0.303 C  
BRANCH  10  11
HETATM   11  O   UNL     1     -12.280  13.218  68.480  1.00  0.00    -0.272 OA 
BRANCH  11  12
HETATM   12  C   UNL     1     -11.561  14.251  67.944  1.00  0.00    -0.336 A  
HETATM   13  C   UNL     1     -11.738  14.519  66.573  1.00  0.00    -0.380 A  
HETATM   14  C   UNL     1     -11.018  15.584  65.982  1.00  0.00    -0.251 A  
HETATM   15  C   UNL     1     -12.659  13.658  65.743  1.00  0.00    -0.511 C  
HETATM   16  C   UNL     1     -11.179  15.949  64.525  1.00  0.00    -0.324 C  
HETATM   17  C   UNL     1     -10.097  16.324  66.767  1.00  0.00    -0.278 A  
HETATM   18  C   UNL     1      -9.849  15.995  68.103  1.00  0.00    -0.222 A  
HETATM   19  C   UNL     1      -8.802  16.642  68.960  1.00  0.00    -0.201 C  
HETATM   20  C   UNL     1     -10.621  14.980  68.682  1.00  0.00    -0.237 A  
BRANCH  17  21
HETATM   21  O   UNL     1      -9.344  17.294  66.044  1.00  0.00    -0.469 OA 
BRANCH  21  22
HETATM   22  C   UNL     1      -9.206  18.645  66.369  1.00  0.00    -0.291 C  
HETATM   23  C   UNL     1     -10.497  19.349  66.050  1.00  0.00    -0.596 C  
HETATM   24  O   UNL     1      -8.238  19.182  66.886  1.00  0.00    -0.257 OA 
ENDBRANCH  21  22
ENDBRANCH  17  21
ENDBRANCH  11  12
ENDBRANCH  10  11
ENDBRANCH   7  10
ENDBRANCH   6   7
ENDBRANCH   4   6
ENDBRANCH   2   4
TORSDOF 8
ENDMDL
MODEL       46
REMARK 921   NORMALIZED FREE ENERGY PREDICTED BY IDOCK:   -5.07 KCAL/MOL
REMARK 922        TOTAL FREE ENERGY PREDICTED BY IDOCK:   -8.68 KCAL/MOL
REMARK 923 INTER-LIGAND FREE ENERGY PREDICTED BY IDOCK:   -7.91 KCAL/MOL
REMARK 924 INTRA-LIGAND FREE ENERGY PREDICTED BY IDOCK:   -0.77 KCAL/MOL
REMARK 927      BINDING AFFINITY PREDICTED BY RF-SCORE:    0.00 PKD
ROOT
HETATM    1  C   UNL     1      -7.494  20.636  67.370  1.00  0.00    -0.384 C  
HETATM    2  C   UNL     1      -7.311  19.468  68.340  1.00  0.00    -0.316 C  
HETATM    3  C   UNL     1      -6.477  19.924  69.540  1.00  0.00    -0.389 C  
ENDROOT
BRANCH   2   4
HETATM    4  N   UNL     1      -8.639  18.995  68.744  1.00  0.00    -0.348 NA 
HETATM    5  H   UNL     1      -8.685  18.859  69.754  1.00  0.00     0.000 HD 
BRANCH   4   6
HETATM    6  C   UNL     1      -9.726  19.867  68.284  1.00  0.00    -0.368 C  
BRANCH   6   7
HETATM    7  C   UNL     1     -10.711  19.088  67.390  1.00  0.00    -0.473 C  
HETATM    8  O   UNL     1     -10.656  19.602  66.052  1.00  0.00    -0.485 OA 
HETATM    9  H   UNL     1     -11.263  19.122  65.501  1.00  0.00     0.000 HD 
BRANCH   7  10
HETATM   10  C   UNL     1     -10.369  17.592  67.388  1.00  0.00    -0.351 C  
BRANCH  10  11
HETATM   11  O   UNL     1     -11.098  16.961  68.456  1.00  0.00    -0.327 OA 
BRANCH  11  12
HETATM   12  C   UNL     1     -11.324  15.618  68.316  1.00  0.00    -0.356 A  
HETATM   13  C   UNL     1     -11.689  14.901  69.471  1.00  0.00    -0.353 A  
HETATM   14  C   UNL     1     -11.939  13.511  69.367  1.00  0.00    -0.383 A  
HETATM   15  C   UNL     1     -11.781  15.601  70.805  1.00  0.00    -0.408 C  
HETATM   16  C   UNL     1     -12.363  12.683  70.556  1.00  0.00    -0.350 C  
HETATM   17  C   UNL     1     -11.765  12.863  68.118  1.00  0.00    -0.352 A  
HETATM   18  C   UNL     1     -11.306  13.558  66.993  1.00  0.00    -0.348 A  
HETATM   19  C   UNL     1     -10.975  12.922  65.676  1.00  0.00    -0.297 C  
HETATM   20  C   UNL     1     -11.130  14.942  67.106  1.00  0.00    -0.332 A  
BRANCH  17  21
HETATM   21  O   UNL     1     -11.929  11.448  68.153  1.00  0.00    -0.594 OA 
BRANCH  21  22
HETATM   22  C   UNL     1     -10.930  10.493  67.957  1.00  0.00    -0.290 C  
HETATM   23  C   UNL     1      -9.780  10.809  68.874  1.00  0.00    -0.207 C  
HETATM   24  O   UNL     1     -10.977   9.519  67.221  1.00  0.00    -0.203 OA 
ENDBRANCH  21  22
ENDBRANCH  17  21
ENDBRANCH  11  12
ENDBRANCH  10  11
ENDBRANCH   7  10
ENDBRANCH   6   7
ENDBRANCH   4   6
ENDBRANCH   2   4
TORSDOF 8
ENDMDL
MODEL       47
REMARK 921   NORMALIZED FREE ENERGY PREDICTED BY IDOCK:   -5.07 KCAL/MOL
REMARK 922        TOTAL FREE ENERGY PREDICTED BY IDOCK:   -8.68 KCAL/MOL
REMARK 923 INTER-LIGAND FREE ENERGY PREDICTED BY IDOCK:   -7.56 KCAL/MOL
REMARK 924 INTRA-LIGAND FREE ENERGY PREDICTED BY IDOCK:   -1.12 KCAL/MOL
REMARK 927      BINDING AFFINITY PREDICTED BY RF-SCORE:    0.00 PKD
ROOT
HETATM    1  C   UNL     1     -10.203  10.777  66.709  1.00  0.00    -0.279 C  
HETATM    2  C   UNL     1     -11.441  11.222  67.490  1.00  0.00    -0.246 C  
HETATM    3  C   UNL     1     -11.057  11.496  68.946  1.00  0.00    -0.288 C  
ENDROOT
BRANCH   2   4
HETATM    4  N   UNL     1     -11.992  12.413  66.835  1.00  0.00    -0.575 NA 
HETATM    5  H   UNL     1     -11.618  13.264  67.256  1.00  0.00     0.000 HD 
BRANCH   4   6
HETATM    6  C   UNL     1     -11.792  12.417  65.381  1.00  0.00    -0.406 C  
BRANCH   6   7
HETATM    7  C   UNL     1     -12.456  13.652  64.742  1.00  0.00    -0.350 C  
HETATM    8  O   UNL     1     -13.636  13.999  65.478  1.00  0.00    -0.673 OA 
HETATM    9  H   UNL     1     -14.046  14.761  65.084  1.00  0.00     0.000 HD 
BRANCH   7  10
HETATM   10  C   UNL     1     -11.483  14.839  64.725  1.00  0.00    -0.410 C  
BRANCH  10  11
HETATM   11  O   UNL     1     -11.169  15.183  66.086  1.00  0.00    -0.336 OA 
BRANCH  11  12
HETATM   12  C   UNL     1     -10.182  16.116  66.256  1.00  0.00    -0.320 A  
HETATM   13  C   UNL     1      -8.923  15.654  66.685  1.00  0.00    -0.317 A  
HETATM   14  C   UNL     1      -7.874  16.587  66.866  1.00  0.00    -0.263 A  
HETATM   15  C   UNL     1      -8.710  14.189  66.980  1.00  0.00    -0.222 C  
HETATM   16  C   UNL     1      -6.490  16.161  67.296  1.00  0.00    -0.216 C  
HETATM   17  C   UNL     1      -8.124  17.967  66.662  1.00  0.00    -0.260 A  
HETATM   18  C   UNL     1      -9.400  18.435  66.330  1.00  0.00    -0.287 A  
HETATM   19  C   UNL     1      -9.775  19.884  66.224  1.00  0.00    -0.551 C  
HETATM   20  C   UNL     1     -10.405  17.489  66.094  1.00  0.00    -0.330 A  
BRANCH  17  21
HETATM   21  O   UNL     1      -7.032  18.825  66.983  1.00  0.00    -0.201 OA 
BRANCH  21  22
HETATM   22  C   UNL     1      -6.915  19.625  68.121  1.00  0.00    -0.284 C  
HETATM   23  C   UNL     1      -6.348  20.957  67.713  1.00  0.00    -0.396 C  
HETATM   24  O   UNL     1      -7.264  19.343  69.258  1.00  0.00    -0.349 OA 
ENDBRANCH  21  22
ENDBRANCH  17  21
ENDBRANCH  11  12
ENDBRANCH  10  11
ENDBRANCH   7  10
ENDBRANCH   6   7
ENDBRANCH   4   6
ENDBRANCH   2   4
TORSDOF 8
ENDMDL
MODEL       48
REMARK 921   NORMALIZED FREE ENERGY PREDICTED BY IDOCK:   -5.04 KCAL/MOL
REMARK 922        TOTAL FREE ENERGY PREDICTED BY IDOCK:   -8.64 KCAL/MOL
REMARK 923 INTER-LIGAND FREE ENERGY PREDICTED BY IDOCK:   -7.21 KCAL/MOL
REMARK 924 INTRA-LIGAND FREE ENERGY PREDICTED BY IDOCK:   -1.43 KCAL/MOL
REMARK 927      BINDING AFFINITY PREDICTED BY RF-SCORE:    0.00 PKD
ROOT
HETATM    1  C   UNL     1     -12.741  12.692  64.618  1.00  0.00    -0.458 C  
HETATM    2  C   UNL     1     -11.625  13.509  63.964  1.00  0.00    -0.353 C  
HETATM    3  C   UNL     1     -11.549  14.890  64.619  1.00  0.00    -0.395 C  
ENDROOT
BRANCH   2   4
HETATM    4  N   UNL     1     -10.369  12.765  64.106  1.00  0.00    -0.485 NA 
HETATM    5  H   UNL     1      -9.911  12.990  64.990  1.00  0.00     0.000 HD 
BRANCH   4   6
HETATM    6  C   UNL     1     -10.538  11.315  63.960  1.00  0.00    -0.386 C  
BRANCH   6   7
HETATM    7  C   UNL     1     -10.006  10.574  65.203  1.00  0.00    -0.309 C  
HETATM    8  O   UNL     1      -9.431   9.321  64.808  1.00  0.00    -0.447 OA 
HETATM    9  H   UNL     1      -9.103   8.864  65.574  1.00  0.00     0.000 HD 
BRANCH   7  10
HETATM   10  C   UNL     1      -8.955  11.425  65.928  1.00  0.00    -0.177 C  
BRANCH  10  11
HETATM   11  O   UNL     1      -9.490  11.811  67.206  1.00  0.00    -0.168 OA 
BRANCH  11  12
HETATM   12  C   UNL     1      -9.590  13.157  67.432  1.00  0.00    -0.219 A  
HETATM   13  C   UNL     1     -10.760  13.621  68.064  1.00  0.00    -0.258 A  
HETATM   14  C   UNL     1     -10.898  15.006  68.322  1.00  0.00    -0.259 A  
HETATM   15  C   UNL     1     -11.861  12.656  68.429  1.00  0.00    -0.347 C  
HETATM   16  C   UNL     1     -12.110  15.573  69.022  1.00  0.00    -0.246 C  
HETATM   17  C   UNL     1      -9.884  15.900  67.894  1.00  0.00    -0.218 A  
HETATM   18  C   UNL     1      -8.769  15.450  67.180  1.00  0.00    -0.243 A  
HETATM   19  C   UNL     1      -7.722  16.343  66.583  1.00  0.00    -0.310 C  
HETATM   20  C   UNL     1      -8.623  14.069  66.994  1.00  0.00    -0.193 A  
BRANCH  17  21
HETATM   21  O   UNL     1     -10.179  17.279  68.101  1.00  0.00    -0.304 OA 
BRANCH  21  22
HETATM   22  C   UNL     1     -10.414  18.233  67.110  1.00  0.00    -0.395 C  
HETATM   23  C   UNL     1     -10.311  19.601  67.728  1.00  0.00    -0.586 C  
HETATM   24  O   UNL     1     -10.611  18.027  65.922  1.00  0.00    -0.451 OA 
ENDBRANCH  21  22
ENDBRANCH  17  21
ENDBRANCH  11  12
ENDBRANCH  10  11
ENDBRANCH   7  10
ENDBRANCH   6   7
ENDBRANCH   4   6
ENDBRANCH   2   4
TORSDOF 8
ENDMDL
MODEL       49
REMARK 921   NORMALIZED FREE ENERGY PREDICTED BY IDOCK:   -5.04 KCAL/MOL
REMARK 922        TOTAL FREE ENERGY PREDICTED BY IDOCK:   -8.64 KCAL/MOL
REMARK 923 INTER-LIGAND FREE ENERGY PREDICTED BY IDOCK:   -7.87 KCAL/MOL
REMARK 924 INTRA-LIGAND FREE ENERGY PREDICTED BY IDOCK:   -0.77 KCAL/MOL
REMARK 927      BINDING AFFINITY PREDICTED BY RF-SCORE:    0.00 PKD
ROOT
HETATM    1  C   UNL     1     -10.887   6.273  67.795  1.00  0.00    -0.424 C  
HETATM    2  C   UNL     1     -11.260   6.248  69.278  1.00  0.00    -0.389 C  
HETATM    3  C   UNL     1     -10.317   5.304  70.028  1.00  0.00    -0.365 C  
ENDROOT
BRANCH   2   4
HETATM    4  N   UNL     1     -11.185   7.620  69.793  1.00  0.00    -0.448 NA 
HETATM    5  H   UNL     1     -10.814   7.631  70.743  1.00  0.00     0.000 HD 
BRANCH   4   6
HETATM    6  C   UNL     1     -10.423   8.522  68.922  1.00  0.00    -0.188 C  
BRANCH   6   7
HETATM    7  C   UNL     1     -10.753   9.994  69.237  1.00  0.00    -0.224 C  
HETATM    8  O   UNL     1      -9.607  10.631  69.817  1.00  0.00    -0.427 OA 
HETATM    9  H   UNL     1      -9.810  11.539  70.012  1.00  0.00     0.000 HD 
BRANCH   7  10
HETATM   10  C   UNL     1     -11.173  10.737  67.962  1.00  0.00    -0.307 C  
BRANCH  10  11
HETATM   11  O   UNL     1     -12.207  11.676  68.307  1.00  0.00    -0.525 OA 
BRANCH  11  12
HETATM   12  C   UNL     1     -11.870  12.999  68.214  1.00  0.00    -0.343 A  
HETATM   13  C   UNL     1     -11.996  13.782  69.378  1.00  0.00    -0.397 A  
HETATM   14  C   UNL     1     -11.651  15.153  69.325  1.00  0.00    -0.344 A  
HETATM   15  C   UNL     1     -12.523  13.169  70.653  1.00  0.00    -0.363 C  
HETATM   16  C   UNL     1     -11.732  16.047  70.539  1.00  0.00    -0.350 C  
HETATM   17  C   UNL     1     -11.238  15.721  68.093  1.00  0.00    -0.344 A  
HETATM   18  C   UNL     1     -11.207  14.967  66.916  1.00  0.00    -0.343 A  
HETATM   19  C   UNL     1     -10.908  15.522  65.555  1.00  0.00    -0.372 C  
HETATM   20  C   UNL     1     -11.490  13.598  67.007  1.00  0.00    -0.368 A  
BRANCH  17  21
HETATM   21  O   UNL     1     -11.027  17.130  68.128  1.00  0.00    -0.361 OA 
BRANCH  21  22
HETATM   22  C   UNL     1      -9.794  17.783  68.146  1.00  0.00    -0.326 C  
HETATM   23  C   UNL     1      -9.874  18.984  67.242  1.00  0.00    -0.386 C  
HETATM   24  O   UNL     1      -8.816  17.491  68.818  1.00  0.00    -0.278 OA 
ENDBRANCH  21  22
ENDBRANCH  17  21
ENDBRANCH  11  12
ENDBRANCH  10  11
ENDBRANCH   7  10
ENDBRANCH   6   7
ENDBRANCH   4   6
ENDBRANCH   2   4
TORSDOF 8
ENDMDL
MODEL       50
REMARK 921   NORMALIZED FREE ENERGY PREDICTED BY IDOCK:   -5.00 KCAL/MOL
REMARK 922        TOTAL FREE ENERGY PREDICTED BY IDOCK:   -8.58 KCAL/MOL
REMARK 923 INTER-LIGAND FREE ENERGY PREDICTED BY IDOCK:   -7.69 KCAL/MOL
REMARK 924 INTRA-LIGAND FREE ENERGY PREDICTED BY IDOCK:   -0.89 KCAL/MOL
REMARK 927      BINDING AFFINITY PREDICTED BY RF-SCORE:    0.00 PKD
ROOT
HETATM    1  C   UNL     1     -13.844   8.982  72.359  1.00  0.00    -0.540 C  
HETATM    2  C   UNL     1     -12.818   9.639  71.435  1.00  0.00    -0.379 C  
HETATM    3  C   UNL     1     -12.914  11.162  71.562  1.00  0.00    -0.542 C  
ENDROOT
BRANCH   2   4
HETATM    4  N   UNL     1     -11.487   9.142  71.801  1.00  0.00    -0.368 NA 
HETATM    5  H   UNL     1     -11.299   9.302  72.791  1.00  0.00     0.000 HD 
BRANCH   4   6
HETATM    6  C   UNL     1     -11.282   7.732  71.451  1.00  0.00    -0.246 C  
BRANCH   6   7
HETATM    7  C   UNL     1      -9.870   7.513  70.871  1.00  0.00    -0.177 C  
HETATM    8  O   UNL     1      -9.795   6.214  70.267  1.00  0.00    -0.165 OA 
HETATM    9  H   UNL     1      -8.925   6.079  69.909  1.00  0.00     0.000 HD 
BRANCH   7  10
HETATM   10  C   UNL     1      -9.542   8.592  69.830  1.00  0.00    -0.172 C  
BRANCH  10  11
HETATM   11  O   UNL     1     -10.368   8.371  68.674  1.00  0.00    -0.203 OA 
BRANCH  11  12
HETATM   12  C   UNL     1     -10.574   9.457  67.867  1.00  0.00    -0.237 A  
HETATM   13  C   UNL     1     -10.075   9.390  66.553  1.00  0.00    -0.332 A  
HETATM   14  C   UNL     1     -10.274  10.490  65.685  1.00  0.00    -0.315 A  
HETATM   15  C   UNL     1      -9.310   8.174  66.091  1.00  0.00    -0.232 C  
HETATM   16  C   UNL     1      -9.792  10.478  64.254  1.00  0.00    -0.402 C  
HETATM   17  C   UNL     1     -10.923  11.653  66.171  1.00  0.00    -0.288 A  
HETATM   18  C   UNL     1     -11.332  11.757  67.505  1.00  0.00    -0.377 A  
HETATM   19  C   UNL     1     -11.906  12.995  68.126  1.00  0.00    -0.381 C  
HETATM   20  C   UNL     1     -11.182  10.632  68.325  1.00  0.00    -0.362 A  
BRANCH  17  21
HETATM   21  O   UNL     1     -10.967  12.740  65.250  1.00  0.00    -0.276 OA 
BRANCH  21  22
HETATM   22  C   UNL     1     -12.098  13.218  64.587  1.00  0.00    -0.408 C  
HETATM   23  C   UNL     1     -12.449  12.256  63.484  1.00  0.00    -0.642 C  
HETATM   24  O   UNL     1     -12.751  14.212  64.869  1.00  0.00    -0.645 OA 
ENDBRANCH  21  22
ENDBRANCH  17  21
ENDBRANCH  11  12
ENDBRANCH  10  11
ENDBRANCH   7  10
ENDBRANCH   6   7
ENDBRANCH   4   6
ENDBRANCH   2   4
TORSDOF 8
ENDMDL
MODEL       51
REMARK 921   NORMALIZED FREE ENERGY PREDICTED BY IDOCK:   -4.98 KCAL/MOL
REMARK 922        TOTAL FREE ENERGY PREDICTED BY IDOCK:   -8.55 KCAL/MOL
REMARK 923 INTER-LIGAND FREE ENERGY PREDICTED BY IDOCK:   -7.73 KCAL/MOL
REMARK 924 INTRA-LIGAND FREE ENERGY PREDICTED BY IDOCK:   -0.82 KCAL/MOL
REMARK 927      BINDING AFFINITY PREDICTED BY RF-SCORE:    0.00 PKD
ROOT
HETATM    1  C   UNL     1     -10.460  10.868  63.813  1.00  0.00    -0.329 C  
HETATM    2  C   UNL     1     -10.816  12.330  63.541  1.00  0.00    -0.454 C  
HETATM    3  C   UNL     1     -12.337  12.502  63.569  1.00  0.00    -0.623 C  
ENDROOT
BRANCH   2   4
HETATM    4  N   UNL     1     -10.152  13.159  64.553  1.00  0.00    -0.607 NA 
HETATM    5  H   UNL     1      -9.220  13.435  64.243  1.00  0.00     0.000 HD 
BRANCH   4   6
HETATM    6  C   UNL     1     -10.941  14.332  64.945  1.00  0.00    -0.404 C  
BRANCH   6   7
HETATM    7  C   UNL     1     -11.056  14.426  66.479  1.00  0.00    -0.331 C  
HETATM    8  O   UNL     1     -12.434  14.564  66.851  1.00  0.00    -0.537 OA 
HETATM    9  H   UNL     1     -12.506  14.621  67.797  1.00  0.00     0.000 HD 
BRANCH   7  10
HETATM   10  C   UNL     1     -10.460  13.176  67.142  1.00  0.00    -0.247 C  
BRANCH  10  11
HETATM   11  O   UNL     1     -10.839  13.177  68.529  1.00  0.00    -0.246 OA 
BRANCH  11  12
HETATM   12  C   UNL     1     -11.095  11.951  69.081  1.00  0.00    -0.228 A  
HETATM   13  C   UNL     1     -11.985  11.905  70.171  1.00  0.00    -0.413 A  
HETATM   14  C   UNL     1     -12.281  10.655  70.765  1.00  0.00    -0.474 A  
HETATM   15  C   UNL     1     -12.586  13.178  70.716  1.00  0.00    -0.338 C  
HETATM   16  C   UNL     1     -13.247  10.525  71.918  1.00  0.00    -0.526 C  
HETATM   17  C   UNL     1     -11.638   9.486  70.286  1.00  0.00    -0.169 A  
HETATM   18  C   UNL     1     -10.680   9.545  69.268  1.00  0.00    -0.240 A  
HETATM   19  C   UNL     1      -9.866   8.377  68.796  1.00  0.00    -0.180 C  
HETATM   20  C   UNL     1     -10.453  10.782  68.653  1.00  0.00    -0.213 A  
BRANCH  17  21
HETATM   21  O   UNL     1     -11.921   8.304  71.030  1.00  0.00    -0.296 OA 
BRANCH  21  22
HETATM   22  C   UNL     1     -11.079   7.689  71.959  1.00  0.00    -0.255 C  
HETATM   23  C   UNL     1     -10.949   6.234  71.597  1.00  0.00    -0.310 C  
HETATM   24  O   UNL     1     -10.484   8.225  72.881  1.00  0.00    -0.314 OA 
ENDBRANCH  21  22
ENDBRANCH  17  21
ENDBRANCH  11  12
ENDBRANCH  10  11
ENDBRANCH   7  10
ENDBRANCH   6   7
ENDBRANCH   4   6
ENDBRANCH   2   4
TORSDOF 8
ENDMDL
MODEL       52
REMARK 921   NORMALIZED FREE ENERGY PREDICTED BY IDOCK:   -4.98 KCAL/MOL
REMARK 922        TOTAL FREE ENERGY PREDICTED BY IDOCK:   -8.54 KCAL/MOL
REMARK 923 INTER-LIGAND FREE ENERGY PREDICTED BY IDOCK:   -7.91 KCAL/MOL
REMARK 924 INTRA-LIGAND FREE ENERGY PREDICTED BY IDOCK:   -0.64 KCAL/MOL
REMARK 927      BINDING AFFINITY PREDICTED BY RF-SCORE:    0.00 PKD
ROOT
HETATM    1  C   UNL     1     -14.044  13.643  72.288  1.00  0.00    -0.602 C  
HETATM    2  C   UNL     1     -14.172  15.145  72.031  1.00  0.00    -0.577 C  
HETATM    3  C   UNL     1     -13.316  15.913  73.041  1.00  0.00    -0.663 C  
ENDROOT
BRANCH   2   4
HETATM    4  N   UNL     1     -13.759  15.410  70.649  1.00  0.00    -0.841 NA 
HETATM    5  H   UNL     1     -13.854  16.401  70.425  1.00  0.00     0.000 HD 
BRANCH   4   6
HETATM    6  C   UNL     1     -12.403  14.935  70.351  1.00  0.00    -0.345 C  
BRANCH   6   7
HETATM    7  C   UNL     1     -12.384  14.125  69.039  1.00  0.00    -0.110 C  
HETATM    8  O   UNL     1     -12.018  14.983  67.949  1.00  0.00    -0.489 OA 
HETATM    9  H   UNL     1     -12.006  14.485  67.140  1.00  0.00     0.000 HD 
BRANCH   7  10
HETATM   10  C   UNL     1     -11.392  12.959  69.140  1.00  0.00    -0.273 C  
BRANCH  10  11
HETATM   11  O   UNL     1     -12.112  11.791  69.573  1.00  0.00    -0.295 OA 
BRANCH  11  12
HETATM   12  C   UNL     1     -11.347  10.731  69.978  1.00  0.00    -0.319 A  
HETATM   13  C   UNL     1     -11.820   9.971  71.065  1.00  0.00    -0.476 A  
HETATM   14  C   UNL     1     -11.061   8.862  71.509  1.00  0.00    -0.397 A  
HETATM   15  C   UNL     1     -13.101  10.357  71.763  1.00  0.00    -0.567 C  
HETATM   16  C   UNL     1     -11.519   7.983  72.649  1.00  0.00    -0.465 C  
HETATM   17  C   UNL     1      -9.820   8.572  70.889  1.00  0.00    -0.189 A  
HETATM   18  C   UNL     1      -9.304   9.386  69.875  1.00  0.00    -0.234 A  
HETATM   19  C   UNL     1      -7.946   9.222  69.259  1.00  0.00    -0.098 C  
HETATM   20  C   UNL     1     -10.103  10.437  69.408  1.00  0.00    -0.251 A  
BRANCH  17  21
HETATM   21  O   UNL     1      -9.087   7.508  71.490  1.00  0.00    -0.135 OA 
BRANCH  21  22
HETATM   22  C   UNL     1      -8.139   7.627  72.507  1.00  0.00    -0.113 C  
HETATM   23  C   UNL     1      -7.389   6.328  72.618  1.00  0.00    -0.085 C  
HETATM   24  O   UNL     1      -7.891   8.624  73.169  1.00  0.00    -0.385 OA 
ENDBRANCH  21  22
ENDBRANCH  17  21
ENDBRANCH  11  12
ENDBRANCH  10  11
ENDBRANCH   7  10
ENDBRANCH   6   7
ENDBRANCH   4   6
ENDBRANCH   2   4
TORSDOF 8
ENDMDL
MODEL       53
REMARK 921   NORMALIZED FREE ENERGY PREDICTED BY IDOCK:   -4.91 KCAL/MOL
REMARK 922        TOTAL FREE ENERGY PREDICTED BY IDOCK:   -8.44 KCAL/MOL
REMARK 923 INTER-LIGAND FREE ENERGY PREDICTED BY IDOCK:   -7.63 KCAL/MOL
REMARK 924 INTRA-LIGAND FREE ENERGY PREDICTED BY IDOCK:   -0.82 KCAL/MOL
REMARK 927      BINDING AFFINITY PREDICTED BY RF-SCORE:    0.00 PKD
ROOT
HETATM    1  C   UNL     1     -10.706  18.800  67.331  1.00  0.00    -0.487 C  
HETATM    2  C   UNL     1      -9.729  17.680  66.968  1.00  0.00    -0.292 C  
HETATM    3  C   UNL     1      -8.636  17.587  68.036  1.00  0.00    -0.250 C  
ENDROOT
BRANCH   2   4
HETATM    4  N   UNL     1     -10.489  16.431  66.851  1.00  0.00    -0.303 NA 
HETATM    5  H   UNL     1     -11.438  16.612  66.525  1.00  0.00     0.000 HD 
BRANCH   4   6
HETATM    6  C   UNL     1      -9.827  15.431  66.005  1.00  0.00    -0.326 C  
BRANCH   6   7
HETATM    7  C   UNL     1     -10.867  14.544  65.292  1.00  0.00    -0.367 C  
HETATM    8  O   UNL     1     -10.211  13.724  64.315  1.00  0.00    -0.698 OA 
HETATM    9  H   UNL     1     -10.852  13.178  63.875  1.00  0.00     0.000 HD 
BRANCH   7  10
HETATM   10  C   UNL     1     -11.606  13.659  66.304  1.00  0.00    -0.348 C  
BRANCH  10  11
HETATM   11  O   UNL     1     -10.858  13.657  67.533  1.00  0.00    -0.260 OA 
BRANCH  11  12
HETATM   12  C   UNL     1     -11.146  12.646  68.409  1.00  0.00    -0.265 A  
HETATM   13  C   UNL     1     -11.834  12.989  69.588  1.00  0.00    -0.385 A  
HETATM   14  C   UNL     1     -12.157  11.971  70.516  1.00  0.00    -0.402 A  
HETATM   15  C   UNL     1     -12.190  14.428  69.870  1.00  0.00    -0.394 C  
HETATM   16  C   UNL     1     -12.918  12.259  71.789  1.00  0.00    -0.431 C  
HETATM   17  C   UNL     1     -11.737  10.640  70.266  1.00  0.00    -0.344 A  
HETATM   18  C   UNL     1     -10.969  10.317  69.142  1.00  0.00    -0.280 A  
HETATM   19  C   UNL     1     -10.380   8.964  68.874  1.00  0.00    -0.229 C  
HETATM   20  C   UNL     1     -10.718  11.328  68.207  1.00  0.00    -0.231 A  
BRANCH  17  21
HETATM   21  O   UNL     1     -12.014   9.720  71.318  1.00  0.00    -0.329 OA 
BRANCH  21  22
HETATM   22  C   UNL     1     -13.025   8.758  71.332  1.00  0.00    -0.268 C  
HETATM   23  C   UNL     1     -12.392   7.396  71.239  1.00  0.00    -0.380 C  
HETATM   24  O   UNL     1     -14.225   8.952  71.461  1.00  0.00    -0.357 OA 
ENDBRANCH  21  22
ENDBRANCH  17  21
ENDBRANCH  11  12
ENDBRANCH  10  11
ENDBRANCH   7  10
ENDBRANCH   6   7
ENDBRANCH   4   6
ENDBRANCH   2   4
TORSDOF 8
ENDMDL
MODEL       54
REMARK 921   NORMALIZED FREE ENERGY PREDICTED BY IDOCK:   -4.85 KCAL/MOL
REMARK 922        TOTAL FREE ENERGY PREDICTED BY IDOCK:   -8.35 KCAL/MOL
REMARK 923 INTER-LIGAND FREE ENERGY PREDICTED BY IDOCK:   -7.63 KCAL/MOL
REMARK 924 INTRA-LIGAND FREE ENERGY PREDICTED BY IDOCK:   -0.72 KCAL/MOL
REMARK 927      BINDING AFFINITY PREDICTED BY RF-SCORE:    0.00 PKD
ROOT
HETATM    1  C   UNL     1     -13.412   9.375  72.022  1.00  0.00    -0.522 C  
HETATM    2  C   UNL     1     -12.162   9.975  71.375  1.00  0.00    -0.416 C  
HETATM    3  C   UNL     1     -10.954   9.081  71.668  1.00  0.00    -0.435 C  
ENDROOT
BRANCH   2   4
HETATM    4  N   UNL     1     -12.410  10.106  69.935  1.00  0.00    -0.509 NA 
HETATM    5  H   UNL     1     -13.410  10.168  69.742  1.00  0.00     0.000 HD 
BRANCH   4   6
HETATM    6  C   UNL     1     -11.689  11.229  69.326  1.00  0.00    -0.334 C  
BRANCH   6   7
HETATM    7  C   UNL     1     -10.851  10.753  68.123  1.00  0.00    -0.236 C  
HETATM    8  O   UNL     1     -11.201   9.401  67.798  1.00  0.00    -0.492 OA 
HETATM    9  H   UNL     1     -10.684   9.107  67.056  1.00  0.00     0.000 HD 
BRANCH   7  10
HETATM   10  C   UNL     1     -11.088  11.660  66.908  1.00  0.00    -0.308 C  
BRANCH  10  11
HETATM   11  O   UNL     1      -9.814  12.149  66.454  1.00  0.00    -0.216 OA 
BRANCH  11  12
HETATM   12  C   UNL     1      -9.721  13.502  66.273  1.00  0.00    -0.277 A  
HETATM   13  C   UNL     1      -8.732  14.187  67.004  1.00  0.00    -0.222 A  
HETATM   14  C   UNL     1      -8.600  15.586  66.839  1.00  0.00    -0.289 A  
HETATM   15  C   UNL     1      -7.850  13.439  67.974  1.00  0.00    -0.148 C  
HETATM   16  C   UNL     1      -7.543  16.382  67.568  1.00  0.00    -0.168 C  
HETATM   17  C   UNL     1      -9.496  16.275  65.984  1.00  0.00    -0.334 A  
HETATM   18  C   UNL     1     -10.541  15.610  65.334  1.00  0.00    -0.436 A  
HETATM   19  C   UNL     1     -11.604  16.285  64.519  1.00  0.00    -0.091 C  
HETATM   20  C   UNL     1     -10.611  14.217  65.462  1.00  0.00    -0.351 A  
BRANCH  17  21
HETATM   21  O   UNL     1      -9.347  17.693  65.982  1.00  0.00    -0.494 OA 
BRANCH  21  22
HETATM   22  C   UNL     1     -10.106  18.606  66.715  1.00  0.00    -0.380 C  
HETATM   23  C   UNL     1     -10.351  19.820  65.860  1.00  0.00    -0.582 C  
HETATM   24  O   UNL     1     -10.562  18.450  67.838  1.00  0.00    -0.394 OA 
ENDBRANCH  21  22
ENDBRANCH  17  21
ENDBRANCH  11  12
ENDBRANCH  10  11
ENDBRANCH   7  10
ENDBRANCH   6   7
ENDBRANCH   4   6
ENDBRANCH   2   4
TORSDOF 8
ENDMDL
MODEL       55
REMARK 921   NORMALIZED FREE ENERGY PREDICTED BY IDOCK:   -4.85 KCAL/MOL
REMARK 922        TOTAL FREE ENERGY PREDICTED BY IDOCK:   -8.35 KCAL/MOL
REMARK 923 INTER-LIGAND FREE ENERGY PREDICTED BY IDOCK:   -7.25 KCAL/MOL
REMARK 924 INTRA-LIGAND FREE ENERGY PREDICTED BY IDOCK:   -1.10 KCAL/MOL
REMARK 927      BINDING AFFINITY PREDICTED BY RF-SCORE:    0.00 PKD
ROOT
HETATM    1  C   UNL     1     -12.156  14.295  66.845  1.00  0.00    -0.440 C  
HETATM    2  C   UNL     1     -12.615  13.639  65.542  1.00  0.00    -0.496 C  
HETATM    3  C   UNL     1     -12.108  14.457  64.350  1.00  0.00    -0.491 C  
ENDROOT
BRANCH   2   4
HETATM    4  N   UNL     1     -12.106  12.264  65.517  1.00  0.00    -0.553 NA 
HETATM    5  H   UNL     1     -12.850  11.606  65.284  1.00  0.00     0.000 HD 
BRANCH   4   6
HETATM    6  C   UNL     1     -10.955  12.090  64.624  1.00  0.00    -0.317 C  
BRANCH   6   7
HETATM    7  C   UNL     1      -9.723  11.598  65.409  1.00  0.00    -0.229 C  
HETATM    8  O   UNL     1      -9.170  12.683  66.166  1.00  0.00    -0.392 OA 
HETATM    9  H   UNL     1      -8.411  12.380  66.650  1.00  0.00     0.000 HD 
BRANCH   7  10
HETATM   10  C   UNL     1     -10.108  10.448  66.350  1.00  0.00    -0.228 C  
BRANCH  10  11
HETATM   11  O   UNL     1     -10.363  10.999  67.654  1.00  0.00    -0.179 OA 
BRANCH  11  12
HETATM   12  C   UNL     1     -10.786  10.112  68.607  1.00  0.00    -0.222 A  
HETATM   13  C   UNL     1     -11.523  10.629  69.689  1.00  0.00    -0.361 A  
HETATM   14  C   UNL     1     -11.985   9.743  70.692  1.00  0.00    -0.340 A  
HETATM   15  C   UNL     1     -11.787  12.112  69.791  1.00  0.00    -0.397 C  
HETATM   16  C   UNL     1     -12.806  10.221  71.866  1.00  0.00    -0.528 C  
HETATM   17  C   UNL     1     -11.652   8.367  70.614  1.00  0.00    -0.191 A  
HETATM   18  C   UNL     1     -10.837   7.871  69.591  1.00  0.00    -0.177 A  
HETATM   19  C   UNL     1     -10.335   6.459  69.511  1.00  0.00    -0.252 C  
HETATM   20  C   UNL     1     -10.447   8.754  68.577  1.00  0.00    -0.212 A  
BRANCH  17  21
HETATM   21  O   UNL     1     -12.068   7.590  71.733  1.00  0.00    -0.286 OA 
BRANCH  21  22
HETATM   22  C   UNL     1     -11.249   7.095  72.748  1.00  0.00    -0.275 C  
HETATM   23  C   UNL     1     -11.405   5.599  72.803  1.00  0.00    -0.350 C  
HETATM   24  O   UNL     1     -10.477   7.733  73.448  1.00  0.00    -0.338 OA 
ENDBRANCH  21  22
ENDBRANCH  17  21
ENDBRANCH  11  12
ENDBRANCH  10  11
ENDBRANCH   7  10
ENDBRANCH   6   7
ENDBRANCH   4   6
ENDBRANCH   2   4
TORSDOF 8
ENDMDL
MODEL       56
REMARK 921   NORMALIZED FREE ENERGY PREDICTED BY IDOCK:   -4.83 KCAL/MOL
REMARK 922        TOTAL FREE ENERGY PREDICTED BY IDOCK:   -8.33 KCAL/MOL
REMARK 923 INTER-LIGAND FREE ENERGY PREDICTED BY IDOCK:   -7.59 KCAL/MOL
REMARK 924 INTRA-LIGAND FREE ENERGY PREDICTED BY IDOCK:   -0.73 KCAL/MOL
REMARK 927      BINDING AFFINITY PREDICTED BY RF-SCORE:    0.00 PKD
ROOT
HETATM    1  C   UNL     1     -13.760  14.679  71.230  1.00  0.00    -0.439 C  
HETATM    2  C   UNL     1     -12.382  15.045  70.678  1.00  0.00    -0.348 C  
HETATM    3  C   UNL     1     -11.622  15.883  71.710  1.00  0.00    -0.541 C  
ENDROOT
BRANCH   2   4
HETATM    4  N   UNL     1     -11.673  13.803  70.352  1.00  0.00    -0.504 NA 
HETATM    5  H   UNL     1     -11.657  13.173  71.154  1.00  0.00     0.000 HD 
BRANCH   4   6
HETATM    6  C   UNL     1     -12.211  13.127  69.166  1.00  0.00    -0.092 C  
BRANCH   6   7
HETATM    7  C   UNL     1     -11.418  11.839  68.864  1.00  0.00    -0.297 C  
HETATM    8  O   UNL     1     -12.288  10.704  68.960  1.00  0.00    -0.770 OA 
HETATM    9  H   UNL     1     -11.800   9.910  68.775  1.00  0.00     0.000 HD 
BRANCH   7  10
HETATM   10  C   UNL     1     -10.798  11.904  67.462  1.00  0.00    -0.238 C  
BRANCH  10  11
HETATM   11  O   UNL     1      -9.520  12.557  67.564  1.00  0.00    -0.177 OA 
BRANCH  11  12
HETATM   12  C   UNL     1      -9.471  13.852  67.126  1.00  0.00    -0.246 A  
HETATM   13  C   UNL     1      -8.648  14.745  67.837  1.00  0.00    -0.166 A  
HETATM   14  C   UNL     1      -8.565  16.092  67.411  1.00  0.00    -0.196 A  
HETATM   15  C   UNL     1      -7.891  14.275  69.056  1.00  0.00    -0.045 C  
HETATM   16  C   UNL     1      -7.680  17.099  68.107  1.00  0.00    -0.204 C  
HETATM   17  C   UNL     1      -9.350  16.526  66.314  1.00  0.00    -0.302 A  
HETATM   18  C   UNL     1     -10.242  15.663  65.669  1.00  0.00    -0.402 A  
HETATM   19  C   UNL     1     -11.198  16.077  64.589  1.00  0.00    -0.340 C  
HETATM   20  C   UNL     1     -10.258  14.320  66.067  1.00  0.00    -0.327 A  
BRANCH  17  21
HETATM   21  O   UNL     1      -9.277  17.924  66.045  1.00  0.00    -0.509 OA 
BRANCH  21  22
HETATM   22  C   UNL     1     -10.317  18.847  66.172  1.00  0.00    -0.460 C  
HETATM   23  C   UNL     1     -10.493  19.172  67.631  1.00  0.00    -0.535 C  
HETATM   24  O   UNL     1     -10.952  19.369  65.268  1.00  0.00    -0.457 OA 
ENDBRANCH  21  22
ENDBRANCH  17  21
ENDBRANCH  11  12
ENDBRANCH  10  11
ENDBRANCH   7  10
ENDBRANCH   6   7
ENDBRANCH   4   6
ENDBRANCH   2   4
TORSDOF 8
ENDMDL
MODEL       57
REMARK 921   NORMALIZED FREE ENERGY PREDICTED BY IDOCK:   -4.83 KCAL/MOL
REMARK 922        TOTAL FREE ENERGY PREDICTED BY IDOCK:   -8.33 KCAL/MOL
REMARK 923 INTER-LIGAND FREE ENERGY PREDICTED BY IDOCK:   -6.94 KCAL/MOL
REMARK 924 INTRA-LIGAND FREE ENERGY PREDICTED BY IDOCK:   -1.39 KCAL/MOL
REMARK 927      BINDING AFFINITY PREDICTED BY RF-SCORE:    0.00 PKD
ROOT
HETATM    1  C   UNL     1      -9.187  15.379  69.053  1.00  0.00    -0.235 C  
HETATM    2  C   UNL     1     -10.337  16.044  69.811  1.00  0.00    -0.265 C  
HETATM    3  C   UNL     1     -11.520  16.259  68.863  1.00  0.00    -0.282 C  
ENDROOT
BRANCH   2   4
HETATM    4  N   UNL     1     -10.695  15.185  70.946  1.00  0.00    -0.535 NA 
HETATM    5  H   UNL     1      -9.895  15.049  71.565  1.00  0.00     0.000 HD 
BRANCH   4   6
HETATM    6  C   UNL     1     -11.858  15.674  71.695  1.00  0.00    -0.429 C  
BRANCH   6   7
HETATM    7  C   UNL     1     -12.683  14.497  72.252  1.00  0.00    -0.328 C  
HETATM    8  O   UNL     1     -13.819  15.002  72.968  1.00  0.00    -0.478 OA 
HETATM    9  H   UNL     1     -14.328  14.277  73.312  1.00  0.00     0.000 HD 
BRANCH   7  10
HETATM   10  C   UNL     1     -13.149  13.580  71.114  1.00  0.00    -0.212 C  
BRANCH  10  11
HETATM   11  O   UNL     1     -12.286  12.430  71.079  1.00  0.00    -0.349 OA 
BRANCH  11  12
HETATM   12  C   UNL     1     -11.936  11.980  69.835  1.00  0.00    -0.318 A  
HETATM   13  C   UNL     1     -11.368  10.695  69.748  1.00  0.00    -0.371 A  
HETATM   14  C   UNL     1     -11.000  10.191  68.477  1.00  0.00    -0.278 A  
HETATM   15  C   UNL     1     -11.127   9.884  70.997  1.00  0.00    -0.401 C  
HETATM   16  C   UNL     1     -10.412   8.810  68.304  1.00  0.00    -0.236 C  
HETATM   17  C   UNL     1     -11.161  11.007  67.330  1.00  0.00    -0.294 A  
HETATM   18  C   UNL     1     -11.634  12.320  67.429  1.00  0.00    -0.425 A  
HETATM   19  C   UNL     1     -11.711  13.286  66.284  1.00  0.00    -0.412 C  
HETATM   20  C   UNL     1     -12.052  12.772  68.686  1.00  0.00    -0.152 A  
BRANCH  17  21
HETATM   21  O   UNL     1     -10.651  10.446  66.123  1.00  0.00    -0.187 OA 
BRANCH  21  22
HETATM   22  C   UNL     1      -9.497  10.845  65.447  1.00  0.00    -0.214 C  
HETATM   23  C   UNL     1      -9.816  10.956  63.981  1.00  0.00    -0.377 C  
HETATM   24  O   UNL     1      -8.415  11.126  65.940  1.00  0.00    -0.165 OA 
ENDBRANCH  21  22
ENDBRANCH  17  21
ENDBRANCH  11  12
ENDBRANCH  10  11
ENDBRANCH   7  10
ENDBRANCH   6   7
ENDBRANCH   4   6
ENDBRANCH   2   4
TORSDOF 8
ENDMDL
MODEL       58
REMARK 921   NORMALIZED FREE ENERGY PREDICTED BY IDOCK:   -4.83 KCAL/MOL
REMARK 922        TOTAL FREE ENERGY PREDICTED BY IDOCK:   -8.32 KCAL/MOL
REMARK 923 INTER-LIGAND FREE ENERGY PREDICTED BY IDOCK:   -7.48 KCAL/MOL
REMARK 924 INTRA-LIGAND FREE ENERGY PREDICTED BY IDOCK:   -0.84 KCAL/MOL
REMARK 927      BINDING AFFINITY PREDICTED BY RF-SCORE:    0.00 PKD
ROOT
HETATM    1  C   UNL     1     -12.533  12.103  63.640  1.00  0.00    -0.658 C  
HETATM    2  C   UNL     1     -11.817  13.080  64.574  1.00  0.00    -0.377 C  
HETATM    3  C   UNL     1     -12.246  14.512  64.243  1.00  0.00    -0.441 C  
ENDROOT
BRANCH   2   4
HETATM    4  N   UNL     1     -12.144  12.716  65.956  1.00  0.00    -0.574 NA 
HETATM    5  H   UNL     1     -11.463  12.054  66.329  1.00  0.00     0.000 HD 
BRANCH   4   6
HETATM    6  C   UNL     1     -12.282  13.878  66.842  1.00  0.00    -0.377 C  
BRANCH   6   7
HETATM    7  C   UNL     1     -10.930  14.230  67.494  1.00  0.00    -0.289 C  
HETATM    8  O   UNL     1     -10.664  15.629  67.323  1.00  0.00    -0.299 OA 
HETATM    9  H   UNL     1      -9.831  15.847  67.725  1.00  0.00     0.000 HD 
BRANCH   7  10
HETATM   10  C   UNL     1     -10.946  13.882  68.989  1.00  0.00    -0.250 C  
BRANCH  10  11
HETATM   11  O   UNL     1     -12.014  12.947  69.223  1.00  0.00    -0.296 OA 
BRANCH  11  12
HETATM   12  C   UNL     1     -11.636  11.687  69.598  1.00  0.00    -0.330 A  
HETATM   13  C   UNL     1     -12.276  11.127  70.721  1.00  0.00    -0.484 A  
HETATM   14  C   UNL     1     -11.918   9.822  71.136  1.00  0.00    -0.463 A  
HETATM   15  C   UNL     1     -13.304  11.924  71.486  1.00  0.00    -0.129 C  
HETATM   16  C   UNL     1     -12.582   9.147  72.313  1.00  0.00    -0.425 C  
HETATM   17  C   UNL     1     -10.890   9.129  70.449  1.00  0.00    -0.242 A  
HETATM   18  C   UNL     1     -10.187   9.723  69.396  1.00  0.00    -0.223 A  
HETATM   19  C   UNL     1      -9.006   9.108  68.706  1.00  0.00    -0.136 C  
HETATM   20  C   UNL     1     -10.603  10.988  68.962  1.00  0.00    -0.258 A  
BRANCH  17  21
HETATM   21  O   UNL     1     -10.533   7.874  71.023  1.00  0.00    -0.202 OA 
BRANCH  21  22
HETATM   22  C   UNL     1     -11.038   6.624  70.661  1.00  0.00    -0.298 C  
HETATM   23  C   UNL     1     -10.803   5.666  71.796  1.00  0.00    -0.301 C  
HETATM   24  O   UNL     1     -11.632   6.341  69.631  1.00  0.00    -0.430 OA 
ENDBRANCH  21  22
ENDBRANCH  17  21
ENDBRANCH  11  12
ENDBRANCH  10  11
ENDBRANCH   7  10
ENDBRANCH   6   7
ENDBRANCH   4   6
ENDBRANCH   2   4
TORSDOF 8
ENDMDL
MODEL       59
REMARK 921   NORMALIZED FREE ENERGY PREDICTED BY IDOCK:   -4.82 KCAL/MOL
REMARK 922        TOTAL FREE ENERGY PREDICTED BY IDOCK:   -8.32 KCAL/MOL
REMARK 923 INTER-LIGAND FREE ENERGY PREDICTED BY IDOCK:   -7.76 KCAL/MOL
REMARK 924 INTRA-LIGAND FREE ENERGY PREDICTED BY IDOCK:   -0.56 KCAL/MOL
REMARK 927      BINDING AFFINITY PREDICTED BY RF-SCORE:    0.00 PKD
ROOT
HETATM    1  C   UNL     1      -6.884  20.719  66.886  1.00  0.00    -0.368 C  
HETATM    2  C   UNL     1      -7.663  19.725  66.023  1.00  0.00    -0.332 C  
HETATM    3  C   UNL     1      -6.846  18.442  65.855  1.00  0.00    -0.317 C  
ENDROOT
BRANCH   2   4
HETATM    4  N   UNL     1      -8.955  19.471  66.670  1.00  0.00    -0.333 NA 
HETATM    5  H   UNL     1      -9.715  19.908  66.149  1.00  0.00     0.000 HD 
BRANCH   4   6
HETATM    6  C   UNL     1      -9.221  18.044  66.885  1.00  0.00    -0.269 C  
BRANCH   6   7
HETATM    7  C   UNL     1      -9.450  17.750  68.381  1.00  0.00    -0.297 C  
HETATM    8  O   UNL     1     -10.514  18.574  68.876  1.00  0.00    -0.438 OA 
HETATM    9  H   UNL     1     -10.656  18.393  69.798  1.00  0.00     0.000 HD 
BRANCH   7  10
HETATM   10  C   UNL     1      -9.794  16.270  68.594  1.00  0.00    -0.230 C  
BRANCH  10  11
HETATM   11  O   UNL     1     -10.746  16.177  69.668  1.00  0.00    -0.277 OA 
BRANCH  11  12
HETATM   12  C   UNL     1     -11.322  14.950  69.855  1.00  0.00    -0.277 A  
HETATM   13  C   UNL     1     -12.051  14.752  71.043  1.00  0.00    -0.391 A  
HETATM   14  C   UNL     1     -12.667  13.499  71.270  1.00  0.00    -0.432 A  
HETATM   15  C   UNL     1     -12.143  15.853  72.071  1.00  0.00    -0.591 C  
HETATM   16  C   UNL     1     -13.489  13.223  72.507  1.00  0.00    -0.620 C  
HETATM   17  C   UNL     1     -12.495  12.455  70.327  1.00  0.00    -0.078 A  
HETATM   18  C   UNL     1     -11.690  12.621  69.195  1.00  0.00    -0.375 A  
HETATM   19  C   UNL     1     -11.355  11.531  68.220  1.00  0.00    -0.352 C  
HETATM   20  C   UNL     1     -11.144  13.889  68.959  1.00  0.00    -0.302 A  
BRANCH  17  21
HETATM   21  O   UNL     1     -13.061  11.205  70.711  1.00  0.00    -0.199 OA 
BRANCH  21  22
HETATM   22  C   UNL     1     -12.399  10.162  71.362  1.00  0.00    -0.416 C  
HETATM   23  C   UNL     1     -13.425   9.280  72.019  1.00  0.00    -0.519 C  
HETATM   24  O   UNL     1     -11.197   9.940  71.362  1.00  0.00    -0.348 OA 
ENDBRANCH  21  22
ENDBRANCH  17  21
ENDBRANCH  11  12
ENDBRANCH  10  11
ENDBRANCH   7  10
ENDBRANCH   6   7
ENDBRANCH   4   6
ENDBRANCH   2   4
TORSDOF 8
ENDMDL
MODEL       60
REMARK 921   NORMALIZED FREE ENERGY PREDICTED BY IDOCK:   -4.82 KCAL/MOL
REMARK 922        TOTAL FREE ENERGY PREDICTED BY IDOCK:   -8.31 KCAL/MOL
REMARK 923 INTER-LIGAND FREE ENERGY PREDICTED BY IDOCK:   -6.89 KCAL/MOL
REMARK 924 INTRA-LIGAND FREE ENERGY PREDICTED BY IDOCK:   -1.42 KCAL/MOL
REMARK 927      BINDING AFFINITY PREDICTED BY RF-SCORE:    0.00 PKD
ROOT
HETATM    1  C   UNL     1     -10.274  15.802  67.020  1.00  0.00    -0.280 C  
HETATM    2  C   UNL     1      -9.319  14.915  66.220  1.00  0.00    -0.296 C  
HETATM    3  C   UNL     1      -8.690  13.871  67.146  1.00  0.00    -0.233 C  
ENDROOT
BRANCH   2   4
HETATM    4  N   UNL     1     -10.077  14.293  65.128  1.00  0.00    -0.524 NA 
HETATM    5  H   UNL     1     -10.051  13.276  65.201  1.00  0.00     0.000 HD 
BRANCH   4   6
HETATM    6  C   UNL     1     -11.460  14.776  65.038  1.00  0.00    -0.389 C  
BRANCH   6   7
HETATM    7  C   UNL     1     -12.368  13.713  64.389  1.00  0.00    -0.338 C  
HETATM    8  O   UNL     1     -12.400  13.909  62.969  1.00  0.00    -1.101 OA 
HETATM    9  H   UNL     1     -12.960  13.254  62.569  1.00  0.00     0.000 HD 
BRANCH   7  10
HETATM   10  C   UNL     1     -11.859  12.301  64.709  1.00  0.00    -0.364 C  
BRANCH  10  11
HETATM   11  O   UNL     1     -11.934  12.106  66.133  1.00  0.00    -0.593 OA 
BRANCH  11  12
HETATM   12  C   UNL     1     -11.146  11.110  66.644  1.00  0.00    -0.189 A  
HETATM   13  C   UNL     1     -11.120  10.961  68.043  1.00  0.00    -0.351 A  
HETATM   14  C   UNL     1     -10.324   9.938  68.610  1.00  0.00    -0.217 A  
HETATM   15  C   UNL     1     -11.907  11.901  68.924  1.00  0.00    -0.366 C  
HETATM   16  C   UNL     1     -10.269   9.698  70.101  1.00  0.00    -0.313 C  
HETATM   17  C   UNL     1      -9.531   9.122  67.765  1.00  0.00    -0.140 A  
HETATM   18  C   UNL     1      -9.481   9.335  66.383  1.00  0.00    -0.277 A  
HETATM   19  C   UNL     1      -8.573   8.602  65.441  1.00  0.00    -0.206 C  
HETATM   20  C   UNL     1     -10.327  10.309  65.840  1.00  0.00    -0.241 A  
BRANCH  17  21
HETATM   21  O   UNL     1      -8.682   8.203  68.449  1.00  0.00    -0.133 OA 
BRANCH  21  22
HETATM   22  C   UNL     1      -8.852   6.820  68.528  1.00  0.00    -0.123 C  
HETATM   23  C   UNL     1      -7.498   6.167  68.472  1.00  0.00    -0.087 C  
HETATM   24  O   UNL     1      -9.903   6.216  68.683  1.00  0.00    -0.131 OA 
ENDBRANCH  21  22
ENDBRANCH  17  21
ENDBRANCH  11  12
ENDBRANCH  10  11
ENDBRANCH   7  10
ENDBRANCH   6   7
ENDBRANCH   4   6
ENDBRANCH   2   4
TORSDOF 8
ENDMDL
MODEL       61
REMARK 921   NORMALIZED FREE ENERGY PREDICTED BY IDOCK:   -4.78 KCAL/MOL
REMARK 922        TOTAL FREE ENERGY PREDICTED BY IDOCK:   -8.25 KCAL/MOL
REMARK 923 INTER-LIGAND FREE ENERGY PREDICTED BY IDOCK:   -7.27 KCAL/MOL
REMARK 924 INTRA-LIGAND FREE ENERGY PREDICTED BY IDOCK:   -0.98 KCAL/MOL
REMARK 927      BINDING AFFINITY PREDICTED BY RF-SCORE:    0.00 PKD
ROOT
HETATM    1  C   UNL     1      -7.657   8.224  64.355  1.00  0.00    -0.113 C  
HETATM    2  C   UNL     1      -8.706   8.424  65.450  1.00  0.00    -0.141 C  
HETATM    3  C   UNL     1      -8.017   8.856  66.747  1.00  0.00    -0.107 C  
ENDROOT
BRANCH   2   4
HETATM    4  N   UNL     1      -9.670   9.426  64.983  1.00  0.00    -0.433 NA 
HETATM    5  H   UNL     1     -10.251   9.758  65.753  1.00  0.00     0.000 HD 
BRANCH   4   6
HETATM    6  C   UNL     1      -9.040  10.550  64.281  1.00  0.00    -0.228 C  
BRANCH   6   7
HETATM    7  C   UNL     1     -10.099  11.573  63.825  1.00  0.00    -0.366 C  
HETATM    8  O   UNL     1     -10.901  11.003  62.781  1.00  0.00    -0.780 OA 
HETATM    9  H   UNL     1     -11.554  11.633  62.500  1.00  0.00     0.000 HD 
BRANCH   7  10
HETATM   10  C   UNL     1     -10.993  11.985  65.003  1.00  0.00    -0.306 C  
BRANCH  10  11
HETATM   11  O   UNL     1     -10.204  11.938  66.205  1.00  0.00    -0.215 OA 
BRANCH  11  12
HETATM   12  C   UNL     1     -10.769  12.505  67.315  1.00  0.00    -0.233 A  
HETATM   13  C   UNL     1     -11.264  11.635  68.305  1.00  0.00    -0.320 A  
HETATM   14  C   UNL     1     -11.849  12.182  69.471  1.00  0.00    -0.386 A  
HETATM   15  C   UNL     1     -11.198  10.140  68.105  1.00  0.00    -0.245 C  
HETATM   16  C   UNL     1     -12.374  11.311  70.588  1.00  0.00    -0.477 C  
HETATM   17  C   UNL     1     -11.973  13.589  69.595  1.00  0.00    -0.337 A  
HETATM   18  C   UNL     1     -11.571  14.450  68.568  1.00  0.00    -0.347 A  
HETATM   19  C   UNL     1     -11.785  15.934  68.569  1.00  0.00    -0.297 C  
HETATM   20  C   UNL     1     -10.936  13.888  67.454  1.00  0.00    -0.299 A  
BRANCH  17  21
HETATM   21  O   UNL     1     -12.680  14.025  70.753  1.00  0.00    -0.326 OA 
BRANCH  21  22
HETATM   22  C   UNL     1     -12.161  14.785  71.803  1.00  0.00    -0.347 C  
HETATM   23  C   UNL     1     -13.200  14.876  72.887  1.00  0.00    -0.590 C  
HETATM   24  O   UNL     1     -11.037  15.257  71.884  1.00  0.00    -0.371 OA 
ENDBRANCH  21  22
ENDBRANCH  17  21
ENDBRANCH  11  12
ENDBRANCH  10  11
ENDBRANCH   7  10
ENDBRANCH   6   7
ENDBRANCH   4   6
ENDBRANCH   2   4
TORSDOF 8
ENDMDL
MODEL       62
REMARK 921   NORMALIZED FREE ENERGY PREDICTED BY IDOCK:   -4.77 KCAL/MOL
REMARK 922        TOTAL FREE ENERGY PREDICTED BY IDOCK:   -8.24 KCAL/MOL
REMARK 923 INTER-LIGAND FREE ENERGY PREDICTED BY IDOCK:   -7.22 KCAL/MOL
REMARK 924 INTRA-LIGAND FREE ENERGY PREDICTED BY IDOCK:   -1.02 KCAL/MOL
REMARK 927      BINDING AFFINITY PREDICTED BY RF-SCORE:    0.00 PKD
ROOT
HETATM    1  C   UNL     1     -10.035  15.031  65.695  1.00  0.00    -0.387 C  
HETATM    2  C   UNL     1     -10.957  14.053  64.965  1.00  0.00    -0.375 C  
HETATM    3  C   UNL     1     -12.152  14.812  64.383  1.00  0.00    -0.457 C  
ENDROOT
BRANCH   2   4
HETATM    4  N   UNL     1     -10.177  13.378  63.923  1.00  0.00    -0.691 NA 
HETATM    5  H   UNL     1      -9.218  13.218  64.233  1.00  0.00     0.000 HD 
BRANCH   4   6
HETATM    6  C   UNL     1     -10.791  12.129  63.460  1.00  0.00    -0.458 C  
BRANCH   6   7
HETATM    7  C   UNL     1      -9.718  11.050  63.213  1.00  0.00    -0.364 C  
HETATM    8  O   UNL     1      -8.557  11.652  62.624  1.00  0.00    -0.640 OA 
HETATM    9  H   UNL     1      -7.895  10.988  62.471  1.00  0.00     0.000 HD 
BRANCH   7  10
HETATM   10  C   UNL     1      -9.336  10.359  64.529  1.00  0.00    -0.264 C  
BRANCH  10  11
HETATM   11  O   UNL     1     -10.322  10.698  65.519  1.00  0.00    -0.266 OA 
BRANCH  11  12
HETATM   12  C   UNL     1     -10.252  10.005  66.697  1.00  0.00    -0.223 A  
HETATM   13  C   UNL     1     -10.845  10.594  67.830  1.00  0.00    -0.328 A  
HETATM   14  C   UNL     1     -10.800   9.905  69.066  1.00  0.00    -0.242 A  
HETATM   15  C   UNL     1     -11.489  11.955  67.731  1.00  0.00    -0.389 C  
HETATM   16  C   UNL     1     -11.439  10.460  70.316  1.00  0.00    -0.406 C  
HETATM   17  C   UNL     1     -10.116   8.665  69.149  1.00  0.00    -0.199 A  
HETATM   18  C   UNL     1      -9.444   8.128  68.046  1.00  0.00    -0.155 A  
HETATM   19  C   UNL     1      -8.594   6.893  68.086  1.00  0.00    -0.123 C  
HETATM   20  C   UNL     1      -9.558   8.796  66.820  1.00  0.00    -0.267 A  
BRANCH  17  21
HETATM   21  O   UNL     1     -10.034   8.117  70.462  1.00  0.00    -0.185 OA 
BRANCH  21  22
HETATM   22  C   UNL     1     -10.482   6.858  70.863  1.00  0.00    -0.211 C  
HETATM   23  C   UNL     1     -11.970   6.789  70.649  1.00  0.00    -0.418 C  
HETATM   24  O   UNL     1      -9.799   5.927  71.263  1.00  0.00    -0.171 OA 
ENDBRANCH  21  22
ENDBRANCH  17  21
ENDBRANCH  11  12
ENDBRANCH  10  11
ENDBRANCH   7  10
ENDBRANCH   6   7
ENDBRANCH   4   6
ENDBRANCH   2   4
TORSDOF 8
ENDMDL
MODEL       63
REMARK 921   NORMALIZED FREE ENERGY PREDICTED BY IDOCK:   -4.75 KCAL/MOL
REMARK 922        TOTAL FREE ENERGY PREDICTED BY IDOCK:   -8.21 KCAL/MOL
REMARK 923 INTER-LIGAND FREE ENERGY PREDICTED BY IDOCK:   -7.56 KCAL/MOL
REMARK 924 INTRA-LIGAND FREE ENERGY PREDICTED BY IDOCK:   -0.65 KCAL/MOL
REMARK 927      BINDING AFFINITY PREDICTED BY RF-SCORE:    0.00 PKD
ROOT
HETATM    1  C   UNL     1     -10.889   9.368  71.285  1.00  0.00    -0.431 C  
HETATM    2  C   UNL     1     -11.835  10.295  70.520  1.00  0.00    -0.329 C  
HETATM    3  C   UNL     1     -12.865  10.887  71.485  1.00  0.00    -0.560 C  
ENDROOT
BRANCH   2   4
HETATM    4  N   UNL     1     -11.032  11.337  69.871  1.00  0.00    -0.471 NA 
HETATM    5  H   UNL     1     -10.426  10.935  69.155  1.00  0.00     0.000 HD 
BRANCH   4   6
HETATM    6  C   UNL     1     -11.840  12.430  69.320  1.00  0.00    -0.304 C  
BRANCH   6   7
HETATM    7  C   UNL     1     -11.328  12.838  67.924  1.00  0.00    -0.293 C  
HETATM    8  O   UNL     1     -12.159  12.247  66.915  1.00  0.00    -0.583 OA 
HETATM    9  H   UNL     1     -11.843  12.498  66.054  1.00  0.00     0.000 HD 
BRANCH   7  10
HETATM   10  C   UNL     1     -11.332  14.365  67.774  1.00  0.00    -0.312 C  
BRANCH  10  11
HETATM   11  O   UNL     1     -10.514  14.923  68.817  1.00  0.00    -0.228 OA 
BRANCH  11  12
HETATM   12  C   UNL     1      -9.908  16.116  68.531  1.00  0.00    -0.226 A  
HETATM   13  C   UNL     1      -8.545  16.245  68.860  1.00  0.00    -0.260 A  
HETATM   14  C   UNL     1      -7.881  17.461  68.573  1.00  0.00    -0.268 A  
HETATM   15  C   UNL     1      -7.817  15.111  69.538  1.00  0.00    -0.186 C  
HETATM   16  C   UNL     1      -6.414  17.661  68.871  1.00  0.00    -0.215 C  
HETATM   17  C   UNL     1      -8.611  18.539  68.012  1.00  0.00    -0.291 A  
HETATM   18  C   UNL     1      -9.986  18.444  67.776  1.00  0.00    -0.365 A  
HETATM   19  C   UNL     1     -10.850  19.577  67.307  1.00  0.00    -0.557 C  
HETATM   20  C   UNL     1     -10.607  17.210  68.007  1.00  0.00    -0.374 A  
BRANCH  17  21
HETATM   21  O   UNL     1      -7.872  19.750  67.873  1.00  0.00    -0.283 OA 
BRANCH  21  22
HETATM   22  C   UNL     1      -7.329  20.257  66.691  1.00  0.00    -0.274 C  
HETATM   23  C   UNL     1      -6.253  21.247  67.045  1.00  0.00    -0.406 C  
HETATM   24  O   UNL     1      -7.614  19.928  65.549  1.00  0.00    -0.347 OA 
ENDBRANCH  21  22
ENDBRANCH  17  21
ENDBRANCH  11  12
ENDBRANCH  10  11
ENDBRANCH   7  10
ENDBRANCH   6   7
ENDBRANCH   4   6
ENDBRANCH   2   4
TORSDOF 8
ENDMDL
MODEL       64
REMARK 921   NORMALIZED FREE ENERGY PREDICTED BY IDOCK:   -4.74 KCAL/MOL
REMARK 922        TOTAL FREE ENERGY PREDICTED BY IDOCK:   -8.20 KCAL/MOL
REMARK 923 INTER-LIGAND FREE ENERGY PREDICTED BY IDOCK:   -7.35 KCAL/MOL
REMARK 924 INTRA-LIGAND FREE ENERGY PREDICTED BY IDOCK:   -0.84 KCAL/MOL
REMARK 927      BINDING AFFINITY PREDICTED BY RF-SCORE:    0.00 PKD
ROOT
HETATM    1  C   UNL     1      -8.283   8.823  62.664  1.00  0.00    -0.194 C  
HETATM    2  C   UNL     1      -8.914   9.489  63.888  1.00  0.00    -0.179 C  
HETATM    3  C   UNL     1      -7.912  10.459  64.517  1.00  0.00    -0.093 C  
ENDROOT
BRANCH   2   4
HETATM    4  N   UNL     1     -10.140  10.170  63.458  1.00  0.00    -0.455 NA 
HETATM    5  H   UNL     1     -10.953   9.802  63.953  1.00  0.00     0.000 HD 
BRANCH   4   6
HETATM    6  C   UNL     1     -10.065  11.629  63.588  1.00  0.00    -0.402 C  
BRANCH   6   7
HETATM    7  C   UNL     1     -11.477  12.247  63.643  1.00  0.00    -0.490 C  
HETATM    8  O   UNL     1     -12.371  11.475  62.830  1.00  0.00    -0.958 OA 
HETATM    9  H   UNL     1     -13.242  11.855  62.863  1.00  0.00     0.000 HD 
BRANCH   7  10
HETATM   10  C   UNL     1     -11.991  12.290  65.088  1.00  0.00    -0.337 C  
BRANCH  10  11
HETATM   11  O   UNL     1     -10.855  12.298  65.971  1.00  0.00    -0.258 OA 
BRANCH  11  12
HETATM   12  C   UNL     1     -10.972  11.542  67.105  1.00  0.00    -0.286 A  
HETATM   13  C   UNL     1     -11.493  12.172  68.252  1.00  0.00    -0.360 A  
HETATM   14  C   UNL     1     -11.636  11.422  69.443  1.00  0.00    -0.391 A  
HETATM   15  C   UNL     1     -11.860  13.635  68.214  1.00  0.00    -0.404 C  
HETATM   16  C   UNL     1     -12.214  12.022  70.702  1.00  0.00    -0.409 C  
HETATM   17  C   UNL     1     -11.205  10.071  69.473  1.00  0.00    -0.208 A  
HETATM   18  C   UNL     1     -10.598   9.475  68.363  1.00  0.00    -0.261 A  
HETATM   19  C   UNL     1     -10.001   8.099  68.356  1.00  0.00    -0.210 C  
HETATM   20  C   UNL     1     -10.526  10.216  67.178  1.00  0.00    -0.305 A  
BRANCH  17  21
HETATM   21  O   UNL     1     -11.289   9.448  70.752  1.00  0.00    -0.261 OA 
BRANCH  21  22
HETATM   22  C   UNL     1     -10.223   8.941  71.497  1.00  0.00    -0.328 C  
HETATM   23  C   UNL     1     -10.676   7.682  72.186  1.00  0.00    -0.289 C  
HETATM   24  O   UNL     1      -9.086   9.385  71.551  1.00  0.00    -0.275 OA 
ENDBRANCH  21  22
ENDBRANCH  17  21
ENDBRANCH  11  12
ENDBRANCH  10  11
ENDBRANCH   7  10
ENDBRANCH   6   7
ENDBRANCH   4   6
ENDBRANCH   2   4
TORSDOF 8
ENDMDL
MODEL       65
REMARK 921   NORMALIZED FREE ENERGY PREDICTED BY IDOCK:   -4.72 KCAL/MOL
REMARK 922        TOTAL FREE ENERGY PREDICTED BY IDOCK:   -8.16 KCAL/MOL
REMARK 923 INTER-LIGAND FREE ENERGY PREDICTED BY IDOCK:   -7.50 KCAL/MOL
REMARK 924 INTRA-LIGAND FREE ENERGY PREDICTED BY IDOCK:   -0.66 KCAL/MOL
REMARK 927      BINDING AFFINITY PREDICTED BY RF-SCORE:    0.00 PKD
ROOT
HETATM    1  C   UNL     1     -10.488  19.784  66.333  1.00  0.00    -0.618 C  
HETATM    2  C   UNL     1      -9.850  18.849  67.361  1.00  0.00    -0.324 C  
HETATM    3  C   UNL     1      -9.825  19.533  68.731  1.00  0.00    -0.532 C  
ENDROOT
BRANCH   2   4
HETATM    4  N   UNL     1     -10.620  17.601  67.386  1.00  0.00    -0.346 NA 
HETATM    5  H   UNL     1     -10.289  16.955  66.669  1.00  0.00     0.000 HD 
BRANCH   4   6
HETATM    6  C   UNL     1     -10.633  16.957  68.705  1.00  0.00    -0.360 C  
BRANCH   6   7
HETATM    7  C   UNL     1     -11.255  15.549  68.619  1.00  0.00    -0.325 C  
HETATM    8  O   UNL     1     -12.547  15.556  69.242  1.00  0.00    -0.594 OA 
HETATM    9  H   UNL     1     -12.931  14.688  69.190  1.00  0.00     0.000 HD 
BRANCH   7  10
HETATM   10  C   UNL     1     -11.383  15.104  67.156  1.00  0.00    -0.290 C  
BRANCH  10  11
HETATM   11  O   UNL     1     -12.195  13.917  67.116  1.00  0.00    -0.406 OA 
BRANCH  11  12
HETATM   12  C   UNL     1     -11.596  12.799  66.602  1.00  0.00    -0.370 A  
HETATM   13  C   UNL     1     -11.371  11.724  67.483  1.00  0.00    -0.377 A  
HETATM   14  C   UNL     1     -10.760  10.547  66.989  1.00  0.00    -0.310 A  
HETATM   15  C   UNL     1     -11.746  11.843  68.940  1.00  0.00    -0.381 C  
HETATM   16  C   UNL     1     -10.514   9.343  67.867  1.00  0.00    -0.296 C  
HETATM   17  C   UNL     1     -10.342  10.493  65.635  1.00  0.00    -0.204 A  
HETATM   18  C   UNL     1     -10.478  11.597  64.786  1.00  0.00    -0.346 A  
HETATM   19  C   UNL     1      -9.946  11.663  63.385  1.00  0.00    -0.447 C  
HETATM   20  C   UNL     1     -11.143  12.726  65.280  1.00  0.00    -0.320 A  
BRANCH  17  21
HETATM   21  O   UNL     1      -9.637   9.308  65.276  1.00  0.00    -0.242 OA 
BRANCH  21  22
HETATM   22  C   UNL     1      -8.317   9.234  64.829  1.00  0.00    -0.162 C  
HETATM   23  C   UNL     1      -7.426   9.867  65.863  1.00  0.00    -0.108 C  
HETATM   24  O   UNL     1      -7.914   8.695  63.809  1.00  0.00    -0.144 OA 
ENDBRANCH  21  22
ENDBRANCH  17  21
ENDBRANCH  11  12
ENDBRANCH  10  11
ENDBRANCH   7  10
ENDBRANCH   6   7
ENDBRANCH   4   6
ENDBRANCH   2   4
TORSDOF 8
ENDMDL
MODEL       66
REMARK 921   NORMALIZED FREE ENERGY PREDICTED BY IDOCK:   -4.72 KCAL/MOL
REMARK 922        TOTAL FREE ENERGY PREDICTED BY IDOCK:   -8.16 KCAL/MOL
REMARK 923 INTER-LIGAND FREE ENERGY PREDICTED BY IDOCK:   -7.36 KCAL/MOL
REMARK 924 INTRA-LIGAND FREE ENERGY PREDICTED BY IDOCK:   -0.80 KCAL/MOL
REMARK 927      BINDING AFFINITY PREDICTED BY RF-SCORE:    0.00 PKD
ROOT
HETATM    1  C   UNL     1      -9.095  19.023  68.168  1.00  0.00    -0.364 C  
HETATM    2  C   UNL     1     -10.340  18.211  67.809  1.00  0.00    -0.399 C  
HETATM    3  C   UNL     1     -10.067  17.383  66.550  1.00  0.00    -0.320 C  
ENDROOT
BRANCH   2   4
HETATM    4  N   UNL     1     -10.681  17.364  68.957  1.00  0.00    -0.335 NA 
HETATM    5  H   UNL     1     -11.002  17.930  69.743  1.00  0.00     0.000 HD 
BRANCH   4   6
HETATM    6  C   UNL     1     -11.658  16.318  68.633  1.00  0.00    -0.216 C  
BRANCH   6   7
HETATM    7  C   UNL     1     -11.939  15.433  69.863  1.00  0.00    -0.359 C  
HETATM    8  O   UNL     1     -13.174  15.834  70.472  1.00  0.00    -0.735 OA 
HETATM    9  H   UNL     1     -13.348  15.288  71.231  1.00  0.00     0.000 HD 
BRANCH   7  10
HETATM   10  C   UNL     1     -12.014  13.955  69.457  1.00  0.00    -0.343 C  
BRANCH  10  11
HETATM   11  O   UNL     1     -12.366  13.887  68.063  1.00  0.00    -0.239 OA 
BRANCH  11  12
HETATM   12  C   UNL     1     -11.743  12.910  67.335  1.00  0.00    -0.372 A  
HETATM   13  C   UNL     1     -11.601  13.126  65.951  1.00  0.00    -0.391 A  
HETATM   14  C   UNL     1     -10.956  12.143  65.164  1.00  0.00    -0.355 A  
HETATM   15  C   UNL     1     -12.161  14.376  65.315  1.00  0.00    -0.380 C  
HETATM   16  C   UNL     1     -10.743  12.319  63.679  1.00  0.00    -0.513 C  
HETATM   17  C   UNL     1     -10.514  10.942  65.773  1.00  0.00    -0.210 A  
HETATM   18  C   UNL     1     -10.743  10.685  67.129  1.00  0.00    -0.327 A  
HETATM   19  C   UNL     1     -10.423   9.390  67.816  1.00  0.00    -0.310 C  
HETATM   20  C   UNL     1     -11.324  11.699  67.899  1.00  0.00    -0.369 A  
BRANCH  17  21
HETATM   21  O   UNL     1      -9.985   9.975  64.869  1.00  0.00    -0.325 OA 
BRANCH  21  22
HETATM   22  C   UNL     1      -8.634   9.699  64.649  1.00  0.00    -0.183 C  
HETATM   23  C   UNL     1      -8.428   9.459  63.179  1.00  0.00    -0.205 C  
HETATM   24  O   UNL     1      -7.737   9.707  65.479  1.00  0.00    -0.106 OA 
ENDBRANCH  21  22
ENDBRANCH  17  21
ENDBRANCH  11  12
ENDBRANCH  10  11
ENDBRANCH   7  10
ENDBRANCH   6   7
ENDBRANCH   4   6
ENDBRANCH   2   4
TORSDOF 8
ENDMDL
MODEL       67
REMARK 921   NORMALIZED FREE ENERGY PREDICTED BY IDOCK:   -4.71 KCAL/MOL
REMARK 922        TOTAL FREE ENERGY PREDICTED BY IDOCK:   -8.15 KCAL/MOL
REMARK 923 INTER-LIGAND FREE ENERGY PREDICTED BY IDOCK:   -7.23 KCAL/MOL
REMARK 924 INTRA-LIGAND FREE ENERGY PREDICTED BY IDOCK:   -0.91 KCAL/MOL
REMARK 927      BINDING AFFINITY PREDICTED BY RF-SCORE:    0.00 PKD
ROOT
HETATM    1  C   UNL     1      -8.617  18.991  68.175  1.00  0.00    -0.355 C  
HETATM    2  C   UNL     1     -10.104  18.942  67.819  1.00  0.00    -0.369 C  
HETATM    3  C   UNL     1     -10.389  19.918  66.674  1.00  0.00    -0.608 C  
ENDROOT
BRANCH   2   4
HETATM    4  N   UNL     1     -10.443  17.561  67.459  1.00  0.00    -0.355 NA 
HETATM    5  H   UNL     1     -11.372  17.315  67.803  1.00  0.00     0.000 HD 
BRANCH   4   6
HETATM    6  C   UNL     1     -10.330  17.295  66.021  1.00  0.00    -0.305 C  
BRANCH   6   7
HETATM    7  C   UNL     1     -10.765  15.853  65.696  1.00  0.00    -0.339 C  
HETATM    8  O   UNL     1      -9.628  15.091  65.267  1.00  0.00    -0.397 OA 
HETATM    9  H   UNL     1      -9.896  14.202  65.067  1.00  0.00     0.000 HD 
BRANCH   7  10
HETATM   10  C   UNL     1     -11.402  15.192  66.926  1.00  0.00    -0.264 C  
BRANCH  10  11
HETATM   11  O   UNL     1     -10.401  14.387  67.574  1.00  0.00    -0.249 OA 
BRANCH  11  12
HETATM   12  C   UNL     1     -10.866  13.340  68.323  1.00  0.00    -0.256 A  
HETATM   13  C   UNL     1     -10.706  12.045  67.793  1.00  0.00    -0.243 A  
HETATM   14  C   UNL     1     -11.168  10.935  68.540  1.00  0.00    -0.335 A  
HETATM   15  C   UNL     1     -10.081  11.852  66.433  1.00  0.00    -0.241 C  
HETATM   16  C   UNL     1     -11.004   9.516  68.050  1.00  0.00    -0.155 C  
HETATM   17  C   UNL     1     -11.826  11.152  69.777  1.00  0.00    -0.349 A  
HETATM   18  C   UNL     1     -12.072  12.443  70.256  1.00  0.00    -0.377 A  
HETATM   19  C   UNL     1     -12.872  12.757  71.485  1.00  0.00    -0.369 C  
HETATM   20  C   UNL     1     -11.549  13.521  69.531  1.00  0.00    -0.355 A  
BRANCH  17  21
HETATM   21  O   UNL     1     -12.351   9.975  70.387  1.00  0.00    -0.229 OA 
BRANCH  21  22
HETATM   22  C   UNL     1     -12.059   9.507  71.668  1.00  0.00    -0.398 C  
HETATM   23  C   UNL     1     -10.586   9.210  71.746  1.00  0.00    -0.383 C  
HETATM   24  O   UNL     1     -12.833   9.403  72.608  1.00  0.00    -0.303 OA 
ENDBRANCH  21  22
ENDBRANCH  17  21
ENDBRANCH  11  12
ENDBRANCH  10  11
ENDBRANCH   7  10
ENDBRANCH   6   7
ENDBRANCH   4   6
ENDBRANCH   2   4
TORSDOF 8
ENDMDL
MODEL       68
REMARK 921   NORMALIZED FREE ENERGY PREDICTED BY IDOCK:   -4.70 KCAL/MOL
REMARK 922        TOTAL FREE ENERGY PREDICTED BY IDOCK:   -8.13 KCAL/MOL
REMARK 923 INTER-LIGAND FREE ENERGY PREDICTED BY IDOCK:   -7.40 KCAL/MOL
REMARK 924 INTRA-LIGAND FREE ENERGY PREDICTED BY IDOCK:   -0.73 KCAL/MOL
REMARK 927      BINDING AFFINITY PREDICTED BY RF-SCORE:    0.00 PKD
ROOT
HETATM    1  C   UNL     1     -12.929   9.725  71.679  1.00  0.00    -0.517 C  
HETATM    2  C   UNL     1     -11.421   9.959  71.572  1.00  0.00    -0.252 C  
HETATM    3  C   UNL     1     -10.687   8.618  71.653  1.00  0.00    -0.374 C  
ENDROOT
BRANCH   2   4
HETATM    4  N   UNL     1     -11.154  10.654  70.309  1.00  0.00    -0.425 NA 
HETATM    5  H   UNL     1     -10.362  11.290  70.405  1.00  0.00     0.000 HD 
BRANCH   4   6
HETATM    6  C   UNL     1     -10.957   9.740  69.178  1.00  0.00    -0.175 C  
BRANCH   6   7
HETATM    7  C   UNL     1     -11.039  10.501  67.840  1.00  0.00    -0.304 C  
HETATM    8  O   UNL     1     -12.196  11.349  67.839  1.00  0.00    -0.592 OA 
HETATM    9  H   UNL     1     -12.247  11.819  67.014  1.00  0.00     0.000 HD 
BRANCH   7  10
HETATM   10  C   UNL     1      -9.775  11.343  67.620  1.00  0.00    -0.172 C  
BRANCH  10  11
HETATM   11  O   UNL     1      -9.814  11.875  66.284  1.00  0.00    -0.214 OA 
BRANCH  11  12
HETATM   12  C   UNL     1      -9.884  13.238  66.182  1.00  0.00    -0.280 A  
HETATM   13  C   UNL     1     -10.902  13.774  65.370  1.00  0.00    -0.312 A  
HETATM   14  C   UNL     1     -11.013  15.179  65.245  1.00  0.00    -0.405 A  
HETATM   15  C   UNL     1     -11.838  12.858  64.620  1.00  0.00    -0.422 C  
HETATM   16  C   UNL     1     -12.096  15.827  64.416  1.00  0.00    -0.010 C  
HETATM   17  C   UNL     1     -10.069  16.014  65.895  1.00  0.00    -0.353 A  
HETATM   18  C   UNL     1      -9.000  15.478  66.621  1.00  0.00    -0.320 A  
HETATM   19  C   UNL     1      -7.891  16.287  67.227  1.00  0.00    -0.203 C  
HETATM   20  C   UNL     1      -8.949  14.088  66.784  1.00  0.00    -0.217 A  
BRANCH  17  21
HETATM   21  O   UNL     1     -10.204  17.403  65.608  1.00  0.00    -0.586 OA 
BRANCH  21  22
HETATM   22  C   UNL     1     -10.501  18.413  66.524  1.00  0.00    -0.381 C  
HETATM   23  C   UNL     1     -10.208  19.742  65.883  1.00  0.00    -0.556 C  
HETATM   24  O   UNL     1     -10.978  18.276  67.641  1.00  0.00    -0.333 OA 
ENDBRANCH  21  22
ENDBRANCH  17  21
ENDBRANCH  11  12
ENDBRANCH  10  11
ENDBRANCH   7  10
ENDBRANCH   6   7
ENDBRANCH   4   6
ENDBRANCH   2   4
TORSDOF 8
ENDMDL
MODEL       69
REMARK 921   NORMALIZED FREE ENERGY PREDICTED BY IDOCK:   -4.69 KCAL/MOL
REMARK 922        TOTAL FREE ENERGY PREDICTED BY IDOCK:   -8.12 KCAL/MOL
REMARK 923 INTER-LIGAND FREE ENERGY PREDICTED BY IDOCK:   -7.51 KCAL/MOL
REMARK 924 INTRA-LIGAND FREE ENERGY PREDICTED BY IDOCK:   -0.61 KCAL/MOL
REMARK 927      BINDING AFFINITY PREDICTED BY RF-SCORE:    0.00 PKD
ROOT
HETATM    1  C   UNL     1     -13.004  10.527  71.700  1.00  0.00    -0.581 C  
HETATM    2  C   UNL     1     -12.918   9.009  71.864  1.00  0.00    -0.389 C  
HETATM    3  C   UNL     1     -14.329   8.414  71.872  1.00  0.00    -0.561 C  
ENDROOT
BRANCH   2   4
HETATM    4  N   UNL     1     -12.105   8.474  70.766  1.00  0.00    -0.483 NA 
HETATM    5  H   UNL     1     -12.227   9.031  69.919  1.00  0.00     0.000 HD 
BRANCH   4   6
HETATM    6  C   UNL     1     -10.684   8.348  71.109  1.00  0.00    -0.230 C  
BRANCH   6   7
HETATM    7  C   UNL     1      -9.838   9.364  70.316  1.00  0.00    -0.243 C  
HETATM    8  O   UNL     1      -8.539   8.813  70.060  1.00  0.00    -0.123 OA 
HETATM    9  H   UNL     1      -8.017   9.439  69.571  1.00  0.00     0.000 HD 
BRANCH   7  10
HETATM   10  C   UNL     1     -10.525   9.719  68.990  1.00  0.00    -0.213 C  
BRANCH  10  11
HETATM   11  O   UNL     1      -9.514  10.142  68.058  1.00  0.00    -0.143 OA 
BRANCH  11  12
HETATM   12  C   UNL     1      -9.811  11.253  67.315  1.00  0.00    -0.182 A  
HETATM   13  C   UNL     1      -9.928  11.086  65.922  1.00  0.00    -0.289 A  
HETATM   14  C   UNL     1     -10.241  12.209  65.119  1.00  0.00    -0.308 A  
HETATM   15  C   UNL     1      -9.689   9.734  65.295  1.00  0.00    -0.371 C  
HETATM   16  C   UNL     1     -10.411  12.101  63.622  1.00  0.00    -0.482 C  
HETATM   17  C   UNL     1     -10.378  13.483  65.725  1.00  0.00    -0.292 A  
HETATM   18  C   UNL     1     -10.166  13.665  67.096  1.00  0.00    -0.244 A  
HETATM   19  C   UNL     1     -10.165  14.996  67.788  1.00  0.00    -0.236 C  
HETATM   20  C   UNL     1      -9.921  12.530  67.878  1.00  0.00    -0.212 A  
BRANCH  17  21
HETATM   21  O   UNL     1     -10.578  14.559  64.812  1.00  0.00    -0.425 OA 
BRANCH  21  22
HETATM   22  C   UNL     1     -11.788  15.199  64.539  1.00  0.00    -0.330 C  
HETATM   23  C   UNL     1     -12.899  14.421  65.190  1.00  0.00    -0.173 C  
HETATM   24  O   UNL     1     -11.945  16.248  63.932  1.00  0.00    -1.003 OA 
ENDBRANCH  21  22
ENDBRANCH  17  21
ENDBRANCH  11  12
ENDBRANCH  10  11
ENDBRANCH   7  10
ENDBRANCH   6   7
ENDBRANCH   4   6
ENDBRANCH   2   4
TORSDOF 8
ENDMDL
MODEL       70
REMARK 921   NORMALIZED FREE ENERGY PREDICTED BY IDOCK:   -4.69 KCAL/MOL
REMARK 922        TOTAL FREE ENERGY PREDICTED BY IDOCK:   -8.12 KCAL/MOL
REMARK 923 INTER-LIGAND FREE ENERGY PREDICTED BY IDOCK:   -7.39 KCAL/MOL
REMARK 924 INTRA-LIGAND FREE ENERGY PREDICTED BY IDOCK:   -0.73 KCAL/MOL
REMARK 927      BINDING AFFINITY PREDICTED BY RF-SCORE:    0.00 PKD
ROOT
HETATM    1  C   UNL     1     -11.547   6.136  72.083  1.00  0.00    -0.369 C  
HETATM    2  C   UNL     1     -12.372   7.038  71.163  1.00  0.00    -0.378 C  
HETATM    3  C   UNL     1     -12.140   8.503  71.539  1.00  0.00    -0.351 C  
ENDROOT
BRANCH   2   4
HETATM    4  N   UNL     1     -11.981   6.759  69.777  1.00  0.00    -0.647 NA 
HETATM    5  H   UNL     1     -11.755   7.622  69.283  1.00  0.00     0.000 HD 
BRANCH   4   6
HETATM    6  C   UNL     1     -10.883   5.792  69.671  1.00  0.00    -0.348 C  
BRANCH   6   7
HETATM    7  C   UNL     1      -9.968   6.133  68.478  1.00  0.00    -0.147 C  
HETATM    8  O   UNL     1      -9.768   4.962  67.675  1.00  0.00    -0.144 OA 
HETATM    9  H   UNL     1      -9.204   5.171  66.939  1.00  0.00     0.000 HD 
BRANCH   7  10
HETATM   10  C   UNL     1     -10.586   7.250  67.626  1.00  0.00    -0.246 C  
BRANCH  10  11
HETATM   11  O   UNL     1      -9.519   8.058  67.100  1.00  0.00    -0.146 OA 
BRANCH  11  12
HETATM   12  C   UNL     1      -9.893   9.239  66.517  1.00  0.00    -0.263 A  
HETATM   13  C   UNL     1      -9.416   9.499  65.218  1.00  0.00    -0.326 A  
HETATM   14  C   UNL     1      -9.785  10.706  64.579  1.00  0.00    -0.367 A  
HETATM   15  C   UNL     1      -8.496   8.515  64.535  1.00  0.00    -0.108 C  
HETATM   16  C   UNL     1      -9.336  11.039  63.176  1.00  0.00    -0.339 C  
HETATM   17  C   UNL     1     -10.582  11.649  65.276  1.00  0.00    -0.281 A  
HETATM   18  C   UNL     1     -10.974  11.434  66.602  1.00  0.00    -0.341 A  
HETATM   19  C   UNL     1     -11.704  12.435  67.447  1.00  0.00    -0.417 C  
HETATM   20  C   UNL     1     -10.651  10.205  67.190  1.00  0.00    -0.308 A  
BRANCH  17  21
HETATM   21  O   UNL     1     -10.797  12.875  64.583  1.00  0.00    -0.306 OA 
BRANCH  21  22
HETATM   22  C   UNL     1     -12.017  13.351  64.100  1.00  0.00    -0.450 C  
HETATM   23  C   UNL     1     -12.204  14.764  64.580  1.00  0.00    -0.443 C  
HETATM   24  O   UNL     1     -12.794  12.766  63.360  1.00  0.00    -0.667 OA 
ENDBRANCH  21  22
ENDBRANCH  17  21
ENDBRANCH  11  12
ENDBRANCH  10  11
ENDBRANCH   7  10
ENDBRANCH   6   7
ENDBRANCH   4   6
ENDBRANCH   2   4
TORSDOF 8
ENDMDL
MODEL       71
REMARK 921   NORMALIZED FREE ENERGY PREDICTED BY IDOCK:   -4.68 KCAL/MOL
REMARK 922        TOTAL FREE ENERGY PREDICTED BY IDOCK:   -8.10 KCAL/MOL
REMARK 923 INTER-LIGAND FREE ENERGY PREDICTED BY IDOCK:   -7.04 KCAL/MOL
REMARK 924 INTRA-LIGAND FREE ENERGY PREDICTED BY IDOCK:   -1.06 KCAL/MOL
REMARK 927      BINDING AFFINITY PREDICTED BY RF-SCORE:    0.00 PKD
ROOT
HETATM    1  C   UNL     1      -8.375   8.882  64.409  1.00  0.00    -0.176 C  
HETATM    2  C   UNL     1      -9.165   9.323  65.642  1.00  0.00    -0.231 C  
HETATM    3  C   UNL     1      -8.252  10.118  66.579  1.00  0.00    -0.124 C  
ENDROOT
BRANCH   2   4
HETATM    4  N   UNL     1     -10.313  10.117  65.191  1.00  0.00    -0.171 NA 
HETATM    5  H   UNL     1     -10.714  10.648  65.965  1.00  0.00     0.000 HD 
BRANCH   4   6
HETATM    6  C   UNL     1      -9.997  10.997  64.061  1.00  0.00    -0.335 C  
BRANCH   6   7
HETATM    7  C   UNL     1     -11.164  11.965  63.779  1.00  0.00    -0.440 C  
HETATM    8  O   UNL     1     -12.128  11.323  62.932  1.00  0.00    -0.879 OA 
HETATM    9  H   UNL     1     -12.847  11.919  62.758  1.00  0.00     0.000 HD 
BRANCH   7  10
HETATM   10  C   UNL     1     -11.831  12.401  65.090  1.00  0.00    -0.388 C  
BRANCH  10  11
HETATM   11  O   UNL     1     -10.845  13.068  65.897  1.00  0.00    -0.270 OA 
BRANCH  11  12
HETATM   12  C   UNL     1     -11.216  13.354  67.183  1.00  0.00    -0.302 A  
HETATM   13  C   UNL     1     -11.246  14.711  67.561  1.00  0.00    -0.343 A  
HETATM   14  C   UNL     1     -11.632  15.048  68.880  1.00  0.00    -0.349 A  
HETATM   15  C   UNL     1     -10.840  15.783  66.579  1.00  0.00    -0.230 C  
HETATM   16  C   UNL     1     -11.716  16.482  69.347  1.00  0.00     0.211 C  
HETATM   17  C   UNL     1     -11.929  14.016  69.806  1.00  0.00    -0.334 A  
HETATM   18  C   UNL     1     -11.804  12.667  69.458  1.00  0.00    -0.376 A  
HETATM   19  C   UNL     1     -11.973  11.522  70.413  1.00  0.00    -0.459 C  
HETATM   20  C   UNL     1     -11.484  12.359  68.130  1.00  0.00    -0.370 A  
BRANCH  17  21
HETATM   21  O   UNL     1     -12.192  14.464  71.133  1.00  0.00    -0.317 OA 
BRANCH  21  22
HETATM   22  C   UNL     1     -13.443  14.543  71.747  1.00  0.00    -0.375 C  
HETATM   23  C   UNL     1     -13.504  15.817  72.545  1.00  0.00    -0.584 C  
HETATM   24  O   UNL     1     -14.373  13.760  71.626  1.00  0.00    -0.203 OA 
ENDBRANCH  21  22
ENDBRANCH  17  21
ENDBRANCH  11  12
ENDBRANCH  10  11
ENDBRANCH   7  10
ENDBRANCH   6   7
ENDBRANCH   4   6
ENDBRANCH   2   4
TORSDOF 8
ENDMDL
MODEL       72
REMARK 921   NORMALIZED FREE ENERGY PREDICTED BY IDOCK:   -4.68 KCAL/MOL
REMARK 922        TOTAL FREE ENERGY PREDICTED BY IDOCK:   -8.10 KCAL/MOL
REMARK 923 INTER-LIGAND FREE ENERGY PREDICTED BY IDOCK:   -7.54 KCAL/MOL
REMARK 924 INTRA-LIGAND FREE ENERGY PREDICTED BY IDOCK:   -0.56 KCAL/MOL
REMARK 927      BINDING AFFINITY PREDICTED BY RF-SCORE:    0.00 PKD
ROOT
HETATM    1  C   UNL     1      -6.362  20.552  67.979  1.00  0.00    -0.336 C  
HETATM    2  C   UNL     1      -7.210  19.282  68.056  1.00  0.00    -0.258 C  
HETATM    3  C   UNL     1      -6.641  18.350  69.129  1.00  0.00    -0.280 C  
ENDROOT
BRANCH   2   4
HETATM    4  N   UNL     1      -8.594  19.671  68.347  1.00  0.00    -0.338 NA 
HETATM    5  H   UNL     1      -8.621  20.486  68.960  1.00  0.00     0.000 HD 
BRANCH   4   6
HETATM    6  C   UNL     1      -9.395  19.898  67.139  1.00  0.00    -0.364 C  
BRANCH   6   7
HETATM    7  C   UNL     1     -10.587  18.922  67.083  1.00  0.00    -0.458 C  
HETATM    8  O   UNL     1     -10.945  18.678  65.715  1.00  0.00    -0.196 OA 
HETATM    9  H   UNL     1     -11.680  18.076  65.680  1.00  0.00     0.000 HD 
BRANCH   7  10
HETATM   10  C   UNL     1     -10.233  17.598  67.773  1.00  0.00    -0.354 C  
BRANCH  10  11
HETATM   11  O   UNL     1     -10.438  16.529  66.832  1.00  0.00    -0.303 OA 
BRANCH  11  12
HETATM   12  C   UNL     1     -10.841  15.334  67.362  1.00  0.00    -0.304 A  
HETATM   13  C   UNL     1     -10.863  14.219  66.501  1.00  0.00    -0.304 A  
HETATM   14  C   UNL     1     -11.266  12.963  67.013  1.00  0.00    -0.329 A  
HETATM   15  C   UNL     1     -10.491  14.375  65.047  1.00  0.00    -0.454 C  
HETATM   16  C   UNL     1     -11.286  11.719  66.157  1.00  0.00    -0.342 C  
HETATM   17  C   UNL     1     -11.690  12.863  68.362  1.00  0.00    -0.345 A  
HETATM   18  C   UNL     1     -11.762  13.989  69.189  1.00  0.00    -0.375 A  
HETATM   19  C   UNL     1     -12.318  13.988  70.582  1.00  0.00    -0.446 C  
HETATM   20  C   UNL     1     -11.296  15.207  68.680  1.00  0.00    -0.322 A  
BRANCH  17  21
HETATM   21  O   UNL     1     -12.183  11.580  68.738  1.00  0.00    -0.457 OA 
BRANCH  21  22
HETATM   22  C   UNL     1     -11.600  10.704  69.655  1.00  0.00    -0.296 C  
HETATM   23  C   UNL     1     -12.555  10.502  70.799  1.00  0.00    -0.474 C  
HETATM   24  O   UNL     1     -10.525  10.133  69.545  1.00  0.00    -0.209 OA 
ENDBRANCH  21  22
ENDBRANCH  17  21
ENDBRANCH  11  12
ENDBRANCH  10  11
ENDBRANCH   7  10
ENDBRANCH   6   7
ENDBRANCH   4   6
ENDBRANCH   2   4
TORSDOF 8
ENDMDL
MODEL       73
REMARK 921   NORMALIZED FREE ENERGY PREDICTED BY IDOCK:   -4.67 KCAL/MOL
REMARK 922        TOTAL FREE ENERGY PREDICTED BY IDOCK:   -8.08 KCAL/MOL
REMARK 923 INTER-LIGAND FREE ENERGY PREDICTED BY IDOCK:   -7.35 KCAL/MOL
REMARK 924 INTRA-LIGAND FREE ENERGY PREDICTED BY IDOCK:   -0.74 KCAL/MOL
REMARK 927      BINDING AFFINITY PREDICTED BY RF-SCORE:    0.00 PKD
ROOT
HETATM    1  C   UNL     1      -8.932  17.381  68.058  1.00  0.00    -0.255 C  
HETATM    2  C   UNL     1     -10.332  17.177  67.477  1.00  0.00    -0.341 C  
HETATM    3  C   UNL     1     -10.221  16.682  66.033  1.00  0.00    -0.366 C  
ENDROOT
BRANCH   2   4
HETATM    4  N   UNL     1     -11.047  16.222  68.331  1.00  0.00    -0.355 NA 
HETATM    5  H   UNL     1     -11.915  16.627  68.682  1.00  0.00     0.000 HD 
BRANCH   4   6
HETATM    6  C   UNL     1     -11.300  14.936  67.671  1.00  0.00    -0.337 C  
BRANCH   6   7
HETATM    7  C   UNL     1     -10.803  13.767  68.544  1.00  0.00    -0.263 C  
HETATM    8  O   UNL     1      -9.983  14.273  69.605  1.00  0.00    -0.397 OA 
HETATM    9  H   UNL     1      -9.676  13.553  70.144  1.00  0.00     0.000 HD 
BRANCH   7  10
HETATM   10  C   UNL     1     -11.990  12.988  69.128  1.00  0.00    -0.271 C  
BRANCH  10  11
HETATM   11  O   UNL     1     -11.828  11.599  68.792  1.00  0.00    -0.309 OA 
BRANCH  11  12
HETATM   12  C   UNL     1     -11.645  10.745  69.845  1.00  0.00    -0.331 A  
HETATM   13  C   UNL     1     -10.370  10.166  69.994  1.00  0.00    -0.301 A  
HETATM   14  C   UNL     1     -10.139   9.283  71.075  1.00  0.00    -0.373 A  
HETATM   15  C   UNL     1      -9.279  10.462  68.994  1.00  0.00    -0.194 C  
HETATM   16  C   UNL     1      -8.789   8.648  71.316  1.00  0.00    -0.263 C  
HETATM   17  C   UNL     1     -11.205   8.958  71.951  1.00  0.00    -0.377 A  
HETATM   18  C   UNL     1     -12.496   9.456  71.745  1.00  0.00    -0.471 A  
HETATM   19  C   UNL     1     -13.700   9.060  72.547  1.00  0.00    -0.499 C  
HETATM   20  C   UNL     1     -12.684  10.378  70.708  1.00  0.00    -0.460 A  
BRANCH  17  21
HETATM   21  O   UNL     1     -10.891   7.972  72.932  1.00  0.00    -0.366 OA 
BRANCH  21  22
HETATM   22  C   UNL     1     -11.091   6.596  72.815  1.00  0.00    -0.249 C  
HETATM   23  C   UNL     1     -10.526   5.925  74.038  1.00  0.00    -0.276 C  
HETATM   24  O   UNL     1     -11.678   6.011  71.917  1.00  0.00    -0.295 OA 
ENDBRANCH  21  22
ENDBRANCH  17  21
ENDBRANCH  11  12
ENDBRANCH  10  11
ENDBRANCH   7  10
ENDBRANCH   6   7
ENDBRANCH   4   6
ENDBRANCH   2   4
TORSDOF 8
ENDMDL
MODEL       74
REMARK 921   NORMALIZED FREE ENERGY PREDICTED BY IDOCK:   -4.63 KCAL/MOL
REMARK 922        TOTAL FREE ENERGY PREDICTED BY IDOCK:   -8.03 KCAL/MOL
REMARK 923 INTER-LIGAND FREE ENERGY PREDICTED BY IDOCK:   -7.40 KCAL/MOL
REMARK 924 INTRA-LIGAND FREE ENERGY PREDICTED BY IDOCK:   -0.64 KCAL/MOL
REMARK 927      BINDING AFFINITY PREDICTED BY RF-SCORE:    0.00 PKD
ROOT
HETATM    1  C   UNL     1     -13.952  13.552  72.279  1.00  0.00    -0.638 C  
HETATM    2  C   UNL     1     -14.077  15.068  72.120  1.00  0.00    -0.529 C  
HETATM    3  C   UNL     1     -13.212  15.767  73.172  1.00  0.00    -0.694 C  
ENDROOT
BRANCH   2   4
HETATM    4  N   UNL     1     -13.672  15.420  70.755  1.00  0.00    -0.845 NA 
HETATM    5  H   UNL     1     -13.804  16.417  70.583  1.00  0.00     0.000 HD 
BRANCH   4   6
HETATM    6  C   UNL     1     -12.299  15.012  70.438  1.00  0.00    -0.348 C  
BRANCH   6   7
HETATM    7  C   UNL     1     -12.256  14.219  69.116  1.00  0.00    -0.237 C  
HETATM    8  O   UNL     1     -11.986  15.112  68.027  1.00  0.00    -0.489 OA 
HETATM    9  H   UNL     1     -11.960  14.623  67.213  1.00  0.00     0.000 HD 
BRANCH   7  10
HETATM   10  C   UNL     1     -11.177  13.129  69.177  1.00  0.00    -0.247 C  
BRANCH  10  11
HETATM   11  O   UNL     1     -11.780  11.924  69.679  1.00  0.00    -0.304 OA 
BRANCH  11  12
HETATM   12  C   UNL     1     -11.316  10.753  69.144  1.00  0.00    -0.282 A  
HETATM   13  C   UNL     1     -11.124   9.671  70.024  1.00  0.00    -0.293 A  
HETATM   14  C   UNL     1     -10.652   8.441  69.508  1.00  0.00    -0.217 A  
HETATM   15  C   UNL     1     -11.389   9.836  71.501  1.00  0.00    -0.345 C  
HETATM   16  C   UNL     1     -10.451   7.229  70.386  1.00  0.00    -0.232 C  
HETATM   17  C   UNL     1     -10.333   8.338  68.131  1.00  0.00    -0.202 A  
HETATM   18  C   UNL     1     -10.430   9.442  67.276  1.00  0.00    -0.332 A  
HETATM   19  C   UNL     1      -9.991   9.449  65.841  1.00  0.00    -0.327 C  
HETATM   20  C   UNL     1     -10.961  10.629  67.795  1.00  0.00    -0.364 A  
BRANCH  17  21
HETATM   21  O   UNL     1      -9.758   7.093  67.743  1.00  0.00    -0.134 OA 
BRANCH  21  22
HETATM   22  C   UNL     1      -8.401   6.834  67.545  1.00  0.00    -0.122 C  
HETATM   23  C   UNL     1      -8.201   6.395  66.120  1.00  0.00    -0.122 C  
HETATM   24  O   UNL     1      -7.496   6.989  68.352  1.00  0.00    -0.097 OA 
ENDBRANCH  21  22
ENDBRANCH  17  21
ENDBRANCH  11  12
ENDBRANCH  10  11
ENDBRANCH   7  10
ENDBRANCH   6   7
ENDBRANCH   4   6
ENDBRANCH   2   4
TORSDOF 8
ENDMDL
MODEL       75
REMARK 921   NORMALIZED FREE ENERGY PREDICTED BY IDOCK:   -4.61 KCAL/MOL
REMARK 922        TOTAL FREE ENERGY PREDICTED BY IDOCK:   -8.00 KCAL/MOL
REMARK 923 INTER-LIGAND FREE ENERGY PREDICTED BY IDOCK:   -7.41 KCAL/MOL
REMARK 924 INTRA-LIGAND FREE ENERGY PREDICTED BY IDOCK:   -0.59 KCAL/MOL
REMARK 927      BINDING AFFINITY PREDICTED BY RF-SCORE:    0.00 PKD
ROOT
HETATM    1  C   UNL     1     -10.500  19.170  66.317  1.00  0.00    -0.551 C  
HETATM    2  C   UNL     1      -9.894  18.430  67.510  1.00  0.00    -0.314 C  
HETATM    3  C   UNL     1      -9.795  19.380  68.706  1.00  0.00    -0.530 C  
ENDROOT
BRANCH   2   4
HETATM    4  N   UNL     1     -10.737  17.266  67.804  1.00  0.00    -0.361 NA 
HETATM    5  H   UNL     1     -10.527  16.496  67.169  1.00  0.00     0.000 HD 
BRANCH   4   6
HETATM    6  C   UNL     1     -10.651  16.829  69.202  1.00  0.00    -0.343 C  
BRANCH   6   7
HETATM    7  C   UNL     1     -11.229  15.410  69.368  1.00  0.00    -0.296 C  
HETATM    8  O   UNL     1     -12.649  15.487  69.553  1.00  0.00    -0.604 OA 
HETATM    9  H   UNL     1     -13.006  14.613  69.655  1.00  0.00     0.000 HD 
BRANCH   7  10
HETATM   10  C   UNL     1     -10.910  14.550  68.137  1.00  0.00    -0.240 C  
BRANCH  10  11
HETATM   11  O   UNL     1     -11.953  13.572  67.987  1.00  0.00    -0.355 OA 
BRANCH  11  12
HETATM   12  C   UNL     1     -11.632  12.292  68.349  1.00  0.00    -0.326 A  
HETATM   13  C   UNL     1     -11.150  11.436  67.340  1.00  0.00    -0.349 A  
HETATM   14  C   UNL     1     -10.800  10.107  67.676  1.00  0.00    -0.346 A  
HETATM   15  C   UNL     1     -11.042  11.925  65.916  1.00  0.00    -0.365 C  
HETATM   16  C   UNL     1     -10.250   9.141  66.653  1.00  0.00    -0.328 C  
HETATM   17  C   UNL     1     -10.990   9.650  69.004  1.00  0.00    -0.132 A  
HETATM   18  C   UNL     1     -11.560  10.470  69.983  1.00  0.00    -0.392 A  
HETATM   19  C   UNL     1     -11.912  10.022  71.371  1.00  0.00    -0.470 C  
HETATM   20  C   UNL     1     -11.838  11.800  69.643  1.00  0.00    -0.407 A  
BRANCH  17  21
HETATM   21  O   UNL     1     -10.715   8.266  69.203  1.00  0.00    -0.196 OA 
BRANCH  21  22
HETATM   22  C   UNL     1      -9.623   7.729  69.886  1.00  0.00    -0.164 C  
HETATM   23  C   UNL     1     -10.025   6.398  70.462  1.00  0.00    -0.214 C  
HETATM   24  O   UNL     1      -8.499   8.203  69.967  1.00  0.00    -0.124 OA 
ENDBRANCH  21  22
ENDBRANCH  17  21
ENDBRANCH  11  12
ENDBRANCH  10  11
ENDBRANCH   7  10
ENDBRANCH   6   7
ENDBRANCH   4   6
ENDBRANCH   2   4
TORSDOF 8
ENDMDL
MODEL       76
REMARK 921   NORMALIZED FREE ENERGY PREDICTED BY IDOCK:   -4.58 KCAL/MOL
REMARK 922        TOTAL FREE ENERGY PREDICTED BY IDOCK:   -7.96 KCAL/MOL
REMARK 923 INTER-LIGAND FREE ENERGY PREDICTED BY IDOCK:   -6.88 KCAL/MOL
REMARK 924 INTRA-LIGAND FREE ENERGY PREDICTED BY IDOCK:   -1.08 KCAL/MOL
REMARK 927      BINDING AFFINITY PREDICTED BY RF-SCORE:    0.00 PKD
ROOT
HETATM    1  C   UNL     1      -9.332  15.390  69.174  1.00  0.00    -0.246 C  
HETATM    2  C   UNL     1     -10.641  15.873  69.799  1.00  0.00    -0.322 C  
HETATM    3  C   UNL     1     -11.786  15.692  68.799  1.00  0.00    -0.382 C  
ENDROOT
BRANCH   2   4
HETATM    4  N   UNL     1     -10.867  15.114  71.034  1.00  0.00    -0.547 NA 
HETATM    5  H   UNL     1     -10.012  15.058  71.588  1.00  0.00     0.000 HD 
BRANCH   4   6
HETATM    6  C   UNL     1     -11.978  15.636  71.837  1.00  0.00    -0.447 C  
BRANCH   6   7
HETATM    7  C   UNL     1     -12.746  14.488  72.521  1.00  0.00    -0.348 C  
HETATM    8  O   UNL     1     -13.680  15.028  73.465  1.00  0.00    -0.498 OA 
HETATM    9  H   UNL     1     -14.154  14.320  73.887  1.00  0.00     0.000 HD 
BRANCH   7  10
HETATM   10  C   UNL     1     -13.488  13.640  71.479  1.00  0.00    -0.260 C  
BRANCH  10  11
HETATM   11  O   UNL     1     -13.368  12.257  71.854  1.00  0.00    -0.463 OA 
BRANCH  11  12
HETATM   12  C   UNL     1     -12.591  11.480  71.038  1.00  0.00    -0.357 A  
HETATM   13  C   UNL     1     -12.514  10.106  71.335  1.00  0.00    -0.524 A  
HETATM   14  C   UNL     1     -11.726   9.268  70.511  1.00  0.00    -0.225 A  
HETATM   15  C   UNL     1     -13.236   9.546  72.536  1.00  0.00    -0.356 C  
HETATM   16  C   UNL     1     -11.619   7.780  70.750  1.00  0.00    -0.270 C  
HETATM   17  C   UNL     1     -10.991   9.834  69.439  1.00  0.00    -0.212 A  
HETATM   18  C   UNL     1     -10.990  11.214  69.204  1.00  0.00    -0.295 A  
HETATM   19  C   UNL     1     -10.143  11.902  68.176  1.00  0.00    -0.200 C  
HETATM   20  C   UNL     1     -11.828  12.013  69.992  1.00  0.00    -0.392 A  
BRANCH  17  21
HETATM   21  O   UNL     1     -10.144   8.920  68.748  1.00  0.00    -0.188 OA 
BRANCH  21  22
HETATM   22  C   UNL     1      -8.757   8.825  68.869  1.00  0.00    -0.134 C  
HETATM   23  C   UNL     1      -8.144   9.001  67.506  1.00  0.00    -0.108 C  
HETATM   24  O   UNL     1      -8.115   8.686  69.900  1.00  0.00    -0.104 OA 
ENDBRANCH  21  22
ENDBRANCH  17  21
ENDBRANCH  11  12
ENDBRANCH  10  11
ENDBRANCH   7  10
ENDBRANCH   6   7
ENDBRANCH   4   6
ENDBRANCH   2   4
TORSDOF 8
ENDMDL
MODEL       77
REMARK 921   NORMALIZED FREE ENERGY PREDICTED BY IDOCK:   -4.55 KCAL/MOL
REMARK 922        TOTAL FREE ENERGY PREDICTED BY IDOCK:   -7.92 KCAL/MOL
REMARK 923 INTER-LIGAND FREE ENERGY PREDICTED BY IDOCK:   -7.16 KCAL/MOL
REMARK 924 INTRA-LIGAND FREE ENERGY PREDICTED BY IDOCK:   -0.75 KCAL/MOL
REMARK 927      BINDING AFFINITY PREDICTED BY RF-SCORE:    0.00 PKD
ROOT
HETATM    1  C   UNL     1      -8.619  16.785  67.173  1.00  0.00    -0.217 C  
HETATM    2  C   UNL     1     -10.117  16.904  66.889  1.00  0.00    -0.289 C  
HETATM    3  C   UNL     1     -10.363  18.058  65.914  1.00  0.00    -0.274 C  
ENDROOT
BRANCH   2   4
HETATM    4  N   UNL     1     -10.585  15.622  66.350  1.00  0.00    -0.305 NA 
HETATM    5  H   UNL     1     -11.278  15.199  66.968  1.00  0.00     0.000 HD 
BRANCH   4   6
HETATM    6  C   UNL     1     -11.100  15.726  64.980  1.00  0.00    -0.370 C  
BRANCH   6   7
HETATM    7  C   UNL     1     -12.307  14.788  64.778  1.00  0.00    -0.293 C  
HETATM    8  O   UNL     1     -12.384  14.394  63.401  1.00  0.00    -1.094 OA 
HETATM    9  H   UNL     1     -13.128  13.816  63.275  1.00  0.00     0.000 HD 
BRANCH   7  10
HETATM   10  C   UNL     1     -12.180  13.546  65.670  1.00  0.00    -0.458 C  
BRANCH  10  11
HETATM   11  O   UNL     1     -11.151  12.702  65.123  1.00  0.00    -0.283 OA 
BRANCH  11  12
HETATM   12  C   UNL     1     -10.787  11.628  65.890  1.00  0.00    -0.287 A  
HETATM   13  C   UNL     1     -10.009  10.629  65.275  1.00  0.00    -0.356 A  
HETATM   14  C   UNL     1      -9.605   9.506  66.036  1.00  0.00    -0.316 A  
HETATM   15  C   UNL     1      -9.640  10.742  63.815  1.00  0.00    -0.339 C  
HETATM   16  C   UNL     1      -8.746   8.410  65.452  1.00  0.00    -0.175 C  
HETATM   17  C   UNL     1     -10.035   9.385  67.381  1.00  0.00    -0.199 A  
HETATM   18  C   UNL     1     -10.889  10.328  67.962  1.00  0.00    -0.325 A  
HETATM   19  C   UNL     1     -11.489  10.205  69.331  1.00  0.00    -0.202 C  
HETATM   20  C   UNL     1     -11.221  11.462  67.210  1.00  0.00    -0.370 A  
BRANCH  17  21
HETATM   21  O   UNL     1      -9.668   8.162  68.016  1.00  0.00    -0.153 OA 
BRANCH  21  22
HETATM   22  C   UNL     1     -10.533   7.133  68.391  1.00  0.00    -0.197 C  
HETATM   23  C   UNL     1     -11.037   6.454  67.147  1.00  0.00    -0.422 C  
HETATM   24  O   UNL     1     -10.804   6.777  69.528  1.00  0.00    -0.238 OA 
ENDBRANCH  21  22
ENDBRANCH  17  21
ENDBRANCH  11  12
ENDBRANCH  10  11
ENDBRANCH   7  10
ENDBRANCH   6   7
ENDBRANCH   4   6
ENDBRANCH   2   4
TORSDOF 8
ENDMDL
MODEL       78
REMARK 921   NORMALIZED FREE ENERGY PREDICTED BY IDOCK:   -4.55 KCAL/MOL
REMARK 922        TOTAL FREE ENERGY PREDICTED BY IDOCK:   -7.91 KCAL/MOL
REMARK 923 INTER-LIGAND FREE ENERGY PREDICTED BY IDOCK:   -6.76 KCAL/MOL
REMARK 924 INTRA-LIGAND FREE ENERGY PREDICTED BY IDOCK:   -1.15 KCAL/MOL
REMARK 927      BINDING AFFINITY PREDICTED BY RF-SCORE:    0.00 PKD
ROOT
HETATM    1  C   UNL     1     -10.980   6.545  67.393  1.00  0.00    -0.458 C  
HETATM    2  C   UNL     1     -11.043   5.971  68.810  1.00  0.00    -0.254 C  
HETATM    3  C   UNL     1      -9.628   5.878  69.388  1.00  0.00    -0.171 C  
ENDROOT
BRANCH   2   4
HETATM    4  N   UNL     1     -11.909   6.837  69.617  1.00  0.00    -0.646 NA 
HETATM    5  H   UNL     1     -12.887   6.718  69.355  1.00  0.00     0.000 HD 
BRANCH   4   6
HETATM    6  C   UNL     1     -11.728   6.649  71.061  1.00  0.00    -0.360 C  
BRANCH   6   7
HETATM    7  C   UNL     1     -12.532   7.698  71.854  1.00  0.00    -0.308 C  
HETATM    8  O   UNL     1     -11.973   7.841  73.167  1.00  0.00    -0.644 OA 
HETATM    9  H   UNL     1     -12.469   8.487  73.656  1.00  0.00     0.000 HD 
BRANCH   7  10
HETATM   10  C   UNL     1     -12.514   9.051  71.130  1.00  0.00    -0.231 C  
BRANCH  10  11
HETATM   11  O   UNL     1     -11.160   9.333  70.734  1.00  0.00    -0.244 OA 
BRANCH  11  12
HETATM   12  C   UNL     1     -10.985  10.429  69.934  1.00  0.00    -0.305 A  
HETATM   13  C   UNL     1      -9.918  10.396  69.016  1.00  0.00    -0.224 A  
HETATM   14  C   UNL     1      -9.708  11.508  68.166  1.00  0.00    -0.192 A  
HETATM   15  C   UNL     1      -8.995   9.203  68.965  1.00  0.00    -0.143 C  
HETATM   16  C   UNL     1      -8.603  11.532  67.136  1.00  0.00    -0.155 C  
HETATM   17  C   UNL     1     -10.540  12.649  68.292  1.00  0.00    -0.237 A  
HETATM   18  C   UNL     1     -11.536  12.721  69.271  1.00  0.00    -0.372 A  
HETATM   19  C   UNL     1     -12.368  13.937  69.552  1.00  0.00    -0.275 C  
HETATM   20  C   UNL     1     -11.767  11.584  70.056  1.00  0.00    -0.414 A  
BRANCH  17  21
HETATM   21  O   UNL     1     -10.167  13.752  67.469  1.00  0.00    -0.238 OA 
BRANCH  21  22
HETATM   22  C   UNL     1     -10.834  14.194  66.325  1.00  0.00    -0.300 C  
HETATM   23  C   UNL     1     -10.730  15.693  66.260  1.00  0.00    -0.295 C  
HETATM   24  O   UNL     1     -11.367  13.502  65.470  1.00  0.00    -0.295 OA 
ENDBRANCH  21  22
ENDBRANCH  17  21
ENDBRANCH  11  12
ENDBRANCH  10  11
ENDBRANCH   7  10
ENDBRANCH   6   7
ENDBRANCH   4   6
ENDBRANCH   2   4
TORSDOF 8
ENDMDL
MODEL       79
REMARK 921   NORMALIZED FREE ENERGY PREDICTED BY IDOCK:   -4.47 KCAL/MOL
REMARK 922        TOTAL FREE ENERGY PREDICTED BY IDOCK:   -7.80 KCAL/MOL
REMARK 923 INTER-LIGAND FREE ENERGY PREDICTED BY IDOCK:   -7.14 KCAL/MOL
REMARK 924 INTRA-LIGAND FREE ENERGY PREDICTED BY IDOCK:   -0.66 KCAL/MOL
REMARK 927      BINDING AFFINITY PREDICTED BY RF-SCORE:    0.00 PKD
ROOT
HETATM    1  C   UNL     1      -9.536   6.796  70.293  1.00  0.00    -0.170 C  
HETATM    2  C   UNL     1     -10.579   7.777  70.833  1.00  0.00    -0.213 C  
HETATM    3  C   UNL     1      -9.939   8.671  71.898  1.00  0.00    -0.392 C  
ENDROOT
BRANCH   2   4
HETATM    4  N   UNL     1     -11.101   8.556  69.705  1.00  0.00    -0.438 NA 
HETATM    5  H   UNL     1     -11.500   9.438  70.027  1.00  0.00     0.000 HD 
BRANCH   4   6
HETATM    6  C   UNL     1     -10.106   8.785  68.652  1.00  0.00    -0.189 C  
BRANCH   6   7
HETATM    7  C   UNL     1     -10.724   9.567  67.476  1.00  0.00    -0.245 C  
HETATM    8  O   UNL     1     -11.809  10.375  67.953  1.00  0.00    -0.702 OA 
HETATM    9  H   UNL     1     -12.191  10.857  67.228  1.00  0.00     0.000 HD 
BRANCH   7  10
HETATM   10  C   UNL     1      -9.668  10.456  66.805  1.00  0.00    -0.181 C  
BRANCH  10  11
HETATM   11  O   UNL     1     -10.323  11.259  65.807  1.00  0.00    -0.243 OA 
BRANCH  11  12
HETATM   12  C   UNL     1     -10.123  12.610  65.899  1.00  0.00    -0.264 A  
HETATM   13  C   UNL     1     -10.873  13.435  65.039  1.00  0.00    -0.337 A  
HETATM   14  C   UNL     1     -10.700  14.837  65.108  1.00  0.00    -0.433 A  
HETATM   15  C   UNL     1     -11.822  12.824  64.036  1.00  0.00    -0.506 C  
HETATM   16  C   UNL     1     -11.491  15.786  64.238  1.00  0.00    -0.203 C  
HETATM   17  C   UNL     1      -9.741  15.379  66.001  1.00  0.00    -0.338 A  
HETATM   18  C   UNL     1      -8.927  14.554  66.785  1.00  0.00    -0.270 A  
HETATM   19  C   UNL     1      -7.807  15.042  67.654  1.00  0.00    -0.186 C  
HETATM   20  C   UNL     1      -9.162  13.174  66.746  1.00  0.00    -0.232 A  
BRANCH  17  21
HETATM   21  O   UNL     1      -9.568  16.790  65.906  1.00  0.00    -0.458 OA 
BRANCH  21  22
HETATM   22  C   UNL     1     -10.084  17.748  66.780  1.00  0.00    -0.349 C  
HETATM   23  C   UNL     1      -9.758  19.114  66.239  1.00  0.00    -0.412 C  
HETATM   24  O   UNL     1     -10.746  17.546  67.787  1.00  0.00    -0.380 OA 
ENDBRANCH  21  22
ENDBRANCH  17  21
ENDBRANCH  11  12
ENDBRANCH  10  11
ENDBRANCH   7  10
ENDBRANCH   6   7
ENDBRANCH   4   6
ENDBRANCH   2   4
TORSDOF 8
ENDMDL
MODEL       80
REMARK 921   NORMALIZED FREE ENERGY PREDICTED BY IDOCK:   -4.47 KCAL/MOL
REMARK 922        TOTAL FREE ENERGY PREDICTED BY IDOCK:   -7.80 KCAL/MOL
REMARK 923 INTER-LIGAND FREE ENERGY PREDICTED BY IDOCK:   -7.12 KCAL/MOL
REMARK 924 INTRA-LIGAND FREE ENERGY PREDICTED BY IDOCK:   -0.68 KCAL/MOL
REMARK 927      BINDING AFFINITY PREDICTED BY RF-SCORE:    0.00 PKD
ROOT
HETATM    1  C   UNL     1     -11.071   4.544  73.740  1.00  0.00    -0.330 C  
HETATM    2  C   UNL     1     -10.905   5.733  72.792  1.00  0.00    -0.255 C  
HETATM    3  C   UNL     1     -10.208   6.881  73.526  1.00  0.00    -0.345 C  
ENDROOT
BRANCH   2   4
HETATM    4  N   UNL     1     -10.138   5.284  71.624  1.00  0.00    -0.192 NA 
HETATM    5  H   UNL     1     -10.516   4.412  71.254  1.00  0.00     0.000 HD 
BRANCH   4   6
HETATM    6  C   UNL     1     -10.042   6.301  70.571  1.00  0.00    -0.189 C  
BRANCH   6   7
HETATM    7  C   UNL     1     -11.203   6.160  69.568  1.00  0.00    -0.411 C  
HETATM    8  O   UNL     1     -12.289   7.008  69.965  1.00  0.00    -0.553 OA 
HETATM    9  H   UNL     1     -13.005   6.922  69.347  1.00  0.00     0.000 HD 
BRANCH   7  10
HETATM   10  C   UNL     1     -10.742   6.532  68.153  1.00  0.00    -0.282 C  
BRANCH  10  11
HETATM   11  O   UNL     1      -9.789   7.605  68.257  1.00  0.00    -0.157 OA 
BRANCH  11  12
HETATM   12  C   UNL     1     -10.140   8.780  67.651  1.00  0.00    -0.216 A  
HETATM   13  C   UNL     1      -9.651   9.010  66.351  1.00  0.00    -0.309 A  
HETATM   14  C   UNL     1      -9.998  10.211  65.688  1.00  0.00    -0.348 A  
HETATM   15  C   UNL     1      -8.742   8.001  65.692  1.00  0.00    -0.156 C  
HETATM   16  C   UNL     1      -9.535  10.512  64.282  1.00  0.00    -0.337 C  
HETATM   17  C   UNL     1     -10.785  11.178  66.363  1.00  0.00    -0.247 A  
HETATM   18  C   UNL     1     -11.189  10.993  67.689  1.00  0.00    -0.373 A  
HETATM   19  C   UNL     1     -11.910  12.019  68.512  1.00  0.00    -0.369 C  
HETATM   20  C   UNL     1     -10.888   9.769  68.301  1.00  0.00    -0.256 A  
BRANCH  17  21
HETATM   21  O   UNL     1     -10.977  12.395  65.647  1.00  0.00    -0.270 OA 
BRANCH  21  22
HETATM   22  C   UNL     1     -12.153  12.811  65.021  1.00  0.00    -0.441 C  
HETATM   23  C   UNL     1     -11.966  14.224  64.540  1.00  0.00    -0.478 C  
HETATM   24  O   UNL     1     -13.159  12.144  64.826  1.00  0.00    -0.602 OA 
ENDBRANCH  21  22
ENDBRANCH  17  21
ENDBRANCH  11  12
ENDBRANCH  10  11
ENDBRANCH   7  10
ENDBRANCH   6   7
ENDBRANCH   4   6
ENDBRANCH   2   4
TORSDOF 8
ENDMDL
MODEL       81
REMARK 921   NORMALIZED FREE ENERGY PREDICTED BY IDOCK:   -4.47 KCAL/MOL
REMARK 922        TOTAL FREE ENERGY PREDICTED BY IDOCK:   -7.80 KCAL/MOL
REMARK 923 INTER-LIGAND FREE ENERGY PREDICTED BY IDOCK:   -7.16 KCAL/MOL
REMARK 924 INTRA-LIGAND FREE ENERGY PREDICTED BY IDOCK:   -0.64 KCAL/MOL
REMARK 927      BINDING AFFINITY PREDICTED BY RF-SCORE:    0.00 PKD
ROOT
HETATM    1  C   UNL     1      -7.030  14.816  67.827  1.00  0.00    -0.192 C  
HETATM    2  C   UNL     1      -7.907  15.869  67.148  1.00  0.00    -0.214 C  
HETATM    3  C   UNL     1      -7.020  16.884  66.421  1.00  0.00    -0.219 C  
ENDROOT
BRANCH   2   4
HETATM    4  N   UNL     1      -8.819  15.181  66.228  1.00  0.00    -0.459 NA 
HETATM    5  H   UNL     1      -8.357  14.388  65.783  1.00  0.00     0.000 HD 
BRANCH   4   6
HETATM    6  C   UNL     1     -10.075  14.766  66.863  1.00  0.00    -0.246 C  
BRANCH   6   7
HETATM    7  C   UNL     1     -10.963  13.994  65.867  1.00  0.00    -0.286 C  
HETATM    8  O   UNL     1     -10.148  13.123  65.071  1.00  0.00    -0.434 OA 
HETATM    9  H   UNL     1     -10.695  12.647  64.457  1.00  0.00     0.000 HD 
BRANCH   7  10
HETATM   10  C   UNL     1     -12.025  13.177  66.614  1.00  0.00    -0.389 C  
BRANCH  10  11
HETATM   11  O   UNL     1     -11.567  11.816  66.703  1.00  0.00    -0.490 OA 
BRANCH  11  12
HETATM   12  C   UNL     1     -11.425  11.313  67.967  1.00  0.00    -0.298 A  
HETATM   13  C   UNL     1     -10.587  10.193  68.127  1.00  0.00    -0.262 A  
HETATM   14  C   UNL     1     -10.408   9.647  69.421  1.00  0.00    -0.226 A  
HETATM   15  C   UNL     1      -9.918   9.566  66.928  1.00  0.00    -0.278 C  
HETATM   16  C   UNL     1      -9.502   8.465  69.673  1.00  0.00    -0.166 C  
HETATM   17  C   UNL     1     -11.114  10.205  70.517  1.00  0.00    -0.327 A  
HETATM   18  C   UNL     1     -12.021  11.255  70.341  1.00  0.00    -0.471 A  
HETATM   19  C   UNL     1     -12.898  11.812  71.423  1.00  0.00    -0.440 C  
HETATM   20  C   UNL     1     -12.132  11.819  69.065  1.00  0.00    -0.276 A  
BRANCH  17  21
HETATM   21  O   UNL     1     -10.949   9.507  71.748  1.00  0.00    -0.333 OA 
BRANCH  21  22
HETATM   22  C   UNL     1     -11.820   8.557  72.284  1.00  0.00    -0.383 C  
HETATM   23  C   UNL     1     -11.005   7.463  72.917  1.00  0.00    -0.408 C  
HETATM   24  O   UNL     1     -13.041   8.609  72.308  1.00  0.00    -0.361 OA 
ENDBRANCH  21  22
ENDBRANCH  17  21
ENDBRANCH  11  12
ENDBRANCH  10  11
ENDBRANCH   7  10
ENDBRANCH   6   7
ENDBRANCH   4   6
ENDBRANCH   2   4
TORSDOF 8
ENDMDL
MODEL       82
REMARK 921   NORMALIZED FREE ENERGY PREDICTED BY IDOCK:   -4.47 KCAL/MOL
REMARK 922        TOTAL FREE ENERGY PREDICTED BY IDOCK:   -7.80 KCAL/MOL
REMARK 923 INTER-LIGAND FREE ENERGY PREDICTED BY IDOCK:   -7.19 KCAL/MOL
REMARK 924 INTRA-LIGAND FREE ENERGY PREDICTED BY IDOCK:   -0.61 KCAL/MOL
REMARK 927      BINDING AFFINITY PREDICTED BY RF-SCORE:    0.00 PKD
ROOT
HETATM    1  C   UNL     1      -9.512   7.708  70.938  1.00  0.00    -0.166 C  
HETATM    2  C   UNL     1     -10.927   7.533  70.387  1.00  0.00    -0.251 C  
HETATM    3  C   UNL     1     -11.678   6.493  71.223  1.00  0.00    -0.386 C  
ENDROOT
BRANCH   2   4
HETATM    4  N   UNL     1     -11.594   8.839  70.410  1.00  0.00    -0.449 NA 
HETATM    5  H   UNL     1     -12.122   8.962  71.274  1.00  0.00     0.000 HD 
BRANCH   4   6
HETATM    6  C   UNL     1     -10.672   9.961  70.197  1.00  0.00    -0.308 C  
BRANCH   6   7
HETATM    7  C   UNL     1     -10.948  10.645  68.843  1.00  0.00    -0.249 C  
HETATM    8  O   UNL     1     -12.351  10.913  68.716  1.00  0.00    -0.783 OA 
HETATM    9  H   UNL     1     -12.522  11.334  67.882  1.00  0.00     0.000 HD 
BRANCH   7  10
HETATM   10  C   UNL     1     -10.155  11.954  68.729  1.00  0.00    -0.120 C  
BRANCH  10  11
HETATM   11  O   UNL     1     -11.091  13.039  68.606  1.00  0.00    -0.245 OA 
BRANCH  11  12
HETATM   12  C   UNL     1     -10.613  14.180  68.021  1.00  0.00    -0.239 A  
HETATM   13  C   UNL     1     -11.120  14.517  66.751  1.00  0.00    -0.325 A  
HETATM   14  C   UNL     1     -10.656  15.694  66.116  1.00  0.00    -0.325 A  
HETATM   15  C   UNL     1     -12.119  13.616  66.068  1.00  0.00    -0.480 C  
HETATM   16  C   UNL     1     -11.175  16.134  64.768  1.00  0.00    -0.313 C  
HETATM   17  C   UNL     1      -9.656  16.478  66.745  1.00  0.00    -0.254 A  
HETATM   18  C   UNL     1      -9.082  16.090  67.960  1.00  0.00    -0.189 A  
HETATM   19  C   UNL     1      -7.934  16.792  68.623  1.00  0.00    -0.246 C  
HETATM   20  C   UNL     1      -9.603  14.958  68.599  1.00  0.00    -0.222 A  
BRANCH  17  21
HETATM   21  O   UNL     1      -9.180  17.572  65.966  1.00  0.00    -0.489 OA 
BRANCH  21  22
HETATM   22  C   UNL     1      -9.154  18.913  66.352  1.00  0.00    -0.311 C  
HETATM   23  C   UNL     1     -10.564  19.440  66.350  1.00  0.00    -0.558 C  
HETATM   24  O   UNL     1      -8.178  19.560  66.701  1.00  0.00    -0.279 OA 
ENDBRANCH  21  22
ENDBRANCH  17  21
ENDBRANCH  11  12
ENDBRANCH  10  11
ENDBRANCH   7  10
ENDBRANCH   6   7
ENDBRANCH   4   6
ENDBRANCH   2   4
TORSDOF 8
ENDMDL
MODEL       83
REMARK 921   NORMALIZED FREE ENERGY PREDICTED BY IDOCK:   -4.46 KCAL/MOL
REMARK 922        TOTAL FREE ENERGY PREDICTED BY IDOCK:   -7.78 KCAL/MOL
REMARK 923 INTER-LIGAND FREE ENERGY PREDICTED BY IDOCK:   -7.26 KCAL/MOL
REMARK 924 INTRA-LIGAND FREE ENERGY PREDICTED BY IDOCK:   -0.52 KCAL/MOL
REMARK 927      BINDING AFFINITY PREDICTED BY RF-SCORE:    0.00 PKD
ROOT
HETATM    1  C   UNL     1      -8.864  17.727  67.350  1.00  0.00    -0.240 C  
HETATM    2  C   UNL     1      -9.423  18.566  68.500  1.00  0.00    -0.347 C  
HETATM    3  C   UNL     1     -10.008  19.869  67.947  1.00  0.00    -0.552 C  
ENDROOT
BRANCH   2   4
HETATM    4  N   UNL     1     -10.434  17.766  69.201  1.00  0.00    -0.414 NA 
HETATM    5  H   UNL     1     -11.330  18.252  69.223  1.00  0.00     0.000 HD 
BRANCH   4   6
HETATM    6  C   UNL     1     -10.585  16.415  68.649  1.00  0.00    -0.305 C  
BRANCH   6   7
HETATM    7  C   UNL     1     -11.211  15.467  69.691  1.00  0.00    -0.283 C  
HETATM    8  O   UNL     1     -12.620  15.716  69.783  1.00  0.00    -0.569 OA 
HETATM    9  H   UNL     1     -13.007  15.132  70.425  1.00  0.00     0.000 HD 
BRANCH   7  10
HETATM   10  C   UNL     1     -10.965  14.002  69.303  1.00  0.00    -0.206 C  
BRANCH  10  11
HETATM   11  O   UNL     1     -12.140  13.244  69.638  1.00  0.00    -0.306 OA 
BRANCH  11  12
HETATM   12  C   UNL     1     -11.942  11.914  69.896  1.00  0.00    -0.325 A  
HETATM   13  C   UNL     1     -12.629  11.359  70.993  1.00  0.00    -0.487 A  
HETATM   14  C   UNL     1     -12.456   9.986  71.288  1.00  0.00    -0.494 A  
HETATM   15  C   UNL     1     -13.510  12.228  71.857  1.00  0.00    -0.339 C  
HETATM   16  C   UNL     1     -13.183   9.315  72.430  1.00  0.00    -0.501 C  
HETATM   17  C   UNL     1     -11.559   9.212  70.510  1.00  0.00    -0.197 A  
HETATM   18  C   UNL     1     -10.802   9.787  69.483  1.00  0.00    -0.264 A  
HETATM   19  C   UNL     1      -9.742   9.069  68.703  1.00  0.00    -0.168 C  
HETATM   20  C   UNL     1     -11.039  11.131  69.168  1.00  0.00    -0.306 A  
BRANCH  17  21
HETATM   21  O   UNL     1     -11.375   7.875  70.967  1.00  0.00    -0.266 OA 
BRANCH  21  22
HETATM   22  C   UNL     1     -10.175   7.303  71.392  1.00  0.00    -0.188 C  
HETATM   23  C   UNL     1      -9.707   8.031  72.623  1.00  0.00    -0.332 C  
HETATM   24  O   UNL     1      -9.608   6.335  70.906  1.00  0.00    -0.173 OA 
ENDBRANCH  21  22
ENDBRANCH  17  21
ENDBRANCH  11  12
ENDBRANCH  10  11
ENDBRANCH   7  10
ENDBRANCH   6   7
ENDBRANCH   4   6
ENDBRANCH   2   4
TORSDOF 8
ENDMDL
MODEL       84
REMARK 921   NORMALIZED FREE ENERGY PREDICTED BY IDOCK:   -4.45 KCAL/MOL
REMARK 922        TOTAL FREE ENERGY PREDICTED BY IDOCK:   -7.77 KCAL/MOL
REMARK 923 INTER-LIGAND FREE ENERGY PREDICTED BY IDOCK:   -7.15 KCAL/MOL
REMARK 924 INTRA-LIGAND FREE ENERGY PREDICTED BY IDOCK:   -0.62 KCAL/MOL
REMARK 927      BINDING AFFINITY PREDICTED BY RF-SCORE:    0.00 PKD
ROOT
HETATM    1  C   UNL     1      -8.502  20.336  67.305  1.00  0.00    -0.415 C  
HETATM    2  C   UNL     1     -10.031  20.297  67.266  1.00  0.00    -0.440 C  
HETATM    3  C   UNL     1     -10.496  19.811  65.891  1.00  0.00    -0.587 C  
ENDROOT
BRANCH   2   4
HETATM    4  N   UNL     1     -10.495  19.417  68.344  1.00  0.00    -0.461 NA 
HETATM    5  H   UNL     1     -11.256  19.852  68.865  1.00  0.00     0.000 HD 
BRANCH   4   6
HETATM    6  C   UNL     1     -10.879  18.082  67.873  1.00  0.00    -0.209 C  
BRANCH   6   7
HETATM    7  C   UNL     1      -9.878  17.019  68.368  1.00  0.00    -0.283 C  
HETATM    8  O   UNL     1     -10.382  16.400  69.559  1.00  0.00    -0.280 OA 
HETATM    9  H   UNL     1      -9.765  15.745  69.865  1.00  0.00     0.000 HD 
BRANCH   7  10
HETATM   10  C   UNL     1      -9.643  15.955  67.287  1.00  0.00    -0.217 C  
BRANCH  10  11
HETATM   11  O   UNL     1     -10.901  15.319  67.000  1.00  0.00    -0.312 OA 
BRANCH  11  12
HETATM   12  C   UNL     1     -10.927  13.957  67.130  1.00  0.00    -0.291 A  
HETATM   13  C   UNL     1     -10.714  13.191  65.968  1.00  0.00    -0.288 A  
HETATM   14  C   UNL     1     -10.726  11.779  66.063  1.00  0.00    -0.324 A  
HETATM   15  C   UNL     1     -10.508  13.872  64.637  1.00  0.00    -0.419 C  
HETATM   16  C   UNL     1     -10.475  10.894  64.865  1.00  0.00    -0.352 C  
HETATM   17  C   UNL     1     -11.004  11.166  67.310  1.00  0.00    -0.296 A  
HETATM   18  C   UNL     1     -11.313  11.926  68.443  1.00  0.00    -0.331 A  
HETATM   19  C   UNL     1     -11.742  11.354  69.762  1.00  0.00    -0.418 C  
HETATM   20  C   UNL     1     -11.230  13.320  68.340  1.00  0.00    -0.314 A  
BRANCH  17  21
HETATM   21  O   UNL     1     -11.105   9.746  67.266  1.00  0.00    -0.177 OA 
BRANCH  21  22
HETATM   22  C   UNL     1     -10.096   8.833  67.577  1.00  0.00    -0.222 C  
HETATM   23  C   UNL     1     -10.373   7.546  66.849  1.00  0.00    -0.379 C  
HETATM   24  O   UNL     1      -9.108   9.036  68.267  1.00  0.00    -0.133 OA 
ENDBRANCH  21  22
ENDBRANCH  17  21
ENDBRANCH  11  12
ENDBRANCH  10  11
ENDBRANCH   7  10
ENDBRANCH   6   7
ENDBRANCH   4   6
ENDBRANCH   2   4
TORSDOF 8
ENDMDL
MODEL       85
REMARK 921   NORMALIZED FREE ENERGY PREDICTED BY IDOCK:   -4.44 KCAL/MOL
REMARK 922        TOTAL FREE ENERGY PREDICTED BY IDOCK:   -7.76 KCAL/MOL
REMARK 923 INTER-LIGAND FREE ENERGY PREDICTED BY IDOCK:   -7.21 KCAL/MOL
REMARK 924 INTRA-LIGAND FREE ENERGY PREDICTED BY IDOCK:   -0.55 KCAL/MOL
REMARK 927      BINDING AFFINITY PREDICTED BY RF-SCORE:    0.00 PKD
ROOT
HETATM    1  C   UNL     1     -13.146  14.613  73.030  1.00  0.00    -0.616 C  
HETATM    2  C   UNL     1     -13.532  13.739  71.835  1.00  0.00    -0.429 C  
HETATM    3  C   UNL     1     -12.534  13.960  70.695  1.00  0.00    -0.436 C  
ENDROOT
BRANCH   2   4
HETATM    4  N   UNL     1     -13.557  12.341  72.279  1.00  0.00    -0.536 NA 
HETATM    5  H   UNL     1     -14.515  12.018  72.409  1.00  0.00     0.000 HD 
BRANCH   4   6
HETATM    6  C   UNL     1     -12.818  11.440  71.387  1.00  0.00    -0.397 C  
BRANCH   6   7
HETATM    7  C   UNL     1     -12.921   9.982  71.875  1.00  0.00    -0.447 C  
HETATM    8  O   UNL     1     -13.882   9.275  71.078  1.00  0.00    -0.559 OA 
HETATM    9  H   UNL     1     -13.946   8.376  71.379  1.00  0.00     0.000 HD 
BRANCH   7  10
HETATM   10  C   UNL     1     -11.557   9.286  71.788  1.00  0.00    -0.388 C  
BRANCH  10  11
HETATM   11  O   UNL     1     -11.697   7.951  72.307  1.00  0.00    -0.313 OA 
BRANCH  11  12
HETATM   12  C   UNL     1     -11.272   6.941  71.487  1.00  0.00    -0.256 A  
HETATM   13  C   UNL     1     -10.706   5.807  72.099  1.00  0.00    -0.282 A  
HETATM   14  C   UNL     1     -10.261   4.737  71.286  1.00  0.00    -0.229 A  
HETATM   15  C   UNL     1     -10.549   5.750  73.599  1.00  0.00    -0.302 C  
HETATM   16  C   UNL     1      -9.671   3.477  71.873  1.00  0.00    -0.234 C  
HETATM   17  C   UNL     1     -10.345   4.852  69.875  1.00  0.00    -0.150 A  
HETATM   18  C   UNL     1     -10.816   6.019  69.265  1.00  0.00    -0.428 A  
HETATM   19  C   UNL     1     -10.815   6.267  67.786  1.00  0.00    -0.424 C  
HETATM   20  C   UNL     1     -11.311   7.036  70.091  1.00  0.00    -0.321 A  
BRANCH  17  21
HETATM   21  O   UNL     1      -9.763   3.769  69.154  1.00  0.00    -0.168 OA 
BRANCH  21  22
HETATM   22  C   UNL     1      -8.551   3.792  68.462  1.00  0.00    -0.095 C  
HETATM   23  C   UNL     1      -8.817   3.449  67.021  1.00  0.00    -0.148 C  
HETATM   24  O   UNL     1      -7.455   4.096  68.907  1.00  0.00    -0.055 OA 
ENDBRANCH  21  22
ENDBRANCH  17  21
ENDBRANCH  11  12
ENDBRANCH  10  11
ENDBRANCH   7  10
ENDBRANCH   6   7
ENDBRANCH   4   6
ENDBRANCH   2   4
TORSDOF 8
ENDMDL
MODEL       86
REMARK 921   NORMALIZED FREE ENERGY PREDICTED BY IDOCK:   -4.41 KCAL/MOL
REMARK 922        TOTAL FREE ENERGY PREDICTED BY IDOCK:   -7.72 KCAL/MOL
REMARK 923 INTER-LIGAND FREE ENERGY PREDICTED BY IDOCK:   -7.16 KCAL/MOL
REMARK 924 INTRA-LIGAND FREE ENERGY PREDICTED BY IDOCK:   -0.56 KCAL/MOL
REMARK 927      BINDING AFFINITY PREDICTED BY RF-SCORE:    0.00 PKD
ROOT
HETATM    1  C   UNL     1      -9.003   4.704  64.187  1.00  0.00    -0.126 C  
HETATM    2  C   UNL     1     -10.020   3.875  64.973  1.00  0.00    -0.184 C  
HETATM    3  C   UNL     1      -9.285   2.961  65.956  1.00  0.00    -0.101 C  
ENDROOT
BRANCH   2   4
HETATM    4  N   UNL     1     -10.931   4.797  65.659  1.00  0.00    -0.875 NA 
HETATM    5  H   UNL     1     -11.817   4.339  65.875  1.00  0.00     0.000 HD 
BRANCH   4   6
HETATM    6  C   UNL     1     -10.346   5.398  66.863  1.00  0.00    -0.260 C  
BRANCH   6   7
HETATM    7  C   UNL     1     -10.985   6.770  67.156  1.00  0.00    -0.388 C  
HETATM    8  O   UNL     1     -11.762   6.692  68.358  1.00  0.00    -0.415 OA 
HETATM    9  H   UNL     1     -12.156   7.537  68.539  1.00  0.00     0.000 HD 
BRANCH   7  10
HETATM   10  C   UNL     1      -9.903   7.848  67.303  1.00  0.00    -0.195 C  
BRANCH  10  11
HETATM   11  O   UNL     1     -10.048   8.783  66.219  1.00  0.00    -0.291 OA 
BRANCH  11  12
HETATM   12  C   UNL     1     -10.575  10.003  66.546  1.00  0.00    -0.095 A  
HETATM   13  C   UNL     1     -10.648  10.970  65.526  1.00  0.00    -0.267 A  
HETATM   14  C   UNL     1     -11.194  12.242  65.822  1.00  0.00    -0.378 A  
HETATM   15  C   UNL     1     -10.119  10.661  64.146  1.00  0.00    -0.402 C  
HETATM   16  C   UNL     1     -11.331  13.319  64.772  1.00  0.00    -0.350 C  
HETATM   17  C   UNL     1     -11.607  12.532  67.147  1.00  0.00    -0.368 A  
HETATM   18  C   UNL     1     -11.444  11.605  68.181  1.00  0.00    -0.382 A  
HETATM   19  C   UNL     1     -11.734  11.881  69.627  1.00  0.00    -0.413 C  
HETATM   20  C   UNL     1     -10.962  10.332  67.851  1.00  0.00    -0.350 A  
BRANCH  17  21
HETATM   21  O   UNL     1     -12.032  13.876  67.357  1.00  0.00    -0.385 OA 
BRANCH  21  22
HETATM   22  C   UNL     1     -11.228  14.946  67.752  1.00  0.00    -0.321 C  
HETATM   23  C   UNL     1     -11.845  15.587  68.965  1.00  0.00    -0.373 C  
HETATM   24  O   UNL     1     -10.165  15.290  67.256  1.00  0.00    -0.243 OA 
ENDBRANCH  21  22
ENDBRANCH  17  21
ENDBRANCH  11  12
ENDBRANCH  10  11
ENDBRANCH   7  10
ENDBRANCH   6   7
ENDBRANCH   4   6
ENDBRANCH   2   4
TORSDOF 8
ENDMDL
MODEL       87
REMARK 921   NORMALIZED FREE ENERGY PREDICTED BY IDOCK:   -4.41 KCAL/MOL
REMARK 922        TOTAL FREE ENERGY PREDICTED BY IDOCK:   -7.71 KCAL/MOL
REMARK 923 INTER-LIGAND FREE ENERGY PREDICTED BY IDOCK:   -6.90 KCAL/MOL
REMARK 924 INTRA-LIGAND FREE ENERGY PREDICTED BY IDOCK:   -0.82 KCAL/MOL
REMARK 927      BINDING AFFINITY PREDICTED BY RF-SCORE:    0.00 PKD
ROOT
HETATM    1  C   UNL     1     -13.411  14.036  72.330  1.00  0.00    -0.639 C  
HETATM    2  C   UNL     1     -12.482  15.146  71.837  1.00  0.00    -0.348 C  
HETATM    3  C   UNL     1     -12.045  16.013  73.021  1.00  0.00    -0.628 C  
ENDROOT
BRANCH   2   4
HETATM    4  N   UNL     1     -11.339  14.522  71.163  1.00  0.00    -0.509 NA 
HETATM    5  H   UNL     1     -11.592  13.606  70.792  1.00  0.00     0.000 HD 
BRANCH   4   6
HETATM    6  C   UNL     1     -10.754  15.367  70.116  1.00  0.00    -0.308 C  
BRANCH   6   7
HETATM    7  C   UNL     1     -11.770  15.615  68.983  1.00  0.00    -0.395 C  
HETATM    8  O   UNL     1     -11.269  16.628  68.101  1.00  0.00    -0.339 OA 
HETATM    9  H   UNL     1     -11.895  16.781  67.402  1.00  0.00     0.000 HD 
BRANCH   7  10
HETATM   10  C   UNL     1     -12.029  14.321  68.199  1.00  0.00    -0.308 C  
BRANCH  10  11
HETATM   11  O   UNL     1     -10.972  14.158  67.237  1.00  0.00    -0.288 OA 
BRANCH  11  12
HETATM   12  C   UNL     1     -10.455  12.896  67.122  1.00  0.00    -0.238 A  
HETATM   13  C   UNL     1     -10.375  12.345  65.828  1.00  0.00    -0.289 A  
HETATM   14  C   UNL     1      -9.840  11.045  65.667  1.00  0.00    -0.287 A  
HETATM   15  C   UNL     1     -10.885  13.122  64.638  1.00  0.00    -0.383 C  
HETATM   16  C   UNL     1      -9.696  10.402  64.308  1.00  0.00    -0.389 C  
HETATM   17  C   UNL     1      -9.446  10.306  66.810  1.00  0.00    -0.163 A  
HETATM   18  C   UNL     1      -9.617  10.815  68.102  1.00  0.00    -0.167 A  
HETATM   19  C   UNL     1      -9.346  10.048  69.362  1.00  0.00    -0.237 C  
HETATM   20  C   UNL     1     -10.087  12.127  68.232  1.00  0.00    -0.210 A  
BRANCH  17  21
HETATM   21  O   UNL     1      -9.031   8.969  66.542  1.00  0.00    -0.134 OA 
BRANCH  21  22
HETATM   22  C   UNL     1      -9.815   7.820  66.658  1.00  0.00    -0.225 C  
HETATM   23  C   UNL     1      -8.987   6.633  66.249  1.00  0.00    -0.168 C  
HETATM   24  O   UNL     1     -10.961   7.750  67.077  1.00  0.00    -0.247 OA 
ENDBRANCH  21  22
ENDBRANCH  17  21
ENDBRANCH  11  12
ENDBRANCH  10  11
ENDBRANCH   7  10
ENDBRANCH   6   7
ENDBRANCH   4   6
ENDBRANCH   2   4
TORSDOF 8
ENDMDL
MODEL       88
REMARK 921   NORMALIZED FREE ENERGY PREDICTED BY IDOCK:   -4.40 KCAL/MOL
REMARK 922        TOTAL FREE ENERGY PREDICTED BY IDOCK:   -7.70 KCAL/MOL
REMARK 923 INTER-LIGAND FREE ENERGY PREDICTED BY IDOCK:   -7.01 KCAL/MOL
REMARK 924 INTRA-LIGAND FREE ENERGY PREDICTED BY IDOCK:   -0.69 KCAL/MOL
REMARK 927      BINDING AFFINITY PREDICTED BY RF-SCORE:    0.00 PKD
ROOT
HETATM    1  C   UNL     1      -8.082   5.592  66.549  1.00  0.00    -0.105 C  
HETATM    2  C   UNL     1      -9.381   5.010  65.988  1.00  0.00    -0.157 C  
HETATM    3  C   UNL     1      -9.122   3.597  65.458  1.00  0.00    -0.148 C  
ENDROOT
BRANCH   2   4
HETATM    4  N   UNL     1     -10.386   5.019  67.056  1.00  0.00    -0.211 NA 
HETATM    5  H   UNL     1     -10.001   4.638  67.920  1.00  0.00     0.000 HD 
BRANCH   4   6
HETATM    6  C   UNL     1     -10.974   6.343  67.284  1.00  0.00    -0.392 C  
BRANCH   6   7
HETATM    7  C   UNL     1     -10.994   6.681  68.788  1.00  0.00    -0.260 C  
HETATM    8  O   UNL     1     -10.590   5.532  69.544  1.00  0.00    -0.290 OA 
HETATM    9  H   UNL     1     -10.602   5.740  70.472  1.00  0.00     0.000 HD 
BRANCH   7  10
HETATM   10  C   UNL     1     -10.057   7.859  69.088  1.00  0.00    -0.197 C  
BRANCH  10  11
HETATM   11  O   UNL     1     -10.863   9.001  69.429  1.00  0.00    -0.217 OA 
BRANCH  11  12
HETATM   12  C   UNL     1     -10.890  10.012  68.508  1.00  0.00    -0.231 A  
HETATM   13  C   UNL     1     -11.444  11.242  68.913  1.00  0.00    -0.363 A  
HETATM   14  C   UNL     1     -11.484  12.315  67.992  1.00  0.00    -0.378 A  
HETATM   15  C   UNL     1     -12.016  11.397  70.301  1.00  0.00    -0.460 C  
HETATM   16  C   UNL     1     -12.036  13.671  68.365  1.00  0.00    -0.391 C  
HETATM   17  C   UNL     1     -11.015  12.116  66.669  1.00  0.00    -0.282 A  
HETATM   18  C   UNL     1     -10.556  10.867  66.238  1.00  0.00    -0.276 A  
HETATM   19  C   UNL     1     -10.167  10.543  64.826  1.00  0.00    -0.373 C  
HETATM   20  C   UNL     1     -10.466   9.839  67.185  1.00  0.00    -0.316 A  
BRANCH  17  21
HETATM   21  O   UNL     1     -11.209  13.225  65.795  1.00  0.00    -0.292 OA 
BRANCH  21  22
HETATM   22  C   UNL     1     -12.284  13.417  64.926  1.00  0.00    -0.408 C  
HETATM   23  C   UNL     1     -12.180  14.795  64.332  1.00  0.00    -0.447 C  
HETATM   24  O   UNL     1     -13.145  12.601  64.629  1.00  0.00    -0.821 OA 
ENDBRANCH  21  22
ENDBRANCH  17  21
ENDBRANCH  11  12
ENDBRANCH  10  11
ENDBRANCH   7  10
ENDBRANCH   6   7
ENDBRANCH   4   6
ENDBRANCH   2   4
TORSDOF 8
ENDMDL
MODEL       89
REMARK 921   NORMALIZED FREE ENERGY PREDICTED BY IDOCK:   -4.40 KCAL/MOL
REMARK 922        TOTAL FREE ENERGY PREDICTED BY IDOCK:   -7.69 KCAL/MOL
REMARK 923 INTER-LIGAND FREE ENERGY PREDICTED BY IDOCK:   -6.59 KCAL/MOL
REMARK 924 INTRA-LIGAND FREE ENERGY PREDICTED BY IDOCK:   -1.10 KCAL/MOL
REMARK 927      BINDING AFFINITY PREDICTED BY RF-SCORE:    0.00 PKD
ROOT
HETATM    1  C   UNL     1     -10.084   7.810  67.009  1.00  0.00    -0.343 C  
HETATM    2  C   UNL     1     -11.105   6.698  67.250  1.00  0.00    -0.345 C  
HETATM    3  C   UNL     1     -10.705   5.453  66.454  1.00  0.00    -0.284 C  
ENDROOT
BRANCH   2   4
HETATM    4  N   UNL     1     -11.162   6.431  68.692  1.00  0.00    -0.539 NA 
HETATM    5  H   UNL     1     -12.109   6.184  68.978  1.00  0.00     0.000 HD 
BRANCH   4   6
HETATM    6  C   UNL     1     -10.200   5.413  69.128  1.00  0.00    -0.232 C  
BRANCH   6   7
HETATM    7  C   UNL     1      -9.847   5.598  70.617  1.00  0.00    -0.187 C  
HETATM    8  O   UNL     1      -9.513   4.329  71.194  1.00  0.00    -0.139 OA 
HETATM    9  H   UNL     1      -9.295   4.442  72.112  1.00  0.00     0.000 HD 
BRANCH   7  10
HETATM   10  C   UNL     1      -8.668   6.569  70.775  1.00  0.00    -0.143 C  
BRANCH  10  11
HETATM   11  O   UNL     1      -9.041   7.580  71.728  1.00  0.00    -0.125 OA 
BRANCH  11  12
HETATM   12  C   UNL     1      -9.773   8.627  71.235  1.00  0.00    -0.237 A  
HETATM   13  C   UNL     1     -11.089   8.777  71.711  1.00  0.00    -0.417 A  
HETATM   14  C   UNL     1     -11.876   9.851  71.231  1.00  0.00    -0.479 A  
HETATM   15  C   UNL     1     -11.660   7.784  72.694  1.00  0.00    -0.398 C  
HETATM   16  C   UNL     1     -13.285  10.092  71.718  1.00  0.00    -0.540 C  
HETATM   17  C   UNL     1     -11.343  10.720  70.246  1.00  0.00    -0.290 A  
HETATM   18  C   UNL     1     -10.071  10.512  69.701  1.00  0.00    -0.177 A  
HETATM   19  C   UNL     1      -9.489  11.306  68.569  1.00  0.00    -0.191 C  
HETATM   20  C   UNL     1      -9.288   9.483  70.239  1.00  0.00    -0.305 A  
BRANCH  17  21
HETATM   21  O   UNL     1     -12.259  11.693  69.751  1.00  0.00    -0.275 OA 
BRANCH  21  22
HETATM   22  C   UNL     1     -12.327  13.034  70.131  1.00  0.00    -0.200 C  
HETATM   23  C   UNL     1     -12.028  13.888  68.928  1.00  0.00    -0.393 C  
HETATM   24  O   UNL     1     -12.635  13.474  71.229  1.00  0.00    -0.353 OA 
ENDBRANCH  21  22
ENDBRANCH  17  21
ENDBRANCH  11  12
ENDBRANCH  10  11
ENDBRANCH   7  10
ENDBRANCH   6   7
ENDBRANCH   4   6
ENDBRANCH   2   4
TORSDOF 8
ENDMDL
MODEL       90
REMARK 921   NORMALIZED FREE ENERGY PREDICTED BY IDOCK:   -4.39 KCAL/MOL
REMARK 922        TOTAL FREE ENERGY PREDICTED BY IDOCK:   -7.68 KCAL/MOL
REMARK 923 INTER-LIGAND FREE ENERGY PREDICTED BY IDOCK:   -6.61 KCAL/MOL
REMARK 924 INTRA-LIGAND FREE ENERGY PREDICTED BY IDOCK:   -1.07 KCAL/MOL
REMARK 927      BINDING AFFINITY PREDICTED BY RF-SCORE:    0.00 PKD
ROOT
HETATM    1  C   UNL     1     -11.627  14.472  68.943  1.00  0.00    -0.341 C  
HETATM    2  C   UNL     1     -11.351  15.880  69.473  1.00  0.00    -0.335 C  
HETATM    3  C   UNL     1     -11.832  15.985  70.922  1.00  0.00    -0.409 C  
ENDROOT
BRANCH   2   4
HETATM    4  N   UNL     1      -9.912  16.140  69.353  1.00  0.00    -0.248 NA 
HETATM    5  H   UNL     1      -9.423  15.321  68.992  1.00  0.00     0.000 HD 
BRANCH   4   6
HETATM    6  C   UNL     1      -9.607  17.328  68.547  1.00  0.00    -0.291 C  
BRANCH   6   7
HETATM    7  C   UNL     1     -10.746  17.622  67.551  1.00  0.00    -0.290 C  
HETATM    8  O   UNL     1     -11.031  19.027  67.546  1.00  0.00    -0.443 OA 
HETATM    9  H   UNL     1     -11.733  19.208  66.932  1.00  0.00     0.000 HD 
BRANCH   7  10
HETATM   10  C   UNL     1     -10.360  17.162  66.139  1.00  0.00    -0.322 C  
BRANCH  10  11
HETATM   11  O   UNL     1      -9.273  16.226  66.251  1.00  0.00    -0.276 OA 
BRANCH  11  12
HETATM   12  C   UNL     1      -9.577  14.920  65.978  1.00  0.00    -0.313 A  
HETATM   13  C   UNL     1      -8.822  13.929  66.636  1.00  0.00    -0.105 A  
HETATM   14  C   UNL     1      -9.111  12.566  66.385  1.00  0.00    -0.129 A  
HETATM   15  C   UNL     1      -7.702  14.321  67.568  1.00  0.00    -0.208 C  
HETATM   16  C   UNL     1      -8.363  11.450  67.076  1.00  0.00    -0.161 C  
HETATM   17  C   UNL     1     -10.113  12.227  65.442  1.00  0.00    -0.269 A  
HETATM   18  C   UNL     1     -10.794  13.211  64.716  1.00  0.00    -0.368 A  
HETATM   19  C   UNL     1     -11.771  12.931  63.613  1.00  0.00    -0.572 C  
HETATM   20  C   UNL     1     -10.537  14.551  65.029  1.00  0.00    -0.458 A  
BRANCH  17  21
HETATM   21  O   UNL     1     -10.239  10.832  65.182  1.00  0.00    -0.280 OA 
BRANCH  21  22
HETATM   22  C   UNL     1      -9.569  10.109  64.194  1.00  0.00    -0.272 C  
HETATM   23  C   UNL     1      -8.784   9.009  64.854  1.00  0.00    -0.200 C  
HETATM   24  O   UNL     1      -9.638  10.277  62.985  1.00  0.00    -0.315 OA 
ENDBRANCH  21  22
ENDBRANCH  17  21
ENDBRANCH  11  12
ENDBRANCH  10  11
ENDBRANCH   7  10
ENDBRANCH   6   7
ENDBRANCH   4   6
ENDBRANCH   2   4
TORSDOF 8
ENDMDL
MODEL       91
REMARK 921   NORMALIZED FREE ENERGY PREDICTED BY IDOCK:   -4.38 KCAL/MOL
REMARK 922        TOTAL FREE ENERGY PREDICTED BY IDOCK:   -7.67 KCAL/MOL
REMARK 923 INTER-LIGAND FREE ENERGY PREDICTED BY IDOCK:   -7.10 KCAL/MOL
REMARK 924 INTRA-LIGAND FREE ENERGY PREDICTED BY IDOCK:   -0.57 KCAL/MOL
REMARK 927      BINDING AFFINITY PREDICTED BY RF-SCORE:    0.00 PKD
ROOT
HETATM    1  C   UNL     1      -6.373  20.589  68.350  1.00  0.00    -0.351 C  
HETATM    2  C   UNL     1      -7.224  19.347  68.078  1.00  0.00    -0.273 C  
HETATM    3  C   UNL     1      -6.874  18.254  69.091  1.00  0.00    -0.247 C  
ENDROOT
BRANCH   2   4
HETATM    4  N   UNL     1      -8.637  19.734  68.156  1.00  0.00    -0.312 NA 
HETATM    5  H   UNL     1      -8.757  20.552  68.753  1.00  0.00     0.000 HD 
BRANCH   4   6
HETATM    6  C   UNL     1      -9.249  19.951  66.841  1.00  0.00    -0.370 C  
BRANCH   6   7
HETATM    7  C   UNL     1     -10.258  18.832  66.516  1.00  0.00    -0.413 C  
HETATM    8  O   UNL     1     -10.935  19.136  65.289  1.00  0.00    -0.512 OA 
HETATM    9  H   UNL     1     -11.558  18.447  65.088  1.00  0.00     0.000 HD 
BRANCH   7  10
HETATM   10  C   UNL     1      -9.544  17.479  66.396  1.00  0.00    -0.269 C  
BRANCH  10  11
HETATM   11  O   UNL     1     -10.207  16.707  65.380  1.00  0.00    -0.585 OA 
BRANCH  11  12
HETATM   12  C   UNL     1     -10.251  15.355  65.587  1.00  0.00    -0.376 A  
HETATM   13  C   UNL     1     -11.314  14.645  64.997  1.00  0.00    -0.390 A  
HETATM   14  C   UNL     1     -11.390  13.244  65.182  1.00  0.00    -0.318 A  
HETATM   15  C   UNL     1     -12.372  15.376  64.207  1.00  0.00    -0.077 C  
HETATM   16  C   UNL     1     -12.484  12.412  64.556  1.00  0.00    -0.519 C  
HETATM   17  C   UNL     1     -10.429  12.594  65.997  1.00  0.00    -0.268 A  
HETATM   18  C   UNL     1      -9.431  13.314  66.663  1.00  0.00    -0.262 A  
HETATM   19  C   UNL     1      -8.461  12.721  67.641  1.00  0.00    -0.178 C  
HETATM   20  C   UNL     1      -9.337  14.689  66.412  1.00  0.00    -0.313 A  
BRANCH  17  21
HETATM   21  O   UNL     1     -10.668  11.205  66.209  1.00  0.00    -0.266 OA 
BRANCH  21  22
HETATM   22  C   UNL     1      -9.840  10.153  65.815  1.00  0.00    -0.266 C  
HETATM   23  C   UNL     1     -10.122   8.966  66.695  1.00  0.00    -0.357 C  
HETATM   24  O   UNL     1      -9.054  10.146  64.878  1.00  0.00    -0.179 OA 
ENDBRANCH  21  22
ENDBRANCH  17  21
ENDBRANCH  11  12
ENDBRANCH  10  11
ENDBRANCH   7  10
ENDBRANCH   6   7
ENDBRANCH   4   6
ENDBRANCH   2   4
TORSDOF 8
ENDMDL
MODEL       92
REMARK 921   NORMALIZED FREE ENERGY PREDICTED BY IDOCK:   -4.37 KCAL/MOL
REMARK 922        TOTAL FREE ENERGY PREDICTED BY IDOCK:   -7.65 KCAL/MOL
REMARK 923 INTER-LIGAND FREE ENERGY PREDICTED BY IDOCK:   -6.84 KCAL/MOL
REMARK 924 INTRA-LIGAND FREE ENERGY PREDICTED BY IDOCK:   -0.81 KCAL/MOL
REMARK 927      BINDING AFFINITY PREDICTED BY RF-SCORE:    0.00 PKD
ROOT
HETATM    1  C   UNL     1     -10.404   4.789  72.113  1.00  0.00    -0.256 C  
HETATM    2  C   UNL     1     -10.607   6.196  71.548  1.00  0.00    -0.239 C  
HETATM    3  C   UNL     1     -10.068   7.230  72.541  1.00  0.00    -0.224 C  
ENDROOT
BRANCH   2   4
HETATM    4  N   UNL     1      -9.923   6.273  70.253  1.00  0.00    -0.171 NA 
HETATM    5  H   UNL     1      -9.068   5.717  70.260  1.00  0.00     0.000 HD 
BRANCH   4   6
HETATM    6  C   UNL     1     -10.782   5.899  69.124  1.00  0.00    -0.324 C  
BRANCH   6   7
HETATM    7  C   UNL     1     -10.407   6.701  67.862  1.00  0.00    -0.189 C  
HETATM    8  O   UNL     1     -11.543   6.785  66.990  1.00  0.00    -0.681 OA 
HETATM    9  H   UNL     1     -11.312   7.279  66.212  1.00  0.00     0.000 HD 
BRANCH   7  10
HETATM   10  C   UNL     1      -9.936   8.112  68.241  1.00  0.00    -0.186 C  
BRANCH  10  11
HETATM   11  O   UNL     1     -11.015   8.782  68.916  1.00  0.00    -0.071 OA 
BRANCH  11  12
HETATM   12  C   UNL     1     -11.201  10.098  68.589  1.00  0.00    -0.168 A  
HETATM   13  C   UNL     1     -11.588  10.972  69.623  1.00  0.00    -0.390 A  
HETATM   14  C   UNL     1     -11.783  12.343  69.328  1.00  0.00    -0.386 A  
HETATM   15  C   UNL     1     -11.821  10.444  71.018  1.00  0.00    -0.458 C  
HETATM   16  C   UNL     1     -12.169  13.344  70.391  1.00  0.00    -0.415 C  
HETATM   17  C   UNL     1     -11.637  12.796  67.993  1.00  0.00    -0.341 A  
HETATM   18  C   UNL     1     -11.349  11.910  66.949  1.00  0.00    -0.392 A  
HETATM   19  C   UNL     1     -11.306  12.288  65.498  1.00  0.00    -0.394 C  
HETATM   20  C   UNL     1     -11.096  10.572  67.276  1.00  0.00    -0.284 A  
BRANCH  17  21
HETATM   21  O   UNL     1     -11.969  14.167  67.789  1.00  0.00    -0.366 OA 
BRANCH  21  22
HETATM   22  C   UNL     1     -11.174  15.268  68.111  1.00  0.00    -0.324 C  
HETATM   23  C   UNL     1      -9.860  15.137  67.390  1.00  0.00    -0.224 C  
HETATM   24  O   UNL     1     -11.487  16.223  68.806  1.00  0.00    -0.353 OA 
ENDBRANCH  21  22
ENDBRANCH  17  21
ENDBRANCH  11  12
ENDBRANCH  10  11
ENDBRANCH   7  10
ENDBRANCH   6   7
ENDBRANCH   4   6
ENDBRANCH   2   4
TORSDOF 8
ENDMDL
MODEL       93
REMARK 921   NORMALIZED FREE ENERGY PREDICTED BY IDOCK:   -4.37 KCAL/MOL
REMARK 922        TOTAL FREE ENERGY PREDICTED BY IDOCK:   -7.65 KCAL/MOL
REMARK 923 INTER-LIGAND FREE ENERGY PREDICTED BY IDOCK:   -6.95 KCAL/MOL
REMARK 924 INTRA-LIGAND FREE ENERGY PREDICTED BY IDOCK:   -0.70 KCAL/MOL
REMARK 927      BINDING AFFINITY PREDICTED BY RF-SCORE:    0.00 PKD
ROOT
HETATM    1  C   UNL     1     -10.651   9.814  67.295  1.00  0.00    -0.320 C  
HETATM    2  C   UNL     1     -10.869  10.985  68.254  1.00  0.00    -0.215 C  
HETATM    3  C   UNL     1      -9.606  11.848  68.305  1.00  0.00    -0.201 C  
ENDROOT
BRANCH   2   4
HETATM    4  N   UNL     1     -12.034  11.746  67.790  1.00  0.00    -0.600 NA 
HETATM    5  H   UNL     1     -12.458  12.266  68.559  1.00  0.00     0.000 HD 
BRANCH   4   6
HETATM    6  C   UNL     1     -11.731  12.634  66.662  1.00  0.00    -0.398 C  
BRANCH   6   7
HETATM    7  C   UNL     1     -12.026  14.102  67.028  1.00  0.00    -0.439 C  
HETATM    8  O   UNL     1     -12.386  14.190  68.413  1.00  0.00    -0.559 OA 
HETATM    9  H   UNL     1     -12.568  15.095  68.639  1.00  0.00     0.000 HD 
BRANCH   7  10
HETATM   10  C   UNL     1     -10.802  14.984  66.749  1.00  0.00    -0.318 C  
BRANCH  10  11
HETATM   11  O   UNL     1     -10.901  16.164  67.565  1.00  0.00    -0.323 OA 
BRANCH  11  12
HETATM   12  C   UNL     1      -9.717  16.764  67.899  1.00  0.00    -0.245 A  
HETATM   13  C   UNL     1      -9.539  18.105  67.508  1.00  0.00    -0.280 A  
HETATM   14  C   UNL     1      -8.331  18.763  67.840  1.00  0.00    -0.300 A  
HETATM   15  C   UNL     1     -10.611  18.816  66.718  1.00  0.00    -0.458 C  
HETATM   16  C   UNL     1      -8.081  20.209  67.480  1.00  0.00    -0.356 C  
HETATM   17  C   UNL     1      -7.307  18.047  68.510  1.00  0.00    -0.273 A  
HETATM   18  C   UNL     1      -7.446  16.687  68.810  1.00  0.00    -0.224 A  
HETATM   19  C   UNL     1      -6.364  15.831  69.399  1.00  0.00    -0.154 C  
HETATM   20  C   UNL     1      -8.674  16.076  68.531  1.00  0.00    -0.195 A  
BRANCH  17  21
HETATM   21  O   UNL     1      -6.093  18.771  68.691  1.00  0.00    -0.210 OA 
BRANCH  21  22
HETATM   22  C   UNL     1      -5.616  19.301  69.890  1.00  0.00    -0.233 C  
HETATM   23  C   UNL     1      -5.367  20.772  69.698  1.00  0.00    -0.409 C  
HETATM   24  O   UNL     1      -5.475  18.711  70.951  1.00  0.00    -0.243 OA 
ENDBRANCH  21  22
ENDBRANCH  17  21
ENDBRANCH  11  12
ENDBRANCH  10  11
ENDBRANCH   7  10
ENDBRANCH   6   7
ENDBRANCH   4   6
ENDBRANCH   2   4
TORSDOF 8
ENDMDL
MODEL       94
REMARK 921   NORMALIZED FREE ENERGY PREDICTED BY IDOCK:   -4.34 KCAL/MOL
REMARK 922        TOTAL FREE ENERGY PREDICTED BY IDOCK:   -7.60 KCAL/MOL
REMARK 923 INTER-LIGAND FREE ENERGY PREDICTED BY IDOCK:   -6.96 KCAL/MOL
REMARK 924 INTRA-LIGAND FREE ENERGY PREDICTED BY IDOCK:   -0.65 KCAL/MOL
REMARK 927      BINDING AFFINITY PREDICTED BY RF-SCORE:    0.00 PKD
ROOT
HETATM    1  C   UNL     1      -8.921   8.700  68.626  1.00  0.00    -0.142 C  
HETATM    2  C   UNL     1     -10.356   8.651  68.099  1.00  0.00    -0.216 C  
HETATM    3  C   UNL     1     -10.573   7.348  67.324  1.00  0.00    -0.393 C  
ENDROOT
BRANCH   2   4
HETATM    4  N   UNL     1     -11.268   8.766  69.242  1.00  0.00    -0.419 NA 
HETATM    5  H   UNL     1     -11.230   7.928  69.823  1.00  0.00     0.000 HD 
BRANCH   4   6
HETATM    6  C   UNL     1     -11.037   9.971  70.046  1.00  0.00    -0.295 C  
BRANCH   6   7
HETATM    7  C   UNL     1     -12.120  11.032  69.766  1.00  0.00    -0.353 C  
HETATM    8  O   UNL     1     -12.470  11.697  70.987  1.00  0.00    -0.379 OA 
HETATM    9  H   UNL     1     -13.138  12.350  70.815  1.00  0.00     0.000 HD 
BRANCH   7  10
HETATM   10  C   UNL     1     -11.619  12.056  68.739  1.00  0.00    -0.311 C  
BRANCH  10  11
HETATM   11  O   UNL     1     -12.106  13.354  69.122  1.00  0.00    -0.317 OA 
BRANCH  11  12
HETATM   12  C   UNL     1     -11.593  14.416  68.428  1.00  0.00    -0.319 A  
HETATM   13  C   UNL     1     -11.270  15.573  69.161  1.00  0.00    -0.300 A  
HETATM   14  C   UNL     1     -10.730  16.690  68.480  1.00  0.00    -0.351 A  
HETATM   15  C   UNL     1     -11.526  15.628  70.648  1.00  0.00    -0.400 C  
HETATM   16  C   UNL     1     -10.332  17.955  69.205  1.00  0.00    -0.113 C  
HETATM   17  C   UNL     1     -10.577  16.641  67.072  1.00  0.00    -0.247 A  
HETATM   18  C   UNL     1     -10.990  15.528  66.331  1.00  0.00    -0.238 A  
HETATM   19  C   UNL     1     -10.981  15.450  64.834  1.00  0.00    -0.453 C  
HETATM   20  C   UNL     1     -11.459  14.412  67.034  1.00  0.00    -0.376 A  
BRANCH  17  21
HETATM   21  O   UNL     1     -10.136  17.859  66.477  1.00  0.00    -0.334 OA 
BRANCH  21  22
HETATM   22  C   UNL     1      -8.819  18.197  66.162  1.00  0.00    -0.083 C  
HETATM   23  C   UNL     1      -8.673  19.692  66.254  1.00  0.00    -0.401 C  
HETATM   24  O   UNL     1      -7.901  17.429  65.913  1.00  0.00    -0.514 OA 
ENDBRANCH  21  22
ENDBRANCH  17  21
ENDBRANCH  11  12
ENDBRANCH  10  11
ENDBRANCH   7  10
ENDBRANCH   6   7
ENDBRANCH   4   6
ENDBRANCH   2   4
TORSDOF 8
ENDMDL
MODEL       95
REMARK 921   NORMALIZED FREE ENERGY PREDICTED BY IDOCK:   -4.33 KCAL/MOL
REMARK 922        TOTAL FREE ENERGY PREDICTED BY IDOCK:   -7.59 KCAL/MOL
REMARK 923 INTER-LIGAND FREE ENERGY PREDICTED BY IDOCK:   -6.81 KCAL/MOL
REMARK 924 INTRA-LIGAND FREE ENERGY PREDICTED BY IDOCK:   -0.78 KCAL/MOL
REMARK 927      BINDING AFFINITY PREDICTED BY RF-SCORE:    0.00 PKD
ROOT
HETATM    1  C   UNL     1      -9.708   4.277  69.922  1.00  0.00    -0.291 C  
HETATM    2  C   UNL     1      -9.337   5.214  71.073  1.00  0.00    -0.151 C  
HETATM    3  C   UNL     1      -7.813   5.295  71.198  1.00  0.00    -0.103 C  
ENDROOT
BRANCH   2   4
HETATM    4  N   UNL     1      -9.935   6.527  70.806  1.00  0.00    -0.184 NA 
HETATM    5  H   UNL     1      -9.411   7.025  70.087  1.00  0.00     0.000 HD 
BRANCH   4   6
HETATM    6  C   UNL     1     -11.358   6.452  70.459  1.00  0.00    -0.375 C  
BRANCH   6   7
HETATM    7  C   UNL     1     -12.228   7.038  71.589  1.00  0.00    -0.357 C  
HETATM    8  O   UNL     1     -11.684   6.658  72.860  1.00  0.00    -0.485 OA 
HETATM    9  H   UNL     1     -12.220   7.018  73.558  1.00  0.00     0.000 HD 
BRANCH   7  10
HETATM   10  C   UNL     1     -12.291   8.567  71.484  1.00  0.00    -0.314 C  
BRANCH  10  11
HETATM   11  O   UNL     1     -11.329   8.992  70.502  1.00  0.00    -0.259 OA 
BRANCH  11  12
HETATM   12  C   UNL     1     -11.550  10.218  69.938  1.00  0.00    -0.256 A  
HETATM   13  C   UNL     1     -11.206  10.378  68.582  1.00  0.00    -0.305 A  
HETATM   14  C   UNL     1     -11.426  11.629  67.959  1.00  0.00    -0.385 A  
HETATM   15  C   UNL     1     -10.582   9.236  67.816  1.00  0.00    -0.307 C  
HETATM   16  C   UNL     1     -11.110  11.865  66.501  1.00  0.00    -0.357 C  
HETATM   17  C   UNL     1     -11.937  12.708  68.723  1.00  0.00    -0.237 A  
HETATM   18  C   UNL     1     -12.186  12.578  70.094  1.00  0.00    -0.307 A  
HETATM   19  C   UNL     1     -12.602  13.702  70.995  1.00  0.00    -0.441 C  
HETATM   20  C   UNL     1     -12.022  11.313  70.672  1.00  0.00    -0.435 A  
BRANCH  17  21
HETATM   21  O   UNL     1     -12.010  13.950  68.027  1.00  0.00    -0.361 OA 
BRANCH  21  22
HETATM   22  C   UNL     1     -11.311  15.117  68.341  1.00  0.00    -0.315 C  
HETATM   23  C   UNL     1      -9.836  14.832  68.244  1.00  0.00    -0.222 C  
HETATM   24  O   UNL     1     -11.786  16.214  68.592  1.00  0.00    -0.362 OA 
ENDBRANCH  21  22
ENDBRANCH  17  21
ENDBRANCH  11  12
ENDBRANCH  10  11
ENDBRANCH   7  10
ENDBRANCH   6   7
ENDBRANCH   4   6
ENDBRANCH   2   4
TORSDOF 8
ENDMDL
MODEL       96
REMARK 921   NORMALIZED FREE ENERGY PREDICTED BY IDOCK:   -4.31 KCAL/MOL
REMARK 922        TOTAL FREE ENERGY PREDICTED BY IDOCK:   -7.57 KCAL/MOL
REMARK 923 INTER-LIGAND FREE ENERGY PREDICTED BY IDOCK:   -6.87 KCAL/MOL
REMARK 924 INTRA-LIGAND FREE ENERGY PREDICTED BY IDOCK:   -0.70 KCAL/MOL
REMARK 927      BINDING AFFINITY PREDICTED BY RF-SCORE:    0.00 PKD
ROOT
HETATM    1  C   UNL     1     -12.608  12.604  64.738  1.00  0.00    -0.530 C  
HETATM    2  C   UNL     1     -11.544  13.297  65.591  1.00  0.00    -0.335 C  
HETATM    3  C   UNL     1     -10.550  14.023  64.680  1.00  0.00    -0.416 C  
ENDROOT
BRANCH   2   4
HETATM    4  N   UNL     1     -12.221  14.220  66.507  1.00  0.00    -0.450 NA 
HETATM    5  H   UNL     1     -13.214  14.292  66.284  1.00  0.00     0.000 HD 
BRANCH   4   6
HETATM    6  C   UNL     1     -12.027  13.876  67.920  1.00  0.00    -0.358 C  
BRANCH   6   7
HETATM    7  C   UNL     1     -11.078  12.670  68.063  1.00  0.00    -0.251 C  
HETATM    8  O   UNL     1      -9.925  13.052  68.827  1.00  0.00    -0.395 OA 
HETATM    9  H   UNL     1      -9.340  12.309  68.915  1.00  0.00     0.000 HD 
BRANCH   7  10
HETATM   10  C   UNL     1     -11.793  11.499  68.750  1.00  0.00    -0.330 C  
BRANCH  10  11
HETATM   11  O   UNL     1     -11.184  11.290  70.036  1.00  0.00    -0.238 OA 
BRANCH  11  12
HETATM   12  C   UNL     1     -11.204  10.005  70.507  1.00  0.00    -0.336 A  
HETATM   13  C   UNL     1      -9.998   9.279  70.457  1.00  0.00    -0.307 A  
HETATM   14  C   UNL     1      -9.976   7.950  70.941  1.00  0.00    -0.196 A  
HETATM   15  C   UNL     1      -8.759   9.904  69.864  1.00  0.00    -0.225 C  
HETATM   16  C   UNL     1      -8.713   7.121  70.946  1.00  0.00    -0.146 C  
HETATM   17  C   UNL     1     -11.174   7.360  71.416  1.00  0.00    -0.246 A  
HETATM   18  C   UNL     1     -12.392   8.048  71.374  1.00  0.00    -0.328 A  
HETATM   19  C   UNL     1     -13.720   7.451  71.736  1.00  0.00    -0.417 C  
HETATM   20  C   UNL     1     -12.376   9.383  70.952  1.00  0.00    -0.263 A  
BRANCH  17  21
HETATM   21  O   UNL     1     -11.062   5.984  71.769  1.00  0.00    -0.259 OA 
BRANCH  21  22
HETATM   22  C   UNL     1     -11.155   5.449  73.055  1.00  0.00    -0.313 C  
HETATM   23  C   UNL     1     -10.535   6.419  74.024  1.00  0.00    -0.286 C  
HETATM   24  O   UNL     1     -11.699   4.403  73.379  1.00  0.00    -0.243 OA 
ENDBRANCH  21  22
ENDBRANCH  17  21
ENDBRANCH  11  12
ENDBRANCH  10  11
ENDBRANCH   7  10
ENDBRANCH   6   7
ENDBRANCH   4   6
ENDBRANCH   2   4
TORSDOF 8
ENDMDL
MODEL       97
REMARK 921   NORMALIZED FREE ENERGY PREDICTED BY IDOCK:   -4.31 KCAL/MOL
REMARK 922        TOTAL FREE ENERGY PREDICTED BY IDOCK:   -7.56 KCAL/MOL
REMARK 923 INTER-LIGAND FREE ENERGY PREDICTED BY IDOCK:   -6.63 KCAL/MOL
REMARK 924 INTRA-LIGAND FREE ENERGY PREDICTED BY IDOCK:   -0.94 KCAL/MOL
REMARK 927      BINDING AFFINITY PREDICTED BY RF-SCORE:    0.00 PKD
ROOT
HETATM    1  C   UNL     1     -12.215  12.137  63.496  1.00  0.00    -0.670 C  
HETATM    2  C   UNL     1     -11.370  13.281  64.056  1.00  0.00    -0.363 C  
HETATM    3  C   UNL     1     -12.285  14.428  64.495  1.00  0.00    -0.483 C  
ENDROOT
BRANCH   2   4
HETATM    4  N   UNL     1     -10.573  12.759  65.172  1.00  0.00    -0.294 NA 
HETATM    5  H   UNL     1     -10.286  13.513  65.797  1.00  0.00     0.000 HD 
BRANCH   4   6
HETATM    6  C   UNL     1     -11.251  11.692  65.915  1.00  0.00    -0.238 C  
BRANCH   6   7
HETATM    7  C   UNL     1     -11.487  12.111  67.380  1.00  0.00    -0.345 C  
HETATM    8  O   UNL     1     -12.198  11.073  68.069  1.00  0.00    -0.703 OA 
HETATM    9  H   UNL     1     -12.343  11.331  68.972  1.00  0.00     0.000 HD 
BRANCH   7  10
HETATM   10  C   UNL     1     -10.151  12.384  68.084  1.00  0.00    -0.224 C  
BRANCH  10  11
HETATM   11  O   UNL     1     -10.322  13.521  68.949  1.00  0.00    -0.198 OA 
BRANCH  11  12
HETATM   12  C   UNL     1      -9.683  14.668  68.565  1.00  0.00    -0.225 A  
HETATM   13  C   UNL     1     -10.475  15.817  68.377  1.00  0.00    -0.245 A  
HETATM   14  C   UNL     1      -9.851  17.026  67.986  1.00  0.00    -0.275 A  
HETATM   15  C   UNL     1     -11.972  15.748  68.560  1.00  0.00    -0.109 C  
HETATM   16  C   UNL     1     -10.631  18.305  67.795  1.00  0.00    -0.415 C  
HETATM   17  C   UNL     1      -8.455  17.042  67.741  1.00  0.00    -0.198 A  
HETATM   18  C   UNL     1      -7.684  15.878  67.832  1.00  0.00    -0.146 A  
HETATM   19  C   UNL     1      -6.233  15.786  67.466  1.00  0.00    -0.173 C  
HETATM   20  C   UNL     1      -8.313  14.711  68.283  1.00  0.00    -0.148 A  
BRANCH  17  21
HETATM   21  O   UNL     1      -7.952  18.279  67.242  1.00  0.00    -0.221 OA 
BRANCH  21  22
HETATM   22  C   UNL     1      -7.342  19.287  67.990  1.00  0.00    -0.262 C  
HETATM   23  C   UNL     1      -7.470  20.585  67.239  1.00  0.00    -0.384 C  
HETATM   24  O   UNL     1      -6.838  19.179  69.099  1.00  0.00    -0.309 OA 
ENDBRANCH  21  22
ENDBRANCH  17  21
ENDBRANCH  11  12
ENDBRANCH  10  11
ENDBRANCH   7  10
ENDBRANCH   6   7
ENDBRANCH   4   6
ENDBRANCH   2   4
TORSDOF 8
ENDMDL
MODEL       98
REMARK 921   NORMALIZED FREE ENERGY PREDICTED BY IDOCK:   -4.31 KCAL/MOL
REMARK 922        TOTAL FREE ENERGY PREDICTED BY IDOCK:   -7.56 KCAL/MOL
REMARK 923 INTER-LIGAND FREE ENERGY PREDICTED BY IDOCK:   -6.24 KCAL/MOL
REMARK 924 INTRA-LIGAND FREE ENERGY PREDICTED BY IDOCK:   -1.31 KCAL/MOL
REMARK 927      BINDING AFFINITY PREDICTED BY RF-SCORE:    0.00 PKD
ROOT
HETATM    1  C   UNL     1     -11.059   6.628  67.135  1.00  0.00    -0.427 C  
HETATM    2  C   UNL     1     -10.951   6.032  68.539  1.00  0.00    -0.267 C  
HETATM    3  C   UNL     1      -9.523   5.533  68.776  1.00  0.00    -0.163 C  
ENDROOT
BRANCH   2   4
HETATM    4  N   UNL     1     -11.338   7.065  69.507  1.00  0.00    -0.512 NA 
HETATM    5  H   UNL     1     -12.320   6.972  69.764  1.00  0.00     0.000 HD 
BRANCH   4   6
HETATM    6  C   UNL     1     -10.484   7.087  70.700  1.00  0.00    -0.210 C  
BRANCH   6   7
HETATM    7  C   UNL     1     -10.732   8.364  71.526  1.00  0.00    -0.247 C  
HETATM    8  O   UNL     1      -9.602   8.617  72.372  1.00  0.00    -0.288 OA 
HETATM    9  H   UNL     1      -9.754   9.404  72.882  1.00  0.00     0.000 HD 
BRANCH   7  10
HETATM   10  C   UNL     1     -10.971   9.566  70.602  1.00  0.00    -0.306 C  
BRANCH  10  11
HETATM   11  O   UNL     1      -9.821   9.716  69.751  1.00  0.00    -0.199 OA 
BRANCH  11  12
HETATM   12  C   UNL     1     -10.005  10.466  68.622  1.00  0.00    -0.177 A  
HETATM   13  C   UNL     1      -9.281  10.094  67.473  1.00  0.00    -0.150 A  
HETATM   14  C   UNL     1      -9.449  10.840  66.282  1.00  0.00    -0.213 A  
HETATM   15  C   UNL     1      -8.316   8.935  67.525  1.00  0.00    -0.109 C  
HETATM   16  C   UNL     1      -8.729  10.482  65.004  1.00  0.00    -0.193 C  
HETATM   17  C   UNL     1     -10.300  11.974  66.284  1.00  0.00    -0.221 A  
HETATM   18  C   UNL     1     -10.942  12.402  67.451  1.00  0.00    -0.296 A  
HETATM   19  C   UNL     1     -11.751  13.660  67.566  1.00  0.00    -0.406 C  
HETATM   20  C   UNL     1     -10.811  11.610  68.599  1.00  0.00    -0.253 A  
BRANCH  17  21
HETATM   21  O   UNL     1     -10.305  12.717  65.068  1.00  0.00    -0.293 OA 
BRANCH  21  22
HETATM   22  C   UNL     1     -11.423  13.031  64.294  1.00  0.00    -0.381 C  
HETATM   23  C   UNL     1     -11.954  11.763  63.684  1.00  0.00    -0.490 C  
HETATM   24  O   UNL     1     -11.945  14.129  64.166  1.00  0.00    -0.441 OA 
ENDBRANCH  21  22
ENDBRANCH  17  21
ENDBRANCH  11  12
ENDBRANCH  10  11
ENDBRANCH   7  10
ENDBRANCH   6   7
ENDBRANCH   4   6
ENDBRANCH   2   4
TORSDOF 8
ENDMDL
MODEL       99
REMARK 921   NORMALIZED FREE ENERGY PREDICTED BY IDOCK:   -4.31 KCAL/MOL
REMARK 922        TOTAL FREE ENERGY PREDICTED BY IDOCK:   -7.56 KCAL/MOL
REMARK 923 INTER-LIGAND FREE ENERGY PREDICTED BY IDOCK:   -6.54 KCAL/MOL
REMARK 924 INTRA-LIGAND FREE ENERGY PREDICTED BY IDOCK:   -1.01 KCAL/MOL
REMARK 927      BINDING AFFINITY PREDICTED BY RF-SCORE:    0.00 PKD
ROOT
HETATM    1  C   UNL     1      -7.344  10.977  68.213  1.00  0.00    -0.088 C  
HETATM    2  C   UNL     1      -7.231  11.678  66.858  1.00  0.00    -0.125 C  
HETATM    3  C   UNL     1      -6.618  10.719  65.835  1.00  0.00    -0.090 C  
ENDROOT
BRANCH   2   4
HETATM    4  N   UNL     1      -8.571  12.121  66.458  1.00  0.00    -0.366 NA 
HETATM    5  H   UNL     1      -9.262  11.389  66.627  1.00  0.00     0.000 HD 
BRANCH   4   6
HETATM    6  C   UNL     1      -8.977  13.379  67.096  1.00  0.00    -0.226 C  
BRANCH   6   7
HETATM    7  C   UNL     1     -10.065  13.126  68.159  1.00  0.00    -0.237 C  
HETATM    8  O   UNL     1     -10.084  14.212  69.096  1.00  0.00    -0.402 OA 
HETATM    9  H   UNL     1     -10.754  14.057  69.751  1.00  0.00     0.000 HD 
BRANCH   7  10
HETATM   10  C   UNL     1     -11.442  12.985  67.497  1.00  0.00    -0.328 C  
BRANCH  10  11
HETATM   11  O   UNL     1     -11.686  11.588  67.257  1.00  0.00    -0.576 OA 
BRANCH  11  12
HETATM   12  C   UNL     1     -11.530  10.759  68.334  1.00  0.00    -0.288 A  
HETATM   13  C   UNL     1     -10.762   9.594  68.146  1.00  0.00    -0.266 A  
HETATM   14  C   UNL     1     -10.570   8.713  69.238  1.00  0.00    -0.204 A  
HETATM   15  C   UNL     1     -10.180   9.276  66.790  1.00  0.00    -0.325 C  
HETATM   16  C   UNL     1      -9.735   7.461  69.119  1.00  0.00    -0.165 C  
HETATM   17  C   UNL     1     -11.197   8.994  70.478  1.00  0.00    -0.260 A  
HETATM   18  C   UNL     1     -12.040  10.099  70.636  1.00  0.00    -0.411 A  
HETATM   19  C   UNL     1     -12.838  10.392  71.872  1.00  0.00    -0.519 C  
HETATM   20  C   UNL     1     -12.161  10.989  69.562  1.00  0.00    -0.400 A  
BRANCH  17  21
HETATM   21  O   UNL     1     -11.032   7.984  71.470  1.00  0.00    -0.227 OA 
BRANCH  21  22
HETATM   22  C   UNL     1     -10.149   8.021  72.550  1.00  0.00    -0.278 C  
HETATM   23  C   UNL     1     -10.567   6.974  73.547  1.00  0.00    -0.405 C  
HETATM   24  O   UNL     1      -9.158   8.727  72.667  1.00  0.00    -0.354 OA 
ENDBRANCH  21  22
ENDBRANCH  17  21
ENDBRANCH  11  12
ENDBRANCH  10  11
ENDBRANCH   7  10
ENDBRANCH   6   7
ENDBRANCH   4   6
ENDBRANCH   2   4
TORSDOF 8
ENDMDL
MODEL      100
REMARK 921   NORMALIZED FREE ENERGY PREDICTED BY IDOCK:   -4.30 KCAL/MOL
REMARK 922        TOTAL FREE ENERGY PREDICTED BY IDOCK:   -7.55 KCAL/MOL
REMARK 923 INTER-LIGAND FREE ENERGY PREDICTED BY IDOCK:   -6.54 KCAL/MOL
REMARK 924 INTRA-LIGAND FREE ENERGY PREDICTED BY IDOCK:   -1.01 KCAL/MOL
REMARK 927      BINDING AFFINITY PREDICTED BY RF-SCORE:    0.00 PKD
ROOT
HETATM    1  C   UNL     1     -10.419  12.484  63.892  1.00  0.00    -0.464 C  
HETATM    2  C   UNL     1     -11.873  12.820  64.226  1.00  0.00    -0.396 C  
HETATM    3  C   UNL     1     -12.807  11.962  63.369  1.00  0.00    -0.393 C  
ENDROOT
BRANCH   2   4
HETATM    4  N   UNL     1     -12.080  12.591  65.660  1.00  0.00    -0.562 NA 
HETATM    5  H   UNL     1     -12.298  11.611  65.843  1.00  0.00     0.000 HD 
BRANCH   4   6
HETATM    6  C   UNL     1     -10.951  13.038  66.484  1.00  0.00    -0.285 C  
BRANCH   6   7
HETATM    7  C   UNL     1     -11.445  13.573  67.843  1.00  0.00    -0.318 C  
HETATM    8  O   UNL     1     -12.532  14.485  67.635  1.00  0.00    -0.595 OA 
HETATM    9  H   UNL     1     -12.837  14.815  68.473  1.00  0.00     0.000 HD 
BRANCH   7  10
HETATM   10  C   UNL     1     -11.899  12.417  68.744  1.00  0.00    -0.311 C  
BRANCH  10  11
HETATM   11  O   UNL     1     -11.751  11.188  68.011  1.00  0.00    -0.517 OA 
BRANCH  11  12
HETATM   12  C   UNL     1     -11.102  10.175  68.663  1.00  0.00    -0.205 A  
HETATM   13  C   UNL     1     -10.317   9.303  67.885  1.00  0.00    -0.279 A  
HETATM   14  C   UNL     1      -9.624   8.247  68.523  1.00  0.00    -0.154 A  
HETATM   15  C   UNL     1     -10.245   9.477  66.387  1.00  0.00    -0.302 C  
HETATM   16  C   UNL     1      -8.740   7.291  67.758  1.00  0.00    -0.126 C  
HETATM   17  C   UNL     1      -9.776   8.057  69.920  1.00  0.00    -0.180 A  
HETATM   18  C   UNL     1     -10.633   8.863  70.677  1.00  0.00    -0.277 A  
HETATM   19  C   UNL     1     -10.946   8.647  72.127  1.00  0.00    -0.434 C  
HETATM   20  C   UNL     1     -11.256   9.941  70.035  1.00  0.00    -0.327 A  
BRANCH  17  21
HETATM   21  O   UNL     1      -9.128   6.898  70.437  1.00  0.00    -0.155 OA 
BRANCH  21  22
HETATM   22  C   UNL     1      -7.948   6.872  71.183  1.00  0.00    -0.101 C  
HETATM   23  C   UNL     1      -7.589   5.438  71.461  1.00  0.00    -0.103 C  
HETATM   24  O   UNL     1      -7.266   7.831  71.513  1.00  0.00    -0.060 OA 
ENDBRANCH  21  22
ENDBRANCH  17  21
ENDBRANCH  11  12
ENDBRANCH  10  11
ENDBRANCH   7  10
ENDBRANCH   6   7
ENDBRANCH   4   6
ENDBRANCH   2   4
TORSDOF 8
ENDMDL
MODEL      101
REMARK 921   NORMALIZED FREE ENERGY PREDICTED BY IDOCK:   -4.30 KCAL/MOL
REMARK 922        TOTAL FREE ENERGY PREDICTED BY IDOCK:   -7.55 KCAL/MOL
REMARK 923 INTER-LIGAND FREE ENERGY PREDICTED BY IDOCK:   -6.89 KCAL/MOL
REMARK 924 INTRA-LIGAND FREE ENERGY PREDICTED BY IDOCK:   -0.66 KCAL/MOL
REMARK 927      BINDING AFFINITY PREDICTED BY RF-SCORE:    0.00 PKD
ROOT
HETATM    1  C   UNL     1      -9.410   9.362  62.399  1.00  0.00     0.065 C  
HETATM    2  C   UNL     1      -8.524  10.439  63.026  1.00  0.00    -0.180 C  
HETATM    3  C   UNL     1      -7.147  10.424  62.356  1.00  0.00    -0.159 C  
ENDROOT
BRANCH   2   4
HETATM    4  N   UNL     1      -9.195  11.734  62.868  1.00  0.00    -0.617 NA 
HETATM    5  H   UNL     1      -9.363  11.939  61.883  1.00  0.00     0.000 HD 
BRANCH   4   6
HETATM    6  C   UNL     1     -10.438  11.837  63.642  1.00  0.00    -0.439 C  
BRANCH   6   7
HETATM    7  C   UNL     1     -10.431  13.104  64.521  1.00  0.00    -0.405 C  
HETATM    8  O   UNL     1     -11.613  13.874  64.264  1.00  0.00    -0.467 OA 
HETATM    9  H   UNL     1     -11.609  14.655  64.805  1.00  0.00     0.000 HD 
BRANCH   7  10
HETATM   10  C   UNL     1     -10.365  12.729  66.007  1.00  0.00    -0.276 C  
BRANCH  10  11
HETATM   11  O   UNL     1     -11.142  11.534  66.206  1.00  0.00    -0.302 OA 
BRANCH  11  12
HETATM   12  C   UNL     1     -11.098  10.993  67.462  1.00  0.00    -0.302 A  
HETATM   13  C   UNL     1     -10.492   9.730  67.601  1.00  0.00    -0.305 A  
HETATM   14  C   UNL     1     -10.420   9.139  68.885  1.00  0.00    -0.239 A  
HETATM   15  C   UNL     1      -9.956   9.006  66.389  1.00  0.00    -0.370 C  
HETATM   16  C   UNL     1      -9.759   7.801  69.114  1.00  0.00    -0.161 C  
HETATM   17  C   UNL     1     -11.005   9.803  69.992  1.00  0.00    -0.277 A  
HETATM   18  C   UNL     1     -11.694  11.011  69.836  1.00  0.00    -0.424 A  
HETATM   19  C   UNL     1     -12.447  11.709  70.930  1.00  0.00    -0.440 C  
HETATM   20  C   UNL     1     -11.694  11.607  68.569  1.00  0.00    -0.378 A  
BRANCH  17  21
HETATM   21  O   UNL     1     -10.978   9.067  71.211  1.00  0.00    -0.261 OA 
BRANCH  21  22
HETATM   22  C   UNL     1     -12.079   8.528  71.878  1.00  0.00    -0.349 C  
HETATM   23  C   UNL     1     -12.585   7.349  71.093  1.00  0.00    -0.330 C  
HETATM   24  O   UNL     1     -12.539   8.891  72.951  1.00  0.00    -0.269 OA 
ENDBRANCH  21  22
ENDBRANCH  17  21
ENDBRANCH  11  12
ENDBRANCH  10  11
ENDBRANCH   7  10
ENDBRANCH   6   7
ENDBRANCH   4   6
ENDBRANCH   2   4
TORSDOF 8
ENDMDL
MODEL      102
REMARK 921   NORMALIZED FREE ENERGY PREDICTED BY IDOCK:   -4.30 KCAL/MOL
REMARK 922        TOTAL FREE ENERGY PREDICTED BY IDOCK:   -7.55 KCAL/MOL
REMARK 923 INTER-LIGAND FREE ENERGY PREDICTED BY IDOCK:   -7.26 KCAL/MOL
REMARK 924 INTRA-LIGAND FREE ENERGY PREDICTED BY IDOCK:   -0.29 KCAL/MOL
REMARK 927      BINDING AFFINITY PREDICTED BY RF-SCORE:    0.00 PKD
ROOT
HETATM    1  C   UNL     1     -11.476  15.464  72.234  1.00  0.00    -0.506 C  
HETATM    2  C   UNL     1     -12.583  15.363  73.284  1.00  0.00    -0.499 C  
HETATM    3  C   UNL     1     -12.499  16.559  74.235  1.00  0.00    -0.450 C  
ENDROOT
BRANCH   2   4
HETATM    4  N   UNL     1     -13.873  15.308  72.586  1.00  0.00    -0.494 NA 
HETATM    5  H   UNL     1     -14.152  16.235  72.264  1.00  0.00     0.000 HD 
BRANCH   4   6
HETATM    6  C   UNL     1     -13.890  14.344  71.480  1.00  0.00    -0.379 C  
BRANCH   6   7
HETATM    7  C   UNL     1     -13.389  12.964  71.950  1.00  0.00    -0.435 C  
HETATM    8  O   UNL     1     -14.371  12.360  72.803  1.00  0.00    -0.338 OA 
HETATM    9  H   UNL     1     -14.063  11.510  73.093  1.00  0.00     0.000 HD 
BRANCH   7  10
HETATM   10  C   UNL     1     -13.111  12.053  70.747  1.00  0.00     0.267 C  
BRANCH  10  11
HETATM   11  O   UNL     1     -11.740  12.232  70.353  1.00  0.00    -0.242 OA 
BRANCH  11  12
HETATM   12  C   UNL     1     -11.538  12.820  69.133  1.00  0.00    -0.319 A  
HETATM   13  C   UNL     1     -11.340  11.969  68.030  1.00  0.00    -0.358 A  
HETATM   14  C   UNL     1     -11.136  12.538  66.750  1.00  0.00    -0.323 A  
HETATM   15  C   UNL     1     -11.314  10.471  68.219  1.00  0.00    -0.332 C  
HETATM   16  C   UNL     1     -10.946  11.688  65.516  1.00  0.00    -0.327 C  
HETATM   17  C   UNL     1     -11.082  13.948  66.615  1.00  0.00    -0.306 A  
HETATM   18  C   UNL     1     -11.181  14.792  67.727  1.00  0.00    -0.323 A  
HETATM   19  C   UNL     1     -11.006  16.281  67.684  1.00  0.00    -0.245 C  
HETATM   20  C   UNL     1     -11.448  14.207  68.971  1.00  0.00    -0.322 A  
BRANCH  17  21
HETATM   21  O   UNL     1     -10.757  14.409  65.307  1.00  0.00    -0.327 OA 
BRANCH  21  22
HETATM   22  C   UNL     1     -11.641  14.966  64.381  1.00  0.00    -0.288 C  
HETATM   23  C   UNL     1     -11.309  16.424  64.218  1.00  0.00     0.106 C  
HETATM   24  O   UNL     1     -12.507  14.381  63.747  1.00  0.00    -0.814 OA 
ENDBRANCH  21  22
ENDBRANCH  17  21
ENDBRANCH  11  12
ENDBRANCH  10  11
ENDBRANCH   7  10
ENDBRANCH   6   7
ENDBRANCH   4   6
ENDBRANCH   2   4
TORSDOF 8
ENDMDL
MODEL      103
REMARK 921   NORMALIZED FREE ENERGY PREDICTED BY IDOCK:   -4.29 KCAL/MOL
REMARK 922        TOTAL FREE ENERGY PREDICTED BY IDOCK:   -7.54 KCAL/MOL
REMARK 923 INTER-LIGAND FREE ENERGY PREDICTED BY IDOCK:   -6.99 KCAL/MOL
REMARK 924 INTRA-LIGAND FREE ENERGY PREDICTED BY IDOCK:   -0.54 KCAL/MOL
REMARK 927      BINDING AFFINITY PREDICTED BY RF-SCORE:    0.00 PKD
ROOT
HETATM    1  C   UNL     1     -10.281  18.464  67.020  1.00  0.00    -0.402 C  
HETATM    2  C   UNL     1      -9.359  17.253  67.165  1.00  0.00    -0.243 C  
HETATM    3  C   UNL     1      -8.860  17.158  68.609  1.00  0.00    -0.266 C  
ENDROOT
BRANCH   2   4
HETATM    4  N   UNL     1     -10.107  16.057  66.764  1.00  0.00    -0.260 NA 
HETATM    5  H   UNL     1      -9.493  15.244  66.715  1.00  0.00     0.000 HD 
BRANCH   4   6
HETATM    6  C   UNL     1     -11.265  15.786  67.623  1.00  0.00    -0.246 C  
BRANCH   6   7
HETATM    7  C   UNL     1     -11.903  14.428  67.269  1.00  0.00    -0.405 C  
HETATM    8  O   UNL     1     -12.377  14.457  65.916  1.00  0.00    -0.395 OA 
HETATM    9  H   UNL     1     -12.770  13.620  65.698  1.00  0.00     0.000 HD 
BRANCH   7  10
HETATM   10  C   UNL     1     -10.883  13.293  67.440  1.00  0.00    -0.267 C  
BRANCH  10  11
HETATM   11  O   UNL     1     -11.570  12.041  67.269  1.00  0.00    -0.388 OA 
BRANCH  11  12
HETATM   12  C   UNL     1     -11.438  11.141  68.292  1.00  0.00    -0.303 A  
HETATM   13  C   UNL     1     -10.615  10.021  68.066  1.00  0.00    -0.280 A  
HETATM   14  C   UNL     1     -10.448   9.071  69.101  1.00  0.00    -0.239 A  
HETATM   15  C   UNL     1      -9.949   9.825  66.725  1.00  0.00    -0.278 C  
HETATM   16  C   UNL     1      -9.557   7.861  68.941  1.00  0.00    -0.155 C  
HETATM   17  C   UNL     1     -11.151   9.237  70.321  1.00  0.00    -0.251 A  
HETATM   18  C   UNL     1     -12.044  10.297  70.509  1.00  0.00    -0.401 A  
HETATM   19  C   UNL     1     -12.919  10.469  71.715  1.00  0.00    -0.582 C  
HETATM   20  C   UNL     1     -12.143  11.258  69.495  1.00  0.00    -0.386 A  
BRANCH  17  21
HETATM   21  O   UNL     1     -10.999   8.164  71.246  1.00  0.00    -0.232 OA 
BRANCH  21  22
HETATM   22  C   UNL     1     -11.826   7.045  71.359  1.00  0.00    -0.320 C  
HETATM   23  C   UNL     1     -10.967   5.842  71.643  1.00  0.00    -0.327 C  
HETATM   24  O   UNL     1     -13.046   7.023  71.304  1.00  0.00    -0.369 OA 
ENDBRANCH  21  22
ENDBRANCH  17  21
ENDBRANCH  11  12
ENDBRANCH  10  11
ENDBRANCH   7  10
ENDBRANCH   6   7
ENDBRANCH   4   6
ENDBRANCH   2   4
TORSDOF 8
ENDMDL
MODEL      104
REMARK 921   NORMALIZED FREE ENERGY PREDICTED BY IDOCK:   -4.29 KCAL/MOL
REMARK 922        TOTAL FREE ENERGY PREDICTED BY IDOCK:   -7.54 KCAL/MOL
REMARK 923 INTER-LIGAND FREE ENERGY PREDICTED BY IDOCK:   -6.66 KCAL/MOL
REMARK 924 INTRA-LIGAND FREE ENERGY PREDICTED BY IDOCK:   -0.88 KCAL/MOL
REMARK 927      BINDING AFFINITY PREDICTED BY RF-SCORE:    0.00 PKD
ROOT
HETATM    1  C   UNL     1     -12.016   6.919  70.845  1.00  0.00    -0.430 C  
HETATM    2  C   UNL     1     -11.549   8.374  70.784  1.00  0.00    -0.232 C  
HETATM    3  C   UNL     1     -10.471   8.611  71.845  1.00  0.00    -0.410 C  
ENDROOT
BRANCH   2   4
HETATM    4  N   UNL     1     -11.051   8.640  69.430  1.00  0.00    -0.436 NA 
HETATM    5  H   UNL     1     -10.406   9.430  69.428  1.00  0.00     0.000 HD 
BRANCH   4   6
HETATM    6  C   UNL     1     -10.440   7.464  68.799  1.00  0.00    -0.199 C  
BRANCH   6   7
HETATM    7  C   UNL     1     -10.489   7.581  67.263  1.00  0.00    -0.321 C  
HETATM    8  O   UNL     1     -11.422   6.628  66.736  1.00  0.00    -0.776 OA 
HETATM    9  H   UNL     1     -11.452   6.700  65.789  1.00  0.00     0.000 HD 
BRANCH   7  10
HETATM   10  C   UNL     1     -10.898   8.999  66.843  1.00  0.00     0.068 C  
BRANCH  10  11
HETATM   11  O   UNL     1      -9.734   9.842  66.906  1.00  0.00    -0.171 OA 
BRANCH  11  12
HETATM   12  C   UNL     1      -9.967  11.190  66.856  1.00  0.00    -0.198 A  
HETATM   13  C   UNL     1      -9.052  12.030  67.520  1.00  0.00    -0.177 A  
HETATM   14  C   UNL     1      -9.254  13.430  67.484  1.00  0.00    -0.219 A  
HETATM   15  C   UNL     1      -7.893  11.437  68.284  1.00  0.00    -0.132 C  
HETATM   16  C   UNL     1      -8.298  14.393  68.148  1.00  0.00    -0.158 C  
HETATM   17  C   UNL     1     -10.396  13.954  66.829  1.00  0.00    -0.272 A  
HETATM   18  C   UNL     1     -11.356  13.114  66.254  1.00  0.00    -0.348 A  
HETATM   19  C   UNL     1     -12.651  13.583  65.659  1.00  0.00    -0.512 C  
HETATM   20  C   UNL     1     -11.102  11.737  66.245  1.00  0.00    -0.364 A  
BRANCH  17  21
HETATM   21  O   UNL     1     -10.561  15.364  66.955  1.00  0.00    -0.297 OA 
BRANCH  21  22
HETATM   22  C   UNL     1     -11.128  16.038  68.037  1.00  0.00    -0.334 C  
HETATM   23  C   UNL     1     -10.586  17.441  68.065  1.00  0.00    -0.389 C  
HETATM   24  O   UNL     1     -11.972  15.610  68.810  1.00  0.00    -0.348 OA 
ENDBRANCH  21  22
ENDBRANCH  17  21
ENDBRANCH  11  12
ENDBRANCH  10  11
ENDBRANCH   7  10
ENDBRANCH   6   7
ENDBRANCH   4   6
ENDBRANCH   2   4
TORSDOF 8
ENDMDL
MODEL      105
REMARK 921   NORMALIZED FREE ENERGY PREDICTED BY IDOCK:   -4.28 KCAL/MOL
REMARK 922        TOTAL FREE ENERGY PREDICTED BY IDOCK:   -7.52 KCAL/MOL
REMARK 923 INTER-LIGAND FREE ENERGY PREDICTED BY IDOCK:   -6.74 KCAL/MOL
REMARK 924 INTRA-LIGAND FREE ENERGY PREDICTED BY IDOCK:   -0.78 KCAL/MOL
REMARK 927      BINDING AFFINITY PREDICTED BY RF-SCORE:    0.00 PKD
ROOT
HETATM    1  C   UNL     1      -9.917   7.136  66.508  1.00  0.00    -0.173 C  
HETATM    2  C   UNL     1     -10.715   5.925  66.994  1.00  0.00    -0.318 C  
HETATM    3  C   UNL     1      -9.751   4.820  67.434  1.00  0.00    -0.209 C  
ENDROOT
BRANCH   2   4
HETATM    4  N   UNL     1     -11.587   6.360  68.090  1.00  0.00    -0.466 NA 
HETATM    5  H   UNL     1     -12.530   5.988  67.974  1.00  0.00     0.000 HD 
BRANCH   4   6
HETATM    6  C   UNL     1     -11.054   6.030  69.417  1.00  0.00    -0.375 C  
BRANCH   6   7
HETATM    7  C   UNL     1     -11.684   6.930  70.498  1.00  0.00    -0.350 C  
HETATM    8  O   UNL     1     -11.608   6.276  71.773  1.00  0.00    -0.293 OA 
HETATM    9  H   UNL     1     -11.996   6.830  72.440  1.00  0.00     0.000 HD 
BRANCH   7  10
HETATM   10  C   UNL     1     -10.962   8.282  70.562  1.00  0.00    -0.242 C  
BRANCH  10  11
HETATM   11  O   UNL     1     -11.943   9.306  70.804  1.00  0.00    -0.276 OA 
BRANCH  11  12
HETATM   12  C   UNL     1     -11.740  10.495  70.158  1.00  0.00    -0.326 A  
HETATM   13  C   UNL     1     -12.320  11.647  70.725  1.00  0.00    -0.454 A  
HETATM   14  C   UNL     1     -12.127  12.897  70.090  1.00  0.00    -0.373 A  
HETATM   15  C   UNL     1     -13.161  11.538  71.973  1.00  0.00    -0.443 C  
HETATM   16  C   UNL     1     -12.694  14.178  70.656  1.00  0.00    -0.389 C  
HETATM   17  C   UNL     1     -11.402  12.957  68.874  1.00  0.00    -0.288 A  
HETATM   18  C   UNL     1     -10.911  11.800  68.259  1.00  0.00    -0.259 A  
HETATM   19  C   UNL     1     -10.249  11.766  66.914  1.00  0.00    -0.236 C  
HETATM   20  C   UNL     1     -11.058  10.585  68.939  1.00  0.00    -0.312 A  
BRANCH  17  21
HETATM   21  O   UNL     1     -11.369  14.245  68.263  1.00  0.00    -0.262 OA 
BRANCH  21  22
HETATM   22  C   UNL     1     -10.227  14.993  67.971  1.00  0.00    -0.228 C  
HETATM   23  C   UNL     1      -9.503  15.284  69.257  1.00  0.00    -0.242 C  
HETATM   24  O   UNL     1      -9.824  15.317  66.863  1.00  0.00    -0.228 OA 
ENDBRANCH  21  22
ENDBRANCH  17  21
ENDBRANCH  11  12
ENDBRANCH  10  11
ENDBRANCH   7  10
ENDBRANCH   6   7
ENDBRANCH   4   6
ENDBRANCH   2   4
TORSDOF 8
ENDMDL
MODEL      106
REMARK 921   NORMALIZED FREE ENERGY PREDICTED BY IDOCK:   -4.26 KCAL/MOL
REMARK 922        TOTAL FREE ENERGY PREDICTED BY IDOCK:   -7.49 KCAL/MOL
REMARK 923 INTER-LIGAND FREE ENERGY PREDICTED BY IDOCK:   -6.41 KCAL/MOL
REMARK 924 INTRA-LIGAND FREE ENERGY PREDICTED BY IDOCK:   -1.08 KCAL/MOL
REMARK 927      BINDING AFFINITY PREDICTED BY RF-SCORE:    0.00 PKD
ROOT
HETATM    1  C   UNL     1     -10.541  11.221  63.745  1.00  0.00    -0.455 C  
HETATM    2  C   UNL     1     -11.281  12.560  63.738  1.00  0.00    -0.462 C  
HETATM    3  C   UNL     1     -12.460  12.498  64.712  1.00  0.00    -0.532 C  
ENDROOT
BRANCH   2   4
HETATM    4  N   UNL     1     -10.326  13.613  64.099  1.00  0.00    -0.699 NA 
HETATM    5  H   UNL     1      -9.733  13.854  63.305  1.00  0.00     0.000 HD 
BRANCH   4   6
HETATM    6  C   UNL     1     -10.970  14.810  64.653  1.00  0.00    -0.316 C  
BRANCH   6   7
HETATM    7  C   UNL     1      -9.915  15.823  65.139  1.00  0.00    -0.015 C  
HETATM    8  O   UNL     1     -10.558  17.054  65.495  1.00  0.00    -0.542 OA 
HETATM    9  H   UNL     1      -9.908  17.679  65.795  1.00  0.00     0.000 HD 
BRANCH   7  10
HETATM   10  C   UNL     1      -9.149  15.266  66.347  1.00  0.00    -0.312 C  
BRANCH  10  11
HETATM   11  O   UNL     1     -10.108  14.772  67.300  1.00  0.00    -0.234 OA 
BRANCH  11  12
HETATM   12  C   UNL     1      -9.880  13.511  67.780  1.00  0.00    -0.233 A  
HETATM   13  C   UNL     1     -10.863  12.952  68.620  1.00  0.00    -0.288 A  
HETATM   14  C   UNL     1     -10.668  11.647  69.131  1.00  0.00    -0.188 A  
HETATM   15  C   UNL     1     -12.088  13.750  68.993  1.00  0.00    -0.359 C  
HETATM   16  C   UNL     1     -11.691  10.972  70.013  1.00  0.00    -0.437 C  
HETATM   17  C   UNL     1      -9.469  10.952  68.832  1.00  0.00    -0.172 A  
HETATM   18  C   UNL     1      -8.451  11.546  68.078  1.00  0.00    -0.148 A  
HETATM   19  C   UNL     1      -7.107  10.929  67.828  1.00  0.00    -0.082 C  
HETATM   20  C   UNL     1      -8.694  12.811  67.530  1.00  0.00    -0.185 A  
BRANCH  17  21
HETATM   21  O   UNL     1      -9.328   9.697  69.491  1.00  0.00    -0.173 OA 
BRANCH  21  22
HETATM   22  C   UNL     1      -9.368   8.437  68.892  1.00  0.00    -0.147 C  
HETATM   23  C   UNL     1     -10.294   8.500  67.708  1.00  0.00    -0.298 C  
HETATM   24  O   UNL     1      -8.724   7.449  69.211  1.00  0.00    -0.136 OA 
ENDBRANCH  21  22
ENDBRANCH  17  21
ENDBRANCH  11  12
ENDBRANCH  10  11
ENDBRANCH   7  10
ENDBRANCH   6   7
ENDBRANCH   4   6
ENDBRANCH   2   4
TORSDOF 8
ENDMDL
MODEL      107
REMARK 921   NORMALIZED FREE ENERGY PREDICTED BY IDOCK:   -4.25 KCAL/MOL
REMARK 922        TOTAL FREE ENERGY PREDICTED BY IDOCK:   -7.48 KCAL/MOL
REMARK 923 INTER-LIGAND FREE ENERGY PREDICTED BY IDOCK:   -6.76 KCAL/MOL
REMARK 924 INTRA-LIGAND FREE ENERGY PREDICTED BY IDOCK:   -0.72 KCAL/MOL
REMARK 927      BINDING AFFINITY PREDICTED BY RF-SCORE:    0.00 PKD
ROOT
HETATM    1  C   UNL     1     -10.430  19.200  66.319  1.00  0.00    -0.551 C  
HETATM    2  C   UNL     1      -9.245  18.291  66.650  1.00  0.00    -0.295 C  
HETATM    3  C   UNL     1      -8.464  18.876  67.830  1.00  0.00    -0.310 C  
ENDROOT
BRANCH   2   4
HETATM    4  N   UNL     1      -9.763  16.951  66.946  1.00  0.00    -0.250 NA 
HETATM    5  H   UNL     1      -9.034  16.359  67.345  1.00  0.00     0.000 HD 
BRANCH   4   6
HETATM    6  C   UNL     1     -10.951  16.970  67.807  1.00  0.00    -0.199 C  
BRANCH   6   7
HETATM    7  C   UNL     1     -11.109  15.628  68.550  1.00  0.00    -0.322 C  
HETATM    8  O   UNL     1     -12.210  15.710  69.464  1.00  0.00    -0.495 OA 
HETATM    9  H   UNL     1     -12.308  14.883  69.922  1.00  0.00     0.000 HD 
BRANCH   7  10
HETATM   10  C   UNL     1     -11.342  14.484  67.553  1.00  0.00    -0.340 C  
BRANCH  10  11
HETATM   11  O   UNL     1     -12.251  13.543  68.151  1.00  0.00    -0.302 OA 
BRANCH  11  12
HETATM   12  C   UNL     1     -11.779  12.268  68.303  1.00  0.00    -0.336 A  
HETATM   13  C   UNL     1     -11.815  11.715  69.598  1.00  0.00    -0.419 A  
HETATM   14  C   UNL     1     -11.343  10.396  69.796  1.00  0.00    -0.353 A  
HETATM   15  C   UNL     1     -12.322  12.534  70.760  1.00  0.00    -0.376 C  
HETATM   16  C   UNL     1     -11.378   9.727  71.149  1.00  0.00    -0.459 C  
HETATM   17  C   UNL     1     -10.796   9.680  68.701  1.00  0.00    -0.167 A  
HETATM   18  C   UNL     1     -10.669  10.265  67.437  1.00  0.00    -0.339 A  
HETATM   19  C   UNL     1      -9.987   9.622  66.266  1.00  0.00    -0.335 C  
HETATM   20  C   UNL     1     -11.203  11.546  67.251  1.00  0.00    -0.365 A  
BRANCH  17  21
HETATM   21  O   UNL     1     -10.246   8.408  69.037  1.00  0.00    -0.199 OA 
BRANCH  21  22
HETATM   22  C   UNL     1      -8.894   8.114  69.220  1.00  0.00    -0.144 C  
HETATM   23  C   UNL     1      -8.643   6.706  68.752  1.00  0.00    -0.122 C  
HETATM   24  O   UNL     1      -8.025   8.870  69.630  1.00  0.00    -0.086 OA 
ENDBRANCH  21  22
ENDBRANCH  17  21
ENDBRANCH  11  12
ENDBRANCH  10  11
ENDBRANCH   7  10
ENDBRANCH   6   7
ENDBRANCH   4   6
ENDBRANCH   2   4
TORSDOF 8
ENDMDL
MODEL      108
REMARK 921   NORMALIZED FREE ENERGY PREDICTED BY IDOCK:   -4.23 KCAL/MOL
REMARK 922        TOTAL FREE ENERGY PREDICTED BY IDOCK:   -7.45 KCAL/MOL
REMARK 923 INTER-LIGAND FREE ENERGY PREDICTED BY IDOCK:   -6.71 KCAL/MOL
REMARK 924 INTRA-LIGAND FREE ENERGY PREDICTED BY IDOCK:   -0.73 KCAL/MOL
REMARK 927      BINDING AFFINITY PREDICTED BY RF-SCORE:    0.00 PKD
ROOT
HETATM    1  C   UNL     1     -12.548  11.885  63.523  1.00  0.00    -0.579 C  
HETATM    2  C   UNL     1     -11.743  13.185  63.524  1.00  0.00    -0.415 C  
HETATM    3  C   UNL     1     -12.284  14.122  64.607  1.00  0.00    -0.465 C  
ENDROOT
BRANCH   2   4
HETATM    4  N   UNL     1     -10.332  12.850  63.745  1.00  0.00    -0.600 NA 
HETATM    5  H   UNL     1      -9.868  13.575  64.293  1.00  0.00     0.000 HD 
BRANCH   4   6
HETATM    6  C   UNL     1     -10.142  11.530  64.356  1.00  0.00    -0.282 C  
BRANCH   6   7
HETATM    7  C   UNL     1      -9.575  11.665  65.784  1.00  0.00    -0.232 C  
HETATM    8  O   UNL     1      -9.421  13.052  66.111  1.00  0.00    -0.381 OA 
HETATM    9  H   UNL     1      -9.072  13.136  66.991  1.00  0.00     0.000 HD 
BRANCH   7  10
HETATM   10  C   UNL     1     -10.506  10.989  66.799  1.00  0.00    -0.251 C  
BRANCH  10  11
HETATM   11  O   UNL     1     -10.330  11.635  68.072  1.00  0.00    -0.182 OA 
BRANCH  11  12
HETATM   12  C   UNL     1     -10.098  10.809  69.138  1.00  0.00    -0.205 A  
HETATM   13  C   UNL     1     -11.184  10.532  69.990  1.00  0.00    -0.386 A  
HETATM   14  C   UNL     1     -10.987   9.676  71.099  1.00  0.00    -0.430 A  
HETATM   15  C   UNL     1     -12.530  11.169  69.738  1.00  0.00    -0.230 C  
HETATM   16  C   UNL     1     -12.112   9.311  72.039  1.00  0.00    -0.406 C  
HETATM   17  C   UNL     1      -9.693   9.158  71.359  1.00  0.00    -0.268 A  
HETATM   18  C   UNL     1      -8.594   9.512  70.570  1.00  0.00    -0.231 A  
HETATM   19  C   UNL     1      -7.177   9.111  70.854  1.00  0.00    -0.118 C  
HETATM   20  C   UNL     1      -8.827  10.307  69.441  1.00  0.00    -0.177 A  
BRANCH  17  21
HETATM   21  O   UNL     1      -9.585   8.404  72.563  1.00  0.00    -0.271 OA 
BRANCH  21  22
HETATM   22  C   UNL     1      -9.478   7.016  72.664  1.00  0.00    -0.142 C  
HETATM   23  C   UNL     1      -9.904   6.602  74.046  1.00  0.00    -0.316 C  
HETATM   24  O   UNL     1      -9.156   6.236  71.779  1.00  0.00    -0.144 OA 
ENDBRANCH  21  22
ENDBRANCH  17  21
ENDBRANCH  11  12
ENDBRANCH  10  11
ENDBRANCH   7  10
ENDBRANCH   6   7
ENDBRANCH   4   6
ENDBRANCH   2   4
TORSDOF 8
ENDMDL
MODEL      109
REMARK 921   NORMALIZED FREE ENERGY PREDICTED BY IDOCK:   -4.19 KCAL/MOL
REMARK 922        TOTAL FREE ENERGY PREDICTED BY IDOCK:   -7.39 KCAL/MOL
REMARK 923 INTER-LIGAND FREE ENERGY PREDICTED BY IDOCK:   -6.61 KCAL/MOL
REMARK 924 INTRA-LIGAND FREE ENERGY PREDICTED BY IDOCK:   -0.79 KCAL/MOL
REMARK 927      BINDING AFFINITY PREDICTED BY RF-SCORE:    0.00 PKD
ROOT
HETATM    1  C   UNL     1     -12.531  12.042  63.482  1.00  0.00    -0.654 C  
HETATM    2  C   UNL     1     -11.512  13.098  63.912  1.00  0.00    -0.401 C  
HETATM    3  C   UNL     1     -12.245  14.372  64.342  1.00  0.00    -0.481 C  
ENDROOT
BRANCH   2   4
HETATM    4  N   UNL     1     -10.703  12.539  65.000  1.00  0.00    -0.285 NA 
HETATM    5  H   UNL     1     -10.280  13.281  65.557  1.00  0.00     0.000 HD 
BRANCH   4   6
HETATM    6  C   UNL     1     -11.447  11.605  65.851  1.00  0.00    -0.121 C  
BRANCH   6   7
HETATM    7  C   UNL     1     -11.438  12.077  67.319  1.00  0.00    -0.335 C  
HETATM    8  O   UNL     1     -12.174  11.148  68.128  1.00  0.00    -0.708 OA 
HETATM    9  H   UNL     1     -12.169  11.439  69.032  1.00  0.00     0.000 HD 
BRANCH   7  10
HETATM   10  C   UNL     1      -9.999  12.195  67.838  1.00  0.00    -0.200 C  
BRANCH  10  11
HETATM   11  O   UNL     1      -9.875  13.443  68.542  1.00  0.00    -0.230 OA 
BRANCH  11  12
HETATM   12  C   UNL     1      -9.344  14.484  67.828  1.00  0.00    -0.198 A  
HETATM   13  C   UNL     1      -7.956  14.694  67.927  1.00  0.00    -0.149 A  
HETATM   14  C   UNL     1      -7.368  15.755  67.198  1.00  0.00    -0.257 A  
HETATM   15  C   UNL     1      -7.116  13.818  68.824  1.00  0.00    -0.106 C  
HETATM   16  C   UNL     1      -5.881  16.022  67.232  1.00  0.00    -0.081 C  
HETATM   17  C   UNL     1      -8.192  16.613  66.428  1.00  0.00    -0.318 A  
HETATM   18  C   UNL     1      -9.583  16.464  66.408  1.00  0.00    -0.313 A  
HETATM   19  C   UNL     1     -10.531  17.405  65.726  1.00  0.00    -0.221 C  
HETATM   20  C   UNL     1     -10.134  15.369  67.085  1.00  0.00    -0.245 A  
BRANCH  17  21
HETATM   21  O   UNL     1      -7.512  17.714  65.831  1.00  0.00    -0.463 OA 
BRANCH  21  22
HETATM   22  C   UNL     1      -7.669  19.061  66.160  1.00  0.00    -0.271 C  
HETATM   23  C   UNL     1      -7.421  19.226  67.635  1.00  0.00    -0.271 C  
HETATM   24  O   UNL     1      -7.905  19.984  65.394  1.00  0.00    -0.299 OA 
ENDBRANCH  21  22
ENDBRANCH  17  21
ENDBRANCH  11  12
ENDBRANCH  10  11
ENDBRANCH   7  10
ENDBRANCH   6   7
ENDBRANCH   4   6
ENDBRANCH   2   4
TORSDOF 8
ENDMDL
MODEL      110
REMARK 921   NORMALIZED FREE ENERGY PREDICTED BY IDOCK:   -4.19 KCAL/MOL
REMARK 922        TOTAL FREE ENERGY PREDICTED BY IDOCK:   -7.39 KCAL/MOL
REMARK 923 INTER-LIGAND FREE ENERGY PREDICTED BY IDOCK:   -6.85 KCAL/MOL
REMARK 924 INTRA-LIGAND FREE ENERGY PREDICTED BY IDOCK:   -0.54 KCAL/MOL
REMARK 927      BINDING AFFINITY PREDICTED BY RF-SCORE:    0.00 PKD
ROOT
HETATM    1  C   UNL     1      -7.761   7.855  73.998  1.00  0.00    -0.223 C  
HETATM    2  C   UNL     1      -8.682   7.393  72.868  1.00  0.00    -0.128 C  
HETATM    3  C   UNL     1      -8.822   5.869  72.912  1.00  0.00    -0.123 C  
ENDROOT
BRANCH   2   4
HETATM    4  N   UNL     1      -9.976   8.066  73.026  1.00  0.00    -0.288 NA 
HETATM    5  H   UNL     1      -9.939   9.015  72.654  1.00  0.00     0.000 HD 
BRANCH   4   6
HETATM    6  C   UNL     1     -11.092   7.316  72.439  1.00  0.00    -0.275 C  
BRANCH   6   7
HETATM    7  C   UNL     1     -11.632   8.033  71.186  1.00  0.00    -0.282 C  
HETATM    8  O   UNL     1     -12.993   7.643  70.958  1.00  0.00    -0.540 OA 
HETATM    9  H   UNL     1     -13.327   8.085  70.185  1.00  0.00     0.000 HD 
BRANCH   7  10
HETATM   10  C   UNL     1     -11.548   9.556  71.358  1.00  0.00    -0.395 C  
BRANCH  10  11
HETATM   11  O   UNL     1     -12.540  10.161  70.510  1.00  0.00    -0.281 OA 
BRANCH  11  12
HETATM   12  C   UNL     1     -12.356  11.486  70.223  1.00  0.00    -0.273 A  
HETATM   13  C   UNL     1     -11.889  11.810  68.935  1.00  0.00    -0.381 A  
HETATM   14  C   UNL     1     -11.693  13.171  68.597  1.00  0.00    -0.362 A  
HETATM   15  C   UNL     1     -11.573  10.717  67.944  1.00  0.00    -0.212 C  
HETATM   16  C   UNL     1     -11.223  13.595  67.226  1.00  0.00    -0.329 C  
HETATM   17  C   UNL     1     -11.919  14.172  69.575  1.00  0.00    -0.340 A  
HETATM   18  C   UNL     1     -12.287  13.843  70.884  1.00  0.00    -0.451 A  
HETATM   19  C   UNL     1     -12.419  14.831  72.005  1.00  0.00    -0.410 C  
HETATM   20  C   UNL     1     -12.538  12.497  71.175  1.00  0.00    -0.349 A  
BRANCH  17  21
HETATM   21  O   UNL     1     -11.579  15.493  69.163  1.00  0.00    -0.317 OA 
BRANCH  21  22
HETATM   22  C   UNL     1     -10.307  16.067  69.188  1.00  0.00    -0.247 C  
HETATM   23  C   UNL     1     -10.400  17.463  68.634  1.00  0.00    -0.364 C  
HETATM   24  O   UNL     1      -9.284  15.570  69.635  1.00  0.00    -0.275 OA 
ENDBRANCH  21  22
ENDBRANCH  17  21
ENDBRANCH  11  12
ENDBRANCH  10  11
ENDBRANCH   7  10
ENDBRANCH   6   7
ENDBRANCH   4   6
ENDBRANCH   2   4
TORSDOF 8
ENDMDL
MODEL      111
REMARK 921   NORMALIZED FREE ENERGY PREDICTED BY IDOCK:   -4.19 KCAL/MOL
REMARK 922        TOTAL FREE ENERGY PREDICTED BY IDOCK:   -7.38 KCAL/MOL
REMARK 923 INTER-LIGAND FREE ENERGY PREDICTED BY IDOCK:   -6.08 KCAL/MOL
REMARK 924 INTRA-LIGAND FREE ENERGY PREDICTED BY IDOCK:   -1.31 KCAL/MOL
REMARK 927      BINDING AFFINITY PREDICTED BY RF-SCORE:    0.00 PKD
ROOT
HETATM    1  C   UNL     1     -10.650  12.532  64.301  1.00  0.00    -0.395 C  
HETATM    2  C   UNL     1     -10.175  11.078  64.338  1.00  0.00    -0.346 C  
HETATM    3  C   UNL     1      -9.810  10.622  62.923  1.00  0.00    -0.271 C  
ENDROOT
BRANCH   2   4
HETATM    4  N   UNL     1      -9.032  10.992  65.253  1.00  0.00    -0.273 NA 
HETATM    5  H   UNL     1      -8.861  11.890  65.706  1.00  0.00     0.000 HD 
BRANCH   4   6
HETATM    6  C   UNL     1      -9.169   9.922  66.248  1.00  0.00    -0.168 C  
BRANCH   6   7
HETATM    7  C   UNL     1     -10.551   9.982  66.928  1.00  0.00    -0.192 C  
HETATM    8  O   UNL     1     -10.890   8.688  67.445  1.00  0.00    -0.461 OA 
HETATM    9  H   UNL     1     -11.742   8.725  67.865  1.00  0.00     0.000 HD 
BRANCH   7  10
HETATM   10  C   UNL     1     -10.548  11.013  68.065  1.00  0.00    -0.204 C  
BRANCH  10  11
HETATM   11  O   UNL     1      -9.321  11.761  67.992  1.00  0.00    -0.171 OA 
BRANCH  11  12
HETATM   12  C   UNL     1      -9.452  13.122  67.916  1.00  0.00    -0.218 A  
HETATM   13  C   UNL     1      -8.322  13.859  67.515  1.00  0.00    -0.202 A  
HETATM   14  C   UNL     1      -8.419  15.267  67.416  1.00  0.00    -0.197 A  
HETATM   15  C   UNL     1      -7.018  13.154  67.226  1.00  0.00    -0.021 C  
HETATM   16  C   UNL     1      -7.257  16.120  66.964  1.00  0.00    -0.256 C  
HETATM   17  C   UNL     1      -9.631  15.909  67.773  1.00  0.00    -0.218 A  
HETATM   18  C   UNL     1     -10.722  15.185  68.266  1.00  0.00    -0.251 A  
HETATM   19  C   UNL     1     -11.989  15.801  68.784  1.00  0.00    -0.226 C  
HETATM   20  C   UNL     1     -10.624  13.789  68.292  1.00  0.00    -0.262 A  
BRANCH  17  21
HETATM   21  O   UNL     1      -9.581  17.333  67.748  1.00  0.00    -0.254 OA 
BRANCH  21  22
HETATM   22  C   UNL     1     -10.284  18.171  66.881  1.00  0.00    -0.372 C  
HETATM   23  C   UNL     1     -10.524  19.485  67.575  1.00  0.00    -0.596 C  
HETATM   24  O   UNL     1     -10.609  17.932  65.728  1.00  0.00    -0.521 OA 
ENDBRANCH  21  22
ENDBRANCH  17  21
ENDBRANCH  11  12
ENDBRANCH  10  11
ENDBRANCH   7  10
ENDBRANCH   6   7
ENDBRANCH   4   6
ENDBRANCH   2   4
TORSDOF 8
ENDMDL
MODEL      112
REMARK 921   NORMALIZED FREE ENERGY PREDICTED BY IDOCK:   -4.15 KCAL/MOL
REMARK 922        TOTAL FREE ENERGY PREDICTED BY IDOCK:   -7.32 KCAL/MOL
REMARK 923 INTER-LIGAND FREE ENERGY PREDICTED BY IDOCK:   -6.61 KCAL/MOL
REMARK 924 INTRA-LIGAND FREE ENERGY PREDICTED BY IDOCK:   -0.72 KCAL/MOL
REMARK 927      BINDING AFFINITY PREDICTED BY RF-SCORE:    0.00 PKD
ROOT
HETATM    1  C   UNL     1      -8.373   5.256  66.718  1.00  0.00    -0.108 C  
HETATM    2  C   UNL     1      -9.752   5.201  66.059  1.00  0.00    -0.165 C  
HETATM    3  C   UNL     1      -9.814   4.011  65.098  1.00  0.00    -0.203 C  
ENDROOT
BRANCH   2   4
HETATM    4  N   UNL     1     -10.763   5.104  67.117  1.00  0.00    -0.222 NA 
HETATM    5  H   UNL     1     -10.459   4.465  67.853  1.00  0.00     0.000 HD 
BRANCH   4   6
HETATM    6  C   UNL     1     -11.138   6.406  67.678  1.00  0.00    -0.289 C  
BRANCH   6   7
HETATM    7  C   UNL     1     -11.233   6.333  69.215  1.00  0.00    -0.389 C  
HETATM    8  O   UNL     1     -10.638   5.112  69.676  1.00  0.00    -0.261 OA 
HETATM    9  H   UNL     1     -10.697   5.066  70.624  1.00  0.00     0.000 HD 
BRANCH   7  10
HETATM   10  C   UNL     1     -10.524   7.533  69.857  1.00  0.00    -0.229 C  
BRANCH  10  11
HETATM   11  O   UNL     1     -11.452   8.185  70.742  1.00  0.00    -0.278 OA 
BRANCH  11  12
HETATM   12  C   UNL     1     -11.627   9.527  70.545  1.00  0.00    -0.254 A  
HETATM   13  C   UNL     1     -12.551  10.189  71.377  1.00  0.00    -0.526 A  
HETATM   14  C   UNL     1     -12.754  11.579  71.209  1.00  0.00    -0.469 A  
HETATM   15  C   UNL     1     -13.334   9.415  72.409  1.00  0.00    -0.503 C  
HETATM   16  C   UNL     1     -13.707  12.360  72.083  1.00  0.00    -0.271 C  
HETATM   17  C   UNL     1     -12.067  12.265  70.177  1.00  0.00    -0.287 A  
HETATM   18  C   UNL     1     -11.224  11.589  69.288  1.00  0.00    -0.336 A  
HETATM   19  C   UNL     1     -10.564  12.217  68.096  1.00  0.00    -0.232 C  
HETATM   20  C   UNL     1     -10.989  10.228  69.515  1.00  0.00    -0.300 A  
BRANCH  17  21
HETATM   21  O   UNL     1     -12.434  13.634  70.024  1.00  0.00    -0.293 OA 
BRANCH  21  22
HETATM   22  C   UNL     1     -11.698  14.740  70.450  1.00  0.00    -0.295 C  
HETATM   23  C   UNL     1     -11.320  15.557  69.244  1.00  0.00    -0.330 C  
HETATM   24  O   UNL     1     -11.442  15.055  71.603  1.00  0.00    -0.367 OA 
ENDBRANCH  21  22
ENDBRANCH  17  21
ENDBRANCH  11  12
ENDBRANCH  10  11
ENDBRANCH   7  10
ENDBRANCH   6   7
ENDBRANCH   4   6
ENDBRANCH   2   4
TORSDOF 8
ENDMDL
MODEL      113
REMARK 921   NORMALIZED FREE ENERGY PREDICTED BY IDOCK:   -4.14 KCAL/MOL
REMARK 922        TOTAL FREE ENERGY PREDICTED BY IDOCK:   -7.31 KCAL/MOL
REMARK 923 INTER-LIGAND FREE ENERGY PREDICTED BY IDOCK:   -6.16 KCAL/MOL
REMARK 924 INTRA-LIGAND FREE ENERGY PREDICTED BY IDOCK:   -1.16 KCAL/MOL
REMARK 927      BINDING AFFINITY PREDICTED BY RF-SCORE:    0.00 PKD
ROOT
HETATM    1  C   UNL     1     -10.810  11.766  63.476  1.00  0.00    -0.496 C  
HETATM    2  C   UNL     1     -11.112  12.867  64.494  1.00  0.00    -0.342 C  
HETATM    3  C   UNL     1     -12.413  12.540  65.231  1.00  0.00    -0.390 C  
ENDROOT
BRANCH   2   4
HETATM    4  N   UNL     1      -9.973  12.967  65.412  1.00  0.00    -0.440 NA 
HETATM    5  H   UNL     1      -9.248  13.573  65.027  1.00  0.00     0.000 HD 
BRANCH   4   6
HETATM    6  C   UNL     1     -10.355  13.401  66.761  1.00  0.00    -0.263 C  
BRANCH   6   7
HETATM    7  C   UNL     1      -9.252  13.055  67.780  1.00  0.00    -0.200 C  
HETATM    8  O   UNL     1      -9.712  13.347  69.106  1.00  0.00    -0.385 OA 
HETATM    9  H   UNL     1      -9.032  13.134  69.735  1.00  0.00     0.000 HD 
BRANCH   7  10
HETATM   10  C   UNL     1      -8.868  11.572  67.676  1.00  0.00    -0.152 C  
BRANCH  10  11
HETATM   11  O   UNL     1     -10.049  10.823  67.338  1.00  0.00    -0.182 OA 
BRANCH  11  12
HETATM   12  C   UNL     1     -10.366   9.793  68.180  1.00  0.00    -0.202 A  
HETATM   13  C   UNL     1     -10.137   8.484  67.716  1.00  0.00    -0.266 A  
HETATM   14  C   UNL     1     -10.446   7.391  68.560  1.00  0.00    -0.215 A  
HETATM   15  C   UNL     1      -9.599   8.254  66.324  1.00  0.00    -0.266 C  
HETATM   16  C   UNL     1     -10.199   5.961  68.141  1.00  0.00    -0.225 C  
HETATM   17  C   UNL     1     -11.027   7.633  69.830  1.00  0.00    -0.200 A  
HETATM   18  C   UNL     1     -11.346   8.928  70.251  1.00  0.00    -0.179 A  
HETATM   19  C   UNL     1     -12.076   9.256  71.520  1.00  0.00    -0.435 C  
HETATM   20  C   UNL     1     -10.971   9.996  69.426  1.00  0.00    -0.280 A  
BRANCH  17  21
HETATM   21  O   UNL     1     -11.403   6.459  70.546  1.00  0.00    -0.326 OA 
BRANCH  21  22
HETATM   22  C   UNL     1     -10.934   6.070  71.802  1.00  0.00    -0.269 C  
HETATM   23  C   UNL     1      -9.434   6.186  71.809  1.00  0.00    -0.162 C  
HETATM   24  O   UNL     1     -11.605   5.745  72.770  1.00  0.00    -0.281 OA 
ENDBRANCH  21  22
ENDBRANCH  17  21
ENDBRANCH  11  12
ENDBRANCH  10  11
ENDBRANCH   7  10
ENDBRANCH   6   7
ENDBRANCH   4   6
ENDBRANCH   2   4
TORSDOF 8
ENDMDL
MODEL      114
REMARK 921   NORMALIZED FREE ENERGY PREDICTED BY IDOCK:   -4.14 KCAL/MOL
REMARK 922        TOTAL FREE ENERGY PREDICTED BY IDOCK:   -7.31 KCAL/MOL
REMARK 923 INTER-LIGAND FREE ENERGY PREDICTED BY IDOCK:   -6.37 KCAL/MOL
REMARK 924 INTRA-LIGAND FREE ENERGY PREDICTED BY IDOCK:   -0.94 KCAL/MOL
REMARK 927      BINDING AFFINITY PREDICTED BY RF-SCORE:    0.00 PKD
ROOT
HETATM    1  C   UNL     1     -10.699   6.786  68.539  1.00  0.00    -0.280 C  
HETATM    2  C   UNL     1     -10.285   8.170  69.041  1.00  0.00    -0.220 C  
HETATM    3  C   UNL     1      -8.849   8.116  69.568  1.00  0.00    -0.143 C  
ENDROOT
BRANCH   2   4
HETATM    4  N   UNL     1     -10.426   9.120  67.932  1.00  0.00    -0.263 NA 
HETATM    5  H   UNL     1      -9.768   9.894  68.031  1.00  0.00     0.000 HD 
BRANCH   4   6
HETATM    6  C   UNL     1     -10.299   8.490  66.613  1.00  0.00    -0.233 C  
BRANCH   6   7
HETATM    7  C   UNL     1      -9.293   9.261  65.735  1.00  0.00    -0.244 C  
HETATM    8  O   UNL     1      -8.773   8.389  64.722  1.00  0.00    -0.376 OA 
HETATM    9  H   UNL     1      -8.152   8.863  64.180  1.00  0.00     0.000 HD 
BRANCH   7  10
HETATM   10  C   UNL     1      -9.966  10.475  65.082  1.00  0.00    -0.309 C  
BRANCH  10  11
HETATM   11  O   UNL     1     -10.525  11.295  66.124  1.00  0.00    -0.241 OA 
BRANCH  11  12
HETATM   12  C   UNL     1     -10.316  12.642  66.004  1.00  0.00    -0.270 A  
HETATM   13  C   UNL     1      -9.333  13.220  66.829  1.00  0.00    -0.254 A  
HETATM   14  C   UNL     1      -9.082  14.609  66.730  1.00  0.00    -0.287 A  
HETATM   15  C   UNL     1      -8.583  12.372  67.827  1.00  0.00    -0.172 C  
HETATM   16  C   UNL     1      -8.023  15.293  67.562  1.00  0.00    -0.197 C  
HETATM   17  C   UNL     1      -9.859  15.397  65.843  1.00  0.00    -0.356 A  
HETATM   18  C   UNL     1     -10.901  14.839  65.095  1.00  0.00    -0.417 A  
HETATM   19  C   UNL     1     -11.848  15.624  64.236  1.00  0.00    -0.151 C  
HETATM   20  C   UNL     1     -11.087  13.453  65.162  1.00  0.00    -0.315 A  
BRANCH  17  21
HETATM   21  O   UNL     1      -9.601  16.797  65.909  1.00  0.00    -0.458 OA 
BRANCH  21  22
HETATM   22  C   UNL     1     -10.281  17.728  66.696  1.00  0.00    -0.361 C  
HETATM   23  C   UNL     1     -10.206  19.070  66.022  1.00  0.00    -0.462 C  
HETATM   24  O   UNL     1     -10.895  17.508  67.730  1.00  0.00    -0.368 OA 
ENDBRANCH  21  22
ENDBRANCH  17  21
ENDBRANCH  11  12
ENDBRANCH  10  11
ENDBRANCH   7  10
ENDBRANCH   6   7
ENDBRANCH   4   6
ENDBRANCH   2   4
TORSDOF 8
ENDMDL
MODEL      115
REMARK 921   NORMALIZED FREE ENERGY PREDICTED BY IDOCK:   -4.13 KCAL/MOL
REMARK 922        TOTAL FREE ENERGY PREDICTED BY IDOCK:   -7.30 KCAL/MOL
REMARK 923 INTER-LIGAND FREE ENERGY PREDICTED BY IDOCK:   -6.38 KCAL/MOL
REMARK 924 INTRA-LIGAND FREE ENERGY PREDICTED BY IDOCK:   -0.92 KCAL/MOL
REMARK 927      BINDING AFFINITY PREDICTED BY RF-SCORE:    0.00 PKD
ROOT
HETATM    1  C   UNL     1     -10.143   6.131  68.013  1.00  0.00    -0.178 C  
HETATM    2  C   UNL     1     -10.659   5.500  69.306  1.00  0.00    -0.255 C  
HETATM    3  C   UNL     1      -9.478   4.977  70.128  1.00  0.00    -0.234 C  
ENDROOT
BRANCH   2   4
HETATM    4  N   UNL     1     -11.428   6.513  70.036  1.00  0.00    -0.456 NA 
HETATM    5  H   UNL     1     -12.377   6.584  69.668  1.00  0.00     0.000 HD 
BRANCH   4   6
HETATM    6  C   UNL     1     -11.446   6.290  71.486  1.00  0.00    -0.293 C  
BRANCH   6   7
HETATM    7  C   UNL     1     -11.916   7.556  72.229  1.00  0.00    -0.263 C  
HETATM    8  O   UNL     1     -10.838   8.080  73.016  1.00  0.00    -0.368 OA 
HETATM    9  H   UNL     1     -11.127   8.861  73.474  1.00  0.00     0.000 HD 
BRANCH   7  10
HETATM   10  C   UNL     1     -12.397   8.618  71.231  1.00  0.00    -0.263 C  
BRANCH  10  11
HETATM   11  O   UNL     1     -11.402   9.654  71.160  1.00  0.00    -0.327 OA 
BRANCH  11  12
HETATM   12  C   UNL     1     -11.339  10.345  69.980  1.00  0.00    -0.313 A  
HETATM   13  C   UNL     1     -11.865  11.651  69.966  1.00  0.00    -0.435 A  
HETATM   14  C   UNL     1     -11.813  12.401  68.767  1.00  0.00    -0.358 A  
HETATM   15  C   UNL     1     -12.505  12.226  71.207  1.00  0.00    -0.281 C  
HETATM   16  C   UNL     1     -12.331  13.817  68.685  1.00  0.00    -0.014 C  
HETATM   17  C   UNL     1     -11.281  11.806  67.596  1.00  0.00    -0.281 A  
HETATM   18  C   UNL     1     -10.848  10.476  67.585  1.00  0.00    -0.355 A  
HETATM   19  C   UNL     1     -10.395   9.737  66.360  1.00  0.00    -0.247 C  
HETATM   20  C   UNL     1     -10.850   9.776  68.798  1.00  0.00    -0.219 A  
BRANCH  17  21
HETATM   21  O   UNL     1     -11.383  12.608  66.422  1.00  0.00    -0.297 OA 
BRANCH  21  22
HETATM   22  C   UNL     1     -10.363  13.368  65.847  1.00  0.00    -0.290 C  
HETATM   23  C   UNL     1      -9.168  13.333  66.760  1.00  0.00    -0.237 C  
HETATM   24  O   UNL     1     -10.384  13.925  64.760  1.00  0.00    -0.418 OA 
ENDBRANCH  21  22
ENDBRANCH  17  21
ENDBRANCH  11  12
ENDBRANCH  10  11
ENDBRANCH   7  10
ENDBRANCH   6   7
ENDBRANCH   4   6
ENDBRANCH   2   4
TORSDOF 8
ENDMDL
MODEL      116
REMARK 921   NORMALIZED FREE ENERGY PREDICTED BY IDOCK:   -4.11 KCAL/MOL
REMARK 922        TOTAL FREE ENERGY PREDICTED BY IDOCK:   -7.27 KCAL/MOL
REMARK 923 INTER-LIGAND FREE ENERGY PREDICTED BY IDOCK:   -6.62 KCAL/MOL
REMARK 924 INTRA-LIGAND FREE ENERGY PREDICTED BY IDOCK:   -0.65 KCAL/MOL
REMARK 927      BINDING AFFINITY PREDICTED BY RF-SCORE:    0.00 PKD
ROOT
HETATM    1  C   UNL     1     -12.686  15.024  71.165  1.00  0.00    -0.431 C  
HETATM    2  C   UNL     1     -12.672  14.518  72.608  1.00  0.00    -0.357 C  
HETATM    3  C   UNL     1     -13.073  15.654  73.554  1.00  0.00    -0.638 C  
ENDROOT
BRANCH   2   4
HETATM    4  N   UNL     1     -13.588  13.377  72.703  1.00  0.00    -0.685 NA 
HETATM    5  H   UNL     1     -14.549  13.693  72.842  1.00  0.00     0.000 HD 
BRANCH   4   6
HETATM    6  C   UNL     1     -13.498  12.468  71.555  1.00  0.00     0.066 C  
BRANCH   6   7
HETATM    7  C   UNL     1     -13.180  11.032  72.019  1.00  0.00    -0.342 C  
HETATM    8  O   UNL     1     -14.361  10.431  72.568  1.00  0.00    -0.036 OA 
HETATM    9  H   UNL     1     -14.166   9.547  72.854  1.00  0.00     0.000 HD 
BRANCH   7  10
HETATM   10  C   UNL     1     -12.663  10.189  70.847  1.00  0.00    -0.357 C  
BRANCH  10  11
HETATM   11  O   UNL     1     -11.265  10.476  70.666  1.00  0.00    -0.316 OA 
BRANCH  11  12
HETATM   12  C   UNL     1     -10.870  10.753  69.385  1.00  0.00    -0.244 A  
HETATM   13  C   UNL     1      -9.646  10.206  68.954  1.00  0.00    -0.186 A  
HETATM   14  C   UNL     1      -9.206  10.463  67.633  1.00  0.00    -0.157 A  
HETATM   15  C   UNL     1      -8.803   9.386  69.900  1.00  0.00    -0.212 C  
HETATM   16  C   UNL     1      -7.920   9.887  67.092  1.00  0.00    -0.109 C  
HETATM   17  C   UNL     1      -9.977  11.305  66.793  1.00  0.00    -0.206 A  
HETATM   18  C   UNL     1     -11.142  11.927  67.254  1.00  0.00    -0.344 A  
HETATM   19  C   UNL     1     -11.940  12.928  66.472  1.00  0.00    -0.447 C  
HETATM   20  C   UNL     1     -11.591  11.605  68.541  1.00  0.00    -0.379 A  
BRANCH  17  21
HETATM   21  O   UNL     1      -9.384  11.588  65.528  1.00  0.00    -0.223 OA 
BRANCH  21  22
HETATM   22  C   UNL     1      -9.656  10.940  64.322  1.00  0.00    -0.272 C  
HETATM   23  C   UNL     1     -10.450  11.872  63.447  1.00  0.00    -0.487 C  
HETATM   24  O   UNL     1      -9.275   9.831  63.981  1.00  0.00    -0.261 OA 
ENDBRANCH  21  22
ENDBRANCH  17  21
ENDBRANCH  11  12
ENDBRANCH  10  11
ENDBRANCH   7  10
ENDBRANCH   6   7
ENDBRANCH   4   6
ENDBRANCH   2   4
TORSDOF 8
ENDMDL
MODEL      117
REMARK 921   NORMALIZED FREE ENERGY PREDICTED BY IDOCK:   -4.09 KCAL/MOL
REMARK 922        TOTAL FREE ENERGY PREDICTED BY IDOCK:   -7.24 KCAL/MOL
REMARK 923 INTER-LIGAND FREE ENERGY PREDICTED BY IDOCK:   -6.50 KCAL/MOL
REMARK 924 INTRA-LIGAND FREE ENERGY PREDICTED BY IDOCK:   -0.74 KCAL/MOL
REMARK 927      BINDING AFFINITY PREDICTED BY RF-SCORE:    0.00 PKD
ROOT
HETATM    1  C   UNL     1      -9.631   8.156  70.495  1.00  0.00    -0.177 C  
HETATM    2  C   UNL     1      -9.986   6.669  70.439  1.00  0.00    -0.175 C  
HETATM    3  C   UNL     1     -11.495   6.510  70.231  1.00  0.00    -0.474 C  
ENDROOT
BRANCH   2   4
HETATM    4  N   UNL     1      -9.216   6.054  69.354  1.00  0.00    -0.132 NA 
HETATM    5  H   UNL     1      -8.776   5.187  69.666  1.00  0.00     0.000 HD 
BRANCH   4   6
HETATM    6  C   UNL     1     -10.007   5.830  68.139  1.00  0.00    -0.148 C  
BRANCH   6   7
HETATM    7  C   UNL     1      -9.578   6.801  67.020  1.00  0.00    -0.152 C  
HETATM    8  O   UNL     1      -9.528   6.101  65.769  1.00  0.00    -0.367 OA 
HETATM    9  H   UNL     1      -9.263   6.699  65.080  1.00  0.00     0.000 HD 
BRANCH   7  10
HETATM   10  C   UNL     1     -10.558   7.977  66.921  1.00  0.00    -0.254 C  
BRANCH  10  11
HETATM   11  O   UNL     1      -9.855   9.106  66.374  1.00  0.00    -0.237 OA 
BRANCH  11  12
HETATM   12  C   UNL     1     -10.434  10.329  66.577  1.00  0.00    -0.173 A  
HETATM   13  C   UNL     1     -10.587  11.166  65.456  1.00  0.00    -0.289 A  
HETATM   14  C   UNL     1     -11.188  12.436  65.623  1.00  0.00    -0.360 A  
HETATM   15  C   UNL     1     -10.086  10.724  64.103  1.00  0.00    -0.418 C  
HETATM   16  C   UNL     1     -11.412  13.376  64.462  1.00  0.00    -0.402 C  
HETATM   17  C   UNL     1     -11.575  12.860  66.920  1.00  0.00    -0.368 A  
HETATM   18  C   UNL     1     -11.333  12.069  68.048  1.00  0.00    -0.358 A  
HETATM   19  C   UNL     1     -11.593  12.498  69.461  1.00  0.00    -0.348 C  
HETATM   20  C   UNL     1     -10.797  10.790  67.848  1.00  0.00    -0.313 A  
BRANCH  17  21
HETATM   21  O   UNL     1     -12.061  14.198  66.989  1.00  0.00    -0.427 OA 
BRANCH  21  22
HETATM   22  C   UNL     1     -11.425  15.279  67.600  1.00  0.00    -0.280 C  
HETATM   23  C   UNL     1     -10.166  15.588  66.837  1.00  0.00    -0.279 C  
HETATM   24  O   UNL     1     -11.829  15.926  68.555  1.00  0.00    -0.366 OA 
ENDBRANCH  21  22
ENDBRANCH  17  21
ENDBRANCH  11  12
ENDBRANCH  10  11
ENDBRANCH   7  10
ENDBRANCH   6   7
ENDBRANCH   4   6
ENDBRANCH   2   4
TORSDOF 8
ENDMDL
MODEL      118
REMARK 921   NORMALIZED FREE ENERGY PREDICTED BY IDOCK:   -4.07 KCAL/MOL
REMARK 922        TOTAL FREE ENERGY PREDICTED BY IDOCK:   -7.21 KCAL/MOL
REMARK 923 INTER-LIGAND FREE ENERGY PREDICTED BY IDOCK:   -6.87 KCAL/MOL
REMARK 924 INTRA-LIGAND FREE ENERGY PREDICTED BY IDOCK:   -0.34 KCAL/MOL
REMARK 927      BINDING AFFINITY PREDICTED BY RF-SCORE:    0.00 PKD
ROOT
HETATM    1  C   UNL     1     -10.083  11.228  63.167  1.00  0.00    -0.385 C  
HETATM    2  C   UNL     1     -10.531  12.517  63.860  1.00  0.00    -0.434 C  
HETATM    3  C   UNL     1     -12.056  12.524  63.992  1.00  0.00    -0.557 C  
ENDROOT
BRANCH   2   4
HETATM    4  N   UNL     1      -9.867  12.589  65.166  1.00  0.00    -0.448 NA 
HETATM    5  H   UNL     1      -8.861  12.449  65.071  1.00  0.00     0.000 HD 
BRANCH   4   6
HETATM    6  C   UNL     1     -10.156  13.831  65.891  1.00  0.00    -0.313 C  
BRANCH   6   7
HETATM    7  C   UNL     1     -11.233  13.597  66.969  1.00  0.00    -0.312 C  
HETATM    8  O   UNL     1     -10.692  12.787  68.021  1.00  0.00    -0.218 OA 
HETATM    9  H   UNL     1     -11.356  12.642  68.686  1.00  0.00     0.000 HD 
BRANCH   7  10
HETATM   10  C   UNL     1     -11.724  14.934  67.540  1.00  0.00    -0.308 C  
BRANCH  10  11
HETATM   11  O   UNL     1     -10.913  15.262  68.682  1.00  0.00    -0.237 OA 
BRANCH  11  12
HETATM   12  C   UNL     1     -10.019  16.283  68.510  1.00  0.00    -0.234 A  
HETATM   13  C   UNL     1      -8.650  15.956  68.544  1.00  0.00    -0.190 A  
HETATM   14  C   UNL     1      -7.693  16.983  68.362  1.00  0.00    -0.230 A  
HETATM   15  C   UNL     1      -8.214  14.535  68.803  1.00  0.00    -0.146 C  
HETATM   16  C   UNL     1      -6.209  16.703  68.356  1.00  0.00    -0.133 C  
HETATM   17  C   UNL     1      -8.130  18.323  68.203  1.00  0.00    -0.285 A  
HETATM   18  C   UNL     1      -9.486  18.660  68.268  1.00  0.00    -0.369 A  
HETATM   19  C   UNL     1     -10.016  20.063  68.239  1.00  0.00    -0.508 C  
HETATM   20  C   UNL     1     -10.415  17.619  68.383  1.00  0.00    -0.360 A  
BRANCH  17  21
HETATM   21  O   UNL     1      -7.082  19.287  68.145  1.00  0.00    -0.250 OA 
BRANCH  21  22
HETATM   22  C   UNL     1      -6.805  20.144  67.079  1.00  0.00    -0.229 C  
HETATM   23  C   UNL     1      -6.268  19.327  65.935  1.00  0.00    -0.220 C  
HETATM   24  O   UNL     1      -7.011  21.348  67.029  1.00  0.00    -0.508 OA 
ENDBRANCH  21  22
ENDBRANCH  17  21
ENDBRANCH  11  12
ENDBRANCH  10  11
ENDBRANCH   7  10
ENDBRANCH   6   7
ENDBRANCH   4   6
ENDBRANCH   2   4
TORSDOF 8
ENDMDL
MODEL      119
REMARK 921   NORMALIZED FREE ENERGY PREDICTED BY IDOCK:   -4.02 KCAL/MOL
REMARK 922        TOTAL FREE ENERGY PREDICTED BY IDOCK:   -7.13 KCAL/MOL
REMARK 923 INTER-LIGAND FREE ENERGY PREDICTED BY IDOCK:   -6.45 KCAL/MOL
REMARK 924 INTRA-LIGAND FREE ENERGY PREDICTED BY IDOCK:   -0.68 KCAL/MOL
REMARK 927      BINDING AFFINITY PREDICTED BY RF-SCORE:    0.00 PKD
ROOT
HETATM    1  C   UNL     1      -6.445  20.192  68.157  1.00  0.00    -0.309 C  
HETATM    2  C   UNL     1      -7.046  19.071  67.307  1.00  0.00    -0.207 C  
HETATM    3  C   UNL     1      -6.261  17.777  67.537  1.00  0.00    -0.171 C  
ENDROOT
BRANCH   2   4
HETATM    4  N   UNL     1      -8.459  18.927  67.672  1.00  0.00    -0.277 NA 
HETATM    5  H   UNL     1      -8.843  19.815  67.997  1.00  0.00     0.000 HD 
BRANCH   4   6
HETATM    6  C   UNL     1      -9.279  18.368  66.592  1.00  0.00    -0.304 C  
BRANCH   6   7
HETATM    7  C   UNL     1      -9.832  16.984  66.986  1.00  0.00    -0.270 C  
HETATM    8  O   UNL     1     -10.871  17.141  67.963  1.00  0.00    -0.378 OA 
HETATM    9  H   UNL     1     -11.212  16.288  68.206  1.00  0.00     0.000 HD 
BRANCH   7  10
HETATM   10  C   UNL     1     -10.381  16.251  65.755  1.00  0.00    -0.374 C  
BRANCH  10  11
HETATM   11  O   UNL     1     -11.436  15.373  66.185  1.00  0.00    -0.178 OA 
BRANCH  11  12
HETATM   12  C   UNL     1     -11.226  14.037  65.978  1.00  0.00    -0.310 A  
HETATM   13  C   UNL     1     -11.394  13.178  67.081  1.00  0.00    -0.354 A  
HETATM   14  C   UNL     1     -11.193  11.788  66.906  1.00  0.00    -0.387 A  
HETATM   15  C   UNL     1     -11.751  13.740  68.435  1.00  0.00    -0.393 C  
HETATM   16  C   UNL     1     -11.383  10.803  68.036  1.00  0.00    -0.378 C  
HETATM   17  C   UNL     1     -10.777  11.297  65.643  1.00  0.00    -0.217 A  
HETATM   18  C   UNL     1     -10.516  12.161  64.574  1.00  0.00    -0.339 A  
HETATM   19  C   UNL     1      -9.952  11.734  63.252  1.00  0.00    -0.435 C  
HETATM   20  C   UNL     1     -10.785  13.524  64.753  1.00  0.00    -0.412 A  
BRANCH  17  21
HETATM   21  O   UNL     1     -10.493   9.901  65.611  1.00  0.00    -0.144 OA 
BRANCH  21  22
HETATM   22  C   UNL     1      -9.257   9.301  65.857  1.00  0.00    -0.219 C  
HETATM   23  C   UNL     1      -9.493   7.956  66.486  1.00  0.00    -0.277 C  
HETATM   24  O   UNL     1      -8.155   9.742  65.565  1.00  0.00    -0.118 OA 
ENDBRANCH  21  22
ENDBRANCH  17  21
ENDBRANCH  11  12
ENDBRANCH  10  11
ENDBRANCH   7  10
ENDBRANCH   6   7
ENDBRANCH   4   6
ENDBRANCH   2   4
TORSDOF 8
ENDMDL
MODEL      120
REMARK 921   NORMALIZED FREE ENERGY PREDICTED BY IDOCK:   -4.00 KCAL/MOL
REMARK 922        TOTAL FREE ENERGY PREDICTED BY IDOCK:   -7.11 KCAL/MOL
REMARK 923 INTER-LIGAND FREE ENERGY PREDICTED BY IDOCK:   -6.51 KCAL/MOL
REMARK 924 INTRA-LIGAND FREE ENERGY PREDICTED BY IDOCK:   -0.60 KCAL/MOL
REMARK 927      BINDING AFFINITY PREDICTED BY RF-SCORE:    0.00 PKD
ROOT
HETATM    1  C   UNL     1      -7.395   8.315  74.035  1.00  0.00    -0.211 C  
HETATM    2  C   UNL     1      -8.514   7.472  73.423  1.00  0.00    -0.151 C  
HETATM    3  C   UNL     1      -9.063   6.506  74.477  1.00  0.00    -0.208 C  
ENDROOT
BRANCH   2   4
HETATM    4  N   UNL     1      -9.550   8.380  72.920  1.00  0.00    -0.243 NA 
HETATM    5  H   UNL     1      -9.175   8.995  72.197  1.00  0.00     0.000 HD 
BRANCH   4   6
HETATM    6  C   UNL     1     -10.748   7.680  72.441  1.00  0.00    -0.280 C  
BRANCH   6   7
HETATM    7  C   UNL     1     -10.821   7.713  70.902  1.00  0.00    -0.241 C  
HETATM    8  O   UNL     1     -12.044   7.105  70.465  1.00  0.00    -0.526 OA 
HETATM    9  H   UNL     1     -12.090   7.125  69.516  1.00  0.00     0.000 HD 
BRANCH   7  10
HETATM   10  C   UNL     1     -10.744   9.157  70.388  1.00  0.00    -0.238 C  
BRANCH  10  11
HETATM   11  O   UNL     1     -11.534   9.253  69.190  1.00  0.00     0.150 OA 
BRANCH  11  12
HETATM   12  C   UNL     1     -11.378  10.399  68.459  1.00  0.00    -0.220 A  
HETATM   13  C   UNL     1     -10.744  10.286  67.207  1.00  0.00    -0.323 A  
HETATM   14  C   UNL     1     -10.570  11.447  66.417  1.00  0.00    -0.311 A  
HETATM   15  C   UNL     1     -10.230   8.948  66.733  1.00  0.00    -0.348 C  
HETATM   16  C   UNL     1      -9.926  11.398  65.052  1.00  0.00    -0.312 C  
HETATM   17  C   UNL     1     -10.988  12.704  66.923  1.00  0.00    -0.262 A  
HETATM   18  C   UNL     1     -11.528  12.830  68.207  1.00  0.00    -0.354 A  
HETATM   19  C   UNL     1     -11.873  14.134  68.862  1.00  0.00    -0.382 C  
HETATM   20  C   UNL     1     -11.750  11.659  68.943  1.00  0.00    -0.397 A  
BRANCH  17  21
HETATM   21  O   UNL     1     -10.660  13.817  66.097  1.00  0.00    -0.284 OA 
BRANCH  21  22
HETATM   22  C   UNL     1     -11.505  14.446  65.181  1.00  0.00    -0.362 C  
HETATM   23  C   UNL     1     -10.953  15.812  64.879  1.00  0.00    -0.443 C  
HETATM   24  O   UNL     1     -12.497  13.970  64.648  1.00  0.00    -0.568 OA 
ENDBRANCH  21  22
ENDBRANCH  17  21
ENDBRANCH  11  12
ENDBRANCH  10  11
ENDBRANCH   7  10
ENDBRANCH   6   7
ENDBRANCH   4   6
ENDBRANCH   2   4
TORSDOF 8
ENDMDL
MODEL      121
REMARK 921   NORMALIZED FREE ENERGY PREDICTED BY IDOCK:   -4.00 KCAL/MOL
REMARK 922        TOTAL FREE ENERGY PREDICTED BY IDOCK:   -7.10 KCAL/MOL
REMARK 923 INTER-LIGAND FREE ENERGY PREDICTED BY IDOCK:   -6.06 KCAL/MOL
REMARK 924 INTRA-LIGAND FREE ENERGY PREDICTED BY IDOCK:   -1.04 KCAL/MOL
REMARK 927      BINDING AFFINITY PREDICTED BY RF-SCORE:    0.00 PKD
ROOT
HETATM    1  C   UNL     1     -11.770  11.548  69.723  1.00  0.00    -0.426 C  
HETATM    2  C   UNL     1     -11.027  10.233  69.960  1.00  0.00    -0.311 C  
HETATM    3  C   UNL     1     -11.370   9.694  71.351  1.00  0.00    -0.444 C  
ENDROOT
BRANCH   2   4
HETATM    4  N   UNL     1     -11.408   9.293  68.900  1.00  0.00    -0.377 NA 
HETATM    5  H   UNL     1     -11.915   9.772  68.155  1.00  0.00     0.000 HD 
BRANCH   4   6
HETATM    6  C   UNL     1     -10.269   8.543  68.358  1.00  0.00    -0.203 C  
BRANCH   6   7
HETATM    7  C   UNL     1      -9.085   9.484  68.062  1.00  0.00    -0.123 C  
HETATM    8  O   UNL     1      -7.874   8.721  67.976  1.00  0.00    -0.100 OA 
HETATM    9  H   UNL     1      -7.143   9.301  67.794  1.00  0.00     0.000 HD 
BRANCH   7  10
HETATM   10  C   UNL     1      -9.316  10.245  66.750  1.00  0.00    -0.160 C  
BRANCH  10  11
HETATM   11  O   UNL     1      -8.425  11.374  66.720  1.00  0.00    -0.154 OA 
BRANCH  11  12
HETATM   12  C   UNL     1      -9.014  12.605  66.817  1.00  0.00    -0.197 A  
HETATM   13  C   UNL     1      -8.388  13.558  67.643  1.00  0.00    -0.179 A  
HETATM   14  C   UNL     1      -8.962  14.846  67.765  1.00  0.00    -0.177 A  
HETATM   15  C   UNL     1      -7.140  13.195  68.412  1.00  0.00    -0.107 C  
HETATM   16  C   UNL     1      -8.331  15.927  68.609  1.00  0.00    -0.195 C  
HETATM   17  C   UNL     1     -10.179  15.132  67.097  1.00  0.00    -0.247 A  
HETATM   18  C   UNL     1     -10.852  14.155  66.356  1.00  0.00    -0.304 A  
HETATM   19  C   UNL     1     -12.202  14.341  65.729  1.00  0.00    -0.415 C  
HETATM   20  C   UNL     1     -10.232  12.910  66.198  1.00  0.00    -0.286 A  
BRANCH  17  21
HETATM   21  O   UNL     1     -10.727  16.417  67.382  1.00  0.00    -0.322 OA 
BRANCH  21  22
HETATM   22  C   UNL     1     -10.629  17.555  66.579  1.00  0.00    -0.191 C  
HETATM   23  C   UNL     1     -10.568  18.766  67.469  1.00  0.00    -0.497 C  
HETATM   24  O   UNL     1     -10.542  17.590  65.360  1.00  0.00    -0.648 OA 
ENDBRANCH  21  22
ENDBRANCH  17  21
ENDBRANCH  11  12
ENDBRANCH  10  11
ENDBRANCH   7  10
ENDBRANCH   6   7
ENDBRANCH   4   6
ENDBRANCH   2   4
TORSDOF 8
ENDMDL
MODEL      122
REMARK 921   NORMALIZED FREE ENERGY PREDICTED BY IDOCK:   -4.00 KCAL/MOL
REMARK 922        TOTAL FREE ENERGY PREDICTED BY IDOCK:   -7.10 KCAL/MOL
REMARK 923 INTER-LIGAND FREE ENERGY PREDICTED BY IDOCK:   -5.48 KCAL/MOL
REMARK 924 INTRA-LIGAND FREE ENERGY PREDICTED BY IDOCK:   -1.62 KCAL/MOL
REMARK 927      BINDING AFFINITY PREDICTED BY RF-SCORE:    0.00 PKD
ROOT
HETATM    1  C   UNL     1     -10.239  11.076  63.861  1.00  0.00    -0.425 C  
HETATM    2  C   UNL     1     -10.812  12.489  63.982  1.00  0.00    -0.406 C  
HETATM    3  C   UNL     1     -12.220  12.422  64.581  1.00  0.00    -0.499 C  
ENDROOT
BRANCH   2   4
HETATM    4  N   UNL     1      -9.901  13.284  64.812  1.00  0.00    -0.593 NA 
HETATM    5  H   UNL     1      -8.971  13.323  64.396  1.00  0.00     0.000 HD 
BRANCH   4   6
HETATM    6  C   UNL     1     -10.406  14.632  65.094  1.00  0.00    -0.403 C  
BRANCH   6   7
HETATM    7  C   UNL     1     -10.396  14.914  66.610  1.00  0.00    -0.283 C  
HETATM    8  O   UNL     1     -11.635  14.481  67.187  1.00  0.00    -0.359 OA 
HETATM    9  H   UNL     1     -11.630  14.654  68.122  1.00  0.00     0.000 HD 
BRANCH   7  10
HETATM   10  C   UNL     1      -9.224  14.189  67.285  1.00  0.00    -0.219 C  
BRANCH  10  11
HETATM   11  O   UNL     1      -9.741  13.031  67.964  1.00  0.00    -0.211 OA 
BRANCH  11  12
HETATM   12  C   UNL     1      -9.203  11.829  67.591  1.00  0.00    -0.180 A  
HETATM   13  C   UNL     1     -10.057  10.709  67.598  1.00  0.00    -0.208 A  
HETATM   14  C   UNL     1      -9.541   9.449  67.212  1.00  0.00    -0.194 A  
HETATM   15  C   UNL     1     -11.492  10.849  68.043  1.00  0.00    -0.356 C  
HETATM   16  C   UNL     1     -10.403   8.210  67.167  1.00  0.00    -0.391 C  
HETATM   17  C   UNL     1      -8.168   9.330  66.879  1.00  0.00    -0.119 A  
HETATM   18  C   UNL     1      -7.299  10.423  66.966  1.00  0.00    -0.097 A  
HETATM   19  C   UNL     1      -5.815  10.350  66.756  1.00  0.00    -0.058 C  
HETATM   20  C   UNL     1      -7.846  11.671  67.287  1.00  0.00    -0.157 A  
BRANCH  17  21
HETATM   21  O   UNL     1      -7.731   7.998  66.619  1.00  0.00    -0.091 OA 
BRANCH  21  22
HETATM   22  C   UNL     1      -7.098   7.546  65.460  1.00  0.00    -0.061 C  
HETATM   23  C   UNL     1      -7.862   8.055  64.267  1.00  0.00    -0.137 C  
HETATM   24  O   UNL     1      -6.064   6.899  65.391  1.00  0.00    -0.034 OA 
ENDBRANCH  21  22
ENDBRANCH  17  21
ENDBRANCH  11  12
ENDBRANCH  10  11
ENDBRANCH   7  10
ENDBRANCH   6   7
ENDBRANCH   4   6
ENDBRANCH   2   4
TORSDOF 8
ENDMDL
MODEL      123
REMARK 921   NORMALIZED FREE ENERGY PREDICTED BY IDOCK:   -3.98 KCAL/MOL
REMARK 922        TOTAL FREE ENERGY PREDICTED BY IDOCK:   -7.08 KCAL/MOL
REMARK 923 INTER-LIGAND FREE ENERGY PREDICTED BY IDOCK:   -6.41 KCAL/MOL
REMARK 924 INTRA-LIGAND FREE ENERGY PREDICTED BY IDOCK:   -0.68 KCAL/MOL
REMARK 927      BINDING AFFINITY PREDICTED BY RF-SCORE:    0.00 PKD
ROOT
HETATM    1  C   UNL     1     -11.542   8.290  72.448  1.00  0.00    -0.464 C  
HETATM    2  C   UNL     1     -12.063   9.123  71.277  1.00  0.00    -0.323 C  
HETATM    3  C   UNL     1     -13.034  10.187  71.796  1.00  0.00    -0.567 C  
ENDROOT
BRANCH   2   4
HETATM    4  N   UNL     1     -10.912   9.721  70.591  1.00  0.00    -0.307 NA 
HETATM    5  H   UNL     1     -10.101   9.761  71.210  1.00  0.00     0.000 HD 
BRANCH   4   6
HETATM    6  C   UNL     1     -10.575   9.046  69.333  1.00  0.00    -0.221 C  
BRANCH   6   7
HETATM    7  C   UNL     1     -10.804   9.985  68.131  1.00  0.00    -0.255 C  
HETATM    8  O   UNL     1     -12.091  10.607  68.245  1.00  0.00    -0.817 OA 
HETATM    9  H   UNL     1     -12.232  11.186  67.504  1.00  0.00     0.000 HD 
BRANCH   7  10
HETATM   10  C   UNL     1      -9.709  11.058  68.070  1.00  0.00    -0.172 C  
BRANCH  10  11
HETATM   11  O   UNL     1     -10.252  12.220  67.420  1.00  0.00    -0.202 OA 
BRANCH  11  12
HETATM   12  C   UNL     1      -9.758  13.426  67.837  1.00  0.00    -0.226 A  
HETATM   13  C   UNL     1     -10.587  14.553  67.680  1.00  0.00    -0.251 A  
HETATM   14  C   UNL     1     -10.116  15.818  68.106  1.00  0.00    -0.220 A  
HETATM   15  C   UNL     1     -11.946  14.415  67.037  1.00  0.00    -0.424 C  
HETATM   16  C   UNL     1     -10.960  17.066  67.997  1.00  0.00    -0.252 C  
HETATM   17  C   UNL     1      -8.804  15.933  68.631  1.00  0.00    -0.206 A  
HETATM   18  C   UNL     1      -7.945  14.830  68.695  1.00  0.00    -0.143 A  
HETATM   19  C   UNL     1      -6.506  14.895  69.114  1.00  0.00    -0.112 C  
HETATM   20  C   UNL     1      -8.456  13.579  68.328  1.00  0.00    -0.168 A  
BRANCH  17  21
HETATM   21  O   UNL     1      -8.392  17.266  68.919  1.00  0.00    -0.254 OA 
BRANCH  21  22
HETATM   22  C   UNL     1      -7.641  18.099  68.088  1.00  0.00    -0.265 C  
HETATM   23  C   UNL     1      -7.048  19.201  68.923  1.00  0.00    -0.372 C  
HETATM   24  O   UNL     1      -7.429  17.949  66.893  1.00  0.00    -0.185 OA 
ENDBRANCH  21  22
ENDBRANCH  17  21
ENDBRANCH  11  12
ENDBRANCH  10  11
ENDBRANCH   7  10
ENDBRANCH   6   7
ENDBRANCH   4   6
ENDBRANCH   2   4
TORSDOF 8
ENDMDL
MODEL      124
REMARK 921   NORMALIZED FREE ENERGY PREDICTED BY IDOCK:   -3.98 KCAL/MOL
REMARK 922        TOTAL FREE ENERGY PREDICTED BY IDOCK:   -7.08 KCAL/MOL
REMARK 923 INTER-LIGAND FREE ENERGY PREDICTED BY IDOCK:   -5.97 KCAL/MOL
REMARK 924 INTRA-LIGAND FREE ENERGY PREDICTED BY IDOCK:   -1.11 KCAL/MOL
REMARK 927      BINDING AFFINITY PREDICTED BY RF-SCORE:    0.00 PKD
ROOT
HETATM    1  C   UNL     1      -9.740  13.506  68.215  1.00  0.00    -0.224 C  
HETATM    2  C   UNL     1     -10.883  14.380  68.733  1.00  0.00    -0.251 C  
HETATM    3  C   UNL     1     -12.114  14.194  67.843  1.00  0.00    -0.309 C  
ENDROOT
BRANCH   2   4
HETATM    4  N   UNL     1     -11.152  14.006  70.126  1.00  0.00    -0.467 NA 
HETATM    5  H   UNL     1     -10.632  14.603  70.770  1.00  0.00     0.000 HD 
BRANCH   4   6
HETATM    6  C   UNL     1     -12.581  14.001  70.456  1.00  0.00    -0.329 C  
BRANCH   6   7
HETATM    7  C   UNL     1     -12.857  13.100  71.677  1.00  0.00    -0.291 C  
HETATM    8  O   UNL     1     -13.988  13.604  72.401  1.00  0.00    -0.587 OA 
HETATM    9  H   UNL     1     -14.158  13.050  73.153  1.00  0.00     0.000 HD 
BRANCH   7  10
HETATM   10  C   UNL     1     -13.124  11.656  71.232  1.00  0.00    -0.157 C  
BRANCH  10  11
HETATM   11  O   UNL     1     -11.971  10.862  71.561  1.00  0.00    -0.152 OA 
BRANCH  11  12
HETATM   12  C   UNL     1     -11.551   9.987  70.596  1.00  0.00    -0.340 A  
HETATM   13  C   UNL     1     -11.388   8.640  70.972  1.00  0.00    -0.322 A  
HETATM   14  C   UNL     1     -10.962   7.702  70.001  1.00  0.00    -0.237 A  
HETATM   15  C   UNL     1     -11.635   8.213  72.398  1.00  0.00    -0.463 C  
HETATM   16  C   UNL     1     -10.795   6.236  70.323  1.00  0.00    -0.366 C  
HETATM   17  C   UNL     1     -10.658   8.145  68.689  1.00  0.00    -0.109 A  
HETATM   18  C   UNL     1     -10.725   9.499  68.343  1.00  0.00    -0.230 A  
HETATM   19  C   UNL     1     -10.298  10.062  67.020  1.00  0.00    -0.305 C  
HETATM   20  C   UNL     1     -11.211  10.397  69.301  1.00  0.00    -0.304 A  
BRANCH  17  21
HETATM   21  O   UNL     1     -10.129   7.140  67.829  1.00  0.00    -0.154 OA 
BRANCH  21  22
HETATM   22  C   UNL     1      -8.780   6.923  67.541  1.00  0.00    -0.120 C  
HETATM   23  C   UNL     1      -8.682   6.186  66.233  1.00  0.00    -0.144 C  
HETATM   24  O   UNL     1      -7.818   7.309  68.189  1.00  0.00    -0.114 OA 
ENDBRANCH  21  22
ENDBRANCH  17  21
ENDBRANCH  11  12
ENDBRANCH  10  11
ENDBRANCH   7  10
ENDBRANCH   6   7
ENDBRANCH   4   6
ENDBRANCH   2   4
TORSDOF 8
ENDMDL
MODEL      125
REMARK 921   NORMALIZED FREE ENERGY PREDICTED BY IDOCK:   -3.97 KCAL/MOL
REMARK 922        TOTAL FREE ENERGY PREDICTED BY IDOCK:   -7.07 KCAL/MOL
REMARK 923 INTER-LIGAND FREE ENERGY PREDICTED BY IDOCK:   -6.10 KCAL/MOL
REMARK 924 INTRA-LIGAND FREE ENERGY PREDICTED BY IDOCK:   -0.97 KCAL/MOL
REMARK 927      BINDING AFFINITY PREDICTED BY RF-SCORE:    0.00 PKD
ROOT
HETATM    1  C   UNL     1     -12.319  11.842  70.881  1.00  0.00    -0.400 C  
HETATM    2  C   UNL     1     -12.046  11.013  69.625  1.00  0.00    -0.340 C  
HETATM    3  C   UNL     1     -10.731  11.468  68.987  1.00  0.00    -0.233 C  
ENDROOT
BRANCH   2   4
HETATM    4  N   UNL     1     -12.006   9.598  70.010  1.00  0.00    -0.459 NA 
HETATM    5  H   UNL     1     -11.163   9.147  69.653  1.00  0.00     0.000 HD 
BRANCH   4   6
HETATM    6  C   UNL     1     -12.138   9.390  71.457  1.00  0.00    -0.379 C  
BRANCH   6   7
HETATM    7  C   UNL     1     -13.280   8.401  71.765  1.00  0.00    -0.355 C  
HETATM    8  O   UNL     1     -14.395   8.671  70.904  1.00  0.00    -0.631 OA 
HETATM    9  H   UNL     1     -15.100   8.062  71.094  1.00  0.00     0.000 HD 
BRANCH   7  10
HETATM   10  C   UNL     1     -12.808   6.954  71.570  1.00  0.00    -0.333 C  
BRANCH  10  11
HETATM   11  O   UNL     1     -11.385   6.968  71.359  1.00  0.00    -0.248 OA 
BRANCH  11  12
HETATM   12  C   UNL     1     -10.912   6.113  70.402  1.00  0.00    -0.337 A  
HETATM   13  C   UNL     1     -10.204   4.978  70.842  1.00  0.00    -0.287 A  
HETATM   14  C   UNL     1      -9.704   4.065  69.882  1.00  0.00    -0.263 A  
HETATM   15  C   UNL     1      -9.955   4.761  72.314  1.00  0.00    -0.234 C  
HETATM   16  C   UNL     1      -8.961   2.812  70.281  1.00  0.00    -0.165 C  
HETATM   17  C   UNL     1      -9.881   4.337  68.503  1.00  0.00    -0.044 A  
HETATM   18  C   UNL     1     -10.498   5.513  68.064  1.00  0.00    -0.240 A  
HETATM   19  C   UNL     1     -10.608   5.934  66.629  1.00  0.00    -0.330 C  
HETATM   20  C   UNL     1     -11.041   6.368  69.032  1.00  0.00    -0.424 A  
BRANCH  17  21
HETATM   21  O   UNL     1      -9.239   3.414  67.627  1.00  0.00    -0.157 OA 
BRANCH  21  22
HETATM   22  C   UNL     1      -8.021   3.604  66.972  1.00  0.00    -0.087 C  
HETATM   23  C   UNL     1      -7.811   2.465  66.012  1.00  0.00    -0.081 C  
HETATM   24  O   UNL     1      -7.263   4.555  67.090  1.00  0.00    -0.070 OA 
ENDBRANCH  21  22
ENDBRANCH  17  21
ENDBRANCH  11  12
ENDBRANCH  10  11
ENDBRANCH   7  10
ENDBRANCH   6   7
ENDBRANCH   4   6
ENDBRANCH   2   4
TORSDOF 8
ENDMDL
MODEL      126
REMARK 921   NORMALIZED FREE ENERGY PREDICTED BY IDOCK:   -3.96 KCAL/MOL
REMARK 922        TOTAL FREE ENERGY PREDICTED BY IDOCK:   -7.05 KCAL/MOL
REMARK 923 INTER-LIGAND FREE ENERGY PREDICTED BY IDOCK:   -6.51 KCAL/MOL
REMARK 924 INTRA-LIGAND FREE ENERGY PREDICTED BY IDOCK:   -0.54 KCAL/MOL
REMARK 927      BINDING AFFINITY PREDICTED BY RF-SCORE:    0.00 PKD
ROOT
HETATM    1  C   UNL     1     -10.098  20.022  67.643  1.00  0.00    -0.562 C  
HETATM    2  C   UNL     1      -8.960  19.021  67.432  1.00  0.00    -0.291 C  
HETATM    3  C   UNL     1      -8.049  19.014  68.663  1.00  0.00    -0.397 C  
ENDROOT
BRANCH   2   4
HETATM    4  N   UNL     1      -9.551  17.702  67.181  1.00  0.00    -0.271 NA 
HETATM    5  H   UNL     1      -8.841  16.971  67.229  1.00  0.00     0.000 HD 
BRANCH   4   6
HETATM    6  C   UNL     1     -10.678  17.396  68.068  1.00  0.00    -0.359 C  
BRANCH   6   7
HETATM    7  C   UNL     1     -11.012  15.892  68.028  1.00  0.00    -0.336 C  
HETATM    8  O   UNL     1     -12.260  15.658  68.695  1.00  0.00    -0.560 OA 
HETATM    9  H   UNL     1     -12.467  14.731  68.671  1.00  0.00     0.000 HD 
BRANCH   7  10
HETATM   10  C   UNL     1     -11.095  15.396  66.578  1.00  0.00    -0.227 C  
BRANCH  10  11
HETATM   11  O   UNL     1     -11.653  14.070  66.586  1.00  0.00    -0.347 OA 
BRANCH  11  12
HETATM   12  C   UNL     1     -10.777  13.049  66.339  1.00  0.00    -0.282 A  
HETATM   13  C   UNL     1     -10.810  12.464  65.058  1.00  0.00    -0.331 A  
HETATM   14  C   UNL     1      -9.914  11.410  64.761  1.00  0.00    -0.313 A  
HETATM   15  C   UNL     1     -11.810  12.937  64.032  1.00  0.00    -0.512 C  
HETATM   16  C   UNL     1      -9.871  10.755  63.400  1.00  0.00    -0.400 C  
HETATM   17  C   UNL     1      -9.041  10.930  65.770  1.00  0.00    -0.196 A  
HETATM   18  C   UNL     1      -9.077  11.445  67.070  1.00  0.00    -0.169 A  
HETATM   19  C   UNL     1      -8.281  10.906  68.222  1.00  0.00    -0.127 C  
HETATM   20  C   UNL     1      -9.926  12.530  67.322  1.00  0.00    -0.211 A  
BRANCH  17  21
HETATM   21  O   UNL     1      -8.267   9.793  65.397  1.00  0.00    -0.122 OA 
BRANCH  21  22
HETATM   22  C   UNL     1      -8.654   8.457  65.505  1.00  0.00    -0.176 C  
HETATM   23  C   UNL     1      -7.763   7.627  64.620  1.00  0.00    -0.121 C  
HETATM   24  O   UNL     1      -9.522   7.998  66.233  1.00  0.00    -0.204 OA 
ENDBRANCH  21  22
ENDBRANCH  17  21
ENDBRANCH  11  12
ENDBRANCH  10  11
ENDBRANCH   7  10
ENDBRANCH   6   7
ENDBRANCH   4   6
ENDBRANCH   2   4
TORSDOF 8
ENDMDL
MODEL      127
REMARK 921   NORMALIZED FREE ENERGY PREDICTED BY IDOCK:   -3.96 KCAL/MOL
REMARK 922        TOTAL FREE ENERGY PREDICTED BY IDOCK:   -7.05 KCAL/MOL
REMARK 923 INTER-LIGAND FREE ENERGY PREDICTED BY IDOCK:   -6.59 KCAL/MOL
REMARK 924 INTRA-LIGAND FREE ENERGY PREDICTED BY IDOCK:   -0.46 KCAL/MOL
REMARK 927      BINDING AFFINITY PREDICTED BY RF-SCORE:    0.00 PKD
ROOT
HETATM    1  C   UNL     1     -13.600   9.272  71.988  1.00  0.00    -0.519 C  
HETATM    2  C   UNL     1     -12.210   8.635  72.006  1.00  0.00    -0.373 C  
HETATM    3  C   UNL     1     -12.334   7.127  71.772  1.00  0.00    -0.385 C  
ENDROOT
BRANCH   2   4
HETATM    4  N   UNL     1     -11.395   9.284  70.973  1.00  0.00    -0.293 NA 
HETATM    5  H   UNL     1     -10.717   9.921  71.392  1.00  0.00     0.000 HD 
BRANCH   4   6
HETATM    6  C   UNL     1     -10.731   8.329  70.078  1.00  0.00    -0.239 C  
BRANCH   6   7
HETATM    7  C   UNL     1     -10.243   9.032  68.795  1.00  0.00    -0.208 C  
HETATM    8  O   UNL     1     -11.111   8.699  67.704  1.00  0.00    -0.474 OA 
HETATM    9  H   UNL     1     -10.811   9.132  66.913  1.00  0.00     0.000 HD 
BRANCH   7  10
HETATM   10  C   UNL     1     -10.212  10.553  68.992  1.00  0.00    -0.216 C  
BRANCH  10  11
HETATM   11  O   UNL     1      -9.226  11.104  68.102  1.00  0.00    -0.153 OA 
BRANCH  11  12
HETATM   12  C   UNL     1      -9.527  12.320  67.551  1.00  0.00    -0.182 A  
HETATM   13  C   UNL     1      -8.541  13.322  67.617  1.00  0.00    -0.196 A  
HETATM   14  C   UNL     1      -8.811  14.591  67.052  1.00  0.00    -0.256 A  
HETATM   15  C   UNL     1      -7.227  13.052  68.310  1.00  0.00    -0.113 C  
HETATM   16  C   UNL     1      -7.791  15.705  67.060  1.00  0.00    -0.266 C  
HETATM   17  C   UNL     1     -10.084  14.843  66.481  1.00  0.00    -0.271 A  
HETATM   18  C   UNL     1     -11.097  13.879  66.503  1.00  0.00    -0.310 A  
HETATM   19  C   UNL     1     -12.504  14.111  66.037  1.00  0.00    -0.454 C  
HETATM   20  C   UNL     1     -10.784  12.611  67.008  1.00  0.00    -0.268 A  
BRANCH  17  21
HETATM   21  O   UNL     1     -10.287  16.186  66.048  1.00  0.00    -0.324 OA 
BRANCH  21  22
HETATM   22  C   UNL     1     -10.528  17.292  66.865  1.00  0.00    -0.272 C  
HETATM   23  C   UNL     1     -10.425  18.537  66.027  1.00  0.00    -0.433 C  
HETATM   24  O   UNL     1     -10.836  17.280  68.047  1.00  0.00    -0.381 OA 
ENDBRANCH  21  22
ENDBRANCH  17  21
ENDBRANCH  11  12
ENDBRANCH  10  11
ENDBRANCH   7  10
ENDBRANCH   6   7
ENDBRANCH   4   6
ENDBRANCH   2   4
TORSDOF 8
ENDMDL
MODEL      128
REMARK 921   NORMALIZED FREE ENERGY PREDICTED BY IDOCK:   -3.95 KCAL/MOL
REMARK 922        TOTAL FREE ENERGY PREDICTED BY IDOCK:   -7.03 KCAL/MOL
REMARK 923 INTER-LIGAND FREE ENERGY PREDICTED BY IDOCK:   -6.57 KCAL/MOL
REMARK 924 INTRA-LIGAND FREE ENERGY PREDICTED BY IDOCK:   -0.47 KCAL/MOL
REMARK 927      BINDING AFFINITY PREDICTED BY RF-SCORE:    0.00 PKD
ROOT
HETATM    1  C   UNL     1      -8.205   3.957  69.864  1.00  0.00    -0.068 C  
HETATM    2  C   UNL     1      -9.681   4.262  70.121  1.00  0.00    -0.212 C  
HETATM    3  C   UNL     1      -9.894   4.549  71.610  1.00  0.00    -0.258 C  
ENDROOT
BRANCH   2   4
HETATM    4  N   UNL     1     -10.067   5.403  69.283  1.00  0.00    -0.209 NA 
HETATM    5  H   UNL     1      -9.761   6.281  69.703  1.00  0.00     0.000 HD 
BRANCH   4   6
HETATM    6  C   UNL     1      -9.589   5.290  67.900  1.00  0.00    -0.134 C  
BRANCH   6   7
HETATM    7  C   UNL     1     -10.174   6.418  67.027  1.00  0.00    -0.205 C  
HETATM    8  O   UNL     1     -11.348   5.946  66.353  1.00  0.00    -0.730 OA 
HETATM    9  H   UNL     1     -11.709   6.641  65.815  1.00  0.00     0.000 HD 
BRANCH   7  10
HETATM   10  C   UNL     1     -10.521   7.640  67.887  1.00  0.00    -0.207 C  
BRANCH  10  11
HETATM   11  O   UNL     1     -10.242   8.825  67.120  1.00  0.00    -0.227 OA 
BRANCH  11  12
HETATM   12  C   UNL     1     -10.783   9.989  67.596  1.00  0.00    -0.284 A  
HETATM   13  C   UNL     1     -10.735  11.116  66.755  1.00  0.00    -0.326 A  
HETATM   14  C   UNL     1     -11.290  12.337  67.208  1.00  0.00    -0.392 A  
HETATM   15  C   UNL     1     -10.069  11.028  65.403  1.00  0.00    -0.326 C  
HETATM   16  C   UNL     1     -11.300  13.579  66.349  1.00  0.00    -0.335 C  
HETATM   17  C   UNL     1     -11.834  12.413  68.515  1.00  0.00    -0.304 A  
HETATM   18  C   UNL     1     -11.794  11.319  69.386  1.00  0.00    -0.424 A  
HETATM   19  C   UNL     1     -12.230  11.357  70.821  1.00  0.00    -0.475 C  
HETATM   20  C   UNL     1     -11.299  10.106  68.892  1.00  0.00    -0.176 A  
BRANCH  17  21
HETATM   21  O   UNL     1     -12.259  13.715  68.908  1.00  0.00    -0.336 OA 
BRANCH  21  22
HETATM   22  C   UNL     1     -11.559  14.601  69.728  1.00  0.00    -0.296 C  
HETATM   23  C   UNL     1     -12.313  14.756  71.021  1.00  0.00    -0.397 C  
HETATM   24  O   UNL     1     -10.482  15.129  69.491  1.00  0.00    -0.244 OA 
ENDBRANCH  21  22
ENDBRANCH  17  21
ENDBRANCH  11  12
ENDBRANCH  10  11
ENDBRANCH   7  10
ENDBRANCH   6   7
ENDBRANCH   4   6
ENDBRANCH   2   4
TORSDOF 8
ENDMDL
MODEL      129
REMARK 921   NORMALIZED FREE ENERGY PREDICTED BY IDOCK:   -3.95 KCAL/MOL
REMARK 922        TOTAL FREE ENERGY PREDICTED BY IDOCK:   -7.03 KCAL/MOL
REMARK 923 INTER-LIGAND FREE ENERGY PREDICTED BY IDOCK:   -5.52 KCAL/MOL
REMARK 924 INTRA-LIGAND FREE ENERGY PREDICTED BY IDOCK:   -1.51 KCAL/MOL
REMARK 927      BINDING AFFINITY PREDICTED BY RF-SCORE:    0.00 PKD
ROOT
HETATM    1  C   UNL     1     -11.647  13.550  69.433  1.00  0.00    -0.369 C  
HETATM    2  C   UNL     1     -11.660  15.072  69.578  1.00  0.00    -0.311 C  
HETATM    3  C   UNL     1     -12.679  15.477  70.646  1.00  0.00    -0.487 C  
ENDROOT
BRANCH   2   4
HETATM    4  N   UNL     1     -10.304  15.512  69.921  1.00  0.00    -0.304 NA 
HETATM    5  H   UNL     1      -9.639  14.744  69.830  1.00  0.00     0.000 HD 
BRANCH   4   6
HETATM    6  C   UNL     1      -9.863  16.679  69.148  1.00  0.00    -0.244 C  
BRANCH   6   7
HETATM    7  C   UNL     1     -10.670  16.805  67.840  1.00  0.00    -0.347 C  
HETATM    8  O   UNL     1     -10.971  18.185  67.591  1.00  0.00    -0.324 OA 
HETATM    9  H   UNL     1     -11.468  18.263  66.785  1.00  0.00     0.000 HD 
BRANCH   7  10
HETATM   10  C   UNL     1      -9.879  16.222  66.661  1.00  0.00    -0.253 C  
BRANCH  10  11
HETATM   11  O   UNL     1      -8.780  15.459  67.188  1.00  0.00    -0.191 OA 
BRANCH  11  12
HETATM   12  C   UNL     1      -8.907  14.098  67.121  1.00  0.00    -0.229 A  
HETATM   13  C   UNL     1      -8.110  13.330  67.991  1.00  0.00    -0.157 A  
HETATM   14  C   UNL     1      -8.218  11.919  67.958  1.00  0.00    -0.157 A  
HETATM   15  C   UNL     1      -7.133  14.005  68.922  1.00  0.00    -0.111 C  
HETATM   16  C   UNL     1      -7.417  11.033  68.881  1.00  0.00    -0.123 C  
HETATM   17  C   UNL     1      -9.084  11.309  67.016  1.00  0.00    -0.163 A  
HETATM   18  C   UNL     1      -9.802  12.068  66.085  1.00  0.00    -0.255 A  
HETATM   19  C   UNL     1     -10.635  11.493  64.978  1.00  0.00    -0.354 C  
HETATM   20  C   UNL     1      -9.728  13.463  66.182  1.00  0.00    -0.260 A  
BRANCH  17  21
HETATM   21  O   UNL     1      -9.028   9.885  66.991  1.00  0.00    -0.137 OA 
BRANCH  21  22
HETATM   22  C   UNL     1     -10.072   9.010  67.293  1.00  0.00    -0.234 C  
HETATM   23  C   UNL     1     -10.717   9.457  68.576  1.00  0.00    -0.203 C  
HETATM   24  O   UNL     1     -10.462   8.069  66.617  1.00  0.00    -0.303 OA 
ENDBRANCH  21  22
ENDBRANCH  17  21
ENDBRANCH  11  12
ENDBRANCH  10  11
ENDBRANCH   7  10
ENDBRANCH   6   7
ENDBRANCH   4   6
ENDBRANCH   2   4
TORSDOF 8
ENDMDL
MODEL      130
REMARK 921   NORMALIZED FREE ENERGY PREDICTED BY IDOCK:   -3.94 KCAL/MOL
REMARK 922        TOTAL FREE ENERGY PREDICTED BY IDOCK:   -7.03 KCAL/MOL
REMARK 923 INTER-LIGAND FREE ENERGY PREDICTED BY IDOCK:   -6.04 KCAL/MOL
REMARK 924 INTRA-LIGAND FREE ENERGY PREDICTED BY IDOCK:   -0.99 KCAL/MOL
REMARK 927      BINDING AFFINITY PREDICTED BY RF-SCORE:    0.00 PKD
ROOT
HETATM    1  C   UNL     1      -9.815   9.978  68.525  1.00  0.00    -0.168 C  
HETATM    2  C   UNL     1     -10.991  10.724  67.893  1.00  0.00    -0.289 C  
HETATM    3  C   UNL     1     -11.810  11.412  68.989  1.00  0.00    -0.415 C  
ENDROOT
BRANCH   2   4
HETATM    4  N   UNL     1     -10.457  11.686  66.923  1.00  0.00    -0.220 NA 
HETATM    5  H   UNL     1      -9.568  11.362  66.542  1.00  0.00     0.000 HD 
BRANCH   4   6
HETATM    6  C   UNL     1     -11.401  12.006  65.848  1.00  0.00    -0.337 C  
BRANCH   6   7
HETATM    7  C   UNL     1     -11.623  13.529  65.750  1.00  0.00    -0.330 C  
HETATM    8  O   UNL     1     -12.478  13.960  66.817  1.00  0.00    -0.459 OA 
HETATM    9  H   UNL     1     -12.615  14.898  66.757  1.00  0.00     0.000 HD 
BRANCH   7  10
HETATM   10  C   UNL     1     -10.283  14.274  65.821  1.00  0.00    -0.334 C  
BRANCH  10  11
HETATM   11  O   UNL     1     -10.032  14.619  67.195  1.00  0.00    -0.237 OA 
BRANCH  11  12
HETATM   12  C   UNL     1      -9.329  15.774  67.404  1.00  0.00    -0.210 A  
HETATM   13  C   UNL     1      -9.979  16.810  68.102  1.00  0.00    -0.270 A  
HETATM   14  C   UNL     1      -9.282  18.018  68.344  1.00  0.00    -0.301 A  
HETATM   15  C   UNL     1     -11.409  16.641  68.554  1.00  0.00    -0.152 C  
HETATM   16  C   UNL     1      -9.905  19.161  69.111  1.00  0.00    -0.359 C  
HETATM   17  C   UNL     1      -7.969  18.180  67.836  1.00  0.00    -0.246 A  
HETATM   18  C   UNL     1      -7.360  17.189  67.059  1.00  0.00    -0.216 A  
HETATM   19  C   UNL     1      -6.031  17.336  66.380  1.00  0.00    -0.228 C  
HETATM   20  C   UNL     1      -8.044  15.979  66.888  1.00  0.00    -0.282 A  
BRANCH  17  21
HETATM   21  O   UNL     1      -7.408  19.474  68.038  1.00  0.00    -0.265 OA 
BRANCH  21  22
HETATM   22  C   UNL     1      -7.328  20.499  67.093  1.00  0.00    -0.325 C  
HETATM   23  C   UNL     1      -6.064  21.277  67.337  1.00  0.00    -0.434 C  
HETATM   24  O   UNL     1      -8.103  20.713  66.173  1.00  0.00     0.038 OA 
ENDBRANCH  21  22
ENDBRANCH  17  21
ENDBRANCH  11  12
ENDBRANCH  10  11
ENDBRANCH   7  10
ENDBRANCH   6   7
ENDBRANCH   4   6
ENDBRANCH   2   4
TORSDOF 8
ENDMDL
MODEL      131
REMARK 921   NORMALIZED FREE ENERGY PREDICTED BY IDOCK:   -3.93 KCAL/MOL
REMARK 922        TOTAL FREE ENERGY PREDICTED BY IDOCK:   -7.01 KCAL/MOL
REMARK 923 INTER-LIGAND FREE ENERGY PREDICTED BY IDOCK:   -5.82 KCAL/MOL
REMARK 924 INTRA-LIGAND FREE ENERGY PREDICTED BY IDOCK:   -1.19 KCAL/MOL
REMARK 927      BINDING AFFINITY PREDICTED BY RF-SCORE:    0.00 PKD
ROOT
HETATM    1  C   UNL     1     -10.333  19.253  67.959  1.00  0.00    -0.506 C  
HETATM    2  C   UNL     1     -10.386  18.843  66.486  1.00  0.00    -0.431 C  
HETATM    3  C   UNL     1     -10.749  20.059  65.629  1.00  0.00    -0.321 C  
ENDROOT
BRANCH   2   4
HETATM    4  N   UNL     1      -9.080  18.284  66.119  1.00  0.00    -0.502 NA 
HETATM    5  H   UNL     1      -8.820  18.562  65.172  1.00  0.00     0.000 HD 
BRANCH   4   6
HETATM    6  C   UNL     1      -8.019  18.621  67.074  1.00  0.00    -0.246 C  
BRANCH   6   7
HETATM    7  C   UNL     1      -6.891  17.571  67.030  1.00  0.00    -0.176 C  
HETATM    8  O   UNL     1      -5.620  18.232  66.981  1.00  0.00    -0.136 OA 
HETATM    9  H   UNL     1      -4.924  17.585  66.954  1.00  0.00     0.000 HD 
BRANCH   7  10
HETATM   10  C   UNL     1      -6.956  16.658  68.262  1.00  0.00    -0.155 C  
BRANCH  10  11
HETATM   11  O   UNL     1      -8.333  16.310  68.493  1.00  0.00    -0.184 OA 
BRANCH  11  12
HETATM   12  C   UNL     1      -8.727  15.085  68.027  1.00  0.00    -0.159 A  
HETATM   13  C   UNL     1     -10.110  14.821  67.992  1.00  0.00    -0.218 A  
HETATM   14  C   UNL     1     -10.559  13.568  67.510  1.00  0.00    -0.247 A  
HETATM   15  C   UNL     1     -11.094  15.850  68.493  1.00  0.00    -0.340 C  
HETATM   16  C   UNL     1     -12.027  13.225  67.416  1.00  0.00    -0.383 C  
HETATM   17  C   UNL     1      -9.609  12.589  67.124  1.00  0.00    -0.208 A  
HETATM   18  C   UNL     1      -8.235  12.815  67.251  1.00  0.00    -0.181 A  
HETATM   19  C   UNL     1      -7.174  11.788  66.986  1.00  0.00    -0.134 C  
HETATM   20  C   UNL     1      -7.816  14.085  67.668  1.00  0.00    -0.185 A  
BRANCH  17  21
HETATM   21  O   UNL     1     -10.167  11.327  66.765  1.00  0.00    -0.212 OA 
BRANCH  21  22
HETATM   22  C   UNL     1     -10.068  10.701  65.522  1.00  0.00    -0.280 C  
HETATM   23  C   UNL     1     -10.263  11.736  64.448  1.00  0.00    -0.332 C  
HETATM   24  O   UNL     1      -9.804   9.527  65.308  1.00  0.00    -0.282 OA 
ENDBRANCH  21  22
ENDBRANCH  17  21
ENDBRANCH  11  12
ENDBRANCH  10  11
ENDBRANCH   7  10
ENDBRANCH   6   7
ENDBRANCH   4   6
ENDBRANCH   2   4
TORSDOF 8
ENDMDL
MODEL      132
REMARK 921   NORMALIZED FREE ENERGY PREDICTED BY IDOCK:   -3.92 KCAL/MOL
REMARK 922        TOTAL FREE ENERGY PREDICTED BY IDOCK:   -7.00 KCAL/MOL
REMARK 923 INTER-LIGAND FREE ENERGY PREDICTED BY IDOCK:   -6.54 KCAL/MOL
REMARK 924 INTRA-LIGAND FREE ENERGY PREDICTED BY IDOCK:   -0.45 KCAL/MOL
REMARK 927      BINDING AFFINITY PREDICTED BY RF-SCORE:    0.00 PKD
ROOT
HETATM    1  C   UNL     1     -12.826  10.287  71.349  1.00  0.00    -0.544 C  
HETATM    2  C   UNL     1     -11.378   9.824  71.175  1.00  0.00    -0.389 C  
HETATM    3  C   UNL     1     -11.344   8.305  70.989  1.00  0.00    -0.299 C  
ENDROOT
BRANCH   2   4
HETATM    4  N   UNL     1     -10.807  10.530  70.023  1.00  0.00    -0.381 NA 
HETATM    5  H   UNL     1     -10.498   9.870  69.309  1.00  0.00     0.000 HD 
BRANCH   4   6
HETATM    6  C   UNL     1     -11.715  11.531  69.452  1.00  0.00    -0.346 C  
BRANCH   6   7
HETATM    7  C   UNL     1     -11.116  12.144  68.170  1.00  0.00    -0.248 C  
HETATM    8  O   UNL     1     -12.025  11.958  67.077  1.00  0.00    -0.615 OA 
HETATM    9  H   UNL     1     -11.656  12.336  66.287  1.00  0.00     0.000 HD 
BRANCH   7  10
HETATM   10  C   UNL     1     -10.837  13.641  68.368  1.00  0.00    -0.256 C  
BRANCH  10  11
HETATM   11  O   UNL     1      -9.802  14.032  67.449  1.00  0.00    -0.233 OA 
BRANCH  11  12
HETATM   12  C   UNL     1      -9.247  15.265  67.662  1.00  0.00    -0.187 A  
HETATM   13  C   UNL     1      -9.725  16.333  66.879  1.00  0.00    -0.247 A  
HETATM   14  C   UNL     1      -9.181  17.625  67.073  1.00  0.00    -0.254 A  
HETATM   15  C   UNL     1     -10.780  16.091  65.826  1.00  0.00    -0.310 C  
HETATM   16  C   UNL     1      -9.665  18.823  66.291  1.00  0.00    -0.354 C  
HETATM   17  C   UNL     1      -8.134  17.807  68.011  1.00  0.00    -0.243 A  
HETATM   18  C   UNL     1      -7.592  16.728  68.717  1.00  0.00    -0.240 A  
HETATM   19  C   UNL     1      -6.403  16.817  69.627  1.00  0.00    -0.217 C  
HETATM   20  C   UNL     1      -8.190  15.472  68.556  1.00  0.00    -0.148 A  
BRANCH  17  21
HETATM   21  O   UNL     1      -7.584  19.121  68.041  1.00  0.00    -0.262 OA 
BRANCH  21  22
HETATM   22  C   UNL     1      -6.493  19.580  67.301  1.00  0.00    -0.194 C  
HETATM   23  C   UNL     1      -6.632  21.066  67.114  1.00  0.00    -0.424 C  
HETATM   24  O   UNL     1      -5.540  18.922  66.910  1.00  0.00    -0.149 OA 
ENDBRANCH  21  22
ENDBRANCH  17  21
ENDBRANCH  11  12
ENDBRANCH  10  11
ENDBRANCH   7  10
ENDBRANCH   6   7
ENDBRANCH   4   6
ENDBRANCH   2   4
TORSDOF 8
ENDMDL
MODEL      133
REMARK 921   NORMALIZED FREE ENERGY PREDICTED BY IDOCK:   -3.92 KCAL/MOL
REMARK 922        TOTAL FREE ENERGY PREDICTED BY IDOCK:   -6.99 KCAL/MOL
REMARK 923 INTER-LIGAND FREE ENERGY PREDICTED BY IDOCK:   -6.04 KCAL/MOL
REMARK 924 INTRA-LIGAND FREE ENERGY PREDICTED BY IDOCK:   -0.95 KCAL/MOL
REMARK 927      BINDING AFFINITY PREDICTED BY RF-SCORE:    0.00 PKD
ROOT
HETATM    1  C   UNL     1      -7.706  13.971  67.754  1.00  0.00    -0.178 C  
HETATM    2  C   UNL     1      -7.567  14.585  69.148  1.00  0.00    -0.102 C  
HETATM    3  C   UNL     1      -6.101  14.944  69.406  1.00  0.00    -0.109 C  
ENDROOT
BRANCH   2   4
HETATM    4  N   UNL     1      -8.440  15.761  69.220  1.00  0.00    -0.252 NA 
HETATM    5  H   UNL     1      -8.478  16.241  68.320  1.00  0.00     0.000 HD 
BRANCH   4   6
HETATM    6  C   UNL     1      -9.789  15.449  69.704  1.00  0.00    -0.258 C  
BRANCH   6   7
HETATM    7  C   UNL     1     -10.842  16.318  68.987  1.00  0.00    -0.315 C  
HETATM    8  O   UNL     1     -10.486  17.702  69.107  1.00  0.00    -0.396 OA 
HETATM    9  H   UNL     1     -11.135  18.238  68.666  1.00  0.00     0.000 HD 
BRANCH   7  10
HETATM   10  C   UNL     1     -10.940  15.932  67.505  1.00  0.00    -0.280 C  
BRANCH  10  11
HETATM   11  O   UNL     1     -11.901  14.870  67.378  1.00  0.00    -0.348 OA 
BRANCH  11  12
HETATM   12  C   UNL     1     -11.425  13.686  66.884  1.00  0.00    -0.345 A  
HETATM   13  C   UNL     1     -11.399  13.533  65.484  1.00  0.00    -0.310 A  
HETATM   14  C   UNL     1     -10.907  12.326  64.933  1.00  0.00    -0.342 A  
HETATM   15  C   UNL     1     -11.921  14.632  64.590  1.00  0.00    -0.472 C  
HETATM   16  C   UNL     1     -10.822  12.103  63.442  1.00  0.00    -0.474 C  
HETATM   17  C   UNL     1     -10.501  11.279  65.798  1.00  0.00    -0.254 A  
HETATM   18  C   UNL     1     -10.619  11.394  67.187  1.00  0.00    -0.279 A  
HETATM   19  C   UNL     1     -10.334  10.289  68.161  1.00  0.00    -0.208 C  
HETATM   20  C   UNL     1     -11.047  12.621  67.710  1.00  0.00    -0.287 A  
BRANCH  17  21
HETATM   21  O   UNL     1     -10.133  10.071  65.139  1.00  0.00    -0.325 OA 
BRANCH  21  22
HETATM   22  C   UNL     1      -8.835   9.597  64.942  1.00  0.00    -0.199 C  
HETATM   23  C   UNL     1      -8.757   8.187  65.461  1.00  0.00    -0.152 C  
HETATM   24  O   UNL     1      -7.915  10.180  64.388  1.00  0.00    -0.151 OA 
ENDBRANCH  21  22
ENDBRANCH  17  21
ENDBRANCH  11  12
ENDBRANCH  10  11
ENDBRANCH   7  10
ENDBRANCH   6   7
ENDBRANCH   4   6
ENDBRANCH   2   4
TORSDOF 8
ENDMDL
MODEL      134
REMARK 921   NORMALIZED FREE ENERGY PREDICTED BY IDOCK:   -3.92 KCAL/MOL
REMARK 922        TOTAL FREE ENERGY PREDICTED BY IDOCK:   -6.98 KCAL/MOL
REMARK 923 INTER-LIGAND FREE ENERGY PREDICTED BY IDOCK:   -6.32 KCAL/MOL
REMARK 924 INTRA-LIGAND FREE ENERGY PREDICTED BY IDOCK:   -0.66 KCAL/MOL
REMARK 927      BINDING AFFINITY PREDICTED BY RF-SCORE:    0.00 PKD
ROOT
HETATM    1  C   UNL     1     -10.672  16.142  65.393  1.00  0.00    -0.374 C  
HETATM    2  C   UNL     1     -10.641  16.023  66.917  1.00  0.00    -0.300 C  
HETATM    3  C   UNL     1     -10.533  17.418  67.538  1.00  0.00    -0.354 C  
ENDROOT
BRANCH   2   4
HETATM    4  N   UNL     1     -11.858  15.325  67.347  1.00  0.00    -0.244 NA 
HETATM    5  H   UNL     1     -12.639  15.542  66.728  1.00  0.00     0.000 HD 
BRANCH   4   6
HETATM    6  C   UNL     1     -11.677  13.874  67.470  1.00  0.00    -0.380 C  
BRANCH   6   7
HETATM    7  C   UNL     1     -10.456  13.548  68.353  1.00  0.00    -0.246 C  
HETATM    8  O   UNL     1     -10.668  14.062  69.675  1.00  0.00    -0.449 OA 
HETATM    9  H   UNL     1      -9.915  13.862  70.220  1.00  0.00     0.000 HD 
BRANCH   7  10
HETATM   10  C   UNL     1     -10.224  12.033  68.414  1.00  0.00    -0.209 C  
BRANCH  10  11
HETATM   11  O   UNL     1     -11.486  11.392  68.670  1.00  0.00    -0.242 OA 
BRANCH  11  12
HETATM   12  C   UNL     1     -11.435  10.239  69.405  1.00  0.00    -0.186 A  
HETATM   13  C   UNL     1     -12.149  10.212  70.618  1.00  0.00    -0.411 A  
HETATM   14  C   UNL     1     -12.127   9.035  71.403  1.00  0.00    -0.392 A  
HETATM   15  C   UNL     1     -12.898  11.436  71.087  1.00  0.00    -0.440 C  
HETATM   16  C   UNL     1     -12.892   8.923  72.701  1.00  0.00    -0.316 C  
HETATM   17  C   UNL     1     -11.348   7.929  70.980  1.00  0.00    -0.274 A  
HETATM   18  C   UNL     1     -10.561   7.990  69.824  1.00  0.00    -0.238 A  
HETATM   19  C   UNL     1      -9.614   6.915  69.381  1.00  0.00    -0.147 C  
HETATM   20  C   UNL     1     -10.650   9.141  69.032  1.00  0.00    -0.219 A  
BRANCH  17  21
HETATM   21  O   UNL     1     -11.306   6.842  71.901  1.00  0.00    -0.245 OA 
BRANCH  21  22
HETATM   22  C   UNL     1     -10.186   6.396  72.604  1.00  0.00    -0.182 C  
HETATM   23  C   UNL     1      -9.625   7.548  73.392  1.00  0.00    -0.323 C  
HETATM   24  O   UNL     1      -9.748   5.256  72.644  1.00  0.00    -0.149 OA 
ENDBRANCH  21  22
ENDBRANCH  17  21
ENDBRANCH  11  12
ENDBRANCH  10  11
ENDBRANCH   7  10
ENDBRANCH   6   7
ENDBRANCH   4   6
ENDBRANCH   2   4
TORSDOF 8
ENDMDL
MODEL      135
REMARK 921   NORMALIZED FREE ENERGY PREDICTED BY IDOCK:   -3.91 KCAL/MOL
REMARK 922        TOTAL FREE ENERGY PREDICTED BY IDOCK:   -6.98 KCAL/MOL
REMARK 923 INTER-LIGAND FREE ENERGY PREDICTED BY IDOCK:   -6.27 KCAL/MOL
REMARK 924 INTRA-LIGAND FREE ENERGY PREDICTED BY IDOCK:   -0.71 KCAL/MOL
REMARK 927      BINDING AFFINITY PREDICTED BY RF-SCORE:    0.00 PKD
ROOT
HETATM    1  C   UNL     1      -8.801   5.732  66.959  1.00  0.00    -0.112 C  
HETATM    2  C   UNL     1      -9.289   7.056  67.550  1.00  0.00    -0.123 C  
HETATM    3  C   UNL     1     -10.717   7.335  67.074  1.00  0.00    -0.406 C  
ENDROOT
BRANCH   2   4
HETATM    4  N   UNL     1      -9.208   6.963  69.012  1.00  0.00    -0.138 NA 
HETATM    5  H   UNL     1      -9.072   5.996  69.307  1.00  0.00     0.000 HD 
BRANCH   4   6
HETATM    6  C   UNL     1      -8.179   7.836  69.589  1.00  0.00    -0.127 C  
BRANCH   6   7
HETATM    7  C   UNL     1      -8.812   9.118  70.166  1.00  0.00    -0.197 C  
HETATM    8  O   UNL     1      -8.589   9.169  71.582  1.00  0.00    -0.342 OA 
HETATM    9  H   UNL     1      -8.979   9.959  71.938  1.00  0.00     0.000 HD 
BRANCH   7  10
HETATM   10  C   UNL     1      -8.212  10.363  69.498  1.00  0.00    -0.126 C  
BRANCH  10  11
HETATM   11  O   UNL     1      -8.318  10.206  68.073  1.00  0.00    -0.115 OA 
BRANCH  11  12
HETATM   12  C   UNL     1      -9.347  10.877  67.470  1.00  0.00    -0.154 A  
HETATM   13  C   UNL     1      -9.512  10.700  66.083  1.00  0.00    -0.218 A  
HETATM   14  C   UNL     1     -10.569  11.371  65.425  1.00  0.00    -0.333 A  
HETATM   15  C   UNL     1      -8.551   9.830  65.309  1.00  0.00    -0.168 C  
HETATM   16  C   UNL     1     -10.824  11.206  63.945  1.00  0.00    -0.346 C  
HETATM   17  C   UNL     1     -11.405  12.247  66.162  1.00  0.00    -0.353 A  
HETATM   18  C   UNL     1     -11.181  12.499  67.520  1.00  0.00    -0.342 A  
HETATM   19  C   UNL     1     -11.937  13.505  68.335  1.00  0.00    -0.378 C  
HETATM   20  C   UNL     1     -10.170  11.774  68.162  1.00  0.00    -0.210 A  
BRANCH  17  21
HETATM   21  O   UNL     1     -12.361  12.957  65.379  1.00  0.00    -0.457 OA 
BRANCH  21  22
HETATM   22  C   UNL     1     -12.099  14.030  64.525  1.00  0.00    -0.459 C  
HETATM   23  C   UNL     1     -11.176  14.988  65.229  1.00  0.00    -0.368 C  
HETATM   24  O   UNL     1     -12.485  14.166  63.374  1.00  0.00    -0.797 OA 
ENDBRANCH  21  22
ENDBRANCH  17  21
ENDBRANCH  11  12
ENDBRANCH  10  11
ENDBRANCH   7  10
ENDBRANCH   6   7
ENDBRANCH   4   6
ENDBRANCH   2   4
TORSDOF 8
ENDMDL
MODEL      136
REMARK 921   NORMALIZED FREE ENERGY PREDICTED BY IDOCK:   -3.90 KCAL/MOL
REMARK 922        TOTAL FREE ENERGY PREDICTED BY IDOCK:   -6.97 KCAL/MOL
REMARK 923 INTER-LIGAND FREE ENERGY PREDICTED BY IDOCK:   -5.59 KCAL/MOL
REMARK 924 INTRA-LIGAND FREE ENERGY PREDICTED BY IDOCK:   -1.38 KCAL/MOL
REMARK 927      BINDING AFFINITY PREDICTED BY RF-SCORE:    0.00 PKD
ROOT
HETATM    1  C   UNL     1     -14.324   7.711  71.567  1.00  0.00    -0.589 C  
HETATM    2  C   UNL     1     -12.820   7.548  71.340  1.00  0.00    -0.342 C  
HETATM    3  C   UNL     1     -12.180   8.923  71.137  1.00  0.00    -0.303 C  
ENDROOT
BRANCH   2   4
HETATM    4  N   UNL     1     -12.255   6.846  72.498  1.00  0.00    -0.500 NA 
HETATM    5  H   UNL     1     -12.071   5.868  72.275  1.00  0.00     0.000 HD 
BRANCH   4   6
HETATM    6  C   UNL     1     -11.054   7.495  73.035  1.00  0.00    -0.362 C  
BRANCH   6   7
HETATM    7  C   UNL     1      -9.927   6.466  73.250  1.00  0.00    -0.183 C  
HETATM    8  O   UNL     1     -10.240   5.638  74.378  1.00  0.00    -0.248 OA 
HETATM    9  H   UNL     1      -9.545   5.003  74.511  1.00  0.00     0.000 HD 
BRANCH   7  10
HETATM   10  C   UNL     1      -9.745   5.596  71.999  1.00  0.00    -0.155 C  
BRANCH  10  11
HETATM   11  O   UNL     1      -8.621   6.102  71.257  1.00  0.00    -0.127 OA 
BRANCH  11  12
HETATM   12  C   UNL     1      -8.918   6.939  70.217  1.00  0.00    -0.152 A  
HETATM   13  C   UNL     1      -8.425   8.257  70.286  1.00  0.00    -0.125 A  
HETATM   14  C   UNL     1      -8.704   9.152  69.226  1.00  0.00    -0.139 A  
HETATM   15  C   UNL     1      -7.639   8.712  71.492  1.00  0.00    -0.134 C  
HETATM   16  C   UNL     1      -8.184  10.570  69.218  1.00  0.00    -0.151 C  
HETATM   17  C   UNL     1      -9.514   8.722  68.145  1.00  0.00    -0.140 A  
HETATM   18  C   UNL     1     -10.085   7.445  68.124  1.00  0.00    -0.210 A  
HETATM   19  C   UNL     1     -11.053   6.961  67.086  1.00  0.00    -0.362 C  
HETATM   20  C   UNL     1      -9.741   6.557  69.151  1.00  0.00    -0.143 A  
BRANCH  17  21
HETATM   21  O   UNL     1      -9.826   9.736  67.194  1.00  0.00    -0.171 OA 
BRANCH  21  22
HETATM   22  C   UNL     1     -10.925  10.595  67.231  1.00  0.00    -0.284 C  
HETATM   23  C   UNL     1     -10.786  11.599  66.118  1.00  0.00    -0.343 C  
HETATM   24  O   UNL     1     -11.885  10.531  67.985  1.00  0.00    -0.425 OA 
ENDBRANCH  21  22
ENDBRANCH  17  21
ENDBRANCH  11  12
ENDBRANCH  10  11
ENDBRANCH   7  10
ENDBRANCH   6   7
ENDBRANCH   4   6
ENDBRANCH   2   4
TORSDOF 8
ENDMDL
MODEL      137
REMARK 921   NORMALIZED FREE ENERGY PREDICTED BY IDOCK:   -3.89 KCAL/MOL
REMARK 922        TOTAL FREE ENERGY PREDICTED BY IDOCK:   -6.94 KCAL/MOL
REMARK 923 INTER-LIGAND FREE ENERGY PREDICTED BY IDOCK:   -6.37 KCAL/MOL
REMARK 924 INTRA-LIGAND FREE ENERGY PREDICTED BY IDOCK:   -0.58 KCAL/MOL
REMARK 927      BINDING AFFINITY PREDICTED BY RF-SCORE:    0.00 PKD
ROOT
HETATM    1  C   UNL     1      -8.451  16.212  67.145  1.00  0.00    -0.218 C  
HETATM    2  C   UNL     1      -9.907  16.446  66.737  1.00  0.00    -0.256 C  
HETATM    3  C   UNL     1     -10.307  15.433  65.661  1.00  0.00    -0.395 C  
ENDROOT
BRANCH   2   4
HETATM    4  N   UNL     1     -10.743  16.329  67.936  1.00  0.00    -0.321 NA 
HETATM    5  H   UNL     1     -11.387  17.118  68.009  1.00  0.00     0.000 HD 
BRANCH   4   6
HETATM    6  C   UNL     1     -11.467  15.055  68.014  1.00  0.00    -0.342 C  
BRANCH   6   7
HETATM    7  C   UNL     1     -10.837  14.132  69.076  1.00  0.00    -0.251 C  
HETATM    8  O   UNL     1     -10.176  14.925  70.071  1.00  0.00    -0.459 OA 
HETATM    9  H   UNL     1      -9.787  14.357  70.726  1.00  0.00     0.000 HD 
BRANCH   7  10
HETATM   10  C   UNL     1     -11.911  13.257  69.735  1.00  0.00    -0.324 C  
BRANCH  10  11
HETATM   11  O   UNL     1     -12.144  12.116  68.891  1.00  0.00    -0.267 OA 
BRANCH  11  12
HETATM   12  C   UNL     1     -11.438  10.986  69.202  1.00  0.00    -0.301 A  
HETATM   13  C   UNL     1     -10.679  10.394  68.175  1.00  0.00    -0.277 A  
HETATM   14  C   UNL     1      -9.929   9.228  68.459  1.00  0.00    -0.193 A  
HETATM   15  C   UNL     1     -10.693  10.980  66.784  1.00  0.00    -0.319 C  
HETATM   16  C   UNL     1      -9.068   8.555  67.416  1.00  0.00    -0.148 C  
HETATM   17  C   UNL     1      -9.999   8.651  69.753  1.00  0.00    -0.190 A  
HETATM   18  C   UNL     1     -10.830   9.183  70.744  1.00  0.00    -0.331 A  
HETATM   19  C   UNL     1     -11.057   8.560  72.089  1.00  0.00    -0.436 C  
HETATM   20  C   UNL     1     -11.511  10.373  70.459  1.00  0.00    -0.431 A  
BRANCH  17  21
HETATM   21  O   UNL     1      -9.298   7.418  69.894  1.00  0.00    -0.155 OA 
BRANCH  21  22
HETATM   22  C   UNL     1      -9.869   6.147  69.976  1.00  0.00    -0.170 C  
HETATM   23  C   UNL     1     -11.218   6.184  69.312  1.00  0.00    -0.438 C  
HETATM   24  O   UNL     1      -9.358   5.140  70.443  1.00  0.00    -0.144 OA 
ENDBRANCH  21  22
ENDBRANCH  17  21
ENDBRANCH  11  12
ENDBRANCH  10  11
ENDBRANCH   7  10
ENDBRANCH   6   7
ENDBRANCH   4   6
ENDBRANCH   2   4
TORSDOF 8
ENDMDL
MODEL      138
REMARK 921   NORMALIZED FREE ENERGY PREDICTED BY IDOCK:   -3.89 KCAL/MOL
REMARK 922        TOTAL FREE ENERGY PREDICTED BY IDOCK:   -6.94 KCAL/MOL
REMARK 923 INTER-LIGAND FREE ENERGY PREDICTED BY IDOCK:   -6.12 KCAL/MOL
REMARK 924 INTRA-LIGAND FREE ENERGY PREDICTED BY IDOCK:   -0.82 KCAL/MOL
REMARK 927      BINDING AFFINITY PREDICTED BY RF-SCORE:    0.00 PKD
ROOT
HETATM    1  C   UNL     1     -10.414  11.954  63.366  1.00  0.00    -0.487 C  
HETATM    2  C   UNL     1     -10.223  12.369  64.825  1.00  0.00    -0.279 C  
HETATM    3  C   UNL     1     -11.565  12.299  65.559  1.00  0.00    -0.422 C  
ENDROOT
BRANCH   2   4
HETATM    4  N   UNL     1      -9.223  11.480  65.427  1.00  0.00    -0.364 NA 
HETATM    5  H   UNL     1      -8.289  11.885  65.359  1.00  0.00     0.000 HD 
BRANCH   4   6
HETATM    6  C   UNL     1      -9.535  11.116  66.813  1.00  0.00    -0.184 C  
BRANCH   6   7
HETATM    7  C   UNL     1      -8.272  11.182  67.694  1.00  0.00    -0.118 C  
HETATM    8  O   UNL     1      -7.647   9.892  67.737  1.00  0.00    -0.090 OA 
HETATM    9  H   UNL     1      -6.868   9.933  68.280  1.00  0.00     0.000 HD 
BRANCH   7  10
HETATM   10  C   UNL     1      -7.286  12.222  67.145  1.00  0.00    -0.100 C  
BRANCH  10  11
HETATM   11  O   UNL     1      -7.300  13.364  68.019  1.00  0.00    -0.098 OA 
BRANCH  11  12
HETATM   12  C   UNL     1      -7.620  14.561  67.437  1.00  0.00    -0.184 A  
HETATM   13  C   UNL     1      -6.701  15.617  67.583  1.00  0.00    -0.204 A  
HETATM   14  C   UNL     1      -6.992  16.868  66.990  1.00  0.00    -0.235 A  
HETATM   15  C   UNL     1      -5.441  15.422  68.390  1.00  0.00    -0.107 C  
HETATM   16  C   UNL     1      -6.041  18.038  67.080  1.00  0.00    -0.168 C  
HETATM   17  C   UNL     1      -8.222  17.048  66.308  1.00  0.00    -0.287 A  
HETATM   18  C   UNL     1      -9.178  16.028  66.247  1.00  0.00    -0.368 A  
HETATM   19  C   UNL     1     -10.549  16.180  65.659  1.00  0.00    -0.377 C  
HETATM   20  C   UNL     1      -8.839  14.780  66.785  1.00  0.00    -0.281 A  
BRANCH  17  21
HETATM   21  O   UNL     1      -8.462  18.376  65.852  1.00  0.00    -0.497 OA 
BRANCH  21  22
HETATM   22  C   UNL     1      -9.137  19.381  66.546  1.00  0.00    -0.356 C  
HETATM   23  C   UNL     1     -10.454  19.633  65.864  1.00  0.00    -0.591 C  
HETATM   24  O   UNL     1      -8.775  19.937  67.573  1.00  0.00    -0.318 OA 
ENDBRANCH  21  22
ENDBRANCH  17  21
ENDBRANCH  11  12
ENDBRANCH  10  11
ENDBRANCH   7  10
ENDBRANCH   6   7
ENDBRANCH   4   6
ENDBRANCH   2   4
TORSDOF 8
ENDMDL
MODEL      139
REMARK 921   NORMALIZED FREE ENERGY PREDICTED BY IDOCK:   -3.88 KCAL/MOL
REMARK 922        TOTAL FREE ENERGY PREDICTED BY IDOCK:   -6.94 KCAL/MOL
REMARK 923 INTER-LIGAND FREE ENERGY PREDICTED BY IDOCK:   -6.80 KCAL/MOL
REMARK 924 INTRA-LIGAND FREE ENERGY PREDICTED BY IDOCK:   -0.14 KCAL/MOL
REMARK 927      BINDING AFFINITY PREDICTED BY RF-SCORE:    0.00 PKD
ROOT
HETATM    1  C   UNL     1      -9.776   3.921  70.504  1.00  0.00    -0.247 C  
HETATM    2  C   UNL     1      -9.925   5.423  70.260  1.00  0.00    -0.230 C  
HETATM    3  C   UNL     1      -9.111   6.195  71.301  1.00  0.00    -0.147 C  
ENDROOT
BRANCH   2   4
HETATM    4  N   UNL     1      -9.478   5.711  68.892  1.00  0.00    -0.123 NA 
HETATM    5  H   UNL     1     -10.081   5.253  68.209  1.00  0.00     0.000 HD 
BRANCH   4   6
HETATM    6  C   UNL     1      -9.367   7.147  68.612  1.00  0.00    -0.134 C  
BRANCH   6   7
HETATM    7  C   UNL     1     -10.254   7.540  67.415  1.00  0.00    -0.249 C  
HETATM    8  O   UNL     1     -11.347   6.618  67.302  1.00  0.00    -0.716 OA 
HETATM    9  H   UNL     1     -11.894   6.860  66.564  1.00  0.00     0.000 HD 
BRANCH   7  10
HETATM   10  C   UNL     1     -10.792   8.967  67.588  1.00  0.00    -0.063 C  
BRANCH  10  11
HETATM   11  O   UNL     1      -9.986   9.853  66.791  1.00  0.00    -0.192 OA 
BRANCH  11  12
HETATM   12  C   UNL     1     -10.521  11.087  66.538  1.00  0.00    -0.257 A  
HETATM   13  C   UNL     1     -10.668  11.464  65.190  1.00  0.00    -0.332 A  
HETATM   14  C   UNL     1     -11.225  12.729  64.887  1.00  0.00    -0.331 A  
HETATM   15  C   UNL     1     -10.208  10.541  64.087  1.00  0.00    -0.287 C  
HETATM   16  C   UNL     1     -11.440  13.189  63.465  1.00  0.00    -0.305 C  
HETATM   17  C   UNL     1     -11.572  13.609  65.943  1.00  0.00    -0.328 A  
HETATM   18  C   UNL     1     -11.333  13.274  67.280  1.00  0.00    -0.347 A  
HETATM   19  C   UNL     1     -11.552  14.197  68.442  1.00  0.00    -0.353 C  
HETATM   20  C   UNL     1     -10.843  11.992  67.556  1.00  0.00    -0.284 A  
BRANCH  17  21
HETATM   21  O   UNL     1     -12.013  14.898  65.523  1.00  0.00    -0.241 OA 
BRANCH  21  22
HETATM   22  C   UNL     1     -11.218  15.910  64.985  1.00  0.00    -0.290 C  
HETATM   23  C   UNL     1     -10.082  16.184  65.933  1.00  0.00    -0.379 C  
HETATM   24  O   UNL     1     -11.357  16.457  63.900  1.00  0.00    -0.967 OA 
ENDBRANCH  21  22
ENDBRANCH  17  21
ENDBRANCH  11  12
ENDBRANCH  10  11
ENDBRANCH   7  10
ENDBRANCH   6   7
ENDBRANCH   4   6
ENDBRANCH   2   4
TORSDOF 8
ENDMDL
MODEL      140
REMARK 921   NORMALIZED FREE ENERGY PREDICTED BY IDOCK:   -3.86 KCAL/MOL
REMARK 922        TOTAL FREE ENERGY PREDICTED BY IDOCK:   -6.90 KCAL/MOL
REMARK 923 INTER-LIGAND FREE ENERGY PREDICTED BY IDOCK:   -5.67 KCAL/MOL
REMARK 924 INTRA-LIGAND FREE ENERGY PREDICTED BY IDOCK:   -1.24 KCAL/MOL
REMARK 927      BINDING AFFINITY PREDICTED BY RF-SCORE:    0.00 PKD
ROOT
HETATM    1  C   UNL     1     -10.249  10.779  64.117  1.00  0.00    -0.412 C  
HETATM    2  C   UNL     1     -10.781  12.059  63.470  1.00  0.00    -0.455 C  
HETATM    3  C   UNL     1     -12.267  12.221  63.800  1.00  0.00    -0.642 C  
ENDROOT
BRANCH   2   4
HETATM    4  N   UNL     1      -9.984  13.187  63.964  1.00  0.00    -0.763 NA 
HETATM    5  H   UNL     1      -9.404  13.575  63.221  1.00  0.00     0.000 HD 
BRANCH   4   6
HETATM    6  C   UNL     1     -10.796  14.234  64.595  1.00  0.00    -0.368 C  
BRANCH   6   7
HETATM    7  C   UNL     1      -9.928  15.121  65.511  1.00  0.00    -0.349 C  
HETATM    8  O   UNL     1     -10.762  16.063  66.198  1.00  0.00    -0.305 OA 
HETATM    9  H   UNL     1     -10.228  16.610  66.762  1.00  0.00     0.000 HD 
BRANCH   7  10
HETATM   10  C   UNL     1      -9.165  14.261  66.527  1.00  0.00    -0.235 C  
BRANCH  10  11
HETATM   11  O   UNL     1     -10.055  13.241  67.013  1.00  0.00    -0.237 OA 
BRANCH  11  12
HETATM   12  C   UNL     1      -9.483  12.263  67.781  1.00  0.00    -0.197 A  
HETATM   13  C   UNL     1     -10.309  11.201  68.197  1.00  0.00    -0.207 A  
HETATM   14  C   UNL     1      -9.753  10.167  68.987  1.00  0.00    -0.212 A  
HETATM   15  C   UNL     1     -11.773  11.189  67.831  1.00  0.00    -0.260 C  
HETATM   16  C   UNL     1     -10.570   8.982  69.445  1.00  0.00    -0.231 C  
HETATM   17  C   UNL     1      -8.395  10.246  69.385  1.00  0.00    -0.161 A  
HETATM   18  C   UNL     1      -7.601  11.349  69.054  1.00  0.00    -0.084 A  
HETATM   19  C   UNL     1      -6.200  11.568  69.543  1.00  0.00    -0.110 C  
HETATM   20  C   UNL     1      -8.154  12.327  68.219  1.00  0.00    -0.166 A  
BRANCH  17  21
HETATM   21  O   UNL     1      -7.973   9.213  70.272  1.00  0.00    -0.099 OA 
BRANCH  21  22
HETATM   22  C   UNL     1      -7.103   8.165  69.967  1.00  0.00    -0.048 C  
HETATM   23  C   UNL     1      -7.238   7.841  68.504  1.00  0.00    -0.086 C  
HETATM   24  O   UNL     1      -6.309   7.624  70.723  1.00  0.00    -0.038 OA 
ENDBRANCH  21  22
ENDBRANCH  17  21
ENDBRANCH  11  12
ENDBRANCH  10  11
ENDBRANCH   7  10
ENDBRANCH   6   7
ENDBRANCH   4   6
ENDBRANCH   2   4
TORSDOF 8
ENDMDL
MODEL      141
REMARK 921   NORMALIZED FREE ENERGY PREDICTED BY IDOCK:   -3.86 KCAL/MOL
REMARK 922        TOTAL FREE ENERGY PREDICTED BY IDOCK:   -6.90 KCAL/MOL
REMARK 923 INTER-LIGAND FREE ENERGY PREDICTED BY IDOCK:   -5.95 KCAL/MOL
REMARK 924 INTRA-LIGAND FREE ENERGY PREDICTED BY IDOCK:   -0.94 KCAL/MOL
REMARK 927      BINDING AFFINITY PREDICTED BY RF-SCORE:    0.00 PKD
ROOT
HETATM    1  C   UNL     1      -9.148   8.582  67.539  1.00  0.00    -0.146 C  
HETATM    2  C   UNL     1      -8.143   8.141  66.473  1.00  0.00    -0.106 C  
HETATM    3  C   UNL     1      -7.519   6.804  66.879  1.00  0.00    -0.083 C  
ENDROOT
BRANCH   2   4
HETATM    4  N   UNL     1      -8.847   8.051  65.189  1.00  0.00    -0.389 NA 
HETATM    5  H   UNL     1      -9.732   8.557  65.223  1.00  0.00     0.000 HD 
BRANCH   4   6
HETATM    6  C   UNL     1      -8.033   8.496  64.053  1.00  0.00    -0.159 C  
BRANCH   6   7
HETATM    7  C   UNL     1      -7.965  10.036  64.000  1.00  0.00    -0.151 C  
HETATM    8  O   UNL     1      -6.857  10.441  63.184  1.00  0.00    -0.213 OA 
HETATM    9  H   UNL     1      -6.815  11.390  63.151  1.00  0.00     0.000 HD 
BRANCH   7  10
HETATM   10  C   UNL     1      -9.269  10.613  63.433  1.00  0.00    -0.270 C  
BRANCH  10  11
HETATM   11  O   UNL     1     -10.262  10.589  64.473  1.00  0.00    -0.348 OA 
BRANCH  11  12
HETATM   12  C   UNL     1     -10.427  11.755  65.172  1.00  0.00    -0.283 A  
HETATM   13  C   UNL     1     -11.449  12.624  64.747  1.00  0.00    -0.364 A  
HETATM   14  C   UNL     1     -11.656  13.836  65.448  1.00  0.00    -0.330 A  
HETATM   15  C   UNL     1     -12.288  12.280  63.540  1.00  0.00    -0.670 C  
HETATM   16  C   UNL     1     -12.752  14.804  65.067  1.00  0.00     0.041 C  
HETATM   17  C   UNL     1     -10.800  14.173  66.526  1.00  0.00    -0.298 A  
HETATM   18  C   UNL     1      -9.724  13.356  66.885  1.00  0.00    -0.253 A  
HETATM   19  C   UNL     1      -8.700  13.703  67.925  1.00  0.00    -0.184 C  
HETATM   20  C   UNL     1      -9.579  12.132  66.220  1.00  0.00    -0.246 A  
BRANCH  17  21
HETATM   21  O   UNL     1     -11.025  15.465  67.084  1.00  0.00    -0.323 OA 
BRANCH  21  22
HETATM   22  C   UNL     1     -10.344  16.639  66.755  1.00  0.00    -0.295 C  
HETATM   23  C   UNL     1     -10.630  17.670  67.812  1.00  0.00    -0.380 C  
HETATM   24  O   UNL     1      -9.587  16.810  65.811  1.00  0.00    -0.506 OA 
ENDBRANCH  21  22
ENDBRANCH  17  21
ENDBRANCH  11  12
ENDBRANCH  10  11
ENDBRANCH   7  10
ENDBRANCH   6   7
ENDBRANCH   4   6
ENDBRANCH   2   4
TORSDOF 8
ENDMDL
MODEL      142
REMARK 921   NORMALIZED FREE ENERGY PREDICTED BY IDOCK:   -3.85 KCAL/MOL
REMARK 922        TOTAL FREE ENERGY PREDICTED BY IDOCK:   -6.88 KCAL/MOL
REMARK 923 INTER-LIGAND FREE ENERGY PREDICTED BY IDOCK:   -6.43 KCAL/MOL
REMARK 924 INTRA-LIGAND FREE ENERGY PREDICTED BY IDOCK:   -0.45 KCAL/MOL
REMARK 927      BINDING AFFINITY PREDICTED BY RF-SCORE:    0.00 PKD
ROOT
HETATM    1  C   UNL     1     -14.021  14.121  72.272  1.00  0.00    -0.646 C  
HETATM    2  C   UNL     1     -13.321  15.449  71.983  1.00  0.00    -0.450 C  
HETATM    3  C   UNL     1     -11.890  15.403  72.526  1.00  0.00    -0.564 C  
ENDROOT
BRANCH   2   4
HETATM    4  N   UNL     1     -13.350  15.677  70.534  1.00  0.00    -0.788 NA 
HETATM    5  H   UNL     1     -13.640  16.632  70.322  1.00  0.00     0.000 HD 
BRANCH   4   6
HETATM    6  C   UNL     1     -12.079  15.357  69.875  1.00  0.00    -0.355 C  
BRANCH   6   7
HETATM    7  C   UNL     1     -12.227  14.114  68.975  1.00  0.00    -0.239 C  
HETATM    8  O   UNL     1     -12.080  14.495  67.600  1.00  0.00    -0.542 OA 
HETATM    9  H   UNL     1     -12.171  13.729  67.046  1.00  0.00     0.000 HD 
BRANCH   7  10
HETATM   10  C   UNL     1     -11.176  13.057  69.339  1.00  0.00    -0.145 C  
BRANCH  10  11
HETATM   11  O   UNL     1     -11.738  11.757  69.089  1.00  0.00    -0.274 OA 
BRANCH  11  12
HETATM   12  C   UNL     1     -10.860  10.708  69.119  1.00  0.00    -0.237 A  
HETATM   13  C   UNL     1     -10.347  10.259  67.887  1.00  0.00    -0.234 A  
HETATM   14  C   UNL     1      -9.431   9.181  67.875  1.00  0.00    -0.158 A  
HETATM   15  C   UNL     1     -10.798  10.900  66.597  1.00  0.00    -0.258 C  
HETATM   16  C   UNL     1      -8.817   8.665  66.595  1.00  0.00    -0.155 C  
HETATM   17  C   UNL     1      -9.088   8.543  69.095  1.00  0.00    -0.146 A  
HETATM   18  C   UNL     1      -9.673   8.926  70.307  1.00  0.00    -0.212 A  
HETATM   19  C   UNL     1      -9.462   8.221  71.614  1.00  0.00    -0.258 C  
HETATM   20  C   UNL     1     -10.526  10.036  70.301  1.00  0.00    -0.331 A  
BRANCH  17  21
HETATM   21  O   UNL     1      -8.250   7.399  68.954  1.00  0.00    -0.125 OA 
BRANCH  21  22
HETATM   22  C   UNL     1      -8.642   6.136  68.506  1.00  0.00    -0.113 C  
HETATM   23  C   UNL     1      -7.444   5.447  67.912  1.00  0.00    -0.077 C  
HETATM   24  O   UNL     1      -9.746   5.625  68.620  1.00  0.00    -0.124 OA 
ENDBRANCH  21  22
ENDBRANCH  17  21
ENDBRANCH  11  12
ENDBRANCH  10  11
ENDBRANCH   7  10
ENDBRANCH   6   7
ENDBRANCH   4   6
ENDBRANCH   2   4
TORSDOF 8
ENDMDL
MODEL      143
REMARK 921   NORMALIZED FREE ENERGY PREDICTED BY IDOCK:   -3.82 KCAL/MOL
REMARK 922        TOTAL FREE ENERGY PREDICTED BY IDOCK:   -6.85 KCAL/MOL
REMARK 923 INTER-LIGAND FREE ENERGY PREDICTED BY IDOCK:   -6.13 KCAL/MOL
REMARK 924 INTRA-LIGAND FREE ENERGY PREDICTED BY IDOCK:   -0.72 KCAL/MOL
REMARK 927      BINDING AFFINITY PREDICTED BY RF-SCORE:    0.00 PKD
ROOT
HETATM    1  C   UNL     1      -9.939  19.799  67.331  1.00  0.00    -0.531 C  
HETATM    2  C   UNL     1      -9.026  18.675  66.839  1.00  0.00    -0.294 C  
HETATM    3  C   UNL     1      -8.026  18.309  67.939  1.00  0.00    -0.261 C  
ENDROOT
BRANCH   2   4
HETATM    4  N   UNL     1      -9.866  17.534  66.461  1.00  0.00    -0.296 NA 
HETATM    5  H   UNL     1      -9.317  16.674  66.428  1.00  0.00     0.000 HD 
BRANCH   4   6
HETATM    6  C   UNL     1     -11.041  17.372  67.323  1.00  0.00     0.141 C  
BRANCH   6   7
HETATM    7  C   UNL     1     -11.083  15.956  67.930  1.00  0.00    -0.317 C  
HETATM    8  O   UNL     1     -12.303  15.782  68.664  1.00  0.00    -0.500 OA 
HETATM    9  H   UNL     1     -12.329  14.909  69.039  1.00  0.00     0.000 HD 
BRANCH   7  10
HETATM   10  C   UNL     1     -10.982  14.893  66.828  1.00  0.00    -0.326 C  
BRANCH  10  11
HETATM   11  O   UNL     1     -11.842  13.795  67.180  1.00  0.00    -0.363 OA 
BRANCH  11  12
HETATM   12  C   UNL     1     -11.272  12.552  67.143  1.00  0.00    -0.300 A  
HETATM   13  C   UNL     1     -11.157  11.857  68.363  1.00  0.00    -0.292 A  
HETATM   14  C   UNL     1     -10.580  10.565  68.366  1.00  0.00    -0.230 A  
HETATM   15  C   UNL     1     -11.616  12.499  69.649  1.00  0.00    -0.323 C  
HETATM   16  C   UNL     1     -10.451   9.749  69.630  1.00  0.00    -0.263 C  
HETATM   17  C   UNL     1     -10.082  10.020  67.155  1.00  0.00    -0.212 A  
HETATM   18  C   UNL     1     -10.107  10.751  65.963  1.00  0.00    -0.305 A  
HETATM   19  C   UNL     1      -9.487  10.298  64.674  1.00  0.00    -0.351 C  
HETATM   20  C   UNL     1     -10.742  11.999  65.972  1.00  0.00    -0.317 A  
BRANCH  17  21
HETATM   21  O   UNL     1      -9.419   8.767  67.295  1.00  0.00    -0.149 OA 
BRANCH  21  22
HETATM   22  C   UNL     1      -9.857   7.538  66.798  1.00  0.00    -0.225 C  
HETATM   23  C   UNL     1      -8.833   7.022  65.824  1.00  0.00    -0.088 C  
HETATM   24  O   UNL     1     -10.865   6.929  67.126  1.00  0.00    -0.329 OA 
ENDBRANCH  21  22
ENDBRANCH  17  21
ENDBRANCH  11  12
ENDBRANCH  10  11
ENDBRANCH   7  10
ENDBRANCH   6   7
ENDBRANCH   4   6
ENDBRANCH   2   4
TORSDOF 8
ENDMDL
MODEL      144
REMARK 921   NORMALIZED FREE ENERGY PREDICTED BY IDOCK:   -3.81 KCAL/MOL
REMARK 922        TOTAL FREE ENERGY PREDICTED BY IDOCK:   -6.82 KCAL/MOL
REMARK 923 INTER-LIGAND FREE ENERGY PREDICTED BY IDOCK:   -6.47 KCAL/MOL
REMARK 924 INTRA-LIGAND FREE ENERGY PREDICTED BY IDOCK:   -0.36 KCAL/MOL
REMARK 927      BINDING AFFINITY PREDICTED BY RF-SCORE:    0.00 PKD
ROOT
HETATM    1  C   UNL     1     -10.866   9.062  69.598  1.00  0.00    -0.196 C  
HETATM    2  C   UNL     1     -10.772   9.646  71.008  1.00  0.00    -0.323 C  
HETATM    3  C   UNL     1     -11.766   8.930  71.927  1.00  0.00    -0.439 C  
ENDROOT
BRANCH   2   4
HETATM    4  N   UNL     1      -9.390   9.498  71.474  1.00  0.00    -0.250 NA 
HETATM    5  H   UNL     1      -9.335   8.828  72.241  1.00  0.00     0.000 HD 
BRANCH   4   6
HETATM    6  C   UNL     1      -8.454   9.144  70.401  1.00  0.00    -0.199 C  
BRANCH   6   7
HETATM    7  C   UNL     1      -7.475  10.302  70.125  1.00  0.00    -0.070 C  
HETATM    8  O   UNL     1      -6.374  10.231  71.042  1.00  0.00    -0.312 OA 
HETATM    9  H   UNL     1      -5.771  10.945  70.873  1.00  0.00     0.000 HD 
BRANCH   7  10
HETATM   10  C   UNL     1      -6.956  10.238  68.682  1.00  0.00    -0.066 C  
BRANCH  10  11
HETATM   11  O   UNL     1      -7.234  11.497  68.046  1.00  0.00    -0.078 OA 
BRANCH  11  12
HETATM   12  C   UNL     1      -8.480  11.628  67.494  1.00  0.00    -0.150 A  
HETATM   13  C   UNL     1      -8.675  11.097  66.205  1.00  0.00    -0.183 A  
HETATM   14  C   UNL     1      -9.951  11.205  65.603  1.00  0.00    -0.297 A  
HETATM   15  C   UNL     1      -7.527  10.450  65.468  1.00  0.00    -0.142 C  
HETATM   16  C   UNL     1     -10.242  10.633  64.235  1.00  0.00    -0.391 C  
HETATM   17  C   UNL     1     -10.988  11.891  66.284  1.00  0.00    -0.302 A  
HETATM   18  C   UNL     1     -10.766  12.504  67.522  1.00  0.00    -0.250 A  
HETATM   19  C   UNL     1     -11.770  13.354  68.243  1.00  0.00    -0.391 C  
HETATM   20  C   UNL     1      -9.515  12.327  68.126  1.00  0.00    -0.213 A  
BRANCH  17  21
HETATM   21  O   UNL     1     -12.193  12.041  65.538  1.00  0.00    -0.483 OA 
BRANCH  21  22
HETATM   22  C   UNL     1     -12.619  13.195  64.879  1.00  0.00    -0.407 C  
HETATM   23  C   UNL     1     -12.101  13.159  63.467  1.00  0.00    -0.585 C  
HETATM   24  O   UNL     1     -13.345  14.072  65.325  1.00  0.00    -0.741 OA 
ENDBRANCH  21  22
ENDBRANCH  17  21
ENDBRANCH  11  12
ENDBRANCH  10  11
ENDBRANCH   7  10
ENDBRANCH   6   7
ENDBRANCH   4   6
ENDBRANCH   2   4
TORSDOF 8
ENDMDL
MODEL      145
REMARK 921   NORMALIZED FREE ENERGY PREDICTED BY IDOCK:   -3.80 KCAL/MOL
REMARK 922        TOTAL FREE ENERGY PREDICTED BY IDOCK:   -6.82 KCAL/MOL
REMARK 923 INTER-LIGAND FREE ENERGY PREDICTED BY IDOCK:   -5.71 KCAL/MOL
REMARK 924 INTRA-LIGAND FREE ENERGY PREDICTED BY IDOCK:   -1.10 KCAL/MOL
REMARK 927      BINDING AFFINITY PREDICTED BY RF-SCORE:    0.00 PKD
ROOT
HETATM    1  C   UNL     1      -8.075  10.574  69.190  1.00  0.00    -0.152 C  
HETATM    2  C   UNL     1      -9.399  10.128  68.565  1.00  0.00    -0.151 C  
HETATM    3  C   UNL     1     -10.558  10.520  69.485  1.00  0.00    -0.278 C  
ENDROOT
BRANCH   2   4
HETATM    4  N   UNL     1      -9.514  10.752  67.243  1.00  0.00    -0.158 NA 
HETATM    5  H   UNL     1      -8.898  10.295  66.570  1.00  0.00     0.000 HD 
BRANCH   4   6
HETATM    6  C   UNL     1     -10.893  10.794  66.743  1.00  0.00    -0.194 C  
BRANCH   6   7
HETATM    7  C   UNL     1     -11.178  12.135  66.037  1.00  0.00    -0.336 C  
HETATM    8  O   UNL     1     -12.083  12.914  66.831  1.00  0.00    -0.388 OA 
HETATM    9  H   UNL     1     -12.259  13.740  66.396  1.00  0.00     0.000 HD 
BRANCH   7  10
HETATM   10  C   UNL     1      -9.875  12.914  65.815  1.00  0.00    -0.209 C  
BRANCH  10  11
HETATM   11  O   UNL     1      -9.558  13.618  67.029  1.00  0.00    -0.235 OA 
BRANCH  11  12
HETATM   12  C   UNL     1      -9.079  14.891  66.876  1.00  0.00    -0.250 A  
HETATM   13  C   UNL     1      -7.712  15.103  67.138  1.00  0.00    -0.223 A  
HETATM   14  C   UNL     1      -7.176  16.404  66.984  1.00  0.00    -0.257 A  
HETATM   15  C   UNL     1      -6.841  13.962  67.606  1.00  0.00    -0.193 C  
HETATM   16  C   UNL     1      -5.714  16.700  67.218  1.00  0.00    -0.188 C  
HETATM   17  C   UNL     1      -8.034  17.473  66.623  1.00  0.00    -0.253 A  
HETATM   18  C   UNL     1      -9.410  17.281  66.460  1.00  0.00    -0.283 A  
HETATM   19  C   UNL     1     -10.399  18.379  66.206  1.00  0.00    -0.440 C  
HETATM   20  C   UNL     1      -9.905  15.974  66.553  1.00  0.00    -0.284 A  
BRANCH  17  21
HETATM   21  O   UNL     1      -7.414  18.756  66.611  1.00  0.00    -0.218 OA 
BRANCH  21  22
HETATM   22  C   UNL     1      -7.432  19.695  67.643  1.00  0.00    -0.269 C  
HETATM   23  C   UNL     1      -6.672  20.914  67.196  1.00  0.00    -0.410 C  
HETATM   24  O   UNL     1      -8.012  19.599  68.715  1.00  0.00    -0.343 OA 
ENDBRANCH  21  22
ENDBRANCH  17  21
ENDBRANCH  11  12
ENDBRANCH  10  11
ENDBRANCH   7  10
ENDBRANCH   6   7
ENDBRANCH   4   6
ENDBRANCH   2   4
TORSDOF 8
ENDMDL
MODEL      146
REMARK 921   NORMALIZED FREE ENERGY PREDICTED BY IDOCK:   -3.79 KCAL/MOL
REMARK 922        TOTAL FREE ENERGY PREDICTED BY IDOCK:   -6.81 KCAL/MOL
REMARK 923 INTER-LIGAND FREE ENERGY PREDICTED BY IDOCK:   -5.98 KCAL/MOL
REMARK 924 INTRA-LIGAND FREE ENERGY PREDICTED BY IDOCK:   -0.83 KCAL/MOL
REMARK 927      BINDING AFFINITY PREDICTED BY RF-SCORE:    0.00 PKD
ROOT
HETATM    1  C   UNL     1      -9.818  20.571  67.265  1.00  0.00    -0.581 C  
HETATM    2  C   UNL     1      -8.665  19.594  67.034  1.00  0.00    -0.316 C  
HETATM    3  C   UNL     1      -8.322  18.885  68.347  1.00  0.00    -0.382 C  
ENDROOT
BRANCH   2   4
HETATM    4  N   UNL     1      -9.069  18.646  65.990  1.00  0.00    -0.478 NA 
HETATM    5  H   UNL     1      -8.392  17.888  65.905  1.00  0.00     0.000 HD 
BRANCH   4   6
HETATM    6  C   UNL     1     -10.424  18.118  66.184  1.00  0.00    -0.364 C  
BRANCH   6   7
HETATM    7  C   UNL     1     -10.418  16.576  66.158  1.00  0.00    -0.294 C  
HETATM    8  O   UNL     1      -9.181  16.109  65.603  1.00  0.00    -0.407 OA 
HETATM    9  H   UNL     1      -9.177  15.159  65.586  1.00  0.00     0.000 HD 
BRANCH   7  10
HETATM   10  C   UNL     1     -10.601  16.012  67.573  1.00  0.00    -0.313 C  
BRANCH  10  11
HETATM   11  O   UNL     1      -9.370  15.383  67.970  1.00  0.00    -0.194 OA 
BRANCH  11  12
HETATM   12  C   UNL     1      -9.428  14.032  68.180  1.00  0.00    -0.215 A  
HETATM   13  C   UNL     1      -8.228  13.306  68.056  1.00  0.00    -0.162 A  
HETATM   14  C   UNL     1      -8.245  11.908  68.272  1.00  0.00    -0.157 A  
HETATM   15  C   UNL     1      -6.950  14.010  67.667  1.00  0.00    -0.198 C  
HETATM   16  C   UNL     1      -6.991  11.069  68.186  1.00  0.00    -0.069 C  
HETATM   17  C   UNL     1      -9.473  11.260  68.556  1.00  0.00    -0.191 A  
HETATM   18  C   UNL     1     -10.681  11.967  68.581  1.00  0.00    -0.266 A  
HETATM   19  C   UNL     1     -12.032  11.337  68.745  1.00  0.00    -0.350 C  
HETATM   20  C   UNL     1     -10.629  13.358  68.429  1.00  0.00    -0.259 A  
BRANCH  17  21
HETATM   21  O   UNL     1      -9.393   9.840  68.640  1.00  0.00    -0.142 OA 
BRANCH  21  22
HETATM   22  C   UNL     1      -9.886   8.926  67.707  1.00  0.00    -0.166 C  
HETATM   23  C   UNL     1     -10.307   7.679  68.436  1.00  0.00    -0.228 C  
HETATM   24  O   UNL     1     -10.025   9.103  66.506  1.00  0.00    -0.248 OA 
ENDBRANCH  21  22
ENDBRANCH  17  21
ENDBRANCH  11  12
ENDBRANCH  10  11
ENDBRANCH   7  10
ENDBRANCH   6   7
ENDBRANCH   4   6
ENDBRANCH   2   4
TORSDOF 8
ENDMDL
MODEL      147
REMARK 921   NORMALIZED FREE ENERGY PREDICTED BY IDOCK:   -3.79 KCAL/MOL
REMARK 922        TOTAL FREE ENERGY PREDICTED BY IDOCK:   -6.80 KCAL/MOL
REMARK 923 INTER-LIGAND FREE ENERGY PREDICTED BY IDOCK:   -5.83 KCAL/MOL
REMARK 924 INTRA-LIGAND FREE ENERGY PREDICTED BY IDOCK:   -0.97 KCAL/MOL
REMARK 927      BINDING AFFINITY PREDICTED BY RF-SCORE:    0.00 PKD
ROOT
HETATM    1  C   UNL     1     -13.070  11.495  71.969  1.00  0.00    -0.430 C  
HETATM    2  C   UNL     1     -12.905  11.176  70.483  1.00  0.00    -0.132 C  
HETATM    3  C   UNL     1     -11.733  11.979  69.913  1.00  0.00    -0.374 C  
ENDROOT
BRANCH   2   4
HETATM    4  N   UNL     1     -12.697   9.731  70.344  1.00  0.00    -0.520 NA 
HETATM    5  H   UNL     1     -11.965   9.533  69.662  1.00  0.00     0.000 HD 
BRANCH   4   6
HETATM    6  C   UNL     1     -12.417   9.063  71.620  1.00  0.00    -0.351 C  
BRANCH   6   7
HETATM    7  C   UNL     1     -12.950   7.617  71.609  1.00  0.00    -0.350 C  
HETATM    8  O   UNL     1     -14.181   7.563  70.876  1.00  0.00    -0.644 OA 
HETATM    9  H   UNL     1     -14.510   6.671  70.869  1.00  0.00     0.000 HD 
BRANCH   7  10
HETATM   10  C   UNL     1     -11.923   6.669  70.976  1.00  0.00    -0.359 C  
BRANCH  10  11
HETATM   11  O   UNL     1     -11.038   7.448  70.151  1.00  0.00    -0.263 OA 
BRANCH  11  12
HETATM   12  C   UNL     1     -10.399   6.769  69.150  1.00  0.00    -0.194 A  
HETATM   13  C   UNL     1     -10.014   7.505  68.013  1.00  0.00    -0.204 A  
HETATM   14  C   UNL     1      -9.343   6.841  66.958  1.00  0.00    -0.165 A  
HETATM   15  C   UNL     1     -10.343   8.975  67.911  1.00  0.00    -0.290 C  
HETATM   16  C   UNL     1      -8.874   7.571  65.722  1.00  0.00    -0.122 C  
HETATM   17  C   UNL     1      -9.120   5.444  67.044  1.00  0.00    -0.112 A  
HETATM   18  C   UNL     1      -9.590   4.696  68.129  1.00  0.00    -0.204 A  
HETATM   19  C   UNL     1      -9.508   3.202  68.233  1.00  0.00    -0.215 C  
HETATM   20  C   UNL     1     -10.192   5.385  69.189  1.00  0.00    -0.302 A  
BRANCH  17  21
HETATM   21  O   UNL     1      -8.543   4.860  65.880  1.00  0.00    -0.116 OA 
BRANCH  21  22
HETATM   22  C   UNL     1      -9.233   4.371  64.770  1.00  0.00    -0.157 C  
HETATM   23  C   UNL     1      -8.279   4.292  63.609  1.00  0.00    -0.096 C  
HETATM   24  O   UNL     1     -10.398   4.001  64.731  1.00  0.00    -0.229 OA 
ENDBRANCH  21  22
ENDBRANCH  17  21
ENDBRANCH  11  12
ENDBRANCH  10  11
ENDBRANCH   7  10
ENDBRANCH   6   7
ENDBRANCH   4   6
ENDBRANCH   2   4
TORSDOF 8
ENDMDL
MODEL      148
REMARK 921   NORMALIZED FREE ENERGY PREDICTED BY IDOCK:   -3.77 KCAL/MOL
REMARK 922        TOTAL FREE ENERGY PREDICTED BY IDOCK:   -6.77 KCAL/MOL
REMARK 923 INTER-LIGAND FREE ENERGY PREDICTED BY IDOCK:   -6.04 KCAL/MOL
REMARK 924 INTRA-LIGAND FREE ENERGY PREDICTED BY IDOCK:   -0.73 KCAL/MOL
REMARK 927      BINDING AFFINITY PREDICTED BY RF-SCORE:    0.00 PKD
ROOT
HETATM    1  C   UNL     1      -8.082   9.152  71.042  1.00  0.00    -0.179 C  
HETATM    2  C   UNL     1      -6.961   8.132  70.838  1.00  0.00    -0.043 C  
HETATM    3  C   UNL     1      -6.105   8.051  72.105  1.00  0.00    -0.044 C  
ENDROOT
BRANCH   2   4
HETATM    4  N   UNL     1      -7.571   6.841  70.505  1.00  0.00    -0.090 NA 
HETATM    5  H   UNL     1      -7.041   6.072  70.916  1.00  0.00     0.000 HD 
BRANCH   4   6
HETATM    6  C   UNL     1      -8.987   6.759  70.878  1.00  0.00    -0.150 C  
BRANCH   6   7
HETATM    7  C   UNL     1      -9.826   6.184  69.719  1.00  0.00    -0.163 C  
HETATM    8  O   UNL     1     -10.815   5.285  70.239  1.00  0.00    -0.225 OA 
HETATM    9  H   UNL     1     -11.332   4.931  69.525  1.00  0.00     0.000 HD 
BRANCH   7  10
HETATM   10  C   UNL     1     -10.508   7.313  68.936  1.00  0.00    -0.206 C  
BRANCH  10  11
HETATM   11  O   UNL     1      -9.486   8.154  68.373  1.00  0.00    -0.141 OA 
BRANCH  11  12
HETATM   12  C   UNL     1      -9.925   9.233  67.655  1.00  0.00    -0.196 A  
HETATM   13  C   UNL     1      -9.553   9.301  66.299  1.00  0.00    -0.313 A  
HETATM   14  C   UNL     1      -9.993  10.398  65.520  1.00  0.00    -0.348 A  
HETATM   15  C   UNL     1      -8.671   8.234  65.697  1.00  0.00    -0.188 C  
HETATM   16  C   UNL     1      -9.659  10.523  64.052  1.00  0.00    -0.367 C  
HETATM   17  C   UNL     1     -10.752  11.428  66.131  1.00  0.00    -0.267 A  
HETATM   18  C   UNL     1     -11.037  11.409  67.500  1.00  0.00    -0.339 A  
HETATM   19  C   UNL     1     -11.719  12.519  68.244  1.00  0.00    -0.390 C  
HETATM   20  C   UNL     1     -10.647  10.283  68.235  1.00  0.00    -0.255 A  
BRANCH  17  21
HETATM   21  O   UNL     1     -11.042  12.537  65.284  1.00  0.00    -0.283 OA 
BRANCH  21  22
HETATM   22  C   UNL     1     -12.292  12.877  64.764  1.00  0.00    -0.459 C  
HETATM   23  C   UNL     1     -12.504  12.109  63.488  1.00  0.00    -0.666 C  
HETATM   24  O   UNL     1     -13.121  13.619  65.268  1.00  0.00    -0.735 OA 
ENDBRANCH  21  22
ENDBRANCH  17  21
ENDBRANCH  11  12
ENDBRANCH  10  11
ENDBRANCH   7  10
ENDBRANCH   6   7
ENDBRANCH   4   6
ENDBRANCH   2   4
TORSDOF 8
ENDMDL
MODEL      149
REMARK 921   NORMALIZED FREE ENERGY PREDICTED BY IDOCK:   -3.77 KCAL/MOL
REMARK 922        TOTAL FREE ENERGY PREDICTED BY IDOCK:   -6.77 KCAL/MOL
REMARK 923 INTER-LIGAND FREE ENERGY PREDICTED BY IDOCK:   -5.68 KCAL/MOL
REMARK 924 INTRA-LIGAND FREE ENERGY PREDICTED BY IDOCK:   -1.09 KCAL/MOL
REMARK 927      BINDING AFFINITY PREDICTED BY RF-SCORE:    0.00 PKD
ROOT
HETATM    1  C   UNL     1     -10.328  12.294  63.343  1.00  0.00    -0.395 C  
HETATM    2  C   UNL     1     -11.439  13.024  64.099  1.00  0.00    -0.402 C  
HETATM    3  C   UNL     1     -12.747  12.237  63.976  1.00  0.00    -0.457 C  
ENDROOT
BRANCH   2   4
HETATM    4  N   UNL     1     -11.021  13.175  65.497  1.00  0.00    -0.276 NA 
HETATM    5  H   UNL     1     -10.747  14.138  65.692  1.00  0.00     0.000 HD 
BRANCH   4   6
HETATM    6  C   UNL     1     -12.032  12.715  66.454  1.00  0.00    -0.357 C  
BRANCH   6   7
HETATM    7  C   UNL     1     -11.365  12.097  67.699  1.00  0.00    -0.314 C  
HETATM    8  O   UNL     1     -12.243  11.127  68.285  1.00  0.00    -0.709 OA 
HETATM    9  H   UNL     1     -11.832  10.746  69.052  1.00  0.00     0.000 HD 
BRANCH   7  10
HETATM   10  C   UNL     1     -10.032  11.435  67.324  1.00  0.00    -0.194 C  
BRANCH  10  11
HETATM   11  O   UNL     1     -10.270  10.533  66.229  1.00  0.00    -0.229 OA 
BRANCH  11  12
HETATM   12  C   UNL     1      -9.867   9.239  66.420  1.00  0.00    -0.277 A  
HETATM   13  C   UNL     1      -8.785   8.778  65.646  1.00  0.00    -0.215 A  
HETATM   14  C   UNL     1      -8.334   7.448  65.819  1.00  0.00    -0.141 A  
HETATM   15  C   UNL     1      -8.140   9.683  64.624  1.00  0.00    -0.141 C  
HETATM   16  C   UNL     1      -7.161   6.893  65.045  1.00  0.00    -0.064 C  
HETATM   17  C   UNL     1      -9.010   6.594  66.726  1.00  0.00    -0.133 A  
HETATM   18  C   UNL     1     -10.146   7.023  67.422  1.00  0.00    -0.252 A  
HETATM   19  C   UNL     1     -10.990   6.145  68.297  1.00  0.00    -0.397 C  
HETATM   20  C   UNL     1     -10.533   8.361  67.283  1.00  0.00    -0.373 A  
BRANCH  17  21
HETATM   21  O   UNL     1      -8.546   5.247  66.735  1.00  0.00    -0.108 OA 
BRANCH  21  22
HETATM   22  C   UNL     1      -8.197   4.499  67.861  1.00  0.00    -0.095 C  
HETATM   23  C   UNL     1      -7.123   5.238  68.612  1.00  0.00    -0.061 C  
HETATM   24  O   UNL     1      -8.703   3.451  68.234  1.00  0.00    -0.089 OA 
ENDBRANCH  21  22
ENDBRANCH  17  21
ENDBRANCH  11  12
ENDBRANCH  10  11
ENDBRANCH   7  10
ENDBRANCH   6   7
ENDBRANCH   4   6
ENDBRANCH   2   4
TORSDOF 8
ENDMDL
MODEL      150
REMARK 921   NORMALIZED FREE ENERGY PREDICTED BY IDOCK:   -3.77 KCAL/MOL
REMARK 922        TOTAL FREE ENERGY PREDICTED BY IDOCK:   -6.77 KCAL/MOL
REMARK 923 INTER-LIGAND FREE ENERGY PREDICTED BY IDOCK:   -5.96 KCAL/MOL
REMARK 924 INTRA-LIGAND FREE ENERGY PREDICTED BY IDOCK:   -0.81 KCAL/MOL
REMARK 927      BINDING AFFINITY PREDICTED BY RF-SCORE:    0.00 PKD
ROOT
HETATM    1  C   UNL     1     -10.748  15.918  66.584  1.00  0.00    -0.270 C  
HETATM    2  C   UNL     1      -9.651  15.166  65.828  1.00  0.00    -0.309 C  
HETATM    3  C   UNL     1      -8.912  14.234  66.791  1.00  0.00    -0.249 C  
ENDROOT
BRANCH   2   4
HETATM    4  N   UNL     1     -10.277  14.430  64.725  1.00  0.00    -0.566 NA 
HETATM    5  H   UNL     1     -10.094  13.429  64.806  1.00  0.00     0.000 HD 
BRANCH   4   6
HETATM    6  C   UNL     1     -11.716  14.690  64.600  1.00  0.00    -0.426 C  
BRANCH   6   7
HETATM    7  C   UNL     1     -12.516  13.373  64.655  1.00  0.00    -0.331 C  
HETATM    8  O   UNL     1     -12.651  12.837  63.331  1.00  0.00    -0.701 OA 
HETATM    9  H   UNL     1     -13.144  12.026  63.364  1.00  0.00     0.000 HD 
BRANCH   7  10
HETATM   10  C   UNL     1     -11.815  12.353  65.562  1.00  0.00    -0.412 C  
BRANCH  10  11
HETATM   11  O   UNL     1     -10.843  11.642  64.775  1.00  0.00    -0.297 OA 
BRANCH  11  12
HETATM   12  C   UNL     1     -10.261  10.560  65.376  1.00  0.00    -0.270 A  
HETATM   13  C   UNL     1      -9.300   9.847  64.634  1.00  0.00    -0.338 A  
HETATM   14  C   UNL     1      -8.669   8.725  65.223  1.00  0.00    -0.216 A  
HETATM   15  C   UNL     1      -8.975  10.258  63.218  1.00  0.00    -0.253 C  
HETATM   16  C   UNL     1      -7.609   7.931  64.499  1.00  0.00    -0.111 C  
HETATM   17  C   UNL     1      -9.054   8.312  66.523  1.00  0.00    -0.178 A  
HETATM   18  C   UNL     1     -10.078   8.961  67.221  1.00  0.00    -0.303 A  
HETATM   19  C   UNL     1     -10.629   8.508  68.541  1.00  0.00    -0.154 C  
HETATM   20  C   UNL     1     -10.641  10.106  66.645  1.00  0.00    -0.214 A  
BRANCH  17  21
HETATM   21  O   UNL     1      -8.440   7.107  66.971  1.00  0.00    -0.119 OA 
BRANCH  21  22
HETATM   22  C   UNL     1      -7.425   6.999  67.923  1.00  0.00    -0.099 C  
HETATM   23  C   UNL     1      -7.120   8.373  68.456  1.00  0.00    -0.076 C  
HETATM   24  O   UNL     1      -6.898   5.972  68.324  1.00  0.00    -0.065 OA 
ENDBRANCH  21  22
ENDBRANCH  17  21
ENDBRANCH  11  12
ENDBRANCH  10  11
ENDBRANCH   7  10
ENDBRANCH   6   7
ENDBRANCH   4   6
ENDBRANCH   2   4
TORSDOF 8
ENDMDL
MODEL      151
REMARK 921   NORMALIZED FREE ENERGY PREDICTED BY IDOCK:   -3.76 KCAL/MOL
REMARK 922        TOTAL FREE ENERGY PREDICTED BY IDOCK:   -6.76 KCAL/MOL
REMARK 923 INTER-LIGAND FREE ENERGY PREDICTED BY IDOCK:   -5.91 KCAL/MOL
REMARK 924 INTRA-LIGAND FREE ENERGY PREDICTED BY IDOCK:   -0.85 KCAL/MOL
REMARK 927      BINDING AFFINITY PREDICTED BY RF-SCORE:    0.00 PKD
ROOT
HETATM    1  C   UNL     1      -5.836  20.305  68.441  1.00  0.00    -0.294 C  
HETATM    2  C   UNL     1      -6.038  18.796  68.587  1.00  0.00    -0.219 C  
HETATM    3  C   UNL     1      -5.289  18.295  69.824  1.00  0.00    -0.209 C  
ENDROOT
BRANCH   2   4
HETATM    4  N   UNL     1      -7.478  18.533  68.674  1.00  0.00    -0.295 NA 
HETATM    5  H   UNL     1      -7.769  18.420  69.645  1.00  0.00     0.000 HD 
BRANCH   4   6
HETATM    6  C   UNL     1      -8.292  19.550  67.999  1.00  0.00    -0.320 C  
BRANCH   6   7
HETATM    7  C   UNL     1      -9.794  19.235  68.148  1.00  0.00    -0.379 C  
HETATM    8  O   UNL     1     -10.568  20.301  67.581  1.00  0.00    -0.250 OA 
HETATM    9  H   UNL     1     -11.494  20.107  67.673  1.00  0.00     0.000 HD 
BRANCH   7  10
HETATM   10  C   UNL     1     -10.139  17.912  67.452  1.00  0.00    -0.340 C  
BRANCH  10  11
HETATM   11  O   UNL     1      -9.832  16.834  68.354  1.00  0.00    -0.234 OA 
BRANCH  11  12
HETATM   12  C   UNL     1      -9.925  15.572  67.833  1.00  0.00    -0.218 A  
HETATM   13  C   UNL     1      -8.785  14.751  67.921  1.00  0.00    -0.167 A  
HETATM   14  C   UNL     1      -8.842  13.436  67.400  1.00  0.00    -0.214 A  
HETATM   15  C   UNL     1      -7.511  15.281  68.533  1.00  0.00    -0.121 C  
HETATM   16  C   UNL     1      -7.669  12.489  67.485  1.00  0.00    -0.165 C  
HETATM   17  C   UNL     1     -10.025  12.992  66.756  1.00  0.00    -0.245 A  
HETATM   18  C   UNL     1     -11.123  13.841  66.582  1.00  0.00    -0.316 A  
HETATM   19  C   UNL     1     -12.355  13.490  65.802  1.00  0.00    -0.516 C  
HETATM   20  C   UNL     1     -11.065  15.114  67.163  1.00  0.00    -0.335 A  
BRANCH  17  21
HETATM   21  O   UNL     1      -9.933  11.697  66.169  1.00  0.00    -0.209 OA 
BRANCH  21  22
HETATM   22  C   UNL     1     -10.338  10.494  66.749  1.00  0.00    -0.245 C  
HETATM   23  C   UNL     1      -9.649   9.362  66.036  1.00  0.00    -0.328 C  
HETATM   24  O   UNL     1     -11.076  10.354  67.713  1.00  0.00    -0.295 OA 
ENDBRANCH  21  22
ENDBRANCH  17  21
ENDBRANCH  11  12
ENDBRANCH  10  11
ENDBRANCH   7  10
ENDBRANCH   6   7
ENDBRANCH   4   6
ENDBRANCH   2   4
TORSDOF 8
ENDMDL
MODEL      152
REMARK 921   NORMALIZED FREE ENERGY PREDICTED BY IDOCK:   -3.75 KCAL/MOL
REMARK 922        TOTAL FREE ENERGY PREDICTED BY IDOCK:   -6.74 KCAL/MOL
REMARK 923 INTER-LIGAND FREE ENERGY PREDICTED BY IDOCK:   -6.25 KCAL/MOL
REMARK 924 INTRA-LIGAND FREE ENERGY PREDICTED BY IDOCK:   -0.48 KCAL/MOL
REMARK 927      BINDING AFFINITY PREDICTED BY RF-SCORE:    0.00 PKD
ROOT
HETATM    1  C   UNL     1     -12.365  13.049  65.369  1.00  0.00    -0.538 C  
HETATM    2  C   UNL     1     -11.519  13.819  64.354  1.00  0.00    -0.372 C  
HETATM    3  C   UNL     1     -12.005  15.269  64.276  1.00  0.00    -0.236 C  
ENDROOT
BRANCH   2   4
HETATM    4  N   UNL     1     -10.115  13.735  64.770  1.00  0.00    -0.619 NA 
HETATM    5  H   UNL     1      -9.500  14.134  64.060  1.00  0.00     0.000 HD 
BRANCH   4   6
HETATM    6  C   UNL     1      -9.864  14.344  66.081  1.00  0.00    -0.320 C  
BRANCH   6   7
HETATM    7  C   UNL     1      -8.840  13.515  66.882  1.00  0.00    -0.182 C  
HETATM    8  O   UNL     1      -8.830  13.952  68.248  1.00  0.00    -0.177 OA 
HETATM    9  H   UNL     1      -8.199  13.442  68.742  1.00  0.00     0.000 HD 
BRANCH   7  10
HETATM   10  C   UNL     1      -9.185  12.021  66.815  1.00  0.00    -0.201 C  
BRANCH  10  11
HETATM   11  O   UNL     1      -8.490  11.349  67.881  1.00  0.00    -0.129 OA 
BRANCH  11  12
HETATM   12  C   UNL     1      -9.276  10.804  68.859  1.00  0.00    -0.173 A  
HETATM   13  C   UNL     1      -8.691   9.832  69.693  1.00  0.00    -0.211 A  
HETATM   14  C   UNL     1      -9.469   9.250  70.722  1.00  0.00    -0.336 A  
HETATM   15  C   UNL     1      -7.262   9.398  69.468  1.00  0.00    -0.067 C  
HETATM   16  C   UNL     1      -8.899   8.223  71.672  1.00  0.00    -0.224 C  
HETATM   17  C   UNL     1     -10.831   9.616  70.858  1.00  0.00    -0.339 A  
HETATM   18  C   UNL     1     -11.439  10.507  69.968  1.00  0.00    -0.393 A  
HETATM   19  C   UNL     1     -12.901  10.845  69.966  1.00  0.00    -0.075 C  
HETATM   20  C   UNL     1     -10.633  11.119  69.000  1.00  0.00    -0.251 A  
BRANCH  17  21
HETATM   21  O   UNL     1     -11.548   8.884  71.848  1.00  0.00    -0.331 OA 
BRANCH  21  22
HETATM   22  C   UNL     1     -12.326   7.745  71.635  1.00  0.00    -0.321 C  
HETATM   23  C   UNL     1     -13.773   8.111  71.822  1.00  0.00    -0.422 C  
HETATM   24  O   UNL     1     -11.934   6.640  71.292  1.00  0.00    -0.336 OA 
ENDBRANCH  21  22
ENDBRANCH  17  21
ENDBRANCH  11  12
ENDBRANCH  10  11
ENDBRANCH   7  10
ENDBRANCH   6   7
ENDBRANCH   4   6
ENDBRANCH   2   4
TORSDOF 8
ENDMDL
MODEL      153
REMARK 921   NORMALIZED FREE ENERGY PREDICTED BY IDOCK:   -3.74 KCAL/MOL
REMARK 922        TOTAL FREE ENERGY PREDICTED BY IDOCK:   -6.73 KCAL/MOL
REMARK 923 INTER-LIGAND FREE ENERGY PREDICTED BY IDOCK:   -6.15 KCAL/MOL
REMARK 924 INTRA-LIGAND FREE ENERGY PREDICTED BY IDOCK:   -0.58 KCAL/MOL
REMARK 927      BINDING AFFINITY PREDICTED BY RF-SCORE:    0.00 PKD
ROOT
HETATM    1  C   UNL     1     -11.476   5.306  72.978  1.00  0.00    -0.340 C  
HETATM    2  C   UNL     1     -11.132   6.330  71.895  1.00  0.00    -0.268 C  
HETATM    3  C   UNL     1     -12.421   6.947  71.345  1.00  0.00    -0.413 C  
ENDROOT
BRANCH   2   4
HETATM    4  N   UNL     1     -10.249   7.342  72.484  1.00  0.00    -0.190 NA 
HETATM    5  H   UNL     1      -9.362   6.927  72.771  1.00  0.00     0.000 HD 
BRANCH   4   6
HETATM    6  C   UNL     1     -10.025   8.495  71.604  1.00  0.00    -0.259 C  
BRANCH   6   7
HETATM    7  C   UNL     1      -8.639   8.411  70.934  1.00  0.00    -0.146 C  
HETATM    8  O   UNL     1      -8.575   7.242  70.106  1.00  0.00    -0.137 OA 
HETATM    9  H   UNL     1      -7.721   7.190  69.693  1.00  0.00     0.000 HD 
BRANCH   7  10
HETATM   10  C   UNL     1      -8.373   9.664  70.089  1.00  0.00    -0.198 C  
BRANCH  10  11
HETATM   11  O   UNL     1      -8.736   9.375  68.728  1.00  0.00    -0.128 OA 
BRANCH  11  12
HETATM   12  C   UNL     1      -9.623  10.241  68.147  1.00  0.00    -0.140 A  
HETATM   13  C   UNL     1      -9.668  10.273  66.740  1.00  0.00    -0.231 A  
HETATM   14  C   UNL     1     -10.577  11.150  66.102  1.00  0.00    -0.305 A  
HETATM   15  C   UNL     1      -8.736   9.407  65.929  1.00  0.00    -0.177 C  
HETATM   16  C   UNL     1     -10.702  11.218  64.598  1.00  0.00    -0.371 C  
HETATM   17  C   UNL     1     -11.383  12.013  66.887  1.00  0.00    -0.341 A  
HETATM   18  C   UNL     1     -11.267  12.050  68.281  1.00  0.00    -0.315 A  
HETATM   19  C   UNL     1     -11.987  13.021  69.170  1.00  0.00    -0.320 C  
HETATM   20  C   UNL     1     -10.408  11.128  68.892  1.00  0.00    -0.220 A  
BRANCH  17  21
HETATM   21  O   UNL     1     -12.175  12.932  66.140  1.00  0.00    -0.456 OA 
BRANCH  21  22
HETATM   22  C   UNL     1     -11.811  14.228  65.770  1.00  0.00    -0.374 C  
HETATM   23  C   UNL     1     -12.257  14.464  64.353  1.00  0.00    -0.481 C  
HETATM   24  O   UNL     1     -11.276  15.072  66.474  1.00  0.00    -0.340 OA 
ENDBRANCH  21  22
ENDBRANCH  17  21
ENDBRANCH  11  12
ENDBRANCH  10  11
ENDBRANCH   7  10
ENDBRANCH   6   7
ENDBRANCH   4   6
ENDBRANCH   2   4
TORSDOF 8
ENDMDL
MODEL      154
REMARK 921   NORMALIZED FREE ENERGY PREDICTED BY IDOCK:   -3.74 KCAL/MOL
REMARK 922        TOTAL FREE ENERGY PREDICTED BY IDOCK:   -6.72 KCAL/MOL
REMARK 923 INTER-LIGAND FREE ENERGY PREDICTED BY IDOCK:   -6.10 KCAL/MOL
REMARK 924 INTRA-LIGAND FREE ENERGY PREDICTED BY IDOCK:   -0.62 KCAL/MOL
REMARK 927      BINDING AFFINITY PREDICTED BY RF-SCORE:    0.00 PKD
ROOT
HETATM    1  C   UNL     1     -11.988  15.781  72.954  1.00  0.00    -0.599 C  
HETATM    2  C   UNL     1     -12.399  14.654  72.004  1.00  0.00    -0.321 C  
HETATM    3  C   UNL     1     -13.920  14.655  71.834  1.00  0.00    -0.573 C  
ENDROOT
BRANCH   2   4
HETATM    4  N   UNL     1     -11.705  14.856  70.727  1.00  0.00    -0.295 NA 
HETATM    5  H   UNL     1     -10.741  14.527  70.781  1.00  0.00     0.000 HD 
BRANCH   4   6
HETATM    6  C   UNL     1     -12.403  14.246  69.589  1.00  0.00    -0.266 C  
BRANCH   6   7
HETATM    7  C   UNL     1     -11.429  13.999  68.420  1.00  0.00    -0.306 C  
HETATM    8  O   UNL     1     -12.051  14.384  67.186  1.00  0.00    -0.487 OA 
HETATM    9  H   UNL     1     -11.451  14.231  66.465  1.00  0.00     0.000 HD 
BRANCH   7  10
HETATM   10  C   UNL     1     -10.132  14.795  68.621  1.00  0.00    -0.238 C  
BRANCH  10  11
HETATM   11  O   UNL     1     -10.405  16.179  68.339  1.00  0.00    -0.240 OA 
BRANCH  11  12
HETATM   12  C   UNL     1      -9.340  16.924  67.910  1.00  0.00    -0.238 A  
HETATM   13  C   UNL     1      -9.596  18.254  67.524  1.00  0.00    -0.282 A  
HETATM   14  C   UNL     1      -8.520  19.060  67.081  1.00  0.00    -0.297 A  
HETATM   15  C   UNL     1     -11.004  18.797  67.552  1.00  0.00    -0.273 C  
HETATM   16  C   UNL     1      -8.713  20.503  66.678  1.00  0.00    -0.165 C  
HETATM   17  C   UNL     1      -7.221  18.499  66.985  1.00  0.00    -0.203 A  
HETATM   18  C   UNL     1      -6.986  17.151  67.276  1.00  0.00    -0.196 A  
HETATM   19  C   UNL     1      -5.674  16.453  67.077  1.00  0.00    -0.068 C  
HETATM   20  C   UNL     1      -8.053  16.392  67.774  1.00  0.00    -0.167 A  
BRANCH  17  21
HETATM   21  O   UNL     1      -6.239  19.363  66.419  1.00  0.00    -0.173 OA 
BRANCH  21  22
HETATM   22  C   UNL     1      -5.797  19.358  65.096  1.00  0.00    -0.222 C  
HETATM   23  C   UNL     1      -6.179  20.666  64.458  1.00  0.00    -0.342 C  
HETATM   24  O   UNL     1      -5.151  18.483  64.539  1.00  0.00    -0.151 OA 
ENDBRANCH  21  22
ENDBRANCH  17  21
ENDBRANCH  11  12
ENDBRANCH  10  11
ENDBRANCH   7  10
ENDBRANCH   6   7
ENDBRANCH   4   6
ENDBRANCH   2   4
TORSDOF 8
ENDMDL
MODEL      155
REMARK 921   NORMALIZED FREE ENERGY PREDICTED BY IDOCK:   -3.73 KCAL/MOL
REMARK 922        TOTAL FREE ENERGY PREDICTED BY IDOCK:   -6.71 KCAL/MOL
REMARK 923 INTER-LIGAND FREE ENERGY PREDICTED BY IDOCK:   -6.00 KCAL/MOL
REMARK 924 INTRA-LIGAND FREE ENERGY PREDICTED BY IDOCK:   -0.71 KCAL/MOL
REMARK 927      BINDING AFFINITY PREDICTED BY RF-SCORE:    0.00 PKD
ROOT
HETATM    1  C   UNL     1     -10.273   5.391  67.631  1.00  0.00    -0.236 C  
HETATM    2  C   UNL     1     -11.126   6.520  68.210  1.00  0.00    -0.243 C  
HETATM    3  C   UNL     1     -10.671   6.826  69.639  1.00  0.00    -0.290 C  
ENDROOT
BRANCH   2   4
HETATM    4  N   UNL     1     -10.996   7.689  67.332  1.00  0.00    -0.546 NA 
HETATM    5  H   UNL     1     -11.908   8.111  67.152  1.00  0.00     0.000 HD 
BRANCH   4   6
HETATM    6  C   UNL     1     -10.049   8.688  67.839  1.00  0.00    -0.203 C  
BRANCH   6   7
HETATM    7  C   UNL     1      -9.107   9.167  66.716  1.00  0.00    -0.144 C  
HETATM    8  O   UNL     1      -9.705   8.899  65.440  1.00  0.00    -0.455 OA 
HETATM    9  H   UNL     1      -9.125   9.194  64.747  1.00  0.00     0.000 HD 
BRANCH   7  10
HETATM   10  C   UNL     1      -8.823  10.668  66.854  1.00  0.00    -0.138 C  
BRANCH  10  11
HETATM   11  O   UNL     1     -10.020  11.312  67.327  1.00  0.00    -0.180 OA 
BRANCH  11  12
HETATM   12  C   UNL     1      -9.875  12.602  67.761  1.00  0.00    -0.212 A  
HETATM   13  C   UNL     1     -10.843  13.095  68.656  1.00  0.00    -0.287 A  
HETATM   14  C   UNL     1     -10.725  14.422  69.134  1.00  0.00    -0.254 A  
HETATM   15  C   UNL     1     -12.007  12.228  69.072  1.00  0.00    -0.300 C  
HETATM   16  C   UNL     1     -11.708  15.009  70.119  1.00  0.00    -0.340 C  
HETATM   17  C   UNL     1      -9.668  15.241  68.664  1.00  0.00    -0.212 A  
HETATM   18  C   UNL     1      -8.764  14.783  67.700  1.00  0.00    -0.183 A  
HETATM   19  C   UNL     1      -7.702  15.626  67.058  1.00  0.00    -0.257 C  
HETATM   20  C   UNL     1      -8.863  13.447  67.291  1.00  0.00    -0.220 A  
BRANCH  17  21
HETATM   21  O   UNL     1      -9.712  16.591  69.120  1.00  0.00    -0.259 OA 
BRANCH  21  22
HETATM   22  C   UNL     1     -10.109  17.703  68.377  1.00  0.00    -0.368 C  
HETATM   23  C   UNL     1      -9.290  18.888  68.814  1.00  0.00    -0.381 C  
HETATM   24  O   UNL     1     -10.932  17.730  67.474  1.00  0.00    -0.287 OA 
ENDBRANCH  21  22
ENDBRANCH  17  21
ENDBRANCH  11  12
ENDBRANCH  10  11
ENDBRANCH   7  10
ENDBRANCH   6   7
ENDBRANCH   4   6
ENDBRANCH   2   4
TORSDOF 8
ENDMDL
MODEL      156
REMARK 921   NORMALIZED FREE ENERGY PREDICTED BY IDOCK:   -3.71 KCAL/MOL
REMARK 922        TOTAL FREE ENERGY PREDICTED BY IDOCK:   -6.68 KCAL/MOL
REMARK 923 INTER-LIGAND FREE ENERGY PREDICTED BY IDOCK:   -5.86 KCAL/MOL
REMARK 924 INTRA-LIGAND FREE ENERGY PREDICTED BY IDOCK:   -0.82 KCAL/MOL
REMARK 927      BINDING AFFINITY PREDICTED BY RF-SCORE:    0.00 PKD
ROOT
HETATM    1  C   UNL     1      -8.239   2.957  68.752  1.00  0.00    -0.077 C  
HETATM    2  C   UNL     1      -8.582   4.205  67.939  1.00  0.00    -0.096 C  
HETATM    3  C   UNL     1      -9.606   3.848  66.859  1.00  0.00    -0.226 C  
ENDROOT
BRANCH   2   4
HETATM    4  N   UNL     1      -9.090   5.227  68.860  1.00  0.00    -0.109 NA 
HETATM    5  H   UNL     1      -9.560   5.975  68.349  1.00  0.00     0.000 HD 
BRANCH   4   6
HETATM    6  C   UNL     1      -9.963   4.679  69.904  1.00  0.00    -0.226 C  
BRANCH   6   7
HETATM    7  C   UNL     1     -11.134   5.638  70.197  1.00  0.00    -0.136 C  
HETATM    8  O   UNL     1     -11.041   6.114  71.546  1.00  0.00    -0.266 OA 
HETATM    9  H   UNL     1     -11.763   6.705  71.727  1.00  0.00     0.000 HD 
BRANCH   7  10
HETATM   10  C   UNL     1     -11.116   6.824  69.223  1.00  0.00    -0.239 C  
BRANCH  10  11
HETATM   11  O   UNL     1     -10.461   7.929  69.870  1.00  0.00    -0.220 OA 
BRANCH  11  12
HETATM   12  C   UNL     1     -10.847   9.177  69.463  1.00  0.00    -0.180 A  
HETATM   13  C   UNL     1     -11.503   9.991  70.406  1.00  0.00    -0.389 A  
HETATM   14  C   UNL     1     -11.912  11.291  70.026  1.00  0.00    -0.447 A  
HETATM   15  C   UNL     1     -11.793   9.467  71.792  1.00  0.00    -0.452 C  
HETATM   16  C   UNL     1     -12.595  12.231  70.992  1.00  0.00    -0.352 C  
HETATM   17  C   UNL     1     -11.701  11.727  68.694  1.00  0.00    -0.330 A  
HETATM   18  C   UNL     1     -11.138  10.883  67.731  1.00  0.00    -0.371 A  
HETATM   19  C   UNL     1     -11.001  11.223  66.276  1.00  0.00    -0.265 C  
HETATM   20  C   UNL     1     -10.683   9.626  68.147  1.00  0.00    -0.266 A  
BRANCH  17  21
HETATM   21  O   UNL     1     -12.255  13.005  68.390  1.00  0.00    -0.223 OA 
BRANCH  21  22
HETATM   22  C   UNL     1     -11.630  14.029  67.677  1.00  0.00    -0.354 C  
HETATM   23  C   UNL     1     -10.291  14.304  68.306  1.00  0.00    -0.242 C  
HETATM   24  O   UNL     1     -12.047  14.585  66.671  1.00  0.00    -0.393 OA 
ENDBRANCH  21  22
ENDBRANCH  17  21
ENDBRANCH  11  12
ENDBRANCH  10  11
ENDBRANCH   7  10
ENDBRANCH   6   7
ENDBRANCH   4   6
ENDBRANCH   2   4
TORSDOF 8
ENDMDL
MODEL      157
REMARK 921   NORMALIZED FREE ENERGY PREDICTED BY IDOCK:   -3.70 KCAL/MOL
REMARK 922        TOTAL FREE ENERGY PREDICTED BY IDOCK:   -6.67 KCAL/MOL
REMARK 923 INTER-LIGAND FREE ENERGY PREDICTED BY IDOCK:   -5.97 KCAL/MOL
REMARK 924 INTRA-LIGAND FREE ENERGY PREDICTED BY IDOCK:   -0.70 KCAL/MOL
REMARK 927      BINDING AFFINITY PREDICTED BY RF-SCORE:    0.00 PKD
ROOT
HETATM    1  C   UNL     1     -11.483   2.065  73.518  1.00  0.00    -0.312 C  
HETATM    2  C   UNL     1     -10.611   3.304  73.721  1.00  0.00    -0.191 C  
HETATM    3  C   UNL     1      -9.305   2.904  74.413  1.00  0.00    -0.104 C  
ENDROOT
BRANCH   2   4
HETATM    4  N   UNL     1     -10.370   3.916  72.410  1.00  0.00    -0.158 NA 
HETATM    5  H   UNL     1     -10.681   3.299  71.659  1.00  0.00     0.000 HD 
BRANCH   4   6
HETATM    6  C   UNL     1     -10.971   5.248  72.276  1.00  0.00    -0.185 C  
BRANCH   6   7
HETATM    7  C   UNL     1     -10.171   6.292  73.080  1.00  0.00    -0.202 C  
HETATM    8  O   UNL     1      -8.862   6.436  72.513  1.00  0.00    -0.134 OA 
HETATM    9  H   UNL     1      -8.368   7.079  73.009  1.00  0.00     0.000 HD 
BRANCH   7  10
HETATM   10  C   UNL     1     -10.894   7.645  73.076  1.00  0.00    -0.400 C  
BRANCH  10  11
HETATM   11  O   UNL     1     -11.622   7.763  71.841  1.00  0.00    -0.265 OA 
BRANCH  11  12
HETATM   12  C   UNL     1     -11.260   8.803  71.029  1.00  0.00    -0.273 A  
HETATM   13  C   UNL     1     -12.019   9.986  71.114  1.00  0.00    -0.484 A  
HETATM   14  C   UNL     1     -11.672  11.086  70.295  1.00  0.00    -0.445 A  
HETATM   15  C   UNL     1     -13.206  10.062  72.044  1.00  0.00    -0.545 C  
HETATM   16  C   UNL     1     -12.422  12.396  70.354  1.00  0.00    -0.214 C  
HETATM   17  C   UNL     1     -10.604  10.959  69.372  1.00  0.00    -0.197 A  
HETATM   18  C   UNL     1      -9.913   9.752  69.217  1.00  0.00    -0.201 A  
HETATM   19  C   UNL     1      -8.863   9.499  68.177  1.00  0.00    -0.124 C  
HETATM   20  C   UNL     1     -10.232   8.699  70.084  1.00  0.00    -0.204 A  
BRANCH  17  21
HETATM   21  O   UNL     1     -10.416  12.085  68.519  1.00  0.00    -0.218 OA 
BRANCH  21  22
HETATM   22  C   UNL     1     -10.933  12.245  67.232  1.00  0.00    -0.256 C  
HETATM   23  C   UNL     1      -9.930  13.001  66.404  1.00  0.00    -0.277 C  
HETATM   24  O   UNL     1     -11.988  11.803  66.802  1.00  0.00    -0.584 OA 
ENDBRANCH  21  22
ENDBRANCH  17  21
ENDBRANCH  11  12
ENDBRANCH  10  11
ENDBRANCH   7  10
ENDBRANCH   6   7
ENDBRANCH   4   6
ENDBRANCH   2   4
TORSDOF 8
ENDMDL
MODEL      158
REMARK 921   NORMALIZED FREE ENERGY PREDICTED BY IDOCK:   -3.70 KCAL/MOL
REMARK 922        TOTAL FREE ENERGY PREDICTED BY IDOCK:   -6.67 KCAL/MOL
REMARK 923 INTER-LIGAND FREE ENERGY PREDICTED BY IDOCK:   -5.64 KCAL/MOL
REMARK 924 INTRA-LIGAND FREE ENERGY PREDICTED BY IDOCK:   -1.03 KCAL/MOL
REMARK 927      BINDING AFFINITY PREDICTED BY RF-SCORE:    0.00 PKD
ROOT
HETATM    1  C   UNL     1      -8.560   9.395  63.520  1.00  0.00    -0.215 C  
HETATM    2  C   UNL     1      -7.678   8.922  64.676  1.00  0.00    -0.117 C  
HETATM    3  C   UNL     1      -6.221   9.298  64.396  1.00  0.00    -0.077 C  
ENDROOT
BRANCH   2   4
HETATM    4  N   UNL     1      -8.174   9.536  65.912  1.00  0.00    -0.114 NA 
HETATM    5  H   UNL     1      -8.873  10.250  65.708  1.00  0.00     0.000 HD 
BRANCH   4   6
HETATM    6  C   UNL     1      -8.693   8.557  66.874  1.00  0.00    -0.128 C  
BRANCH   6   7
HETATM    7  C   UNL     1     -10.212   8.368  66.696  1.00  0.00    -0.265 C  
HETATM    8  O   UNL     1     -10.717   7.522  67.739  1.00  0.00    -0.374 OA 
HETATM    9  H   UNL     1     -11.654   7.405  67.629  1.00  0.00     0.000 HD 
BRANCH   7  10
HETATM   10  C   UNL     1     -10.931   9.723  66.729  1.00  0.00     0.111 C  
BRANCH  10  11
HETATM   11  O   UNL     1     -10.526  10.420  67.921  1.00  0.00    -0.181 OA 
BRANCH  11  12
HETATM   12  C   UNL     1     -10.713  11.776  67.915  1.00  0.00    -0.204 A  
HETATM   13  C   UNL     1     -11.371  12.342  69.023  1.00  0.00    -0.336 A  
HETATM   14  C   UNL     1     -11.576  13.742  69.059  1.00  0.00    -0.356 A  
HETATM   15  C   UNL     1     -11.877  11.461  70.140  1.00  0.00    -0.440 C  
HETATM   16  C   UNL     1     -12.248  14.424  70.227  1.00  0.00    -0.397 C  
HETATM   17  C   UNL     1     -11.165  14.535  67.958  1.00  0.00    -0.292 A  
HETATM   18  C   UNL     1     -10.600  13.960  66.815  1.00  0.00    -0.277 A  
HETATM   19  C   UNL     1     -10.259  14.712  65.563  1.00  0.00    -0.395 C  
HETATM   20  C   UNL     1     -10.348  12.583  66.831  1.00  0.00    -0.242 A  
BRANCH  17  21
HETATM   21  O   UNL     1     -11.524  15.911  68.048  1.00  0.00    -0.328 OA 
BRANCH  21  22
HETATM   22  C   UNL     1     -10.652  17.000  68.001  1.00  0.00    -0.373 C  
HETATM   23  C   UNL     1      -9.460  16.696  68.868  1.00  0.00    -0.251 C  
HETATM   24  O   UNL     1     -10.776  18.014  67.330  1.00  0.00    -0.390 OA 
ENDBRANCH  21  22
ENDBRANCH  17  21
ENDBRANCH  11  12
ENDBRANCH  10  11
ENDBRANCH   7  10
ENDBRANCH   6   7
ENDBRANCH   4   6
ENDBRANCH   2   4
TORSDOF 8
ENDMDL
MODEL      159
REMARK 921   NORMALIZED FREE ENERGY PREDICTED BY IDOCK:   -3.68 KCAL/MOL
REMARK 922        TOTAL FREE ENERGY PREDICTED BY IDOCK:   -6.64 KCAL/MOL
REMARK 923 INTER-LIGAND FREE ENERGY PREDICTED BY IDOCK:   -5.52 KCAL/MOL
REMARK 924 INTRA-LIGAND FREE ENERGY PREDICTED BY IDOCK:   -1.12 KCAL/MOL
REMARK 927      BINDING AFFINITY PREDICTED BY RF-SCORE:    0.00 PKD
ROOT
HETATM    1  C   UNL     1     -10.779  12.110  63.501  1.00  0.00    -0.509 C  
HETATM    2  C   UNL     1     -11.225  13.349  64.280  1.00  0.00    -0.380 C  
HETATM    3  C   UNL     1     -12.506  13.033  65.056  1.00  0.00    -0.534 C  
ENDROOT
BRANCH   2   4
HETATM    4  N   UNL     1     -10.130  13.749  65.170  1.00  0.00    -0.538 NA 
HETATM    5  H   UNL     1      -9.639  14.563  64.800  1.00  0.00     0.000 HD 
BRANCH   4   6
HETATM    6  C   UNL     1     -10.566  13.985  66.551  1.00  0.00    -0.279 C  
BRANCH   6   7
HETATM    7  C   UNL     1      -9.458  13.594  67.549  1.00  0.00    -0.222 C  
HETATM    8  O   UNL     1      -9.956  13.705  68.889  1.00  0.00    -0.399 OA 
HETATM    9  H   UNL     1      -9.273  13.464  69.505  1.00  0.00     0.000 HD 
BRANCH   7  10
HETATM   10  C   UNL     1      -8.978  12.160  67.288  1.00  0.00    -0.184 C  
BRANCH  10  11
HETATM   11  O   UNL     1     -10.134  11.328  67.082  1.00  0.00    -0.186 OA 
BRANCH  11  12
HETATM   12  C   UNL     1      -9.928   9.979  67.185  1.00  0.00    -0.201 A  
HETATM   13  C   UNL     1     -10.231   9.371  68.418  1.00  0.00    -0.224 A  
HETATM   14  C   UNL     1     -10.038   7.976  68.562  1.00  0.00    -0.218 A  
HETATM   15  C   UNL     1     -10.722  10.204  69.576  1.00  0.00    -0.277 C  
HETATM   16  C   UNL     1     -10.369   7.251  69.845  1.00  0.00    -0.226 C  
HETATM   17  C   UNL     1      -9.497   7.232  67.484  1.00  0.00    -0.129 A  
HETATM   18  C   UNL     1      -9.104   7.853  66.293  1.00  0.00    -0.224 A  
HETATM   19  C   UNL     1      -8.408   7.159  65.160  1.00  0.00    -0.081 C  
HETATM   20  C   UNL     1      -9.365   9.221  66.151  1.00  0.00    -0.270 A  
BRANCH  17  21
HETATM   21  O   UNL     1      -9.237   5.862  67.777  1.00  0.00    -0.110 OA 
BRANCH  21  22
HETATM   22  C   UNL     1     -10.041   4.774  67.431  1.00  0.00    -0.126 C  
HETATM   23  C   UNL     1      -9.749   3.642  68.378  1.00  0.00    -0.075 C  
HETATM   24  O   UNL     1     -10.891   4.737  66.554  1.00  0.00    -0.124 OA 
ENDBRANCH  21  22
ENDBRANCH  17  21
ENDBRANCH  11  12
ENDBRANCH  10  11
ENDBRANCH   7  10
ENDBRANCH   6   7
ENDBRANCH   4   6
ENDBRANCH   2   4
TORSDOF 8
ENDMDL
MODEL      160
REMARK 921   NORMALIZED FREE ENERGY PREDICTED BY IDOCK:   -3.66 KCAL/MOL
REMARK 922        TOTAL FREE ENERGY PREDICTED BY IDOCK:   -6.61 KCAL/MOL
REMARK 923 INTER-LIGAND FREE ENERGY PREDICTED BY IDOCK:   -6.69 KCAL/MOL
REMARK 924 INTRA-LIGAND FREE ENERGY PREDICTED BY IDOCK:    0.08 KCAL/MOL
REMARK 927      BINDING AFFINITY PREDICTED BY RF-SCORE:    0.00 PKD
ROOT
HETATM    1  C   UNL     1     -12.980  10.538  71.012  1.00  0.00    -0.475 C  
HETATM    2  C   UNL     1     -11.528  10.070  71.125  1.00  0.00    -0.354 C  
HETATM    3  C   UNL     1     -11.469   8.546  70.997  1.00  0.00    -0.313 C  
ENDROOT
BRANCH   2   4
HETATM    4  N   UNL     1     -10.749  10.738  70.077  1.00  0.00    -0.465 NA 
HETATM    5  H   UNL     1     -10.449  10.071  69.366  1.00  0.00     0.000 HD 
BRANCH   4   6
HETATM    6  C   UNL     1     -11.455  11.871  69.467  1.00  0.00    -0.288 C  
BRANCH   6   7
HETATM    7  C   UNL     1     -10.948  12.122  68.033  1.00  0.00    -0.229 C  
HETATM    8  O   UNL     1     -11.928  11.668  67.089  1.00  0.00    -0.614 OA 
HETATM    9  H   UNL     1     -11.616  11.823  66.205  1.00  0.00     0.000 HD 
BRANCH   7  10
HETATM   10  C   UNL     1     -10.667  13.615  67.814  1.00  0.00    -0.246 C  
BRANCH  10  11
HETATM   11  O   UNL     1      -9.536  13.984  68.623  1.00  0.00    -0.203 OA 
BRANCH  11  12
HETATM   12  C   UNL     1      -9.011  15.226  68.389  1.00  0.00    -0.184 A  
HETATM   13  C   UNL     1      -9.838  16.336  68.642  1.00  0.00    -0.230 A  
HETATM   14  C   UNL     1      -9.330  17.638  68.419  1.00  0.00    -0.289 A  
HETATM   15  C   UNL     1     -11.258  16.135  69.114  1.00  0.00    -0.336 C  
HETATM   16  C   UNL     1     -10.149  18.876  68.697  1.00  0.00    -0.447 C  
HETATM   17  C   UNL     1      -8.021  17.796  67.897  1.00  0.00    -0.233 A  
HETATM   18  C   UNL     1      -7.236  16.691  67.553  1.00  0.00    -0.169 A  
HETATM   19  C   UNL     1      -5.898  16.774  66.879  1.00  0.00    -0.181 C  
HETATM   20  C   UNL     1      -7.735  15.415  67.843  1.00  0.00    -0.144 A  
BRANCH  17  21
HETATM   21  O   UNL     1      -7.655  19.141  67.603  1.00  0.00    -0.235 OA 
BRANCH  21  22
HETATM   22  C   UNL     1      -6.925  19.999  68.427  1.00  0.00    -0.294 C  
HETATM   23  C   UNL     1      -6.393  21.130  67.589  1.00  0.00    -0.417 C  
HETATM   24  O   UNL     1      -6.778  19.910  69.637  1.00  0.00    -0.346 OA 
ENDBRANCH  21  22
ENDBRANCH  17  21
ENDBRANCH  11  12
ENDBRANCH  10  11
ENDBRANCH   7  10
ENDBRANCH   6   7
ENDBRANCH   4   6
ENDBRANCH   2   4
TORSDOF 8
ENDMDL
MODEL      161
REMARK 921   NORMALIZED FREE ENERGY PREDICTED BY IDOCK:   -3.66 KCAL/MOL
REMARK 922        TOTAL FREE ENERGY PREDICTED BY IDOCK:   -6.61 KCAL/MOL
REMARK 923 INTER-LIGAND FREE ENERGY PREDICTED BY IDOCK:   -6.23 KCAL/MOL
REMARK 924 INTRA-LIGAND FREE ENERGY PREDICTED BY IDOCK:   -0.39 KCAL/MOL
REMARK 927      BINDING AFFINITY PREDICTED BY RF-SCORE:    0.00 PKD
ROOT
HETATM    1  C   UNL     1      -8.751  17.707  67.006  1.00  0.00    -0.254 C  
HETATM    2  C   UNL     1      -9.816  18.136  68.016  1.00  0.00    -0.325 C  
HETATM    3  C   UNL     1     -10.776  19.130  67.358  1.00  0.00    -0.578 C  
ENDROOT
BRANCH   2   4
HETATM    4  N   UNL     1     -10.511  16.934  68.488  1.00  0.00    -0.338 NA 
HETATM    5  H   UNL     1     -11.371  17.180  68.979  1.00  0.00     0.000 HD 
BRANCH   4   6
HETATM    6  C   UNL     1     -10.778  15.965  67.419  1.00  0.00    -0.313 C  
BRANCH   6   7
HETATM    7  C   UNL     1     -11.541  14.743  67.967  1.00  0.00    -0.343 C  
HETATM    8  O   UNL     1     -12.490  14.291  66.992  1.00  0.00    -0.588 OA 
HETATM    9  H   UNL     1     -12.961  13.537  67.329  1.00  0.00     0.000 HD 
BRANCH   7  10
HETATM   10  C   UNL     1     -10.566  13.609  68.311  1.00  0.00    -0.253 C  
BRANCH  10  11
HETATM   11  O   UNL     1     -11.327  12.404  68.507  1.00  0.00    -0.247 OA 
BRANCH  11  12
HETATM   12  C   UNL     1     -10.647  11.347  69.049  1.00  0.00    -0.191 A  
HETATM   13  C   UNL     1     -11.221  10.714  70.168  1.00  0.00    -0.378 A  
HETATM   14  C   UNL     1     -10.553   9.612  70.753  1.00  0.00    -0.392 A  
HETATM   15  C   UNL     1     -12.516  11.226  70.750  1.00  0.00    -0.471 C  
HETATM   16  C   UNL     1     -11.123   8.866  71.936  1.00  0.00    -0.442 C  
HETATM   17  C   UNL     1      -9.297   9.204  70.237  1.00  0.00    -0.220 A  
HETATM   18  C   UNL     1      -8.680   9.895  69.189  1.00  0.00    -0.159 A  
HETATM   19  C   UNL     1      -7.301   9.607  68.674  1.00  0.00    -0.074 C  
HETATM   20  C   UNL     1      -9.391  10.940  68.584  1.00  0.00    -0.188 A  
BRANCH  17  21
HETATM   21  O   UNL     1      -8.661   8.163  70.973  1.00  0.00    -0.125 OA 
BRANCH  21  22
HETATM   22  C   UNL     1      -7.662   8.321  71.935  1.00  0.00    -0.114 C  
HETATM   23  C   UNL     1      -8.079   7.589  73.182  1.00  0.00    -0.148 C  
HETATM   24  O   UNL     1      -6.592   8.895  71.799  1.00  0.00    -0.086 OA 
ENDBRANCH  21  22
ENDBRANCH  17  21
ENDBRANCH  11  12
ENDBRANCH  10  11
ENDBRANCH   7  10
ENDBRANCH   6   7
ENDBRANCH   4   6
ENDBRANCH   2   4
TORSDOF 8
ENDMDL
MODEL      162
REMARK 921   NORMALIZED FREE ENERGY PREDICTED BY IDOCK:   -3.65 KCAL/MOL
REMARK 922        TOTAL FREE ENERGY PREDICTED BY IDOCK:   -6.60 KCAL/MOL
REMARK 923 INTER-LIGAND FREE ENERGY PREDICTED BY IDOCK:   -5.26 KCAL/MOL
REMARK 924 INTRA-LIGAND FREE ENERGY PREDICTED BY IDOCK:   -1.34 KCAL/MOL
REMARK 927      BINDING AFFINITY PREDICTED BY RF-SCORE:    0.00 PKD
ROOT
HETATM    1  C   UNL     1     -10.357   7.957  66.476  1.00  0.00    -0.132 C  
HETATM    2  C   UNL     1     -10.295   7.227  67.818  1.00  0.00    -0.209 C  
HETATM    3  C   UNL     1     -10.951   5.850  67.684  1.00  0.00    -0.247 C  
ENDROOT
BRANCH   2   4
HETATM    4  N   UNL     1      -8.888   7.127  68.221  1.00  0.00    -0.127 NA 
HETATM    5  H   UNL     1      -8.761   6.391  68.916  1.00  0.00     0.000 HD 
BRANCH   4   6
HETATM    6  C   UNL     1      -7.976   6.940  67.088  1.00  0.00    -0.113 C  
BRANCH   6   7
HETATM    7  C   UNL     1      -6.695   7.779  67.273  1.00  0.00    -0.068 C  
HETATM    8  O   UNL     1      -5.543   6.940  67.111  1.00  0.00    -0.016 OA 
HETATM    9  H   UNL     1      -4.754   7.457  67.225  1.00  0.00     0.000 HD 
BRANCH   7  10
HETATM   10  C   UNL     1      -6.652   8.928  66.256  1.00  0.00    -0.066 C  
BRANCH  10  11
HETATM   11  O   UNL     1      -6.917  10.157  66.953  1.00  0.00    -0.086 OA 
BRANCH  11  12
HETATM   12  C   UNL     1      -8.150  10.712  66.741  1.00  0.00    -0.131 A  
HETATM   13  C   UNL     1      -8.989  10.870  67.861  1.00  0.00    -0.141 A  
HETATM   14  C   UNL     1     -10.270  11.447  67.685  1.00  0.00    -0.204 A  
HETATM   15  C   UNL     1      -8.537  10.400  69.222  1.00  0.00    -0.159 C  
HETATM   16  C   UNL     1     -11.212  11.675  68.843  1.00  0.00    -0.306 C  
HETATM   17  C   UNL     1     -10.701  11.803  66.382  1.00  0.00    -0.266 A  
HETATM   18  C   UNL     1      -9.906  11.555  65.258  1.00  0.00    -0.286 A  
HETATM   19  C   UNL     1     -10.341  11.783  63.840  1.00  0.00    -0.428 C  
HETATM   20  C   UNL     1      -8.619  11.045  65.465  1.00  0.00    -0.104 A  
BRANCH  17  21
HETATM   21  O   UNL     1     -12.047  12.265  66.306  1.00  0.00    -0.626 OA 
BRANCH  21  22
HETATM   22  C   UNL     1     -12.465  13.531  65.893  1.00  0.00    -0.429 C  
HETATM   23  C   UNL     1     -11.701  14.566  66.673  1.00  0.00    -0.384 C  
HETATM   24  O   UNL     1     -13.266  13.789  65.006  1.00  0.00    -0.733 OA 
ENDBRANCH  21  22
ENDBRANCH  17  21
ENDBRANCH  11  12
ENDBRANCH  10  11
ENDBRANCH   7  10
ENDBRANCH   6   7
ENDBRANCH   4   6
ENDBRANCH   2   4
TORSDOF 8
ENDMDL
MODEL      163
REMARK 921   NORMALIZED FREE ENERGY PREDICTED BY IDOCK:   -3.62 KCAL/MOL
REMARK 922        TOTAL FREE ENERGY PREDICTED BY IDOCK:   -6.54 KCAL/MOL
REMARK 923 INTER-LIGAND FREE ENERGY PREDICTED BY IDOCK:   -6.65 KCAL/MOL
REMARK 924 INTRA-LIGAND FREE ENERGY PREDICTED BY IDOCK:    0.10 KCAL/MOL
REMARK 927      BINDING AFFINITY PREDICTED BY RF-SCORE:    0.00 PKD
ROOT
HETATM    1  C   UNL     1     -10.645  18.347  67.785  1.00  0.00    -0.419 C  
HETATM    2  C   UNL     1     -10.344  18.408  66.287  1.00  0.00    -0.415 C  
HETATM    3  C   UNL     1     -10.505  19.847  65.790  1.00  0.00    -0.518 C  
ENDROOT
BRANCH   2   4
HETATM    4  N   UNL     1      -8.983  17.904  66.072  1.00  0.00    -0.509 NA 
HETATM    5  H   UNL     1      -8.425  18.577  65.546  1.00  0.00     0.000 HD 
BRANCH   4   6
HETATM    6  C   UNL     1      -8.306  17.522  67.316  1.00  0.00    -0.213 C  
BRANCH   6   7
HETATM    7  C   UNL     1      -7.643  16.138  67.175  1.00  0.00    -0.202 C  
HETATM    8  O   UNL     1      -6.323  16.290  66.634  1.00  0.00    -0.281 OA 
HETATM    9  H   UNL     1      -5.914  15.437  66.547  1.00  0.00     0.000 HD 
BRANCH   7  10
HETATM   10  C   UNL     1      -7.571  15.433  68.536  1.00  0.00    -0.122 C  
BRANCH  10  11
HETATM   11  O   UNL     1      -8.898  15.012  68.897  1.00  0.00    -0.185 OA 
BRANCH  11  12
HETATM   12  C   UNL     1      -9.529  14.188  68.005  1.00  0.00    -0.213 A  
HETATM   13  C   UNL     1      -8.945  12.930  67.763  1.00  0.00    -0.191 A  
HETATM   14  C   UNL     1      -9.571  12.045  66.853  1.00  0.00    -0.209 A  
HETATM   15  C   UNL     1      -7.652  12.548  68.442  1.00  0.00    -0.129 C  
HETATM   16  C   UNL     1      -9.018  10.669  66.566  1.00  0.00    -0.169 C  
HETATM   17  C   UNL     1     -10.739  12.461  66.167  1.00  0.00    -0.260 A  
HETATM   18  C   UNL     1     -11.263  13.748  66.334  1.00  0.00    -0.321 A  
HETATM   19  C   UNL     1     -12.415  14.306  65.552  1.00  0.00    -0.434 C  
HETATM   20  C   UNL     1     -10.665  14.581  67.287  1.00  0.00    -0.287 A  
BRANCH  17  21
HETATM   21  O   UNL     1     -11.218  11.539  65.192  1.00  0.00    -0.245 OA 
BRANCH  21  22
HETATM   22  C   UNL     1     -11.136  11.683  63.806  1.00  0.00    -0.420 C  
HETATM   23  C   UNL     1     -12.524  11.890  63.263  1.00  0.00    -0.506 C  
HETATM   24  O   UNL     1     -10.120  11.705  63.127  1.00  0.00    -0.397 OA 
ENDBRANCH  21  22
ENDBRANCH  17  21
ENDBRANCH  11  12
ENDBRANCH  10  11
ENDBRANCH   7  10
ENDBRANCH   6   7
ENDBRANCH   4   6
ENDBRANCH   2   4
TORSDOF 8
ENDMDL
MODEL      164
REMARK 921   NORMALIZED FREE ENERGY PREDICTED BY IDOCK:   -3.61 KCAL/MOL
REMARK 922        TOTAL FREE ENERGY PREDICTED BY IDOCK:   -6.54 KCAL/MOL
REMARK 923 INTER-LIGAND FREE ENERGY PREDICTED BY IDOCK:   -5.86 KCAL/MOL
REMARK 924 INTRA-LIGAND FREE ENERGY PREDICTED BY IDOCK:   -0.67 KCAL/MOL
REMARK 927      BINDING AFFINITY PREDICTED BY RF-SCORE:    0.00 PKD
ROOT
HETATM    1  C   UNL     1     -10.357   8.932  68.702  1.00  0.00    -0.228 C  
HETATM    2  C   UNL     1     -10.116   9.848  69.903  1.00  0.00    -0.257 C  
HETATM    3  C   UNL     1      -9.092   9.204  70.841  1.00  0.00    -0.316 C  
ENDROOT
BRANCH   2   4
HETATM    4  N   UNL     1      -9.657  11.149  69.402  1.00  0.00    -0.408 NA 
HETATM    5  H   UNL     1      -9.264  11.710  70.158  1.00  0.00     0.000 HD 
BRANCH   4   6
HETATM    6  C   UNL     1      -8.711  11.037  68.286  1.00  0.00    -0.144 C  
BRANCH   6   7
HETATM    7  C   UNL     1      -7.797  12.276  68.219  1.00  0.00    -0.153 C  
HETATM    8  O   UNL     1      -6.623  11.967  67.455  1.00  0.00    -0.084 OA 
HETATM    9  H   UNL     1      -6.059  12.730  67.413  1.00  0.00     0.000 HD 
BRANCH   7  10
HETATM   10  C   UNL     1      -8.537  13.458  67.580  1.00  0.00    -0.193 C  
BRANCH  10  11
HETATM   11  O   UNL     1      -9.129  14.241  68.632  1.00  0.00    -0.195 OA 
BRANCH  11  12
HETATM   12  C   UNL     1      -8.889  15.587  68.586  1.00  0.00    -0.193 A  
HETATM   13  C   UNL     1      -9.947  16.419  68.174  1.00  0.00    -0.242 A  
HETATM   14  C   UNL     1      -9.741  17.818  68.120  1.00  0.00    -0.313 A  
HETATM   15  C   UNL     1     -11.271  15.820  67.767  1.00  0.00    -0.286 C  
HETATM   16  C   UNL     1     -10.838  18.775  67.717  1.00  0.00    -0.333 C  
HETATM   17  C   UNL     1      -8.462  18.347  68.429  1.00  0.00    -0.326 A  
HETATM   18  C   UNL     1      -7.384  17.512  68.743  1.00  0.00    -0.260 A  
HETATM   19  C   UNL     1      -5.976  17.983  68.955  1.00  0.00    -0.206 C  
HETATM   20  C   UNL     1      -7.630  16.138  68.853  1.00  0.00    -0.201 A  
BRANCH  17  21
HETATM   21  O   UNL     1      -8.335  19.752  68.230  1.00  0.00    -0.320 OA 
BRANCH  21  22
HETATM   22  C   UNL     1      -7.480  20.387  67.328  1.00  0.00    -0.321 C  
HETATM   23  C   UNL     1      -7.628  19.728  65.983  1.00  0.00    -0.340 C  
HETATM   24  O   UNL     1      -6.767  21.355  67.546  1.00  0.00    -0.546 OA 
ENDBRANCH  21  22
ENDBRANCH  17  21
ENDBRANCH  11  12
ENDBRANCH  10  11
ENDBRANCH   7  10
ENDBRANCH   6   7
ENDBRANCH   4   6
ENDBRANCH   2   4
TORSDOF 8
ENDMDL
MODEL      165
REMARK 921   NORMALIZED FREE ENERGY PREDICTED BY IDOCK:   -3.60 KCAL/MOL
REMARK 922        TOTAL FREE ENERGY PREDICTED BY IDOCK:   -6.52 KCAL/MOL
REMARK 923 INTER-LIGAND FREE ENERGY PREDICTED BY IDOCK:   -5.52 KCAL/MOL
REMARK 924 INTRA-LIGAND FREE ENERGY PREDICTED BY IDOCK:   -1.01 KCAL/MOL
REMARK 927      BINDING AFFINITY PREDICTED BY RF-SCORE:    0.00 PKD
ROOT
HETATM    1  C   UNL     1     -10.207  10.811  64.122  1.00  0.00    -0.412 C  
HETATM    2  C   UNL     1     -10.636  12.227  63.733  1.00  0.00    -0.451 C  
HETATM    3  C   UNL     1     -12.152  12.264  63.524  1.00  0.00    -0.649 C  
ENDROOT
BRANCH   2   4
HETATM    4  N   UNL     1     -10.207  13.144  64.794  1.00  0.00    -0.511 NA 
HETATM    5  H   UNL     1      -9.435  13.731  64.477  1.00  0.00     0.000 HD 
BRANCH   4   6
HETATM    6  C   UNL     1     -11.301  13.962  65.327  1.00  0.00    -0.314 C  
BRANCH   6   7
HETATM    7  C   UNL     1     -11.312  13.925  66.868  1.00  0.00    -0.328 C  
HETATM    8  O   UNL     1     -12.583  14.380  67.352  1.00  0.00    -0.532 OA 
HETATM    9  H   UNL     1     -12.590  14.357  68.302  1.00  0.00     0.000 HD 
BRANCH   7  10
HETATM   10  C   UNL     1     -11.040  12.502  67.374  1.00  0.00    -0.272 C  
BRANCH  10  11
HETATM   11  O   UNL     1      -9.645  12.401  67.708  1.00  0.00    -0.190 OA 
BRANCH  11  12
HETATM   12  C   UNL     1      -9.279  11.296  68.428  1.00  0.00    -0.178 A  
HETATM   13  C   UNL     1      -7.937  11.211  68.845  1.00  0.00    -0.126 A  
HETATM   14  C   UNL     1      -7.521  10.087  69.598  1.00  0.00    -0.134 A  
HETATM   15  C   UNL     1      -6.952  12.289  68.463  1.00  0.00    -0.092 C  
HETATM   16  C   UNL     1      -6.105   9.942  70.104  1.00  0.00    -0.063 C  
HETATM   17  C   UNL     1      -8.447   9.049  69.872  1.00  0.00    -0.138 A  
HETATM   18  C   UNL     1      -9.754   9.088  69.374  1.00  0.00    -0.169 A  
HETATM   19  C   UNL     1     -10.750   7.975  69.509  1.00  0.00    -0.185 C  
HETATM   20  C   UNL     1     -10.160  10.239  68.687  1.00  0.00    -0.187 A  
BRANCH  17  21
HETATM   21  O   UNL     1      -7.893   7.916  70.535  1.00  0.00    -0.091 OA 
BRANCH  21  22
HETATM   22  C   UNL     1      -8.399   7.297  71.679  1.00  0.00    -0.108 C  
HETATM   23  C   UNL     1      -8.466   8.316  72.784  1.00  0.00    -0.248 C  
HETATM   24  O   UNL     1      -8.789   6.144  71.781  1.00  0.00    -0.137 OA 
ENDBRANCH  21  22
ENDBRANCH  17  21
ENDBRANCH  11  12
ENDBRANCH  10  11
ENDBRANCH   7  10
ENDBRANCH   6   7
ENDBRANCH   4   6
ENDBRANCH   2   4
TORSDOF 8
ENDMDL
MODEL      166
REMARK 921   NORMALIZED FREE ENERGY PREDICTED BY IDOCK:   -3.59 KCAL/MOL
REMARK 922        TOTAL FREE ENERGY PREDICTED BY IDOCK:   -6.51 KCAL/MOL
REMARK 923 INTER-LIGAND FREE ENERGY PREDICTED BY IDOCK:   -5.70 KCAL/MOL
REMARK 924 INTRA-LIGAND FREE ENERGY PREDICTED BY IDOCK:   -0.81 KCAL/MOL
REMARK 927      BINDING AFFINITY PREDICTED BY RF-SCORE:    0.00 PKD
ROOT
HETATM    1  C   UNL     1      -6.307  19.595  69.052  1.00  0.00    -0.332 C  
HETATM    2  C   UNL     1      -6.876  18.243  68.621  1.00  0.00    -0.254 C  
HETATM    3  C   UNL     1      -6.220  17.127  69.438  1.00  0.00    -0.234 C  
ENDROOT
BRANCH   2   4
HETATM    4  N   UNL     1      -8.330  18.276  68.808  1.00  0.00    -0.271 NA 
HETATM    5  H   UNL     1      -8.567  18.436  69.788  1.00  0.00     0.000 HD 
BRANCH   4   6
HETATM    6  C   UNL     1      -9.001  19.252  67.942  1.00  0.00    -0.311 C  
BRANCH   6   7
HETATM    7  C   UNL     1     -10.287  18.654  67.338  1.00  0.00    -0.406 C  
HETATM    8  O   UNL     1     -10.986  19.664  66.598  1.00  0.00    -0.424 OA 
HETATM    9  H   UNL     1     -11.779  19.296  66.225  1.00  0.00     0.000 HD 
BRANCH   7  10
HETATM   10  C   UNL     1      -9.952  17.472  66.419  1.00  0.00    -0.325 C  
BRANCH  10  11
HETATM   11  O   UNL     1     -10.850  16.392  66.728  1.00  0.00    -0.237 OA 
BRANCH  11  12
HETATM   12  C   UNL     1     -10.271  15.167  66.923  1.00  0.00    -0.259 A  
HETATM   13  C   UNL     1     -10.988  14.036  66.490  1.00  0.00    -0.306 A  
HETATM   14  C   UNL     1     -10.419  12.752  66.667  1.00  0.00    -0.270 A  
HETATM   15  C   UNL     1     -12.358  14.193  65.876  1.00  0.00    -0.486 C  
HETATM   16  C   UNL     1     -11.117  11.496  66.201  1.00  0.00    -0.302 C  
HETATM   17  C   UNL     1      -9.168  12.628  67.322  1.00  0.00    -0.195 A  
HETATM   18  C   UNL     1      -8.502  13.743  67.839  1.00  0.00    -0.176 A  
HETATM   19  C   UNL     1      -7.244  13.682  68.654  1.00  0.00    -0.110 C  
HETATM   20  C   UNL     1      -9.053  15.007  67.594  1.00  0.00    -0.182 A  
BRANCH  17  21
HETATM   21  O   UNL     1      -8.746  11.286  67.549  1.00  0.00    -0.134 OA 
BRANCH  21  22
HETATM   22  C   UNL     1      -8.554  10.677  68.791  1.00  0.00    -0.150 C  
HETATM   23  C   UNL     1      -9.900  10.327  69.365  1.00  0.00    -0.247 C  
HETATM   24  O   UNL     1      -7.487  10.404  69.319  1.00  0.00    -0.094 OA 
ENDBRANCH  21  22
ENDBRANCH  17  21
ENDBRANCH  11  12
ENDBRANCH  10  11
ENDBRANCH   7  10
ENDBRANCH   6   7
ENDBRANCH   4   6
ENDBRANCH   2   4
TORSDOF 8
ENDMDL
MODEL      167
REMARK 921   NORMALIZED FREE ENERGY PREDICTED BY IDOCK:   -3.59 KCAL/MOL
REMARK 922        TOTAL FREE ENERGY PREDICTED BY IDOCK:   -6.51 KCAL/MOL
REMARK 923 INTER-LIGAND FREE ENERGY PREDICTED BY IDOCK:   -6.19 KCAL/MOL
REMARK 924 INTRA-LIGAND FREE ENERGY PREDICTED BY IDOCK:   -0.32 KCAL/MOL
REMARK 927      BINDING AFFINITY PREDICTED BY RF-SCORE:    0.00 PKD
ROOT
HETATM    1  C   UNL     1     -10.725   5.618  70.598  1.00  0.00    -0.333 C  
HETATM    2  C   UNL     1     -10.147   5.832  69.198  1.00  0.00    -0.197 C  
HETATM    3  C   UNL     1      -9.627   4.500  68.649  1.00  0.00    -0.222 C  
ENDROOT
BRANCH   2   4
HETATM    4  N   UNL     1     -11.200   6.400  68.349  1.00  0.00    -0.532 NA 
HETATM    5  H   UNL     1     -11.484   7.319  68.689  1.00  0.00     0.000 HD 
BRANCH   4   6
HETATM    6  C   UNL     1     -10.829   6.458  66.931  1.00  0.00    -0.357 C  
BRANCH   6   7
HETATM    7  C   UNL     1      -9.655   7.433  66.713  1.00  0.00    -0.192 C  
HETATM    8  O   UNL     1      -9.222   7.367  65.347  1.00  0.00    -0.366 OA 
HETATM    9  H   UNL     1      -8.498   7.968  65.212  1.00  0.00     0.000 HD 
BRANCH   7  10
HETATM   10  C   UNL     1     -10.074   8.868  67.058  1.00  0.00    -0.261 C  
BRANCH  10  11
HETATM   11  O   UNL     1      -9.188   9.774  66.378  1.00  0.00    -0.149 OA 
BRANCH  11  12
HETATM   12  C   UNL     1      -9.621  11.067  66.267  1.00  0.00    -0.201 A  
HETATM   13  C   UNL     1      -8.856  12.062  66.905  1.00  0.00    -0.197 A  
HETATM   14  C   UNL     1      -9.267  13.413  66.808  1.00  0.00    -0.242 A  
HETATM   15  C   UNL     1      -7.635  11.685  67.707  1.00  0.00    -0.121 C  
HETATM   16  C   UNL     1      -8.481  14.536  67.441  1.00  0.00    -0.220 C  
HETATM   17  C   UNL     1     -10.464  13.730  66.118  1.00  0.00    -0.297 A  
HETATM   18  C   UNL     1     -11.276  12.731  65.569  1.00  0.00    -0.329 A  
HETATM   19  C   UNL     1     -12.615  12.973  64.939  1.00  0.00    -0.490 C  
HETATM   20  C   UNL     1     -10.815  11.410  65.621  1.00  0.00    -0.280 A  
BRANCH  17  21
HETATM   21  O   UNL     1     -10.843  15.102  66.182  1.00  0.00    -0.320 OA 
BRANCH  21  22
HETATM   22  C   UNL     1     -10.536  16.090  65.245  1.00  0.00    -0.358 C  
HETATM   23  C   UNL     1     -11.513  15.989  64.105  1.00  0.00    -0.018 C  
HETATM   24  O   UNL     1      -9.668  16.946  65.335  1.00  0.00    -0.506 OA 
ENDBRANCH  21  22
ENDBRANCH  17  21
ENDBRANCH  11  12
ENDBRANCH  10  11
ENDBRANCH   7  10
ENDBRANCH   6   7
ENDBRANCH   4   6
ENDBRANCH   2   4
TORSDOF 8
ENDMDL
MODEL      168
REMARK 921   NORMALIZED FREE ENERGY PREDICTED BY IDOCK:   -3.58 KCAL/MOL
REMARK 922        TOTAL FREE ENERGY PREDICTED BY IDOCK:   -6.49 KCAL/MOL
REMARK 923 INTER-LIGAND FREE ENERGY PREDICTED BY IDOCK:   -5.78 KCAL/MOL
REMARK 924 INTRA-LIGAND FREE ENERGY PREDICTED BY IDOCK:   -0.71 KCAL/MOL
REMARK 927      BINDING AFFINITY PREDICTED BY RF-SCORE:    0.00 PKD
ROOT
HETATM    1  C   UNL     1      -7.173  20.789  67.241  1.00  0.00    -0.415 C  
HETATM    2  C   UNL     1      -7.334  19.931  65.985  1.00  0.00    -0.309 C  
HETATM    3  C   UNL     1      -6.180  18.928  65.898  1.00  0.00    -0.239 C  
ENDROOT
BRANCH   2   4
HETATM    4  N   UNL     1      -8.637  19.261  66.051  1.00  0.00    -0.454 NA 
HETATM    5  H   UNL     1      -9.057  19.191  65.124  1.00  0.00     0.000 HD 
BRANCH   4   6
HETATM    6  C   UNL     1      -8.578  17.946  66.700  1.00  0.00    -0.262 C  
BRANCH   6   7
HETATM    7  C   UNL     1      -9.461  17.919  67.963  1.00  0.00    -0.279 C  
HETATM    8  O   UNL     1     -10.808  18.270  67.616  1.00  0.00    -0.396 OA 
HETATM    9  H   UNL     1     -11.353  18.254  68.394  1.00  0.00     0.000 HD 
BRANCH   7  10
HETATM   10  C   UNL     1      -9.435  16.528  68.609  1.00  0.00    -0.243 C  
BRANCH  10  11
HETATM   11  O   UNL     1     -10.324  15.671  67.871  1.00  0.00    -0.249 OA 
BRANCH  11  12
HETATM   12  C   UNL     1     -10.076  14.328  67.963  1.00  0.00    -0.227 A  
HETATM   13  C   UNL     1     -11.001  13.547  68.682  1.00  0.00    -0.289 A  
HETATM   14  C   UNL     1     -10.784  12.153  68.794  1.00  0.00    -0.252 A  
HETATM   15  C   UNL     1     -12.189  14.197  69.349  1.00  0.00    -0.329 C  
HETATM   16  C   UNL     1     -11.748  11.249  69.524  1.00  0.00    -0.415 C  
HETATM   17  C   UNL     1      -9.617  11.581  68.228  1.00  0.00    -0.189 A  
HETATM   18  C   UNL     1      -8.649  12.372  67.599  1.00  0.00    -0.172 A  
HETATM   19  C   UNL     1      -7.332  11.863  67.091  1.00  0.00    -0.142 C  
HETATM   20  C   UNL     1      -8.918  13.737  67.444  1.00  0.00    -0.224 A  
BRANCH  17  21
HETATM   21  O   UNL     1      -9.441  10.193  68.499  1.00  0.00    -0.150 OA 
BRANCH  21  22
HETATM   22  C   UNL     1      -9.592   9.146  67.589  1.00  0.00    -0.149 C  
HETATM   23  C   UNL     1      -8.417   8.217  67.729  1.00  0.00    -0.131 C  
HETATM   24  O   UNL     1     -10.537   8.954  66.838  1.00  0.00    -0.263 OA 
ENDBRANCH  21  22
ENDBRANCH  17  21
ENDBRANCH  11  12
ENDBRANCH  10  11
ENDBRANCH   7  10
ENDBRANCH   6   7
ENDBRANCH   4   6
ENDBRANCH   2   4
TORSDOF 8
ENDMDL
MODEL      169
REMARK 921   NORMALIZED FREE ENERGY PREDICTED BY IDOCK:   -3.57 KCAL/MOL
REMARK 922        TOTAL FREE ENERGY PREDICTED BY IDOCK:   -6.48 KCAL/MOL
REMARK 923 INTER-LIGAND FREE ENERGY PREDICTED BY IDOCK:   -5.87 KCAL/MOL
REMARK 924 INTRA-LIGAND FREE ENERGY PREDICTED BY IDOCK:   -0.61 KCAL/MOL
REMARK 927      BINDING AFFINITY PREDICTED BY RF-SCORE:    0.00 PKD
ROOT
HETATM    1  C   UNL     1     -12.446  15.446  70.395  1.00  0.00    -0.447 C  
HETATM    2  C   UNL     1     -12.287  14.377  71.477  1.00  0.00    -0.353 C  
HETATM    3  C   UNL     1     -13.478  14.438  72.438  1.00  0.00    -0.557 C  
ENDROOT
BRANCH   2   4
HETATM    4  N   UNL     1     -12.182  13.070  70.819  1.00  0.00    -0.463 NA 
HETATM    5  H   UNL     1     -13.003  12.497  71.015  1.00  0.00     0.000 HD 
BRANCH   4   6
HETATM    6  C   UNL     1     -11.946  13.169  69.374  1.00  0.00    -0.291 C  
BRANCH   6   7
HETATM    7  C   UNL     1     -10.992  12.056  68.898  1.00  0.00    -0.232 C  
HETATM    8  O   UNL     1     -10.540  11.295  70.027  1.00  0.00    -0.396 OA 
HETATM    9  H   UNL     1      -9.951  10.609  69.734  1.00  0.00     0.000 HD 
BRANCH   7  10
HETATM   10  C   UNL     1     -11.699  11.133  67.896  1.00  0.00    -0.182 C  
BRANCH  10  11
HETATM   11  O   UNL     1     -10.801  10.886  66.800  1.00  0.00    -0.261 OA 
BRANCH  11  12
HETATM   12  C   UNL     1     -10.277   9.623  66.727  1.00  0.00    -0.239 A  
HETATM   13  C   UNL     1      -9.445   9.331  65.629  1.00  0.00    -0.324 A  
HETATM   14  C   UNL     1      -8.878   8.039  65.522  1.00  0.00    -0.102 A  
HETATM   15  C   UNL     1      -9.193  10.374  64.568  1.00  0.00    -0.287 C  
HETATM   16  C   UNL     1      -7.954   7.662  64.388  1.00  0.00    -0.123 C  
HETATM   17  C   UNL     1      -9.198   7.054  66.489  1.00  0.00    -0.164 A  
HETATM   18  C   UNL     1     -10.102   7.315  67.525  1.00  0.00    -0.250 A  
HETATM   19  C   UNL     1     -10.590   6.293  68.508  1.00  0.00    -0.315 C  
HETATM   20  C   UNL     1     -10.599   8.619  67.647  1.00  0.00    -0.272 A  
BRANCH  17  21
HETATM   21  O   UNL     1      -8.666   5.759  66.220  1.00  0.00    -0.124 OA 
BRANCH  21  22
HETATM   22  C   UNL     1      -9.395   4.619  65.878  1.00  0.00    -0.155 C  
HETATM   23  C   UNL     1      -8.826   3.445  66.627  1.00  0.00    -0.143 C  
HETATM   24  O   UNL     1     -10.373   4.562  65.147  1.00  0.00    -0.188 OA 
ENDBRANCH  21  22
ENDBRANCH  17  21
ENDBRANCH  11  12
ENDBRANCH  10  11
ENDBRANCH   7  10
ENDBRANCH   6   7
ENDBRANCH   4   6
ENDBRANCH   2   4
TORSDOF 8
ENDMDL
MODEL      170
REMARK 921   NORMALIZED FREE ENERGY PREDICTED BY IDOCK:   -3.55 KCAL/MOL
REMARK 922        TOTAL FREE ENERGY PREDICTED BY IDOCK:   -6.45 KCAL/MOL
REMARK 923 INTER-LIGAND FREE ENERGY PREDICTED BY IDOCK:   -5.80 KCAL/MOL
REMARK 924 INTRA-LIGAND FREE ENERGY PREDICTED BY IDOCK:   -0.64 KCAL/MOL
REMARK 927      BINDING AFFINITY PREDICTED BY RF-SCORE:    0.00 PKD
ROOT
HETATM    1  C   UNL     1      -7.390   7.915  74.539  1.00  0.00    -0.205 C  
HETATM    2  C   UNL     1      -8.101   6.851  73.702  1.00  0.00    -0.105 C  
HETATM    3  C   UNL     1      -7.466   5.483  73.965  1.00  0.00    -0.090 C  
ENDROOT
BRANCH   2   4
HETATM    4  N   UNL     1      -9.526   6.869  74.052  1.00  0.00    -0.218 NA 
HETATM    5  H   UNL     1      -9.985   7.693  73.664  1.00  0.00     0.000 HD 
BRANCH   4   6
HETATM    6  C   UNL     1     -10.232   5.644  73.660  1.00  0.00    -0.218 C  
BRANCH   6   7
HETATM    7  C   UNL     1     -11.336   5.956  72.631  1.00  0.00    -0.292 C  
HETATM    8  O   UNL     1     -12.576   5.383  73.067  1.00  0.00    -0.388 OA 
HETATM    9  H   UNL     1     -13.258   5.574  72.433  1.00  0.00     0.000 HD 
BRANCH   7  10
HETATM   10  C   UNL     1     -11.496   7.472  72.454  1.00  0.00    -0.315 C  
BRANCH  10  11
HETATM   11  O   UNL     1     -12.158   7.712  71.199  1.00  0.00    -0.308 OA 
BRANCH  11  12
HETATM   12  C   UNL     1     -11.900   8.919  70.607  1.00  0.00    -0.128 A  
HETATM   13  C   UNL     1     -10.910   8.950  69.606  1.00  0.00    -0.186 A  
HETATM   14  C   UNL     1     -10.619  10.177  68.965  1.00  0.00    -0.245 A  
HETATM   15  C   UNL     1     -10.150   7.695  69.250  1.00  0.00    -0.190 C  
HETATM   16  C   UNL     1      -9.591  10.280  67.863  1.00  0.00    -0.161 C  
HETATM   17  C   UNL     1     -11.290  11.356  69.377  1.00  0.00    -0.297 A  
HETATM   18  C   UNL     1     -12.201  11.343  70.438  1.00  0.00    -0.450 A  
HETATM   19  C   UNL     1     -12.853  12.564  71.016  1.00  0.00    -0.246 C  
HETATM   20  C   UNL     1     -12.520  10.106  71.013  1.00  0.00    -0.474 A  
BRANCH  17  21
HETATM   21  O   UNL     1     -10.837  12.550  68.746  1.00  0.00    -0.242 OA 
BRANCH  21  22
HETATM   22  C   UNL     1     -11.499  13.258  67.741  1.00  0.00    -0.317 C  
HETATM   23  C   UNL     1     -11.699  14.675  68.205  1.00  0.00    -0.359 C  
HETATM   24  O   UNL     1     -11.817  12.842  66.637  1.00  0.00    -0.374 OA 
ENDBRANCH  21  22
ENDBRANCH  17  21
ENDBRANCH  11  12
ENDBRANCH  10  11
ENDBRANCH   7  10
ENDBRANCH   6   7
ENDBRANCH   4   6
ENDBRANCH   2   4
TORSDOF 8
ENDMDL
MODEL      171
REMARK 921   NORMALIZED FREE ENERGY PREDICTED BY IDOCK:   -3.55 KCAL/MOL
REMARK 922        TOTAL FREE ENERGY PREDICTED BY IDOCK:   -6.44 KCAL/MOL
REMARK 923 INTER-LIGAND FREE ENERGY PREDICTED BY IDOCK:   -6.36 KCAL/MOL
REMARK 924 INTRA-LIGAND FREE ENERGY PREDICTED BY IDOCK:   -0.08 KCAL/MOL
REMARK 927      BINDING AFFINITY PREDICTED BY RF-SCORE:    0.00 PKD
ROOT
HETATM    1  C   UNL     1     -10.014   5.229  73.924  1.00  0.00    -0.202 C  
HETATM    2  C   UNL     1     -10.268   6.397  72.970  1.00  0.00    -0.199 C  
HETATM    3  C   UNL     1      -9.668   7.678  73.557  1.00  0.00    -0.358 C  
ENDROOT
BRANCH   2   4
HETATM    4  N   UNL     1      -9.680   6.063  71.669  1.00  0.00    -0.159 NA 
HETATM    5  H   UNL     1      -9.983   5.140  71.359  1.00  0.00     0.000 HD 
BRANCH   4   6
HETATM    6  C   UNL     1      -9.946   7.074  70.639  1.00  0.00    -0.186 C  
BRANCH   6   7
HETATM    7  C   UNL     1     -10.951   6.541  69.598  1.00  0.00    -0.336 C  
HETATM    8  O   UNL     1     -12.276   6.965  69.947  1.00  0.00    -0.626 OA 
HETATM    9  H   UNL     1     -12.896   6.637  69.306  1.00  0.00     0.000 HD 
BRANCH   7  10
HETATM   10  C   UNL     1     -10.594   7.049  68.195  1.00  0.00    -0.204 C  
BRANCH  10  11
HETATM   11  O   UNL     1      -9.633   8.110  68.330  1.00  0.00    -0.145 OA 
BRANCH  11  12
HETATM   12  C   UNL     1      -9.976   9.307  67.762  1.00  0.00    -0.190 A  
HETATM   13  C   UNL     1     -10.579  10.269  68.596  1.00  0.00    -0.232 A  
HETATM   14  C   UNL     1     -10.942  11.522  68.048  1.00  0.00    -0.284 A  
HETATM   15  C   UNL     1     -10.860   9.951  70.044  1.00  0.00    -0.339 C  
HETATM   16  C   UNL     1     -11.565  12.612  68.887  1.00  0.00    -0.363 C  
HETATM   17  C   UNL     1     -10.742  11.763  66.665  1.00  0.00    -0.263 A  
HETATM   18  C   UNL     1     -10.235  10.772  65.818  1.00  0.00    -0.319 A  
HETATM   19  C   UNL     1     -10.114  10.905  64.329  1.00  0.00    -0.413 C  
HETATM   20  C   UNL     1      -9.822   9.565  66.395  1.00  0.00    -0.320 A  
BRANCH  17  21
HETATM   21  O   UNL     1     -11.250  13.010  66.199  1.00  0.00    -0.280 OA 
BRANCH  21  22
HETATM   22  C   UNL     1     -10.521  14.012  65.556  1.00  0.00    -0.327 C  
HETATM   23  C   UNL     1      -9.622  14.674  66.565  1.00  0.00    -0.308 C  
HETATM   24  O   UNL     1     -10.540  14.287  64.365  1.00  0.00    -0.311 OA 
ENDBRANCH  21  22
ENDBRANCH  17  21
ENDBRANCH  11  12
ENDBRANCH  10  11
ENDBRANCH   7  10
ENDBRANCH   6   7
ENDBRANCH   4   6
ENDBRANCH   2   4
TORSDOF 8
ENDMDL
MODEL      172
REMARK 921   NORMALIZED FREE ENERGY PREDICTED BY IDOCK:   -3.52 KCAL/MOL
REMARK 922        TOTAL FREE ENERGY PREDICTED BY IDOCK:   -6.40 KCAL/MOL
REMARK 923 INTER-LIGAND FREE ENERGY PREDICTED BY IDOCK:   -5.35 KCAL/MOL
REMARK 924 INTRA-LIGAND FREE ENERGY PREDICTED BY IDOCK:   -1.04 KCAL/MOL
REMARK 927      BINDING AFFINITY PREDICTED BY RF-SCORE:    0.00 PKD
ROOT
HETATM    1  C   UNL     1      -7.423   9.477  70.155  1.00  0.00    -0.137 C  
HETATM    2  C   UNL     1      -8.347   8.382  69.618  1.00  0.00    -0.122 C  
HETATM    3  C   UNL     1      -9.561   8.238  70.539  1.00  0.00    -0.180 C  
ENDROOT
BRANCH   2   4
HETATM    4  N   UNL     1      -8.737   8.742  68.250  1.00  0.00    -0.134 NA 
HETATM    5  H   UNL     1      -8.145   8.269  67.567  1.00  0.00     0.000 HD 
BRANCH   4   6
HETATM    6  C   UNL     1     -10.157   8.496  67.972  1.00  0.00    -0.200 C  
BRANCH   6   7
HETATM    7  C   UNL     1     -10.839   9.771  67.440  1.00  0.00    -0.197 C  
HETATM    8  O   UNL     1     -11.693  10.319  68.453  1.00  0.00    -0.652 OA 
HETATM    9  H   UNL     1     -12.114  11.106  68.125  1.00  0.00     0.000 HD 
BRANCH   7  10
HETATM   10  C   UNL     1      -9.789  10.811  67.025  1.00  0.00    -0.187 C  
BRANCH  10  11
HETATM   11  O   UNL     1      -9.346  11.501  68.206  1.00  0.00    -0.178 OA 
BRANCH  11  12
HETATM   12  C   UNL     1      -9.346  12.868  68.138  1.00  0.00    -0.214 A  
HETATM   13  C   UNL     1      -8.109  13.505  67.929  1.00  0.00    -0.165 A  
HETATM   14  C   UNL     1      -8.068  14.917  67.845  1.00  0.00    -0.148 A  
HETATM   15  C   UNL     1      -6.841  12.691  67.828  1.00  0.00    -0.128 C  
HETATM   16  C   UNL     1      -6.782  15.668  67.593  1.00  0.00    -0.204 C  
HETATM   17  C   UNL     1      -9.262  15.661  68.026  1.00  0.00    -0.184 A  
HETATM   18  C   UNL     1     -10.473  15.033  68.332  1.00  0.00    -0.238 A  
HETATM   19  C   UNL     1     -11.747  15.753  68.663  1.00  0.00    -0.353 C  
HETATM   20  C   UNL     1     -10.500  13.633  68.345  1.00  0.00    -0.251 A  
BRANCH  17  21
HETATM   21  O   UNL     1      -9.086  17.075  68.038  1.00  0.00    -0.227 OA 
BRANCH  21  22
HETATM   22  C   UNL     1      -9.291  17.944  66.964  1.00  0.00    -0.267 C  
HETATM   23  C   UNL     1     -10.500  18.791  67.258  1.00  0.00    -0.489 C  
HETATM   24  O   UNL     1      -8.590  18.064  65.971  1.00  0.00    -0.500 OA 
ENDBRANCH  21  22
ENDBRANCH  17  21
ENDBRANCH  11  12
ENDBRANCH  10  11
ENDBRANCH   7  10
ENDBRANCH   6   7
ENDBRANCH   4   6
ENDBRANCH   2   4
TORSDOF 8
ENDMDL
MODEL      173
REMARK 921   NORMALIZED FREE ENERGY PREDICTED BY IDOCK:   -3.51 KCAL/MOL
REMARK 922        TOTAL FREE ENERGY PREDICTED BY IDOCK:   -6.39 KCAL/MOL
REMARK 923 INTER-LIGAND FREE ENERGY PREDICTED BY IDOCK:   -6.08 KCAL/MOL
REMARK 924 INTRA-LIGAND FREE ENERGY PREDICTED BY IDOCK:   -0.31 KCAL/MOL
REMARK 927      BINDING AFFINITY PREDICTED BY RF-SCORE:    0.00 PKD
ROOT
HETATM    1  C   UNL     1      -8.348   7.183  72.162  1.00  0.00    -0.109 C  
HETATM    2  C   UNL     1      -8.518   8.367  71.208  1.00  0.00    -0.149 C  
HETATM    3  C   UNL     1      -9.909   8.979  71.394  1.00  0.00    -0.381 C  
ENDROOT
BRANCH   2   4
HETATM    4  N   UNL     1      -7.452   9.336  71.485  1.00  0.00    -0.338 NA 
HETATM    5  H   UNL     1      -6.841   9.000  72.230  1.00  0.00     0.000 HD 
BRANCH   4   6
HETATM    6  C   UNL     1      -6.676   9.695  70.293  1.00  0.00    -0.099 C  
BRANCH   6   7
HETATM    7  C   UNL     1      -7.162  11.036  69.708  1.00  0.00    -0.001 C  
HETATM    8  O   UNL     1      -6.499  12.120  70.372  1.00  0.00    -0.485 OA 
HETATM    9  H   UNL     1      -6.798  12.947  70.011  1.00  0.00     0.000 HD 
BRANCH   7  10
HETATM   10  C   UNL     1      -6.884  11.099  68.200  1.00  0.00    -0.067 C  
BRANCH  10  11
HETATM   11  O   UNL     1      -6.741  12.480  67.825  1.00  0.00    -0.093 OA 
BRANCH  11  12
HETATM   12  C   UNL     1      -7.857  13.080  67.309  1.00  0.00    -0.127 A  
HETATM   13  C   UNL     1      -7.874  14.487  67.267  1.00  0.00    -0.199 A  
HETATM   14  C   UNL     1      -9.008  15.146  66.734  1.00  0.00    -0.293 A  
HETATM   15  C   UNL     1      -6.710  15.279  67.813  1.00  0.00    -0.188 C  
HETATM   16  C   UNL     1      -9.085  16.651  66.630  1.00  0.00    -0.277 C  
HETATM   17  C   UNL     1     -10.121  14.380  66.305  1.00  0.00    -0.297 A  
HETATM   18  C   UNL     1     -10.144  12.988  66.438  1.00  0.00    -0.279 A  
HETATM   19  C   UNL     1     -11.329  12.122  66.129  1.00  0.00    -0.414 C  
HETATM   20  C   UNL     1      -8.986  12.356  66.907  1.00  0.00    -0.212 A  
BRANCH  17  21
HETATM   21  O   UNL     1     -11.250  15.148  65.896  1.00  0.00    -0.338 OA 
BRANCH  21  22
HETATM   22  C   UNL     1     -11.617  15.446  64.583  1.00  0.00    -0.311 C  
HETATM   23  C   UNL     1     -12.391  14.281  64.026  1.00  0.00    -0.283 C  
HETATM   24  O   UNL     1     -11.415  16.490  63.981  1.00  0.00    -1.137 OA 
ENDBRANCH  21  22
ENDBRANCH  17  21
ENDBRANCH  11  12
ENDBRANCH  10  11
ENDBRANCH   7  10
ENDBRANCH   6   7
ENDBRANCH   4   6
ENDBRANCH   2   4
TORSDOF 8
ENDMDL
MODEL      174
REMARK 921   NORMALIZED FREE ENERGY PREDICTED BY IDOCK:   -3.50 KCAL/MOL
REMARK 922        TOTAL FREE ENERGY PREDICTED BY IDOCK:   -6.37 KCAL/MOL
REMARK 923 INTER-LIGAND FREE ENERGY PREDICTED BY IDOCK:   -5.84 KCAL/MOL
REMARK 924 INTRA-LIGAND FREE ENERGY PREDICTED BY IDOCK:   -0.54 KCAL/MOL
REMARK 927      BINDING AFFINITY PREDICTED BY RF-SCORE:    0.00 PKD
ROOT
HETATM    1  C   UNL     1     -10.762  15.483  66.283  1.00  0.00    -0.307 C  
HETATM    2  C   UNL     1     -11.153  14.867  67.627  1.00  0.00    -0.311 C  
HETATM    3  C   UNL     1     -11.602  15.972  68.586  1.00  0.00    -0.343 C  
ENDROOT
BRANCH   2   4
HETATM    4  N   UNL     1     -12.215  13.884  67.389  1.00  0.00    -0.491 NA 
HETATM    5  H   UNL     1     -12.647  14.029  66.476  1.00  0.00     0.000 HD 
BRANCH   4   6
HETATM    6  C   UNL     1     -11.761  12.497  67.539  1.00  0.00    -0.374 C  
BRANCH   6   7
HETATM    7  C   UNL     1     -10.737  12.378  68.684  1.00  0.00    -0.232 C  
HETATM    8  O   UNL     1     -11.425  12.318  69.941  1.00  0.00    -0.472 OA 
HETATM    9  H   UNL     1     -10.794  12.245  70.648  1.00  0.00     0.000 HD 
BRANCH   7  10
HETATM   10  C   UNL     1      -9.870  11.124  68.504  1.00  0.00    -0.198 C  
BRANCH  10  11
HETATM   11  O   UNL     1     -10.729   9.972  68.549  1.00  0.00    -0.211 OA 
BRANCH  11  12
HETATM   12  C   UNL     1     -10.332   8.959  69.379  1.00  0.00    -0.213 A  
HETATM   13  C   UNL     1     -10.340   7.652  68.855  1.00  0.00    -0.222 A  
HETATM   14  C   UNL     1      -9.929   6.578  69.680  1.00  0.00    -0.186 A  
HETATM   15  C   UNL     1     -10.813   7.402  67.444  1.00  0.00    -0.299 C  
HETATM   16  C   UNL     1      -9.883   5.155  69.178  1.00  0.00    -0.257 C  
HETATM   17  C   UNL     1      -9.569   6.832  71.028  1.00  0.00    -0.170 A  
HETATM   18  C   UNL     1      -9.655   8.116  71.576  1.00  0.00    -0.226 A  
HETATM   19  C   UNL     1      -9.417   8.443  73.020  1.00  0.00    -0.237 C  
HETATM   20  C   UNL     1     -10.002   9.171  70.723  1.00  0.00    -0.334 A  
BRANCH  17  21
HETATM   21  O   UNL     1      -9.284   5.667  71.798  1.00  0.00    -0.145 OA 
BRANCH  21  22
HETATM   22  C   UNL     1     -10.023   5.190  72.881  1.00  0.00    -0.159 C  
HETATM   23  C   UNL     1     -11.479   5.472  72.629  1.00  0.00    -0.331 C  
HETATM   24  O   UNL     1      -9.596   4.586  73.854  1.00  0.00    -0.118 OA 
ENDBRANCH  21  22
ENDBRANCH  17  21
ENDBRANCH  11  12
ENDBRANCH  10  11
ENDBRANCH   7  10
ENDBRANCH   6   7
ENDBRANCH   4   6
ENDBRANCH   2   4
TORSDOF 8
ENDMDL
MODEL      175
REMARK 921   NORMALIZED FREE ENERGY PREDICTED BY IDOCK:   -3.49 KCAL/MOL
REMARK 922        TOTAL FREE ENERGY PREDICTED BY IDOCK:   -6.36 KCAL/MOL
REMARK 923 INTER-LIGAND FREE ENERGY PREDICTED BY IDOCK:   -5.60 KCAL/MOL
REMARK 924 INTRA-LIGAND FREE ENERGY PREDICTED BY IDOCK:   -0.76 KCAL/MOL
REMARK 927      BINDING AFFINITY PREDICTED BY RF-SCORE:    0.00 PKD
ROOT
HETATM    1  C   UNL     1     -11.123   6.307  68.308  1.00  0.00    -0.364 C  
HETATM    2  C   UNL     1     -10.538   6.661  69.676  1.00  0.00    -0.234 C  
HETATM    3  C   UNL     1      -9.255   5.857  69.908  1.00  0.00    -0.163 C  
ENDROOT
BRANCH   2   4
HETATM    4  N   UNL     1     -10.291   8.107  69.709  1.00  0.00    -0.212 NA 
HETATM    5  H   UNL     1     -10.259   8.448  70.670  1.00  0.00     0.000 HD 
BRANCH   4   6
HETATM    6  C   UNL     1      -9.086   8.504  68.972  1.00  0.00    -0.146 C  
BRANCH   6   7
HETATM    7  C   UNL     1      -8.427   9.735  69.625  1.00  0.00    -0.185 C  
HETATM    8  O   UNL     1      -7.567   9.311  70.692  1.00  0.00    -0.120 OA 
HETATM    9  H   UNL     1      -7.160  10.070  71.095  1.00  0.00     0.000 HD 
BRANCH   7  10
HETATM   10  C   UNL     1      -7.620  10.528  68.589  1.00  0.00    -0.099 C  
BRANCH  10  11
HETATM   11  O   UNL     1      -8.496  10.865  67.498  1.00  0.00    -0.122 OA 
BRANCH  11  12
HETATM   12  C   UNL     1      -8.897  12.172  67.433  1.00  0.00    -0.181 A  
HETATM   13  C   UNL     1     -10.275  12.419  67.284  1.00  0.00    -0.224 A  
HETATM   14  C   UNL     1     -10.730  13.757  67.220  1.00  0.00    -0.286 A  
HETATM   15  C   UNL     1     -11.245  11.269  67.163  1.00  0.00    -0.344 C  
HETATM   16  C   UNL     1     -12.196  14.099  67.091  1.00  0.00    -0.348 C  
HETATM   17  C   UNL     1      -9.789  14.817  67.253  1.00  0.00    -0.230 A  
HETATM   18  C   UNL     1      -8.413  14.568  67.302  1.00  0.00    -0.234 A  
HETATM   19  C   UNL     1      -7.353  15.626  67.210  1.00  0.00    -0.255 C  
HETATM   20  C   UNL     1      -7.991  13.239  67.430  1.00  0.00    -0.175 A  
BRANCH  17  21
HETATM   21  O   UNL     1     -10.346  16.115  67.065  1.00  0.00    -0.281 OA 
BRANCH  21  22
HETATM   22  C   UNL     1     -10.505  16.779  65.848  1.00  0.00    -0.301 C  
HETATM   23  C   UNL     1     -10.336  18.256  66.084  1.00  0.00    -0.414 C  
HETATM   24  O   UNL     1     -10.687  16.273  64.751  1.00  0.00    -0.680 OA 
ENDBRANCH  21  22
ENDBRANCH  17  21
ENDBRANCH  11  12
ENDBRANCH  10  11
ENDBRANCH   7  10
ENDBRANCH   6   7
ENDBRANCH   4   6
ENDBRANCH   2   4
TORSDOF 8
ENDMDL
MODEL      176
REMARK 921   NORMALIZED FREE ENERGY PREDICTED BY IDOCK:   -3.47 KCAL/MOL
REMARK 922        TOTAL FREE ENERGY PREDICTED BY IDOCK:   -6.33 KCAL/MOL
REMARK 923 INTER-LIGAND FREE ENERGY PREDICTED BY IDOCK:   -5.71 KCAL/MOL
REMARK 924 INTRA-LIGAND FREE ENERGY PREDICTED BY IDOCK:   -0.62 KCAL/MOL
REMARK 927      BINDING AFFINITY PREDICTED BY RF-SCORE:    0.00 PKD
ROOT
HETATM    1  C   UNL     1     -12.215  14.451  64.480  1.00  0.00    -0.483 C  
HETATM    2  C   UNL     1     -12.611  12.994  64.724  1.00  0.00    -0.397 C  
HETATM    3  C   UNL     1     -12.071  12.119  63.589  1.00  0.00    -0.648 C  
ENDROOT
BRANCH   2   4
HETATM    4  N   UNL     1     -12.080  12.586  66.029  1.00  0.00    -0.612 NA 
HETATM    5  H   UNL     1     -12.793  12.104  66.577  1.00  0.00     0.000 HD 
BRANCH   4   6
HETATM    6  C   UNL     1     -10.861  11.776  65.928  1.00  0.00    -0.291 C  
BRANCH   6   7
HETATM    7  C   UNL     1      -9.715  12.409  66.742  1.00  0.00    -0.223 C  
HETATM    8  O   UNL     1     -10.027  13.779  67.028  1.00  0.00    -0.242 OA 
HETATM    9  H   UNL     1      -9.321  14.170  67.530  1.00  0.00     0.000 HD 
BRANCH   7  10
HETATM   10  C   UNL     1      -9.495  11.640  68.052  1.00  0.00    -0.185 C  
BRANCH  10  11
HETATM   11  O   UNL     1      -8.635  10.519  67.778  1.00  0.00    -0.118 OA 
BRANCH  11  12
HETATM   12  C   UNL     1      -9.075   9.303  68.223  1.00  0.00    -0.128 A  
HETATM   13  C   UNL     1      -8.574   8.846  69.457  1.00  0.00    -0.134 A  
HETATM   14  C   UNL     1      -9.010   7.595  69.956  1.00  0.00    -0.143 A  
HETATM   15  C   UNL     1      -7.560   9.666  70.217  1.00  0.00    -0.175 C  
HETATM   16  C   UNL     1      -8.539   7.054  71.285  1.00  0.00    -0.119 C  
HETATM   17  C   UNL     1      -9.899   6.807  69.182  1.00  0.00    -0.157 A  
HETATM   18  C   UNL     1     -10.320   7.217  67.912  1.00  0.00    -0.253 A  
HETATM   19  C   UNL     1     -11.153   6.386  66.981  1.00  0.00    -0.405 C  
HETATM   20  C   UNL     1      -9.927   8.486  67.469  1.00  0.00    -0.258 A  
BRANCH  17  21
HETATM   21  O   UNL     1     -10.181   5.520  69.724  1.00  0.00    -0.216 OA 
BRANCH  21  22
HETATM   22  C   UNL     1      -9.507   4.333  69.433  1.00  0.00    -0.186 C  
HETATM   23  C   UNL     1      -9.551   3.446  70.647  1.00  0.00    -0.238 C  
HETATM   24  O   UNL     1      -9.010   4.013  68.363  1.00  0.00    -0.102 OA 
ENDBRANCH  21  22
ENDBRANCH  17  21
ENDBRANCH  11  12
ENDBRANCH  10  11
ENDBRANCH   7  10
ENDBRANCH   6   7
ENDBRANCH   4   6
ENDBRANCH   2   4
TORSDOF 8
ENDMDL
MODEL      177
REMARK 921   NORMALIZED FREE ENERGY PREDICTED BY IDOCK:   -3.47 KCAL/MOL
REMARK 922        TOTAL FREE ENERGY PREDICTED BY IDOCK:   -6.33 KCAL/MOL
REMARK 923 INTER-LIGAND FREE ENERGY PREDICTED BY IDOCK:   -5.33 KCAL/MOL
REMARK 924 INTRA-LIGAND FREE ENERGY PREDICTED BY IDOCK:   -0.99 KCAL/MOL
REMARK 927      BINDING AFFINITY PREDICTED BY RF-SCORE:    0.00 PKD
ROOT
HETATM    1  C   UNL     1      -8.434  15.984  67.001  1.00  0.00    -0.245 C  
HETATM    2  C   UNL     1      -9.950  15.964  66.803  1.00  0.00    -0.248 C  
HETATM    3  C   UNL     1     -10.331  16.912  65.663  1.00  0.00    -0.254 C  
ENDROOT
BRANCH   2   4
HETATM    4  N   UNL     1     -10.358  14.583  66.526  1.00  0.00    -0.277 NA 
HETATM    5  H   UNL     1     -10.793  14.161  67.347  1.00  0.00     0.000 HD 
BRANCH   4   6
HETATM    6  C   UNL     1     -11.231  14.464  65.353  1.00  0.00    -0.335 C  
BRANCH   6   7
HETATM    7  C   UNL     1     -12.124  13.212  65.461  1.00  0.00    -0.442 C  
HETATM    8  O   UNL     1     -11.997  12.425  64.269  1.00  0.00    -0.362 OA 
HETATM    9  H   UNL     1     -12.548  11.654  64.335  1.00  0.00     0.000 HD 
BRANCH   7  10
HETATM   10  C   UNL     1     -11.730  12.372  66.684  1.00  0.00    -0.372 C  
BRANCH  10  11
HETATM   11  O   UNL     1     -10.443  11.783  66.430  1.00  0.00    -0.222 OA 
BRANCH  11  12
HETATM   12  C   UNL     1     -10.125  10.688  67.187  1.00  0.00    -0.207 A  
HETATM   13  C   UNL     1      -9.136  10.850  68.176  1.00  0.00    -0.155 A  
HETATM   14  C   UNL     1      -8.784   9.743  68.984  1.00  0.00    -0.148 A  
HETATM   15  C   UNL     1      -8.440  12.179  68.345  1.00  0.00    -0.145 C  
HETATM   16  C   UNL     1      -7.753   9.850  70.083  1.00  0.00    -0.188 C  
HETATM   17  C   UNL     1      -9.394   8.485  68.748  1.00  0.00    -0.143 A  
HETATM   18  C   UNL     1     -10.304   8.301  67.702  1.00  0.00    -0.313 A  
HETATM   19  C   UNL     1     -10.892   6.979  67.308  1.00  0.00    -0.403 C  
HETATM   20  C   UNL     1     -10.684   9.425  66.958  1.00  0.00    -0.207 A  
BRANCH  17  21
HETATM   21  O   UNL     1      -8.882   7.417  69.541  1.00  0.00    -0.137 OA 
BRANCH  21  22
HETATM   22  C   UNL     1      -9.461   6.894  70.698  1.00  0.00    -0.165 C  
HETATM   23  C   UNL     1      -9.162   5.421  70.759  1.00  0.00    -0.183 C  
HETATM   24  O   UNL     1     -10.060   7.512  71.565  1.00  0.00    -0.182 OA 
ENDBRANCH  21  22
ENDBRANCH  17  21
ENDBRANCH  11  12
ENDBRANCH  10  11
ENDBRANCH   7  10
ENDBRANCH   6   7
ENDBRANCH   4   6
ENDBRANCH   2   4
TORSDOF 8
ENDMDL
MODEL      178
REMARK 921   NORMALIZED FREE ENERGY PREDICTED BY IDOCK:   -3.44 KCAL/MOL
REMARK 922        TOTAL FREE ENERGY PREDICTED BY IDOCK:   -6.29 KCAL/MOL
REMARK 923 INTER-LIGAND FREE ENERGY PREDICTED BY IDOCK:   -5.49 KCAL/MOL
REMARK 924 INTRA-LIGAND FREE ENERGY PREDICTED BY IDOCK:   -0.80 KCAL/MOL
REMARK 927      BINDING AFFINITY PREDICTED BY RF-SCORE:    0.00 PKD
ROOT
HETATM    1  C   UNL     1     -13.059   9.752  71.715  1.00  0.00    -0.528 C  
HETATM    2  C   UNL     1     -11.884  10.610  71.244  1.00  0.00    -0.161 C  
HETATM    3  C   UNL     1     -10.825   9.716  70.592  1.00  0.00    -0.386 C  
ENDROOT
BRANCH   2   4
HETATM    4  N   UNL     1     -12.398  11.619  70.311  1.00  0.00    -0.285 NA 
HETATM    5  H   UNL     1     -13.355  11.402  70.033  1.00  0.00     0.000 HD 
BRANCH   4   6
HETATM    6  C   UNL     1     -12.301  12.988  70.830  1.00  0.00    -0.288 C  
BRANCH   6   7
HETATM    7  C   UNL     1     -12.621  14.015  69.727  1.00  0.00    -0.079 C  
HETATM    8  O   UNL     1     -12.897  15.290  70.322  1.00  0.00    -0.594 OA 
HETATM    9  H   UNL     1     -13.094  15.924  69.642  1.00  0.00     0.000 HD 
BRANCH   7  10
HETATM   10  C   UNL     1     -11.446  14.139  68.748  1.00  0.00    -0.299 C  
BRANCH  10  11
HETATM   11  O   UNL     1     -11.693  13.264  67.633  1.00  0.00    -0.326 OA 
BRANCH  11  12
HETATM   12  C   UNL     1     -10.641  12.483  67.239  1.00  0.00    -0.227 A  
HETATM   13  C   UNL     1     -10.630  12.038  65.904  1.00  0.00    -0.302 A  
HETATM   14  C   UNL     1      -9.555  11.233  65.456  1.00  0.00    -0.259 A  
HETATM   15  C   UNL     1     -11.767  12.390  64.975  1.00  0.00    -0.420 C  
HETATM   16  C   UNL     1      -9.461  10.744  64.030  1.00  0.00    -0.312 C  
HETATM   17  C   UNL     1      -8.543  10.849  66.371  1.00  0.00    -0.160 A  
HETATM   18  C   UNL     1      -8.606  11.209  67.721  1.00  0.00    -0.131 A  
HETATM   19  C   UNL     1      -7.647  10.737  68.774  1.00  0.00    -0.113 C  
HETATM   20  C   UNL     1      -9.643  12.059  68.125  1.00  0.00    -0.200 A  
BRANCH  17  21
HETATM   21  O   UNL     1      -7.574   9.946  65.844  1.00  0.00    -0.100 OA 
BRANCH  21  22
HETATM   22  C   UNL     1      -7.663   8.553  65.829  1.00  0.00    -0.098 C  
HETATM   23  C   UNL     1      -8.856   8.141  66.647  1.00  0.00    -0.164 C  
HETATM   24  O   UNL     1      -6.946   7.777  65.215  1.00  0.00    -0.057 OA 
ENDBRANCH  21  22
ENDBRANCH  17  21
ENDBRANCH  11  12
ENDBRANCH  10  11
ENDBRANCH   7  10
ENDBRANCH   6   7
ENDBRANCH   4   6
ENDBRANCH   2   4
TORSDOF 8
ENDMDL
MODEL      179
REMARK 921   NORMALIZED FREE ENERGY PREDICTED BY IDOCK:   -3.43 KCAL/MOL
REMARK 922        TOTAL FREE ENERGY PREDICTED BY IDOCK:   -6.27 KCAL/MOL
REMARK 923 INTER-LIGAND FREE ENERGY PREDICTED BY IDOCK:   -5.37 KCAL/MOL
REMARK 924 INTRA-LIGAND FREE ENERGY PREDICTED BY IDOCK:   -0.90 KCAL/MOL
REMARK 927      BINDING AFFINITY PREDICTED BY RF-SCORE:    0.00 PKD
ROOT
HETATM    1  C   UNL     1      -8.972   9.419  70.351  1.00  0.00    -0.294 C  
HETATM    2  C   UNL     1      -7.563   9.756  69.862  1.00  0.00    -0.152 C  
HETATM    3  C   UNL     1      -6.530   9.138  70.807  1.00  0.00    -0.069 C  
ENDROOT
BRANCH   2   4
HETATM    4  N   UNL     1      -7.421   9.253  68.491  1.00  0.00    -0.080 NA 
HETATM    5  H   UNL     1      -6.946   8.350  68.483  1.00  0.00     0.000 HD 
BRANCH   4   6
HETATM    6  C   UNL     1      -8.696   9.180  67.769  1.00  0.00    -0.121 C  
BRANCH   6   7
HETATM    7  C   UNL     1      -8.515   9.600  66.296  1.00  0.00    -0.119 C  
HETATM    8  O   UNL     1      -9.605   9.094  65.514  1.00  0.00    -0.388 OA 
HETATM    9  H   UNL     1      -9.494   9.353  64.606  1.00  0.00     0.000 HD 
BRANCH   7  10
HETATM   10  C   UNL     1      -8.453  11.129  66.176  1.00  0.00    -0.156 C  
BRANCH  10  11
HETATM   11  O   UNL     1      -8.682  11.694  67.479  1.00  0.00    -0.147 OA 
BRANCH  11  12
HETATM   12  C   UNL     1      -8.910  13.042  67.516  1.00  0.00    -0.195 A  
HETATM   13  C   UNL     1     -10.230  13.468  67.757  1.00  0.00    -0.242 A  
HETATM   14  C   UNL     1     -10.506  14.855  67.810  1.00  0.00    -0.255 A  
HETATM   15  C   UNL     1     -11.338  12.456  67.923  1.00  0.00    -0.344 C  
HETATM   16  C   UNL     1     -11.892  15.386  68.093  1.00  0.00    -0.178 C  
HETATM   17  C   UNL     1      -9.463  15.784  67.569  1.00  0.00    -0.218 A  
HETATM   18  C   UNL     1      -8.173  15.360  67.232  1.00  0.00    -0.222 A  
HETATM   19  C   UNL     1      -7.052  16.275  66.838  1.00  0.00    -0.246 C  
HETATM   20  C   UNL     1      -7.910  13.985  67.250  1.00  0.00    -0.143 A  
BRANCH  17  21
HETATM   21  O   UNL     1      -9.876  17.147  67.532  1.00  0.00    -0.255 OA 
BRANCH  21  22
HETATM   22  C   UNL     1     -10.271  17.862  66.401  1.00  0.00    -0.372 C  
HETATM   23  C   UNL     1     -10.199  19.332  66.713  1.00  0.00    -0.503 C  
HETATM   24  O   UNL     1     -10.570  17.404  65.308  1.00  0.00    -0.667 OA 
ENDBRANCH  21  22
ENDBRANCH  17  21
ENDBRANCH  11  12
ENDBRANCH  10  11
ENDBRANCH   7  10
ENDBRANCH   6   7
ENDBRANCH   4   6
ENDBRANCH   2   4
TORSDOF 8
ENDMDL
MODEL      180
REMARK 921   NORMALIZED FREE ENERGY PREDICTED BY IDOCK:   -3.42 KCAL/MOL
REMARK 922        TOTAL FREE ENERGY PREDICTED BY IDOCK:   -6.26 KCAL/MOL
REMARK 923 INTER-LIGAND FREE ENERGY PREDICTED BY IDOCK:   -5.65 KCAL/MOL
REMARK 924 INTRA-LIGAND FREE ENERGY PREDICTED BY IDOCK:   -0.61 KCAL/MOL
REMARK 927      BINDING AFFINITY PREDICTED BY RF-SCORE:    0.00 PKD
ROOT
HETATM    1  C   UNL     1     -12.885  10.413  70.917  1.00  0.00    -0.482 C  
HETATM    2  C   UNL     1     -11.609   9.827  71.525  1.00  0.00    -0.353 C  
HETATM    3  C   UNL     1     -11.789   8.322  71.739  1.00  0.00    -0.357 C  
ENDROOT
BRANCH   2   4
HETATM    4  N   UNL     1     -10.493  10.122  70.620  1.00  0.00    -0.391 NA 
HETATM    5  H   UNL     1      -9.981   9.272  70.386  1.00  0.00     0.000 HD 
BRANCH   4   6
HETATM    6  C   UNL     1     -10.907  10.835  69.406  1.00  0.00    -0.244 C  
BRANCH   6   7
HETATM    7  C   UNL     1      -9.850  10.681  68.295  1.00  0.00    -0.163 C  
HETATM    8  O   UNL     1     -10.276   9.682  67.359  1.00  0.00    -0.197 OA 
HETATM    9  H   UNL     1      -9.625   9.587  66.674  1.00  0.00     0.000 HD 
BRANCH   7  10
HETATM   10  C   UNL     1      -9.632  12.016  67.570  1.00  0.00    -0.177 C  
BRANCH  10  11
HETATM   11  O   UNL     1      -8.754  12.827  68.371  1.00  0.00    -0.178 OA 
BRANCH  11  12
HETATM   12  C   UNL     1      -8.688  14.152  68.034  1.00  0.00    -0.177 A  
HETATM   13  C   UNL     1      -7.414  14.686  67.762  1.00  0.00    -0.180 A  
HETATM   14  C   UNL     1      -7.304  16.051  67.402  1.00  0.00    -0.216 A  
HETATM   15  C   UNL     1      -6.184  13.821  67.885  1.00  0.00    -0.160 C  
HETATM   16  C   UNL     1      -5.975  16.686  67.068  1.00  0.00    -0.188 C  
HETATM   17  C   UNL     1      -8.467  16.861  67.375  1.00  0.00    -0.190 A  
HETATM   18  C   UNL     1      -9.718  16.353  67.741  1.00  0.00    -0.235 A  
HETATM   19  C   UNL     1     -10.968  17.174  67.861  1.00  0.00    -0.208 C  
HETATM   20  C   UNL     1      -9.812  14.986  68.029  1.00  0.00    -0.218 A  
BRANCH  17  21
HETATM   21  O   UNL     1      -8.226  18.241  67.115  1.00  0.00    -0.227 OA 
BRANCH  21  22
HETATM   22  C   UNL     1      -8.275  19.280  68.045  1.00  0.00    -0.311 C  
HETATM   23  C   UNL     1      -9.167  20.365  67.506  1.00  0.00    -0.475 C  
HETATM   24  O   UNL     1      -7.746  19.307  69.147  1.00  0.00    -0.328 OA 
ENDBRANCH  21  22
ENDBRANCH  17  21
ENDBRANCH  11  12
ENDBRANCH  10  11
ENDBRANCH   7  10
ENDBRANCH   6   7
ENDBRANCH   4   6
ENDBRANCH   2   4
TORSDOF 8
ENDMDL
MODEL      181
REMARK 921   NORMALIZED FREE ENERGY PREDICTED BY IDOCK:   -3.41 KCAL/MOL
REMARK 922        TOTAL FREE ENERGY PREDICTED BY IDOCK:   -6.24 KCAL/MOL
REMARK 923 INTER-LIGAND FREE ENERGY PREDICTED BY IDOCK:   -5.54 KCAL/MOL
REMARK 924 INTRA-LIGAND FREE ENERGY PREDICTED BY IDOCK:   -0.70 KCAL/MOL
REMARK 927      BINDING AFFINITY PREDICTED BY RF-SCORE:    0.00 PKD
ROOT
HETATM    1  C   UNL     1      -8.842  17.854  67.110  1.00  0.00    -0.250 C  
HETATM    2  C   UNL     1      -9.874  18.428  68.081  1.00  0.00    -0.342 C  
HETATM    3  C   UNL     1     -10.733  19.470  67.360  1.00  0.00    -0.589 C  
ENDROOT
BRANCH   2   4
HETATM    4  N   UNL     1     -10.680  17.319  68.602  1.00  0.00    -0.320 NA 
HETATM    5  H   UNL     1     -11.523  17.666  69.060  1.00  0.00     0.000 HD 
BRANCH   4   6
HETATM    6  C   UNL     1     -11.013  16.319  67.582  1.00  0.00    -0.245 C  
BRANCH   6   7
HETATM    7  C   UNL     1     -11.516  15.017  68.236  1.00  0.00    -0.332 C  
HETATM    8  O   UNL     1     -12.475  14.385  67.377  1.00  0.00    -0.603 OA 
HETATM    9  H   UNL     1     -12.785  13.582  67.780  1.00  0.00     0.000 HD 
BRANCH   7  10
HETATM   10  C   UNL     1     -10.345  14.061  68.502  1.00  0.00    -0.247 C  
BRANCH  10  11
HETATM   11  O   UNL     1      -9.855  13.584  67.237  1.00  0.00    -0.229 OA 
BRANCH  11  12
HETATM   12  C   UNL     1      -9.569  12.247  67.170  1.00  0.00    -0.200 A  
HETATM   13  C   UNL     1      -9.675  11.625  65.911  1.00  0.00    -0.260 A  
HETATM   14  C   UNL     1      -9.381  10.246  65.799  1.00  0.00    -0.233 A  
HETATM   15  C   UNL     1     -10.128  12.416  64.708  1.00  0.00    -0.260 C  
HETATM   16  C   UNL     1      -9.444   9.518  64.477  1.00  0.00    -0.075 C  
HETATM   17  C   UNL     1      -9.038   9.509  66.961  1.00  0.00    -0.134 A  
HETATM   18  C   UNL     1      -9.029  10.105  68.226  1.00  0.00    -0.120 A  
HETATM   19  C   UNL     1      -8.803   9.369  69.513  1.00  0.00    -0.165 C  
HETATM   20  C   UNL     1      -9.259  11.484  68.302  1.00  0.00    -0.186 A  
BRANCH  17  21
HETATM   21  O   UNL     1      -8.876   8.109  66.752  1.00  0.00    -0.128 OA 
BRANCH  21  22
HETATM   22  C   UNL     1      -9.808   7.114  67.050  1.00  0.00    -0.198 C  
HETATM   23  C   UNL     1      -9.122   6.038  67.847  1.00  0.00    -0.117 C  
HETATM   24  O   UNL     1     -11.000   7.117  66.779  1.00  0.00    -0.305 OA 
ENDBRANCH  21  22
ENDBRANCH  17  21
ENDBRANCH  11  12
ENDBRANCH  10  11
ENDBRANCH   7  10
ENDBRANCH   6   7
ENDBRANCH   4   6
ENDBRANCH   2   4
TORSDOF 8
ENDMDL
MODEL      182
REMARK 921   NORMALIZED FREE ENERGY PREDICTED BY IDOCK:   -3.40 KCAL/MOL
REMARK 922        TOTAL FREE ENERGY PREDICTED BY IDOCK:   -6.23 KCAL/MOL
REMARK 923 INTER-LIGAND FREE ENERGY PREDICTED BY IDOCK:   -5.61 KCAL/MOL
REMARK 924 INTRA-LIGAND FREE ENERGY PREDICTED BY IDOCK:   -0.62 KCAL/MOL
REMARK 927      BINDING AFFINITY PREDICTED BY RF-SCORE:    0.00 PKD
ROOT
HETATM    1  C   UNL     1      -9.561  11.394  68.410  1.00  0.00    -0.197 C  
HETATM    2  C   UNL     1     -10.499  12.601  68.344  1.00  0.00    -0.238 C  
HETATM    3  C   UNL     1     -11.556  12.370  67.262  1.00  0.00    -0.435 C  
ENDROOT
BRANCH   2   4
HETATM    4  N   UNL     1     -11.102  12.785  69.668  1.00  0.00    -0.466 NA 
HETATM    5  H   UNL     1     -11.273  13.774  69.855  1.00  0.00     0.000 HD 
BRANCH   4   6
HETATM    6  C   UNL     1     -12.324  11.997  69.860  1.00  0.00    -0.074 C  
BRANCH   6   7
HETATM    7  C   UNL     1     -12.391  11.432  71.293  1.00  0.00    -0.239 C  
HETATM    8  O   UNL     1     -13.528  11.979  71.974  1.00  0.00    -0.447 OA 
HETATM    9  H   UNL     1     -13.569  11.631  72.857  1.00  0.00     0.000 HD 
BRANCH   7  10
HETATM   10  C   UNL     1     -12.487   9.901  71.265  1.00  0.00    -0.381 C  
BRANCH  10  11
HETATM   11  O   UNL     1     -11.183   9.361  71.543  1.00  0.00    -0.355 OA 
BRANCH  11  12
HETATM   12  C   UNL     1     -10.898   8.153  70.968  1.00  0.00    -0.235 A  
HETATM   13  C   UNL     1     -10.654   7.067  71.831  1.00  0.00    -0.239 A  
HETATM   14  C   UNL     1     -10.364   5.799  71.275  1.00  0.00    -0.281 A  
HETATM   15  C   UNL     1     -10.670   7.267  73.327  1.00  0.00    -0.428 C  
HETATM   16  C   UNL     1     -10.120   4.583  72.137  1.00  0.00    -0.260 C  
HETATM   17  C   UNL     1     -10.273   5.658  69.867  1.00  0.00    -0.250 A  
HETATM   18  C   UNL     1     -10.419   6.757  69.014  1.00  0.00    -0.229 A  
HETATM   19  C   UNL     1     -10.211   6.716  67.529  1.00  0.00    -0.229 C  
HETATM   20  C   UNL     1     -10.770   7.987  69.584  1.00  0.00    -0.207 A  
BRANCH  17  21
HETATM   21  O   UNL     1      -9.863   4.368  69.422  1.00  0.00    -0.203 OA 
BRANCH  21  22
HETATM   22  C   UNL     1      -8.615   4.032  68.896  1.00  0.00    -0.084 C  
HETATM   23  C   UNL     1      -7.587   4.972  69.464  1.00  0.00    -0.057 C  
HETATM   24  O   UNL     1      -8.358   3.100  68.148  1.00  0.00    -0.076 OA 
ENDBRANCH  21  22
ENDBRANCH  17  21
ENDBRANCH  11  12
ENDBRANCH  10  11
ENDBRANCH   7  10
ENDBRANCH   6   7
ENDBRANCH   4   6
ENDBRANCH   2   4
TORSDOF 8
ENDMDL
MODEL      183
REMARK 921   NORMALIZED FREE ENERGY PREDICTED BY IDOCK:   -3.40 KCAL/MOL
REMARK 922        TOTAL FREE ENERGY PREDICTED BY IDOCK:   -6.23 KCAL/MOL
REMARK 923 INTER-LIGAND FREE ENERGY PREDICTED BY IDOCK:   -5.62 KCAL/MOL
REMARK 924 INTRA-LIGAND FREE ENERGY PREDICTED BY IDOCK:   -0.60 KCAL/MOL
REMARK 927      BINDING AFFINITY PREDICTED BY RF-SCORE:    0.00 PKD
ROOT
HETATM    1  C   UNL     1      -7.610  10.230  67.178  1.00  0.00    -0.092 C  
HETATM    2  C   UNL     1      -6.351  10.933  66.670  1.00  0.00    -0.113 C  
HETATM    3  C   UNL     1      -5.980  10.387  65.289  1.00  0.00    -0.135 C  
ENDROOT
BRANCH   2   4
HETATM    4  N   UNL     1      -6.614  12.376  66.636  1.00  0.00    -0.415 NA 
HETATM    5  H   UNL     1      -7.616  12.564  66.680  1.00  0.00     0.000 HD 
BRANCH   4   6
HETATM    6  C   UNL     1      -5.896  13.118  67.678  1.00  0.00    -0.120 C  
BRANCH   6   7
HETATM    7  C   UNL     1      -6.809  13.375  68.894  1.00  0.00    -0.111 C  
HETATM    8  O   UNL     1      -6.170  12.899  70.085  1.00  0.00    -0.293 OA 
HETATM    9  H   UNL     1      -6.733  13.057  70.835  1.00  0.00     0.000 HD 
BRANCH   7  10
HETATM   10  C   UNL     1      -7.117  14.873  69.030  1.00  0.00    -0.130 C  
BRANCH  10  11
HETATM   11  O   UNL     1      -8.535  15.027  69.217  1.00  0.00    -0.200 OA 
BRANCH  11  12
HETATM   12  C   UNL     1      -9.333  14.372  68.318  1.00  0.00    -0.206 A  
HETATM   13  C   UNL     1      -9.747  15.090  67.180  1.00  0.00    -0.228 A  
HETATM   14  C   UNL     1     -10.567  14.446  66.223  1.00  0.00    -0.292 A  
HETATM   15  C   UNL     1      -9.346  16.534  67.003  1.00  0.00    -0.242 C  
HETATM   16  C   UNL     1     -11.026  15.142  64.963  1.00  0.00    -0.443 C  
HETATM   17  C   UNL     1     -10.997  13.115  66.455  1.00  0.00    -0.288 A  
HETATM   18  C   UNL     1     -10.666  12.437  67.633  1.00  0.00    -0.248 A  
HETATM   19  C   UNL     1     -11.186  11.081  68.010  1.00  0.00    -0.372 C  
HETATM   20  C   UNL     1      -9.801  13.071  68.533  1.00  0.00    -0.153 A  
BRANCH  17  21
HETATM   21  O   UNL     1     -11.911  12.607  65.487  1.00  0.00    -0.413 OA 
BRANCH  21  22
HETATM   22  C   UNL     1     -11.604  11.755  64.425  1.00  0.00    -0.245 C  
HETATM   23  C   UNL     1     -12.532  12.062  63.281  1.00  0.00    -0.544 C  
HETATM   24  O   UNL     1     -10.700  10.933  64.378  1.00  0.00    -0.340 OA 
ENDBRANCH  21  22
ENDBRANCH  17  21
ENDBRANCH  11  12
ENDBRANCH  10  11
ENDBRANCH   7  10
ENDBRANCH   6   7
ENDBRANCH   4   6
ENDBRANCH   2   4
TORSDOF 8
ENDMDL
MODEL      184
REMARK 921   NORMALIZED FREE ENERGY PREDICTED BY IDOCK:   -3.40 KCAL/MOL
REMARK 922        TOTAL FREE ENERGY PREDICTED BY IDOCK:   -6.22 KCAL/MOL
REMARK 923 INTER-LIGAND FREE ENERGY PREDICTED BY IDOCK:   -5.47 KCAL/MOL
REMARK 924 INTRA-LIGAND FREE ENERGY PREDICTED BY IDOCK:   -0.75 KCAL/MOL
REMARK 927      BINDING AFFINITY PREDICTED BY RF-SCORE:    0.00 PKD
ROOT
HETATM    1  C   UNL     1      -8.532   4.460  69.395  1.00  0.00    -0.091 C  
HETATM    2  C   UNL     1      -9.104   5.769  68.848  1.00  0.00    -0.115 C  
HETATM    3  C   UNL     1     -10.213   5.460  67.838  1.00  0.00    -0.219 C  
ENDROOT
BRANCH   2   4
HETATM    4  N   UNL     1      -9.599   6.561  69.979  1.00  0.00    -0.159 NA 
HETATM    5  H   UNL     1      -9.829   7.510  69.685  1.00  0.00     0.000 HD 
BRANCH   4   6
HETATM    6  C   UNL     1     -10.734   5.937  70.668  1.00  0.00    -0.285 C  
BRANCH   6   7
HETATM    7  C   UNL     1     -11.797   6.991  71.035  1.00  0.00    -0.351 C  
HETATM    8  O   UNL     1     -12.301   6.728  72.352  1.00  0.00    -0.506 OA 
HETATM    9  H   UNL     1     -12.957   7.378  72.578  1.00  0.00     0.000 HD 
BRANCH   7  10
HETATM   10  C   UNL     1     -11.199   8.403  70.978  1.00  0.00    -0.266 C  
BRANCH  10  11
HETATM   11  O   UNL     1     -12.191   9.292  70.435  1.00  0.00    -0.040 OA 
BRANCH  11  12
HETATM   12  C   UNL     1     -11.721  10.466  69.911  1.00  0.00    -0.264 A  
HETATM   13  C   UNL     1     -12.221  11.663  70.458  1.00  0.00    -0.451 A  
HETATM   14  C   UNL     1     -11.755  12.899  69.950  1.00  0.00    -0.324 A  
HETATM   15  C   UNL     1     -13.264  11.624  71.550  1.00  0.00    -0.301 C  
HETATM   16  C   UNL     1     -12.224  14.222  70.507  1.00  0.00    -0.427 C  
HETATM   17  C   UNL     1     -10.838  12.907  68.868  1.00  0.00    -0.200 A  
HETATM   18  C   UNL     1     -10.418  11.719  68.261  1.00  0.00    -0.224 A  
HETATM   19  C   UNL     1      -9.554  11.648  67.036  1.00  0.00    -0.196 C  
HETATM   20  C   UNL     1     -10.842  10.509  68.823  1.00  0.00    -0.269 A  
BRANCH  17  21
HETATM   21  O   UNL     1     -10.527  14.201  68.361  1.00  0.00    -0.240 OA 
BRANCH  21  22
HETATM   22  C   UNL     1      -9.340  14.907  68.566  1.00  0.00    -0.196 C  
HETATM   23  C   UNL     1      -8.999  15.647  67.302  1.00  0.00    -0.214 C  
HETATM   24  O   UNL     1      -8.699  14.983  69.604  1.00  0.00    -0.134 OA 
ENDBRANCH  21  22
ENDBRANCH  17  21
ENDBRANCH  11  12
ENDBRANCH  10  11
ENDBRANCH   7  10
ENDBRANCH   6   7
ENDBRANCH   4   6
ENDBRANCH   2   4
TORSDOF 8
ENDMDL
MODEL      185
REMARK 921   NORMALIZED FREE ENERGY PREDICTED BY IDOCK:   -3.39 KCAL/MOL
REMARK 922        TOTAL FREE ENERGY PREDICTED BY IDOCK:   -6.22 KCAL/MOL
REMARK 923 INTER-LIGAND FREE ENERGY PREDICTED BY IDOCK:   -5.59 KCAL/MOL
REMARK 924 INTRA-LIGAND FREE ENERGY PREDICTED BY IDOCK:   -0.63 KCAL/MOL
REMARK 927      BINDING AFFINITY PREDICTED BY RF-SCORE:    0.00 PKD
ROOT
HETATM    1  C   UNL     1     -10.538  16.862  67.580  1.00  0.00    -0.325 C  
HETATM    2  C   UNL     1     -10.055  16.428  66.195  1.00  0.00    -0.346 C  
HETATM    3  C   UNL     1      -8.550  16.152  66.240  1.00  0.00    -0.373 C  
ENDROOT
BRANCH   2   4
HETATM    4  N   UNL     1     -10.819  15.242  65.795  1.00  0.00    -0.346 NA 
HETATM    5  H   UNL     1     -10.198  14.511  65.445  1.00  0.00     0.000 HD 
BRANCH   4   6
HETATM    6  C   UNL     1     -11.684  14.726  66.861  1.00  0.00    -0.302 C  
BRANCH   6   7
HETATM    7  C   UNL     1     -12.619  13.625  66.322  1.00  0.00    -0.291 C  
HETATM    8  O   UNL     1     -13.283  14.093  65.140  1.00  0.00    -0.743 OA 
HETATM    9  H   UNL     1     -13.859  13.415  64.808  1.00  0.00     0.000 HD 
BRANCH   7  10
HETATM   10  C   UNL     1     -11.824  12.351  66.003  1.00  0.00    -0.395 C  
BRANCH  10  11
HETATM   11  O   UNL     1     -11.834  11.510  67.169  1.00  0.00    -0.595 OA 
BRANCH  11  12
HETATM   12  C   UNL     1     -10.608  11.155  67.663  1.00  0.00    -0.211 A  
HETATM   13  C   UNL     1     -10.578  10.487  68.902  1.00  0.00    -0.243 A  
HETATM   14  C   UNL     1      -9.330  10.097  69.443  1.00  0.00    -0.235 A  
HETATM   15  C   UNL     1     -11.860  10.221  69.654  1.00  0.00    -0.181 C  
HETATM   16  C   UNL     1      -9.223   9.351  70.753  1.00  0.00    -0.278 C  
HETATM   17  C   UNL     1      -8.136  10.433  68.756  1.00  0.00    -0.125 A  
HETATM   18  C   UNL     1      -8.161  11.183  67.576  1.00  0.00    -0.119 A  
HETATM   19  C   UNL     1      -6.942  11.686  66.861  1.00  0.00    -0.123 C  
HETATM   20  C   UNL     1      -9.410  11.500  67.026  1.00  0.00    -0.185 A  
BRANCH  17  21
HETATM   21  O   UNL     1      -6.936  10.095  69.447  1.00  0.00    -0.058 OA 
BRANCH  21  22
HETATM   22  C   UNL     1      -6.281   8.864  69.414  1.00  0.00    -0.041 C  
HETATM   23  C   UNL     1      -6.429   8.279  68.036  1.00  0.00    -0.057 C  
HETATM   24  O   UNL     1      -5.634   8.350  70.315  1.00  0.00    -0.022 OA 
ENDBRANCH  21  22
ENDBRANCH  17  21
ENDBRANCH  11  12
ENDBRANCH  10  11
ENDBRANCH   7  10
ENDBRANCH   6   7
ENDBRANCH   4   6
ENDBRANCH   2   4
TORSDOF 8
ENDMDL
MODEL      186
REMARK 921   NORMALIZED FREE ENERGY PREDICTED BY IDOCK:   -3.38 KCAL/MOL
REMARK 922        TOTAL FREE ENERGY PREDICTED BY IDOCK:   -6.20 KCAL/MOL
REMARK 923 INTER-LIGAND FREE ENERGY PREDICTED BY IDOCK:   -4.69 KCAL/MOL
REMARK 924 INTRA-LIGAND FREE ENERGY PREDICTED BY IDOCK:   -1.51 KCAL/MOL
REMARK 927      BINDING AFFINITY PREDICTED BY RF-SCORE:    0.00 PKD
ROOT
HETATM    1  C   UNL     1      -8.102   9.598  70.091  1.00  0.00    -0.205 C  
HETATM    2  C   UNL     1      -8.828   8.585  70.978  1.00  0.00    -0.175 C  
HETATM    3  C   UNL     1     -10.176   9.162  71.417  1.00  0.00    -0.402 C  
ENDROOT
BRANCH   2   4
HETATM    4  N   UNL     1      -8.987   7.341  70.217  1.00  0.00    -0.151 NA 
HETATM    5  H   UNL     1      -8.082   6.904  70.041  1.00  0.00     0.000 HD 
BRANCH   4   6
HETATM    6  C   UNL     1      -9.911   6.392  70.849  1.00  0.00    -0.185 C  
BRANCH   6   7
HETATM    7  C   UNL     1     -10.952   5.884  69.832  1.00  0.00    -0.374 C  
HETATM    8  O   UNL     1     -12.141   6.681  69.921  1.00  0.00    -0.641 OA 
HETATM    9  H   UNL     1     -12.784   6.368  69.295  1.00  0.00     0.000 HD 
BRANCH   7  10
HETATM   10  C   UNL     1     -10.389   5.946  68.406  1.00  0.00    -0.210 C  
BRANCH  10  11
HETATM   11  O   UNL     1     -10.884   7.142  67.777  1.00  0.00    -0.220 OA 
BRANCH  11  12
HETATM   12  C   UNL     1      -9.991   7.822  66.995  1.00  0.00    -0.244 A  
HETATM   13  C   UNL     1     -10.069   9.228  66.998  1.00  0.00    -0.313 A  
HETATM   14  C   UNL     1      -9.157   9.969  66.209  1.00  0.00    -0.180 A  
HETATM   15  C   UNL     1     -11.132   9.929  67.808  1.00  0.00    -0.196 C  
HETATM   16  C   UNL     1      -9.162  11.479  66.184  1.00  0.00    -0.230 C  
HETATM   17  C   UNL     1      -8.223   9.282  65.393  1.00  0.00    -0.127 A  
HETATM   18  C   UNL     1      -8.210   7.885  65.316  1.00  0.00    -0.147 A  
HETATM   19  C   UNL     1      -7.343   7.092  64.384  1.00  0.00    -0.085 C  
HETATM   20  C   UNL     1      -9.077   7.175  66.155  1.00  0.00    -0.155 A  
BRANCH  17  21
HETATM   21  O   UNL     1      -7.434  10.122  64.554  1.00  0.00    -0.141 OA 
BRANCH  21  22
HETATM   22  C   UNL     1      -6.046  10.260  64.592  1.00  0.00    -0.125 C  
HETATM   23  C   UNL     1      -5.583  10.070  66.011  1.00  0.00    -0.060 C  
HETATM   24  O   UNL     1      -5.298  10.442  63.642  1.00  0.00    -0.126 OA 
ENDBRANCH  21  22
ENDBRANCH  17  21
ENDBRANCH  11  12
ENDBRANCH  10  11
ENDBRANCH   7  10
ENDBRANCH   6   7
ENDBRANCH   4   6
ENDBRANCH   2   4
TORSDOF 8
ENDMDL
MODEL      187
REMARK 921   NORMALIZED FREE ENERGY PREDICTED BY IDOCK:   -3.38 KCAL/MOL
REMARK 922        TOTAL FREE ENERGY PREDICTED BY IDOCK:   -6.20 KCAL/MOL
REMARK 923 INTER-LIGAND FREE ENERGY PREDICTED BY IDOCK:   -5.17 KCAL/MOL
REMARK 924 INTRA-LIGAND FREE ENERGY PREDICTED BY IDOCK:   -1.03 KCAL/MOL
REMARK 927      BINDING AFFINITY PREDICTED BY RF-SCORE:    0.00 PKD
ROOT
HETATM    1  C   UNL     1      -9.513   8.094  67.544  1.00  0.00    -0.184 C  
HETATM    2  C   UNL     1     -10.408   8.330  68.762  1.00  0.00    -0.205 C  
HETATM    3  C   UNL     1     -10.737   6.989  69.423  1.00  0.00    -0.259 C  
ENDROOT
BRANCH   2   4
HETATM    4  N   UNL     1      -9.706   9.235  69.678  1.00  0.00    -0.174 NA 
HETATM    5  H   UNL     1     -10.141   9.226  70.601  1.00  0.00     0.000 HD 
BRANCH   4   6
HETATM    6  C   UNL     1      -8.269   8.957  69.775  1.00  0.00    -0.119 C  
BRANCH   6   7
HETATM    7  C   UNL     1      -7.469  10.264  69.944  1.00  0.00    -0.158 C  
HETATM    8  O   UNL     1      -6.503  10.105  70.992  1.00  0.00    -0.312 OA 
HETATM    9  H   UNL     1      -6.010  10.911  71.097  1.00  0.00     0.000 HD 
BRANCH   7  10
HETATM   10  C   UNL     1      -6.762  10.638  68.634  1.00  0.00    -0.057 C  
BRANCH  10  11
HETATM   11  O   UNL     1      -6.848  12.064  68.466  1.00  0.00    -0.066 OA 
BRANCH  11  12
HETATM   12  C   UNL     1      -8.038  12.540  67.986  1.00  0.00    -0.164 A  
HETATM   13  C   UNL     1      -8.420  13.837  68.377  1.00  0.00    -0.154 A  
HETATM   14  C   UNL     1      -9.640  14.369  67.896  1.00  0.00    -0.219 A  
HETATM   15  C   UNL     1      -7.552  14.633  69.321  1.00  0.00    -0.113 C  
HETATM   16  C   UNL     1     -10.101  15.764  68.249  1.00  0.00    -0.222 C  
HETATM   17  C   UNL     1     -10.476  13.568  67.078  1.00  0.00    -0.265 A  
HETATM   18  C   UNL     1     -10.143  12.244  66.770  1.00  0.00    -0.224 A  
HETATM   19  C   UNL     1     -11.030  11.295  66.021  1.00  0.00    -0.237 C  
HETATM   20  C   UNL     1      -8.901  11.764  67.203  1.00  0.00    -0.173 A  
BRANCH  17  21
HETATM   21  O   UNL     1     -11.730  14.159  66.747  1.00  0.00    -0.370 OA 
BRANCH  21  22
HETATM   22  C   UNL     1     -12.273  14.288  65.468  1.00  0.00    -0.402 C  
HETATM   23  C   UNL     1     -11.357  15.150  64.643  1.00  0.00    -0.362 C  
HETATM   24  O   UNL     1     -13.285  13.752  65.041  1.00  0.00    -0.733 OA 
ENDBRANCH  21  22
ENDBRANCH  17  21
ENDBRANCH  11  12
ENDBRANCH  10  11
ENDBRANCH   7  10
ENDBRANCH   6   7
ENDBRANCH   4   6
ENDBRANCH   2   4
TORSDOF 8
ENDMDL
MODEL      188
REMARK 921   NORMALIZED FREE ENERGY PREDICTED BY IDOCK:   -3.38 KCAL/MOL
REMARK 922        TOTAL FREE ENERGY PREDICTED BY IDOCK:   -6.20 KCAL/MOL
REMARK 923 INTER-LIGAND FREE ENERGY PREDICTED BY IDOCK:   -6.14 KCAL/MOL
REMARK 924 INTRA-LIGAND FREE ENERGY PREDICTED BY IDOCK:   -0.06 KCAL/MOL
REMARK 927      BINDING AFFINITY PREDICTED BY RF-SCORE:    0.00 PKD
ROOT
HETATM    1  C   UNL     1     -12.905  15.360  73.479  1.00  0.00    -0.683 C  
HETATM    2  C   UNL     1     -13.451  14.313  72.507  1.00  0.00    -0.515 C  
HETATM    3  C   UNL     1     -14.399  14.984  71.510  1.00  0.00    -0.651 C  
ENDROOT
BRANCH   2   4
HETATM    4  N   UNL     1     -12.315  13.673  71.837  1.00  0.00    -0.082 NA 
HETATM    5  H   UNL     1     -11.535  13.548  72.483  1.00  0.00     0.000 HD 
BRANCH   4   6
HETATM    6  C   UNL     1     -12.666  12.404  71.190  1.00  0.00    -0.240 C  
BRANCH   6   7
HETATM    7  C   UNL     1     -12.137  12.362  69.743  1.00  0.00    -0.223 C  
HETATM    8  O   UNL     1     -10.872  13.035  69.674  1.00  0.00    -0.441 OA 
HETATM    9  H   UNL     1     -10.545  13.010  68.782  1.00  0.00     0.000 HD 
BRANCH   7  10
HETATM   10  C   UNL     1     -11.983  10.912  69.267  1.00  0.00    -0.310 C  
BRANCH  10  11
HETATM   11  O   UNL     1     -10.586  10.571  69.304  1.00  0.00    -0.208 OA 
BRANCH  11  12
HETATM   12  C   UNL     1     -10.273   9.391  69.924  1.00  0.00    -0.222 A  
HETATM   13  C   UNL     1     -10.328   8.218  69.147  1.00  0.00    -0.225 A  
HETATM   14  C   UNL     1     -10.005   6.979  69.749  1.00  0.00    -0.179 A  
HETATM   15  C   UNL     1     -10.759   8.283  67.702  1.00  0.00    -0.195 C  
HETATM   16  C   UNL     1     -10.014   5.684  68.972  1.00  0.00    -0.233 C  
HETATM   17  C   UNL     1      -9.684   6.937  71.129  1.00  0.00    -0.173 A  
HETATM   18  C   UNL     1      -9.725   8.089  71.923  1.00  0.00    -0.250 A  
HETATM   19  C   UNL     1      -9.526   8.106  73.409  1.00  0.00    -0.237 C  
HETATM   20  C   UNL     1      -9.984   9.311  71.291  1.00  0.00    -0.341 A  
BRANCH  17  21
HETATM   21  O   UNL     1      -9.490   5.627  71.656  1.00  0.00    -0.149 OA 
BRANCH  21  22
HETATM   22  C   UNL     1     -10.473   4.798  72.197  1.00  0.00    -0.175 C  
HETATM   23  C   UNL     1     -11.727   5.607  72.393  1.00  0.00    -0.240 C  
HETATM   24  O   UNL     1     -10.383   3.601  72.425  1.00  0.00    -0.164 OA 
ENDBRANCH  21  22
ENDBRANCH  17  21
ENDBRANCH  11  12
ENDBRANCH  10  11
ENDBRANCH   7  10
ENDBRANCH   6   7
ENDBRANCH   4   6
ENDBRANCH   2   4
TORSDOF 8
ENDMDL
MODEL      189
REMARK 921   NORMALIZED FREE ENERGY PREDICTED BY IDOCK:   -3.37 KCAL/MOL
REMARK 922        TOTAL FREE ENERGY PREDICTED BY IDOCK:   -6.18 KCAL/MOL
REMARK 923 INTER-LIGAND FREE ENERGY PREDICTED BY IDOCK:   -5.01 KCAL/MOL
REMARK 924 INTRA-LIGAND FREE ENERGY PREDICTED BY IDOCK:   -1.17 KCAL/MOL
REMARK 927      BINDING AFFINITY PREDICTED BY RF-SCORE:    0.00 PKD
ROOT
HETATM    1  C   UNL     1     -10.534   8.688  68.280  1.00  0.00    -0.234 C  
HETATM    2  C   UNL     1     -10.023   7.422  68.971  1.00  0.00    -0.176 C  
HETATM    3  C   UNL     1     -10.911   7.104  70.177  1.00  0.00    -0.279 C  
ENDROOT
BRANCH   2   4
HETATM    4  N   UNL     1     -10.022   6.332  67.989  1.00  0.00    -0.130 NA 
HETATM    5  H   UNL     1     -10.874   5.776  68.062  1.00  0.00     0.000 HD 
BRANCH   4   6
HETATM    6  C   UNL     1      -9.816   6.797  66.613  1.00  0.00    -0.152 C  
BRANCH   6   7
HETATM    7  C   UNL     1      -8.379   6.493  66.142  1.00  0.00    -0.129 C  
HETATM    8  O   UNL     1      -8.176   5.074  66.102  1.00  0.00    -0.107 OA 
HETATM    9  H   UNL     1      -7.291   4.886  65.813  1.00  0.00     0.000 HD 
BRANCH   7  10
HETATM   10  C   UNL     1      -8.128   7.095  64.753  1.00  0.00    -0.092 C  
BRANCH  10  11
HETATM   11  O   UNL     1      -7.370   8.306  64.917  1.00  0.00    -0.081 OA 
BRANCH  11  12
HETATM   12  C   UNL     1      -8.098   9.444  65.136  1.00  0.00    -0.126 A  
HETATM   13  C   UNL     1      -7.889  10.122  66.352  1.00  0.00    -0.114 A  
HETATM   14  C   UNL     1      -8.617  11.307  66.613  1.00  0.00    -0.167 A  
HETATM   15  C   UNL     1      -6.923   9.571  67.374  1.00  0.00    -0.084 C  
HETATM   16  C   UNL     1      -8.423  12.103  67.883  1.00  0.00    -0.163 C  
HETATM   17  C   UNL     1      -9.577  11.757  65.673  1.00  0.00    -0.220 A  
HETATM   18  C   UNL     1      -9.856  11.030  64.510  1.00  0.00    -0.343 A  
HETATM   19  C   UNL     1     -10.942  11.369  63.534  1.00  0.00    -0.406 C  
HETATM   20  C   UNL     1      -9.077   9.897  64.243  1.00  0.00    -0.297 A  
BRANCH  17  21
HETATM   21  O   UNL     1     -10.333  12.891  66.089  1.00  0.00    -0.265 OA 
BRANCH  21  22
HETATM   22  C   UNL     1     -11.639  12.881  66.580  1.00  0.00    -0.372 C  
HETATM   23  C   UNL     1     -12.368  14.075  66.026  1.00  0.00    -0.504 C  
HETATM   24  O   UNL     1     -12.152  12.029  67.290  1.00  0.00    -0.572 OA 
ENDBRANCH  21  22
ENDBRANCH  17  21
ENDBRANCH  11  12
ENDBRANCH  10  11
ENDBRANCH   7  10
ENDBRANCH   6   7
ENDBRANCH   4   6
ENDBRANCH   2   4
TORSDOF 8
ENDMDL
MODEL      190
REMARK 921   NORMALIZED FREE ENERGY PREDICTED BY IDOCK:   -3.37 KCAL/MOL
REMARK 922        TOTAL FREE ENERGY PREDICTED BY IDOCK:   -6.18 KCAL/MOL
REMARK 923 INTER-LIGAND FREE ENERGY PREDICTED BY IDOCK:   -5.62 KCAL/MOL
REMARK 924 INTRA-LIGAND FREE ENERGY PREDICTED BY IDOCK:   -0.56 KCAL/MOL
REMARK 927      BINDING AFFINITY PREDICTED BY RF-SCORE:    0.00 PKD
ROOT
HETATM    1  C   UNL     1     -12.710  11.930  63.278  1.00  0.00    -0.407 C  
HETATM    2  C   UNL     1     -11.428  12.089  64.097  1.00  0.00    -0.383 C  
HETATM    3  C   UNL     1     -10.222  11.681  63.247  1.00  0.00    -0.445 C  
ENDROOT
BRANCH   2   4
HETATM    4  N   UNL     1     -11.339  13.484  64.541  1.00  0.00    -0.351 NA 
HETATM    5  H   UNL     1     -11.442  14.124  63.752  1.00  0.00     0.000 HD 
BRANCH   4   6
HETATM    6  C   UNL     1     -12.289  13.812  65.609  1.00  0.00    -0.482 C  
BRANCH   6   7
HETATM    7  C   UNL     1     -11.581  13.853  66.978  1.00  0.00    -0.369 C  
HETATM    8  O   UNL     1     -12.351  14.642  67.895  1.00  0.00    -0.614 OA 
HETATM    9  H   UNL     1     -11.915  14.667  68.738  1.00  0.00     0.000 HD 
BRANCH   7  10
HETATM   10  C   UNL     1     -11.402  12.434  67.534  1.00  0.00    -0.315 C  
BRANCH  10  11
HETATM   11  O   UNL     1     -10.163  11.905  67.029  1.00  0.00    -0.207 OA 
BRANCH  11  12
HETATM   12  C   UNL     1      -9.809  10.665  67.488  1.00  0.00    -0.168 A  
HETATM   13  C   UNL     1      -8.608  10.564  68.217  1.00  0.00    -0.127 A  
HETATM   14  C   UNL     1      -8.211   9.300  68.715  1.00  0.00    -0.112 A  
HETATM   15  C   UNL     1      -7.744  11.782  68.432  1.00  0.00    -0.131 C  
HETATM   16  C   UNL     1      -6.952   9.120  69.529  1.00  0.00    -0.051 C  
HETATM   17  C   UNL     1      -9.000   8.158  68.427  1.00  0.00    -0.136 A  
HETATM   18  C   UNL     1     -10.140   8.243  67.621  1.00  0.00    -0.268 A  
HETATM   19  C   UNL     1     -10.951   7.066  67.166  1.00  0.00    -0.393 C  
HETATM   20  C   UNL     1     -10.548   9.513  67.195  1.00  0.00    -0.295 A  
BRANCH  17  21
HETATM   21  O   UNL     1      -8.447   6.924  68.877  1.00  0.00    -0.124 OA 
BRANCH  21  22
HETATM   22  C   UNL     1      -7.740   6.002  68.104  1.00  0.00    -0.102 C  
HETATM   23  C   UNL     1      -6.399   5.769  68.745  1.00  0.00    -0.037 C  
HETATM   24  O   UNL     1      -8.138   5.418  67.107  1.00  0.00    -0.101 OA 
ENDBRANCH  21  22
ENDBRANCH  17  21
ENDBRANCH  11  12
ENDBRANCH  10  11
ENDBRANCH   7  10
ENDBRANCH   6   7
ENDBRANCH   4   6
ENDBRANCH   2   4
TORSDOF 8
ENDMDL
MODEL      191
REMARK 921   NORMALIZED FREE ENERGY PREDICTED BY IDOCK:   -3.35 KCAL/MOL
REMARK 922        TOTAL FREE ENERGY PREDICTED BY IDOCK:   -6.16 KCAL/MOL
REMARK 923 INTER-LIGAND FREE ENERGY PREDICTED BY IDOCK:   -5.37 KCAL/MOL
REMARK 924 INTRA-LIGAND FREE ENERGY PREDICTED BY IDOCK:   -0.78 KCAL/MOL
REMARK 927      BINDING AFFINITY PREDICTED BY RF-SCORE:    0.00 PKD
ROOT
HETATM    1  C   UNL     1      -8.368  20.614  67.209  1.00  0.00    -0.305 C  
HETATM    2  C   UNL     1      -6.950  20.655  67.780  1.00  0.00    -0.307 C  
HETATM    3  C   UNL     1      -6.882  19.801  69.048  1.00  0.00    -0.372 C  
ENDROOT
BRANCH   2   4
HETATM    4  N   UNL     1      -6.026  20.175  66.746  1.00  0.00    -0.174 NA 
HETATM    5  H   UNL     1      -5.297  19.590  67.154  1.00  0.00     0.000 HD 
BRANCH   4   6
HETATM    6  C   UNL     1      -6.703  19.478  65.647  1.00  0.00    -0.275 C  
BRANCH   6   7
HETATM    7  C   UNL     1      -6.412  17.964  65.700  1.00  0.00    -0.174 C  
HETATM    8  O   UNL     1      -5.331  17.713  66.607  1.00  0.00    -0.136 OA 
HETATM    9  H   UNL     1      -5.151  16.780  66.640  1.00  0.00     0.000 HD 
BRANCH   7  10
HETATM   10  C   UNL     1      -7.660  17.191  66.147  1.00  0.00    -0.269 C  
BRANCH  10  11
HETATM   11  O   UNL     1      -7.389  16.604  67.432  1.00  0.00    -0.141 OA 
BRANCH  11  12
HETATM   12  C   UNL     1      -8.233  15.599  67.822  1.00  0.00    -0.145 A  
HETATM   13  C   UNL     1      -9.420  15.971  68.480  1.00  0.00    -0.216 A  
HETATM   14  C   UNL     1     -10.323  14.961  68.892  1.00  0.00    -0.244 A  
HETATM   15  C   UNL     1      -9.707  17.424  68.769  1.00  0.00    -0.282 C  
HETATM   16  C   UNL     1     -11.629  15.286  69.577  1.00  0.00    -0.339 C  
HETATM   17  C   UNL     1      -9.989  13.600  68.682  1.00  0.00    -0.161 A  
HETATM   18  C   UNL     1      -8.765  13.227  68.117  1.00  0.00    -0.179 A  
HETATM   19  C   UNL     1      -8.285  11.813  67.980  1.00  0.00    -0.152 C  
HETATM   20  C   UNL     1      -7.919  14.245  67.658  1.00  0.00    -0.191 A  
BRANCH  17  21
HETATM   21  O   UNL     1     -10.913  12.668  69.239  1.00  0.00    -0.179 OA 
BRANCH  21  22
HETATM   22  C   UNL     1     -11.563  11.638  68.556  1.00  0.00    -0.317 C  
HETATM   23  C   UNL     1     -11.458  10.380  69.375  1.00  0.00    -0.292 C  
HETATM   24  O   UNL     1     -12.176  11.726  67.503  1.00  0.00    -0.526 OA 
ENDBRANCH  21  22
ENDBRANCH  17  21
ENDBRANCH  11  12
ENDBRANCH  10  11
ENDBRANCH   7  10
ENDBRANCH   6   7
ENDBRANCH   4   6
ENDBRANCH   2   4
TORSDOF 8
ENDMDL
MODEL      192
REMARK 921   NORMALIZED FREE ENERGY PREDICTED BY IDOCK:   -3.34 KCAL/MOL
REMARK 922        TOTAL FREE ENERGY PREDICTED BY IDOCK:   -6.15 KCAL/MOL
REMARK 923 INTER-LIGAND FREE ENERGY PREDICTED BY IDOCK:   -5.67 KCAL/MOL
REMARK 924 INTRA-LIGAND FREE ENERGY PREDICTED BY IDOCK:   -0.48 KCAL/MOL
REMARK 927      BINDING AFFINITY PREDICTED BY RF-SCORE:    0.00 PKD
ROOT
HETATM    1  C   UNL     1     -10.500   8.715  68.788  1.00  0.00    -0.209 C  
HETATM    2  C   UNL     1     -10.335   9.805  69.848  1.00  0.00    -0.254 C  
HETATM    3  C   UNL     1      -9.731   9.199  71.117  1.00  0.00    -0.360 C  
ENDROOT
BRANCH   2   4
HETATM    4  N   UNL     1      -9.488  10.864  69.289  1.00  0.00    -0.410 NA 
HETATM    5  H   UNL     1      -9.487  11.686  69.893  1.00  0.00     0.000 HD 
BRANCH   4   6
HETATM    6  C   UNL     1      -8.117  10.419  69.011  1.00  0.00    -0.138 C  
BRANCH   6   7
HETATM    7  C   UNL     1      -7.133  11.603  69.082  1.00  0.00    -0.090 C  
HETATM    8  O   UNL     1      -5.786  11.112  69.043  1.00  0.00    -0.040 OA 
HETATM    9  H   UNL     1      -5.179  11.842  69.087  1.00  0.00     0.000 HD 
BRANCH   7  10
HETATM   10  C   UNL     1      -7.369  12.572  67.916  1.00  0.00    -0.115 C  
BRANCH  10  11
HETATM   11  O   UNL     1      -8.665  13.173  68.084  1.00  0.00    -0.182 OA 
BRANCH  11  12
HETATM   12  C   UNL     1      -8.774  14.480  67.694  1.00  0.00    -0.183 A  
HETATM   13  C   UNL     1      -9.494  14.744  66.513  1.00  0.00    -0.316 A  
HETATM   14  C   UNL     1      -9.636  16.084  66.079  1.00  0.00    -0.385 A  
HETATM   15  C   UNL     1     -10.076  13.608  65.707  1.00  0.00    -0.311 C  
HETATM   16  C   UNL     1     -10.419  16.445  64.839  1.00  0.00     0.039 C  
HETATM   17  C   UNL     1      -9.009  17.124  66.811  1.00  0.00    -0.241 A  
HETATM   18  C   UNL     1      -8.212  16.852  67.928  1.00  0.00    -0.198 A  
HETATM   19  C   UNL     1      -7.414  17.879  68.675  1.00  0.00    -0.280 C  
HETATM   20  C   UNL     1      -8.141  15.527  68.375  1.00  0.00    -0.136 A  
BRANCH  17  21
HETATM   21  O   UNL     1      -9.120  18.417  66.222  1.00  0.00    -0.405 OA 
BRANCH  21  22
HETATM   22  C   UNL     1     -10.199  19.293  66.345  1.00  0.00    -0.449 C  
HETATM   23  C   UNL     1     -10.362  19.650  67.798  1.00  0.00    -0.586 C  
HETATM   24  O   UNL     1     -10.875  19.760  65.440  1.00  0.00    -0.413 OA 
ENDBRANCH  21  22
ENDBRANCH  17  21
ENDBRANCH  11  12
ENDBRANCH  10  11
ENDBRANCH   7  10
ENDBRANCH   6   7
ENDBRANCH   4   6
ENDBRANCH   2   4
TORSDOF 8
ENDMDL
MODEL      193
REMARK 921   NORMALIZED FREE ENERGY PREDICTED BY IDOCK:   -3.33 KCAL/MOL
REMARK 922        TOTAL FREE ENERGY PREDICTED BY IDOCK:   -6.13 KCAL/MOL
REMARK 923 INTER-LIGAND FREE ENERGY PREDICTED BY IDOCK:   -5.56 KCAL/MOL
REMARK 924 INTRA-LIGAND FREE ENERGY PREDICTED BY IDOCK:   -0.56 KCAL/MOL
REMARK 927      BINDING AFFINITY PREDICTED BY RF-SCORE:    0.00 PKD
ROOT
HETATM    1  C   UNL     1     -12.211  15.577  70.563  1.00  0.00    -0.444 C  
HETATM    2  C   UNL     1     -12.121  15.033  71.989  1.00  0.00    -0.379 C  
HETATM    3  C   UNL     1     -12.360  16.170  72.987  1.00  0.00    -0.625 C  
ENDROOT
BRANCH   2   4
HETATM    4  N   UNL     1     -13.110  13.960  72.134  1.00  0.00    -0.389 NA 
HETATM    5  H   UNL     1     -14.055  14.341  72.179  1.00  0.00     0.000 HD 
BRANCH   4   6
HETATM    6  C   UNL     1     -13.007  12.936  71.089  1.00  0.00    -0.174 C  
BRANCH   6   7
HETATM    7  C   UNL     1     -12.705  11.555  71.704  1.00  0.00    -0.290 C  
HETATM    8  O   UNL     1     -13.711  11.230  72.674  1.00  0.00    -0.269 OA 
HETATM    9  H   UNL     1     -13.525  10.379  73.054  1.00  0.00     0.000 HD 
BRANCH   7  10
HETATM   10  C   UNL     1     -12.664  10.476  70.614  1.00  0.00    -0.355 C  
BRANCH  10  11
HETATM   11  O   UNL     1     -12.251   9.238  71.219  1.00  0.00    -0.307 OA 
BRANCH  11  12
HETATM   12  C   UNL     1     -11.295   8.530  70.543  1.00  0.00    -0.217 A  
HETATM   13  C   UNL     1     -11.278   7.133  70.720  1.00  0.00    -0.309 A  
HETATM   14  C   UNL     1     -10.309   6.365  70.033  1.00  0.00    -0.245 A  
HETATM   15  C   UNL     1     -12.262   6.474  71.656  1.00  0.00    -0.353 C  
HETATM   16  C   UNL     1     -10.250   4.860  70.151  1.00  0.00    -0.310 C  
HETATM   17  C   UNL     1      -9.345   7.019  69.224  1.00  0.00    -0.145 A  
HETATM   18  C   UNL     1      -9.301   8.413  69.127  1.00  0.00    -0.151 A  
HETATM   19  C   UNL     1      -8.238   9.183  68.400  1.00  0.00    -0.115 C  
HETATM   20  C   UNL     1     -10.309   9.147  69.764  1.00  0.00    -0.226 A  
BRANCH  17  21
HETATM   21  O   UNL     1      -8.349   6.161  68.674  1.00  0.00    -0.113 OA 
BRANCH  21  22
HETATM   22  C   UNL     1      -7.105   5.871  69.234  1.00  0.00    -0.066 C  
HETATM   23  C   UNL     1      -6.411   4.859  68.363  1.00  0.00    -0.036 C  
HETATM   24  O   UNL     1      -6.608   6.381  70.227  1.00  0.00    -0.042 OA 
ENDBRANCH  21  22
ENDBRANCH  17  21
ENDBRANCH  11  12
ENDBRANCH  10  11
ENDBRANCH   7  10
ENDBRANCH   6   7
ENDBRANCH   4   6
ENDBRANCH   2   4
TORSDOF 8
ENDMDL
MODEL      194
REMARK 921   NORMALIZED FREE ENERGY PREDICTED BY IDOCK:   -3.31 KCAL/MOL
REMARK 922        TOTAL FREE ENERGY PREDICTED BY IDOCK:   -6.10 KCAL/MOL
REMARK 923 INTER-LIGAND FREE ENERGY PREDICTED BY IDOCK:   -5.58 KCAL/MOL
REMARK 924 INTRA-LIGAND FREE ENERGY PREDICTED BY IDOCK:   -0.52 KCAL/MOL
REMARK 927      BINDING AFFINITY PREDICTED BY RF-SCORE:    0.00 PKD
ROOT
HETATM    1  C   UNL     1     -10.865   3.286  73.336  1.00  0.00    -0.307 C  
HETATM    2  C   UNL     1     -11.166   4.786  73.349  1.00  0.00    -0.343 C  
HETATM    3  C   UNL     1     -10.385   5.455  74.483  1.00  0.00    -0.272 C  
ENDROOT
BRANCH   2   4
HETATM    4  N   UNL     1     -10.807   5.337  72.038  1.00  0.00    -0.199 NA 
HETATM    5  H   UNL     1     -11.326   4.871  71.294  1.00  0.00     0.000 HD 
BRANCH   4   6
HETATM    6  C   UNL     1     -10.974   6.793  71.960  1.00  0.00    -0.238 C  
BRANCH   6   7
HETATM    7  C   UNL     1     -11.840   7.179  70.744  1.00  0.00    -0.325 C  
HETATM    8  O   UNL     1     -12.938   7.994  71.175  1.00  0.00    -0.497 OA 
HETATM    9  H   UNL     1     -13.472   8.232  70.426  1.00  0.00     0.000 HD 
BRANCH   7  10
HETATM   10  C   UNL     1     -11.003   7.938  69.705  1.00  0.00    -0.148 C  
BRANCH  10  11
HETATM   11  O   UNL     1     -10.410   9.079  70.350  1.00  0.00    -0.191 OA 
BRANCH  11  12
HETATM   12  C   UNL     1     -10.235  10.187  69.566  1.00  0.00    -0.236 A  
HETATM   13  C   UNL     1      -8.975  10.359  68.962  1.00  0.00    -0.184 A  
HETATM   14  C   UNL     1      -8.756  11.488  68.138  1.00  0.00    -0.157 A  
HETATM   15  C   UNL     1      -7.866   9.367  69.219  1.00  0.00    -0.085 C  
HETATM   16  C   UNL     1      -7.440  11.723  67.434  1.00  0.00    -0.143 C  
HETATM   17  C   UNL     1      -9.788  12.447  67.980  1.00  0.00    -0.205 A  
HETATM   18  C   UNL     1     -11.005  12.327  68.659  1.00  0.00    -0.276 A  
HETATM   19  C   UNL     1     -12.093  13.359  68.647  1.00  0.00    -0.281 C  
HETATM   20  C   UNL     1     -11.221  11.169  69.416  1.00  0.00    -0.334 A  
BRANCH  17  21
HETATM   21  O   UNL     1      -9.420  13.599  67.225  1.00  0.00    -0.215 OA 
BRANCH  21  22
HETATM   22  C   UNL     1      -9.918  13.961  65.972  1.00  0.00    -0.310 C  
HETATM   23  C   UNL     1     -10.281  12.708  65.222  1.00  0.00    -0.302 C  
HETATM   24  O   UNL     1     -10.099  15.094  65.552  1.00  0.00    -0.332 OA 
ENDBRANCH  21  22
ENDBRANCH  17  21
ENDBRANCH  11  12
ENDBRANCH  10  11
ENDBRANCH   7  10
ENDBRANCH   6   7
ENDBRANCH   4   6
ENDBRANCH   2   4
TORSDOF 8
ENDMDL
MODEL      195
REMARK 921   NORMALIZED FREE ENERGY PREDICTED BY IDOCK:   -3.30 KCAL/MOL
REMARK 922        TOTAL FREE ENERGY PREDICTED BY IDOCK:   -6.09 KCAL/MOL
REMARK 923 INTER-LIGAND FREE ENERGY PREDICTED BY IDOCK:   -6.34 KCAL/MOL
REMARK 924 INTRA-LIGAND FREE ENERGY PREDICTED BY IDOCK:    0.26 KCAL/MOL
REMARK 927      BINDING AFFINITY PREDICTED BY RF-SCORE:    0.00 PKD
ROOT
HETATM    1  C   UNL     1      -7.388  13.629  67.844  1.00  0.00    -0.148 C  
HETATM    2  C   UNL     1      -6.938  14.440  69.061  1.00  0.00    -0.114 C  
HETATM    3  C   UNL     1      -5.451  14.187  69.323  1.00  0.00    -0.081 C  
ENDROOT
BRANCH   2   4
HETATM    4  N   UNL     1      -7.215  15.856  68.795  1.00  0.00    -0.139 NA 
HETATM    5  H   UNL     1      -7.108  16.067  67.803  1.00  0.00     0.000 HD 
BRANCH   4   6
HETATM    6  C   UNL     1      -8.529  16.288  69.284  1.00  0.00    -0.148 C  
BRANCH   6   7
HETATM    7  C   UNL     1      -9.351  16.929  68.148  1.00  0.00    -0.240 C  
HETATM    8  O   UNL     1      -8.465  17.430  67.137  1.00  0.00    -0.203 OA 
HETATM    9  H   UNL     1      -8.972  17.825  66.437  1.00  0.00     0.000 HD 
BRANCH   7  10
HETATM   10  C   UNL     1     -10.315  15.905  67.536  1.00  0.00    -0.283 C  
BRANCH  10  11
HETATM   11  O   UNL     1     -11.453  15.780  68.407  1.00  0.00    -0.362 OA 
BRANCH  11  12
HETATM   12  C   UNL     1     -11.681  14.533  68.921  1.00  0.00    -0.319 A  
HETATM   13  C   UNL     1     -11.481  13.434  68.064  1.00  0.00    -0.339 A  
HETATM   14  C   UNL     1     -11.700  12.126  68.560  1.00  0.00    -0.382 A  
HETATM   15  C   UNL     1     -11.072  13.654  66.628  1.00  0.00    -0.312 C  
HETATM   16  C   UNL     1     -11.477  10.899  67.708  1.00  0.00    -0.323 C  
HETATM   17  C   UNL     1     -12.164  11.953  69.888  1.00  0.00    -0.199 A  
HETATM   18  C   UNL     1     -12.457  13.048  70.708  1.00  0.00    -0.384 A  
HETATM   19  C   UNL     1     -13.071  12.951  72.073  1.00  0.00    -0.483 C  
HETATM   20  C   UNL     1     -12.171  14.328  70.217  1.00  0.00    -0.407 A  
BRANCH  17  21
HETATM   21  O   UNL     1     -12.460  10.605  70.245  1.00  0.00    -0.318 OA 
BRANCH  21  22
HETATM   22  C   UNL     1     -11.716   9.792  71.100  1.00  0.00    -0.385 C  
HETATM   23  C   UNL     1     -12.666   9.024  71.978  1.00  0.00    -0.467 C  
HETATM   24  O   UNL     1     -10.501   9.657  71.116  1.00  0.00    -0.307 OA 
ENDBRANCH  21  22
ENDBRANCH  17  21
ENDBRANCH  11  12
ENDBRANCH  10  11
ENDBRANCH   7  10
ENDBRANCH   6   7
ENDBRANCH   4   6
ENDBRANCH   2   4
TORSDOF 8
ENDMDL
MODEL      196
REMARK 921   NORMALIZED FREE ENERGY PREDICTED BY IDOCK:   -3.30 KCAL/MOL
REMARK 922        TOTAL FREE ENERGY PREDICTED BY IDOCK:   -6.08 KCAL/MOL
REMARK 923 INTER-LIGAND FREE ENERGY PREDICTED BY IDOCK:   -5.04 KCAL/MOL
REMARK 924 INTRA-LIGAND FREE ENERGY PREDICTED BY IDOCK:   -1.04 KCAL/MOL
REMARK 927      BINDING AFFINITY PREDICTED BY RF-SCORE:    0.00 PKD
ROOT
HETATM    1  C   UNL     1      -9.653   7.448  67.638  1.00  0.00    -0.164 C  
HETATM    2  C   UNL     1      -8.474   7.109  66.724  1.00  0.00    -0.121 C  
HETATM    3  C   UNL     1      -7.888   5.753  67.125  1.00  0.00    -0.102 C  
ENDROOT
BRANCH   2   4
HETATM    4  N   UNL     1      -8.954   7.110  65.338  1.00  0.00    -0.373 NA 
HETATM    5  H   UNL     1      -9.821   7.642  65.254  1.00  0.00     0.000 HD 
BRANCH   4   6
HETATM    6  C   UNL     1      -7.951   7.590  64.381  1.00  0.00    -0.117 C  
BRANCH   6   7
HETATM    7  C   UNL     1      -7.717   9.105  64.548  1.00  0.00    -0.114 C  
HETATM    8  O   UNL     1      -6.653   9.526  63.684  1.00  0.00    -0.097 OA 
HETATM    9  H   UNL     1      -6.508  10.459  63.787  1.00  0.00     0.000 HD 
BRANCH   7  10
HETATM   10  C   UNL     1      -8.995   9.888  64.221  1.00  0.00    -0.243 C  
BRANCH  10  11
HETATM   11  O   UNL     1      -9.617  10.274  65.460  1.00  0.00    -0.204 OA 
BRANCH  11  12
HETATM   12  C   UNL     1      -9.669  11.619  65.710  1.00  0.00    -0.236 A  
HETATM   13  C   UNL     1      -8.895  12.107  66.780  1.00  0.00    -0.198 A  
HETATM   14  C   UNL     1      -8.916  13.493  67.067  1.00  0.00    -0.237 A  
HETATM   15  C   UNL     1      -8.082  11.158  67.627  1.00  0.00    -0.117 C  
HETATM   16  C   UNL     1      -8.090  14.093  68.180  1.00  0.00    -0.148 C  
HETATM   17  C   UNL     1      -9.753  14.350  66.308  1.00  0.00    -0.310 A  
HETATM   18  C   UNL     1     -10.595  13.849  65.310  1.00  0.00    -0.372 A  
HETATM   19  C   UNL     1     -11.600  14.667  64.553  1.00  0.00    -0.377 C  
HETATM   20  C   UNL     1     -10.508  12.486  65.001  1.00  0.00    -0.323 A  
BRANCH  17  21
HETATM   21  O   UNL     1      -9.784  15.702  66.756  1.00  0.00    -0.229 OA 
BRANCH  21  22
HETATM   22  C   UNL     1     -10.606  16.224  67.757  1.00  0.00    -0.314 C  
HETATM   23  C   UNL     1      -9.995  17.505  68.258  1.00  0.00    -0.330 C  
HETATM   24  O   UNL     1     -11.676  15.775  68.138  1.00  0.00    -0.316 OA 
ENDBRANCH  21  22
ENDBRANCH  17  21
ENDBRANCH  11  12
ENDBRANCH  10  11
ENDBRANCH   7  10
ENDBRANCH   6   7
ENDBRANCH   4   6
ENDBRANCH   2   4
TORSDOF 8
ENDMDL
MODEL      197
REMARK 921   NORMALIZED FREE ENERGY PREDICTED BY IDOCK:   -3.30 KCAL/MOL
REMARK 922        TOTAL FREE ENERGY PREDICTED BY IDOCK:   -6.08 KCAL/MOL
REMARK 923 INTER-LIGAND FREE ENERGY PREDICTED BY IDOCK:   -5.13 KCAL/MOL
REMARK 924 INTRA-LIGAND FREE ENERGY PREDICTED BY IDOCK:   -0.95 KCAL/MOL
REMARK 927      BINDING AFFINITY PREDICTED BY RF-SCORE:    0.00 PKD
ROOT
HETATM    1  C   UNL     1      -8.043  10.054  69.632  1.00  0.00    -0.180 C  
HETATM    2  C   UNL     1      -6.641   9.923  70.230  1.00  0.00    -0.116 C  
HETATM    3  C   UNL     1      -5.644   9.568  69.123  1.00  0.00    -0.036 C  
ENDROOT
BRANCH   2   4
HETATM    4  N   UNL     1      -6.302  11.190  70.886  1.00  0.00    -0.446 NA 
HETATM    5  H   UNL     1      -5.969  11.028  71.837  1.00  0.00     0.000 HD 
BRANCH   4   6
HETATM    6  C   UNL     1      -5.341  11.996  70.125  1.00  0.00    -0.104 C  
BRANCH   6   7
HETATM    7  C   UNL     1      -6.019  13.256  69.551  1.00  0.00    -0.107 C  
HETATM    8  O   UNL     1      -5.347  14.426  70.035  1.00  0.00    -0.093 OA 
HETATM    9  H   UNL     1      -5.764  15.204  69.682  1.00  0.00     0.000 HD 
BRANCH   7  10
HETATM   10  C   UNL     1      -5.987  13.233  68.017  1.00  0.00    -0.122 C  
BRANCH  10  11
HETATM   11  O   UNL     1      -7.338  13.113  67.539  1.00  0.00    -0.141 OA 
BRANCH  11  12
HETATM   12  C   UNL     1      -8.056  14.276  67.471  1.00  0.00    -0.187 A  
HETATM   13  C   UNL     1      -9.419  14.217  67.820  1.00  0.00    -0.207 A  
HETATM   14  C   UNL     1     -10.193  15.400  67.769  1.00  0.00    -0.241 A  
HETATM   15  C   UNL     1     -10.047  12.901  68.209  1.00  0.00    -0.242 C  
HETATM   16  C   UNL     1     -11.653  15.418  68.156  1.00  0.00    -0.331 C  
HETATM   17  C   UNL     1      -9.598  16.605  67.320  1.00  0.00    -0.243 A  
HETATM   18  C   UNL     1      -8.270  16.643  66.880  1.00  0.00    -0.247 A  
HETATM   19  C   UNL     1      -7.608  17.843  66.272  1.00  0.00    -0.315 C  
HETATM   20  C   UNL     1      -7.507  15.475  67.001  1.00  0.00    -0.205 A  
BRANCH  17  21
HETATM   21  O   UNL     1     -10.496  17.705  67.198  1.00  0.00    -0.339 OA 
BRANCH  21  22
HETATM   22  C   UNL     1     -10.368  18.951  67.814  1.00  0.00    -0.421 C  
HETATM   23  C   UNL     1     -10.571  20.021  66.777  1.00  0.00    -0.454 C  
HETATM   24  O   UNL     1     -10.185  19.169  69.003  1.00  0.00    -0.358 OA 
ENDBRANCH  21  22
ENDBRANCH  17  21
ENDBRANCH  11  12
ENDBRANCH  10  11
ENDBRANCH   7  10
ENDBRANCH   6   7
ENDBRANCH   4   6
ENDBRANCH   2   4
TORSDOF 8
ENDMDL
MODEL      198
REMARK 921   NORMALIZED FREE ENERGY PREDICTED BY IDOCK:   -3.30 KCAL/MOL
REMARK 922        TOTAL FREE ENERGY PREDICTED BY IDOCK:   -6.07 KCAL/MOL
REMARK 923 INTER-LIGAND FREE ENERGY PREDICTED BY IDOCK:   -5.45 KCAL/MOL
REMARK 924 INTRA-LIGAND FREE ENERGY PREDICTED BY IDOCK:   -0.62 KCAL/MOL
REMARK 927      BINDING AFFINITY PREDICTED BY RF-SCORE:    0.00 PKD
ROOT
HETATM    1  C   UNL     1      -7.625   9.369  70.854  1.00  0.00    -0.097 C  
HETATM    2  C   UNL     1      -6.768   8.227  70.306  1.00  0.00    -0.036 C  
HETATM    3  C   UNL     1      -5.708   7.839  71.340  1.00  0.00    -0.035 C  
ENDROOT
BRANCH   2   4
HETATM    4  N   UNL     1      -7.654   7.104  69.981  1.00  0.00    -0.089 NA 
HETATM    5  H   UNL     1      -7.153   6.217  70.043  1.00  0.00     0.000 HD 
BRANCH   4   6
HETATM    6  C   UNL     1      -8.872   7.076  70.798  1.00  0.00    -0.149 C  
BRANCH   6   7
HETATM    7  C   UNL     1     -10.093   6.677  69.945  1.00  0.00    -0.176 C  
HETATM    8  O   UNL     1     -10.931   5.785  70.692  1.00  0.00    -0.288 OA 
HETATM    9  H   UNL     1     -11.684   5.539  70.166  1.00  0.00     0.000 HD 
BRANCH   7  10
HETATM   10  C   UNL     1     -10.891   7.921  69.533  1.00  0.00    -0.136 C  
BRANCH  10  11
HETATM   11  O   UNL     1     -10.034   8.768  68.747  1.00  0.00    -0.174 OA 
BRANCH  11  12
HETATM   12  C   UNL     1     -10.553   9.984  68.394  1.00  0.00    -0.220 A  
HETATM   13  C   UNL     1     -10.566  10.308  67.023  1.00  0.00    -0.302 A  
HETATM   14  C   UNL     1     -11.101  11.553  66.616  1.00  0.00    -0.355 A  
HETATM   15  C   UNL     1      -9.986   9.350  66.010  1.00  0.00    -0.352 C  
HETATM   16  C   UNL     1     -11.175  11.956  65.162  1.00  0.00    -0.346 C  
HETATM   17  C   UNL     1     -11.563  12.467  67.596  1.00  0.00    -0.355 A  
HETATM   18  C   UNL     1     -11.460  12.186  68.963  1.00  0.00    -0.351 A  
HETATM   19  C   UNL     1     -11.805  13.149  70.059  1.00  0.00    -0.360 C  
HETATM   20  C   UNL     1     -10.987  10.922  69.337  1.00  0.00    -0.304 A  
BRANCH  17  21
HETATM   21  O   UNL     1     -11.972  13.733  67.084  1.00  0.00    -0.385 OA 
BRANCH  21  22
HETATM   22  C   UNL     1     -11.143  14.819  66.802  1.00  0.00    -0.338 C  
HETATM   23  C   UNL     1     -11.220  15.791  67.947  1.00  0.00    -0.313 C  
HETATM   24  O   UNL     1     -10.416  14.957  65.829  1.00  0.00    -0.293 OA 
ENDBRANCH  21  22
ENDBRANCH  17  21
ENDBRANCH  11  12
ENDBRANCH  10  11
ENDBRANCH   7  10
ENDBRANCH   6   7
ENDBRANCH   4   6
ENDBRANCH   2   4
TORSDOF 8
ENDMDL
MODEL      199
REMARK 921   NORMALIZED FREE ENERGY PREDICTED BY IDOCK:   -3.29 KCAL/MOL
REMARK 922        TOTAL FREE ENERGY PREDICTED BY IDOCK:   -6.06 KCAL/MOL
REMARK 923 INTER-LIGAND FREE ENERGY PREDICTED BY IDOCK:   -4.99 KCAL/MOL
REMARK 924 INTRA-LIGAND FREE ENERGY PREDICTED BY IDOCK:   -1.07 KCAL/MOL
REMARK 927      BINDING AFFINITY PREDICTED BY RF-SCORE:    0.00 PKD
ROOT
HETATM    1  C   UNL     1     -13.005  10.218  71.269  1.00  0.00    -0.517 C  
HETATM    2  C   UNL     1     -11.820  10.591  70.376  1.00  0.00    -0.340 C  
HETATM    3  C   UNL     1     -10.753   9.495  70.455  1.00  0.00    -0.359 C  
ENDROOT
BRANCH   2   4
HETATM    4  N   UNL     1     -12.316  10.774  69.008  1.00  0.00    -0.768 NA 
HETATM    5  H   UNL     1     -13.333  10.693  68.977  1.00  0.00     0.000 HD 
BRANCH   4   6
HETATM    6  C   UNL     1     -11.873  12.032  68.397  1.00  0.00    -0.300 C  
BRANCH   6   7
HETATM    7  C   UNL     1     -11.604  11.844  66.891  1.00  0.00    -0.285 C  
HETATM    8  O   UNL     1     -11.591  13.122  66.241  1.00  0.00    -0.324 OA 
HETATM    9  H   UNL     1     -11.425  13.006  65.312  1.00  0.00     0.000 HD 
BRANCH   7  10
HETATM   10  C   UNL     1     -10.264  11.130  66.667  1.00  0.00    -0.232 C  
BRANCH  10  11
HETATM   11  O   UNL     1     -10.442   9.733  66.958  1.00  0.00    -0.238 OA 
BRANCH  11  12
HETATM   12  C   UNL     1      -9.532   8.882  66.392  1.00  0.00    -0.220 A  
HETATM   13  C   UNL     1      -9.793   7.502  66.484  1.00  0.00    -0.226 A  
HETATM   14  C   UNL     1      -8.879   6.589  65.905  1.00  0.00    -0.131 A  
HETATM   15  C   UNL     1     -11.014   7.006  67.220  1.00  0.00    -0.372 C  
HETATM   16  C   UNL     1      -9.108   5.096  65.939  1.00  0.00    -0.154 C  
HETATM   17  C   UNL     1      -7.699   7.079  65.292  1.00  0.00    -0.114 A  
HETATM   18  C   UNL     1      -7.392   8.443  65.287  1.00  0.00    -0.084 A  
HETATM   19  C   UNL     1      -6.107   9.026  64.776  1.00  0.00    -0.065 C  
HETATM   20  C   UNL     1      -8.341   9.331  65.808  1.00  0.00    -0.128 A  
BRANCH  17  21
HETATM   21  O   UNL     1      -6.796   6.069  64.847  1.00  0.00    -0.045 OA 
BRANCH  21  22
HETATM   22  C   UNL     1      -6.595   5.663  63.527  1.00  0.00    -0.033 C  
HETATM   23  C   UNL     1      -6.049   4.261  63.535  1.00  0.00    -0.018 C  
HETATM   24  O   UNL     1      -6.865   6.292  62.514  1.00  0.00    -0.036 OA 
ENDBRANCH  21  22
ENDBRANCH  17  21
ENDBRANCH  11  12
ENDBRANCH  10  11
ENDBRANCH   7  10
ENDBRANCH   6   7
ENDBRANCH   4   6
ENDBRANCH   2   4
TORSDOF 8
ENDMDL
MODEL      200
REMARK 921   NORMALIZED FREE ENERGY PREDICTED BY IDOCK:   -3.28 KCAL/MOL
REMARK 922        TOTAL FREE ENERGY PREDICTED BY IDOCK:   -6.05 KCAL/MOL
REMARK 923 INTER-LIGAND FREE ENERGY PREDICTED BY IDOCK:   -5.45 KCAL/MOL
REMARK 924 INTRA-LIGAND FREE ENERGY PREDICTED BY IDOCK:   -0.60 KCAL/MOL
REMARK 927      BINDING AFFINITY PREDICTED BY RF-SCORE:    0.00 PKD
ROOT
HETATM    1  C   UNL     1      -9.792  19.398  67.925  1.00  0.00    -0.460 C  
HETATM    2  C   UNL     1      -9.988  18.986  66.466  1.00  0.00    -0.385 C  
HETATM    3  C   UNL     1     -10.666  20.124  65.698  1.00  0.00    -0.242 C  
ENDROOT
BRANCH   2   4
HETATM    4  N   UNL     1      -8.675  18.652  65.903  1.00  0.00    -0.439 NA 
HETATM    5  H   UNL     1      -8.521  19.143  65.022  1.00  0.00     0.000 HD 
BRANCH   4   6
HETATM    6  C   UNL     1      -7.569  18.895  66.837  1.00  0.00    -0.229 C  
BRANCH   6   7
HETATM    7  C   UNL     1      -6.316  18.100  66.419  1.00  0.00    -0.205 C  
HETATM    8  O   UNL     1      -5.149  18.913  66.597  1.00  0.00    -0.137 OA 
HETATM    9  H   UNL     1      -4.376  18.423  66.340  1.00  0.00     0.000 HD 
BRANCH   7  10
HETATM   10  C   UNL     1      -6.190  16.816  67.250  1.00  0.00    -0.174 C  
BRANCH  10  11
HETATM   11  O   UNL     1      -7.454  16.568  67.890  1.00  0.00    -0.144 OA 
BRANCH  11  12
HETATM   12  C   UNL     1      -8.124  15.447  67.480  1.00  0.00    -0.167 A  
HETATM   13  C   UNL     1      -7.824  14.238  68.135  1.00  0.00    -0.139 A  
HETATM   14  C   UNL     1      -8.501  13.058  67.744  1.00  0.00    -0.188 A  
HETATM   15  C   UNL     1      -6.770  14.199  69.215  1.00  0.00    -0.122 C  
HETATM   16  C   UNL     1      -8.252  11.731  68.421  1.00  0.00    -0.154 C  
HETATM   17  C   UNL     1      -9.426  13.107  66.671  1.00  0.00    -0.260 A  
HETATM   18  C   UNL     1      -9.651  14.289  65.956  1.00  0.00    -0.271 A  
HETATM   19  C   UNL     1     -10.512  14.393  64.733  1.00  0.00    -0.394 C  
HETATM   20  C   UNL     1      -9.019  15.456  66.403  1.00  0.00    -0.351 A  
BRANCH  17  21
HETATM   21  O   UNL     1      -9.961  11.844  66.287  1.00  0.00    -0.211 OA 
BRANCH  21  22
HETATM   22  C   UNL     1      -9.455  10.996  65.300  1.00  0.00    -0.223 C  
HETATM   23  C   UNL     1     -10.451  10.925  64.174  1.00  0.00    -0.397 C  
HETATM   24  O   UNL     1      -8.366  10.442  65.293  1.00  0.00    -0.159 OA 
ENDBRANCH  21  22
ENDBRANCH  17  21
ENDBRANCH  11  12
ENDBRANCH  10  11
ENDBRANCH   7  10
ENDBRANCH   6   7
ENDBRANCH   4   6
ENDBRANCH   2   4
TORSDOF 8
ENDMDL
MODEL      201
REMARK 921   NORMALIZED FREE ENERGY PREDICTED BY IDOCK:   -3.28 KCAL/MOL
REMARK 922        TOTAL FREE ENERGY PREDICTED BY IDOCK:   -6.05 KCAL/MOL
REMARK 923 INTER-LIGAND FREE ENERGY PREDICTED BY IDOCK:   -5.50 KCAL/MOL
REMARK 924 INTRA-LIGAND FREE ENERGY PREDICTED BY IDOCK:   -0.55 KCAL/MOL
REMARK 927      BINDING AFFINITY PREDICTED BY RF-SCORE:    0.00 PKD
ROOT
HETATM    1  C   UNL     1      -7.905  15.319  68.689  1.00  0.00    -0.142 C  
HETATM    2  C   UNL     1      -9.074  14.764  67.874  1.00  0.00    -0.183 C  
HETATM    3  C   UNL     1      -9.160  15.499  66.534  1.00  0.00    -0.336 C  
ENDROOT
BRANCH   2   4
HETATM    4  N   UNL     1      -8.865  13.323  67.695  1.00  0.00    -0.188 NA 
HETATM    5  H   UNL     1      -8.571  12.887  68.570  1.00  0.00     0.000 HD 
BRANCH   4   6
HETATM    6  C   UNL     1     -10.033  12.635  67.135  1.00  0.00    -0.217 C  
BRANCH   6   7
HETATM    7  C   UNL     1     -11.255  12.791  68.061  1.00  0.00    -0.270 C  
HETATM    8  O   UNL     1     -12.379  13.258  67.302  1.00  0.00    -0.262 OA 
HETATM    9  H   UNL     1     -13.132  13.354  67.873  1.00  0.00     0.000 HD 
BRANCH   7  10
HETATM   10  C   UNL     1     -11.598  11.453  68.731  1.00  0.00    -0.313 C  
BRANCH  10  11
HETATM   11  O   UNL     1     -10.396  10.920  69.314  1.00  0.00    -0.220 OA 
BRANCH  11  12
HETATM   12  C   UNL     1     -10.463   9.622  69.744  1.00  0.00    -0.238 A  
HETATM   13  C   UNL     1     -10.428   8.613  68.763  1.00  0.00    -0.209 A  
HETATM   14  C   UNL     1     -10.488   7.258  69.167  1.00  0.00    -0.222 A  
HETATM   15  C   UNL     1     -10.361   8.977  67.299  1.00  0.00    -0.342 C  
HETATM   16  C   UNL     1     -10.426   6.122  68.174  1.00  0.00    -0.284 C  
HETATM   17  C   UNL     1     -10.634   6.947  70.543  1.00  0.00    -0.220 A  
HETATM   18  C   UNL     1     -10.768   7.951  71.507  1.00  0.00    -0.267 A  
HETATM   19  C   UNL     1     -11.054   7.705  72.959  1.00  0.00    -0.437 C  
HETATM   20  C   UNL     1     -10.640   9.282  71.090  1.00  0.00    -0.402 A  
BRANCH  17  21
HETATM   21  O   UNL     1     -10.800   5.560  70.825  1.00  0.00    -0.250 OA 
BRANCH  21  22
HETATM   22  C   UNL     1      -9.827   4.696  71.330  1.00  0.00    -0.190 C  
HETATM   23  C   UNL     1     -10.407   3.956  72.505  1.00  0.00    -0.210 C  
HETATM   24  O   UNL     1      -8.708   4.503  70.878  1.00  0.00    -0.097 OA 
ENDBRANCH  21  22
ENDBRANCH  17  21
ENDBRANCH  11  12
ENDBRANCH  10  11
ENDBRANCH   7  10
ENDBRANCH   6   7
ENDBRANCH   4   6
ENDBRANCH   2   4
TORSDOF 8
ENDMDL
MODEL      202
REMARK 921   NORMALIZED FREE ENERGY PREDICTED BY IDOCK:   -3.28 KCAL/MOL
REMARK 922        TOTAL FREE ENERGY PREDICTED BY IDOCK:   -6.05 KCAL/MOL
REMARK 923 INTER-LIGAND FREE ENERGY PREDICTED BY IDOCK:   -5.57 KCAL/MOL
REMARK 924 INTRA-LIGAND FREE ENERGY PREDICTED BY IDOCK:   -0.48 KCAL/MOL
REMARK 927      BINDING AFFINITY PREDICTED BY RF-SCORE:    0.00 PKD
ROOT
HETATM    1  C   UNL     1      -7.621  13.872  67.526  1.00  0.00    -0.190 C  
HETATM    2  C   UNL     1      -7.889  14.343  68.956  1.00  0.00    -0.077 C  
HETATM    3  C   UNL     1      -6.611  14.944  69.546  1.00  0.00    -0.154 C  
ENDROOT
BRANCH   2   4
HETATM    4  N   UNL     1      -8.986  15.316  68.921  1.00  0.00    -0.196 NA 
HETATM    5  H   UNL     1      -8.971  15.849  68.051  1.00  0.00     0.000 HD 
BRANCH   4   6
HETATM    6  C   UNL     1     -10.304  14.707  69.137  1.00  0.00    -0.216 C  
BRANCH   6   7
HETATM    7  C   UNL     1     -11.321  15.223  68.100  1.00  0.00    -0.338 C  
HETATM    8  O   UNL     1     -11.095  16.618  67.857  1.00  0.00    -0.315 OA 
HETATM    9  H   UNL     1     -11.722  16.936  67.218  1.00  0.00     0.000 HD 
BRANCH   7  10
HETATM   10  C   UNL     1     -11.198  14.438  66.788  1.00  0.00    -0.337 C  
BRANCH  10  11
HETATM   11  O   UNL     1     -12.030  13.268  66.882  1.00  0.00    -0.383 OA 
BRANCH  11  12
HETATM   12  C   UNL     1     -11.378  12.086  67.107  1.00  0.00    -0.333 A  
HETATM   13  C   UNL     1     -10.754  11.471  66.004  1.00  0.00    -0.332 A  
HETATM   14  C   UNL     1     -10.063  10.251  66.197  1.00  0.00    -0.307 A  
HETATM   15  C   UNL     1     -10.852  12.092  64.632  1.00  0.00    -0.351 C  
HETATM   16  C   UNL     1      -9.346   9.550  65.067  1.00  0.00    -0.294 C  
HETATM   17  C   UNL     1     -10.058   9.648  67.480  1.00  0.00    -0.197 A  
HETATM   18  C   UNL     1     -10.760  10.208  68.552  1.00  0.00    -0.264 A  
HETATM   19  C   UNL     1     -10.909   9.567  69.900  1.00  0.00    -0.272 C  
HETATM   20  C   UNL     1     -11.381  11.447  68.353  1.00  0.00    -0.346 A  
BRANCH  17  21
HETATM   21  O   UNL     1      -9.433   8.368  67.533  1.00  0.00    -0.144 OA 
BRANCH  21  22
HETATM   22  C   UNL     1     -10.072   7.130  67.437  1.00  0.00    -0.202 C  
HETATM   23  C   UNL     1      -9.039   6.081  67.127  1.00  0.00    -0.113 C  
HETATM   24  O   UNL     1     -11.256   6.896  67.629  1.00  0.00    -0.205 OA 
ENDBRANCH  21  22
ENDBRANCH  17  21
ENDBRANCH  11  12
ENDBRANCH  10  11
ENDBRANCH   7  10
ENDBRANCH   6   7
ENDBRANCH   4   6
ENDBRANCH   2   4
TORSDOF 8
ENDMDL
MODEL      203
REMARK 921   NORMALIZED FREE ENERGY PREDICTED BY IDOCK:   -3.26 KCAL/MOL
REMARK 922        TOTAL FREE ENERGY PREDICTED BY IDOCK:   -6.02 KCAL/MOL
REMARK 923 INTER-LIGAND FREE ENERGY PREDICTED BY IDOCK:   -5.39 KCAL/MOL
REMARK 924 INTRA-LIGAND FREE ENERGY PREDICTED BY IDOCK:   -0.63 KCAL/MOL
REMARK 927      BINDING AFFINITY PREDICTED BY RF-SCORE:    0.00 PKD
ROOT
HETATM    1  C   UNL     1     -12.932  15.360  70.873  1.00  0.00    -0.539 C  
HETATM    2  C   UNL     1     -12.732  14.750  72.261  1.00  0.00    -0.332 C  
HETATM    3  C   UNL     1     -13.226  15.730  73.328  1.00  0.00    -0.687 C  
ENDROOT
BRANCH   2   4
HETATM    4  N   UNL     1     -13.457  13.476  72.311  1.00  0.00    -0.528 NA 
HETATM    5  H   UNL     1     -14.464  13.628  72.252  1.00  0.00     0.000 HD 
BRANCH   4   6
HETATM    6  C   UNL     1     -13.012  12.519  71.291  1.00  0.00    -0.208 C  
BRANCH   6   7
HETATM    7  C   UNL     1     -12.854  11.110  71.895  1.00  0.00    -0.294 C  
HETATM    8  O   UNL     1     -14.063  10.736  72.569  1.00  0.00    -0.149 OA 
HETATM    9  H   UNL     1     -13.966   9.868  72.942  1.00  0.00     0.000 HD 
BRANCH   7  10
HETATM   10  C   UNL     1     -12.530  10.086  70.799  1.00  0.00    -0.295 C  
BRANCH  10  11
HETATM   11  O   UNL     1     -11.138   9.740  70.901  1.00  0.00    -0.308 OA 
BRANCH  11  12
HETATM   12  C   UNL     1     -10.438   9.718  69.725  1.00  0.00    -0.250 A  
HETATM   13  C   UNL     1      -9.420   8.754  69.596  1.00  0.00    -0.170 A  
HETATM   14  C   UNL     1      -8.678   8.694  68.393  1.00  0.00    -0.142 A  
HETATM   15  C   UNL     1      -9.108   7.820  70.741  1.00  0.00    -0.149 C  
HETATM   16  C   UNL     1      -7.592   7.667  68.172  1.00  0.00    -0.114 C  
HETATM   17  C   UNL     1      -8.937   9.636  67.366  1.00  0.00    -0.131 A  
HETATM   18  C   UNL     1      -9.880  10.656  67.533  1.00  0.00    -0.194 A  
HETATM   19  C   UNL     1     -10.120  11.764  66.551  1.00  0.00    -0.232 C  
HETATM   20  C   UNL     1     -10.646  10.654  68.705  1.00  0.00    -0.234 A  
BRANCH  17  21
HETATM   21  O   UNL     1      -8.055   9.558  66.249  1.00  0.00    -0.110 OA 
BRANCH  21  22
HETATM   22  C   UNL     1      -6.862  10.263  66.086  1.00  0.00    -0.115 C  
HETATM   23  C   UNL     1      -6.377  10.063  64.676  1.00  0.00    -0.125 C  
HETATM   24  O   UNL     1      -6.313  10.982  66.908  1.00  0.00    -0.083 OA 
ENDBRANCH  21  22
ENDBRANCH  17  21
ENDBRANCH  11  12
ENDBRANCH  10  11
ENDBRANCH   7  10
ENDBRANCH   6   7
ENDBRANCH   4   6
ENDBRANCH   2   4
TORSDOF 8
ENDMDL
MODEL      204
REMARK 921   NORMALIZED FREE ENERGY PREDICTED BY IDOCK:   -3.25 KCAL/MOL
REMARK 922        TOTAL FREE ENERGY PREDICTED BY IDOCK:   -6.01 KCAL/MOL
REMARK 923 INTER-LIGAND FREE ENERGY PREDICTED BY IDOCK:   -5.49 KCAL/MOL
REMARK 924 INTRA-LIGAND FREE ENERGY PREDICTED BY IDOCK:   -0.52 KCAL/MOL
REMARK 927      BINDING AFFINITY PREDICTED BY RF-SCORE:    0.00 PKD
ROOT
HETATM    1  C   UNL     1     -10.871  15.820  66.292  1.00  0.00    -0.232 C  
HETATM    2  C   UNL     1     -11.186  14.836  67.420  1.00  0.00    -0.339 C  
HETATM    3  C   UNL     1     -11.539  15.612  68.692  1.00  0.00    -0.391 C  
ENDROOT
BRANCH   2   4
HETATM    4  N   UNL     1     -12.288  13.974  66.981  1.00  0.00    -0.538 NA 
HETATM    5  H   UNL     1     -12.736  14.352  66.146  1.00  0.00     0.000 HD 
BRANCH   4   6
HETATM    6  C   UNL     1     -11.881  12.580  66.770  1.00  0.00    -0.346 C  
BRANCH   6   7
HETATM    7  C   UNL     1     -11.458  11.926  68.100  1.00  0.00    -0.320 C  
HETATM    8  O   UNL     1     -12.365  10.863  68.424  1.00  0.00    -0.803 OA 
HETATM    9  H   UNL     1     -12.104  10.460  69.244  1.00  0.00     0.000 HD 
BRANCH   7  10
HETATM   10  C   UNL     1     -10.027  11.380  68.002  1.00  0.00    -0.182 C  
BRANCH  10  11
HETATM   11  O   UNL     1      -9.859  10.789  66.701  1.00  0.00    -0.188 OA 
BRANCH  11  12
HETATM   12  C   UNL     1      -9.483   9.473  66.685  1.00  0.00    -0.170 A  
HETATM   13  C   UNL     1      -8.206   9.171  66.174  1.00  0.00    -0.111 A  
HETATM   14  C   UNL     1      -7.778   7.823  66.147  1.00  0.00    -0.089 A  
HETATM   15  C   UNL     1      -7.324  10.271  65.634  1.00  0.00    -0.149 C  
HETATM   16  C   UNL     1      -6.411   7.427  65.640  1.00  0.00    -0.041 C  
HETATM   17  C   UNL     1      -8.659   6.802  66.583  1.00  0.00    -0.123 A  
HETATM   18  C   UNL     1      -9.963   7.092  66.999  1.00  0.00    -0.283 A  
HETATM   19  C   UNL     1     -10.994   6.062  67.352  1.00  0.00    -0.344 C  
HETATM   20  C   UNL     1     -10.341   8.438  67.078  1.00  0.00    -0.385 A  
BRANCH  17  21
HETATM   21  O   UNL     1      -8.169   5.476  66.404  1.00  0.00    -0.105 OA 
BRANCH  21  22
HETATM   22  C   UNL     1      -8.853   4.414  65.810  1.00  0.00    -0.122 C  
HETATM   23  C   UNL     1      -9.139   4.771  64.376  1.00  0.00    -0.084 C  
HETATM   24  O   UNL     1      -9.132   3.339  66.321  1.00  0.00    -0.143 OA 
ENDBRANCH  21  22
ENDBRANCH  17  21
ENDBRANCH  11  12
ENDBRANCH  10  11
ENDBRANCH   7  10
ENDBRANCH   6   7
ENDBRANCH   4   6
ENDBRANCH   2   4
TORSDOF 8
ENDMDL
MODEL      205
REMARK 921   NORMALIZED FREE ENERGY PREDICTED BY IDOCK:   -3.25 KCAL/MOL
REMARK 922        TOTAL FREE ENERGY PREDICTED BY IDOCK:   -6.00 KCAL/MOL
REMARK 923 INTER-LIGAND FREE ENERGY PREDICTED BY IDOCK:   -5.28 KCAL/MOL
REMARK 924 INTRA-LIGAND FREE ENERGY PREDICTED BY IDOCK:   -0.72 KCAL/MOL
REMARK 927      BINDING AFFINITY PREDICTED BY RF-SCORE:    0.00 PKD
ROOT
HETATM    1  C   UNL     1      -8.478  20.338  67.374  1.00  0.00    -0.405 C  
HETATM    2  C   UNL     1      -9.965  19.980  67.352  1.00  0.00    -0.433 C  
HETATM    3  C   UNL     1     -10.389  19.637  65.922  1.00  0.00    -0.584 C  
ENDROOT
BRANCH   2   4
HETATM    4  N   UNL     1     -10.179  18.857  68.271  1.00  0.00    -0.382 NA 
HETATM    5  H   UNL     1     -11.013  19.006  68.840  1.00  0.00     0.000 HD 
BRANCH   4   6
HETATM    6  C   UNL     1     -10.236  17.558  67.591  1.00  0.00    -0.343 C  
BRANCH   6   7
HETATM    7  C   UNL     1      -9.000  16.704  67.940  1.00  0.00    -0.217 C  
HETATM    8  O   UNL     1      -9.129  16.194  69.274  1.00  0.00    -0.252 OA 
HETATM    9  H   UNL     1      -8.367  15.668  69.489  1.00  0.00     0.000 HD 
BRANCH   7  10
HETATM   10  C   UNL     1      -8.852  15.542  66.949  1.00  0.00    -0.255 C  
BRANCH  10  11
HETATM   11  O   UNL     1      -9.883  14.578  67.226  1.00  0.00    -0.231 OA 
BRANCH  11  12
HETATM   12  C   UNL     1      -9.461  13.296  67.451  1.00  0.00    -0.218 A  
HETATM   13  C   UNL     1     -10.371  12.258  67.177  1.00  0.00    -0.234 A  
HETATM   14  C   UNL     1      -9.970  10.917  67.390  1.00  0.00    -0.215 A  
HETATM   15  C   UNL     1     -11.765  12.576  66.693  1.00  0.00    -0.453 C  
HETATM   16  C   UNL     1     -10.882   9.751  67.090  1.00  0.00    -0.207 C  
HETATM   17  C   UNL     1      -8.684  10.651  67.923  1.00  0.00    -0.127 A  
HETATM   18  C   UNL     1      -7.817  11.686  68.288  1.00  0.00    -0.136 A  
HETATM   19  C   UNL     1      -6.497  11.490  68.974  1.00  0.00    -0.076 C  
HETATM   20  C   UNL     1      -8.210  13.000  68.007  1.00  0.00    -0.161 A  
BRANCH  17  21
HETATM   21  O   UNL     1      -8.429   9.277  68.205  1.00  0.00    -0.119 OA 
BRANCH  21  22
HETATM   22  C   UNL     1      -7.436   8.484  67.629  1.00  0.00    -0.094 C  
HETATM   23  C   UNL     1      -7.480   8.671  66.136  1.00  0.00    -0.086 C  
HETATM   24  O   UNL     1      -6.614   7.794  68.213  1.00  0.00    -0.055 OA 
ENDBRANCH  21  22
ENDBRANCH  17  21
ENDBRANCH  11  12
ENDBRANCH  10  11
ENDBRANCH   7  10
ENDBRANCH   6   7
ENDBRANCH   4   6
ENDBRANCH   2   4
TORSDOF 8
ENDMDL
MODEL      206
REMARK 921   NORMALIZED FREE ENERGY PREDICTED BY IDOCK:   -3.23 KCAL/MOL
REMARK 922        TOTAL FREE ENERGY PREDICTED BY IDOCK:   -5.98 KCAL/MOL
REMARK 923 INTER-LIGAND FREE ENERGY PREDICTED BY IDOCK:   -5.19 KCAL/MOL
REMARK 924 INTRA-LIGAND FREE ENERGY PREDICTED BY IDOCK:   -0.79 KCAL/MOL
REMARK 927      BINDING AFFINITY PREDICTED BY RF-SCORE:    0.00 PKD
ROOT
HETATM    1  C   UNL     1      -8.777  20.340  67.128  1.00  0.00    -0.429 C  
HETATM    2  C   UNL     1      -7.433  20.133  67.828  1.00  0.00    -0.292 C  
HETATM    3  C   UNL     1      -7.652  19.382  69.144  1.00  0.00    -0.316 C  
ENDROOT
BRANCH   2   4
HETATM    4  N   UNL     1      -6.551  19.395  66.917  1.00  0.00    -0.194 NA 
HETATM    5  H   UNL     1      -5.929  18.775  67.437  1.00  0.00     0.000 HD 
BRANCH   4   6
HETATM    6  C   UNL     1      -7.279  18.656  65.881  1.00  0.00    -0.232 C  
BRANCH   6   7
HETATM    7  C   UNL     1      -7.138  17.136  66.092  1.00  0.00    -0.188 C  
HETATM    8  O   UNL     1      -6.247  16.883  67.187  1.00  0.00    -0.146 OA 
HETATM    9  H   UNL     1      -6.160  15.945  67.318  1.00  0.00     0.000 HD 
BRANCH   7  10
HETATM   10  C   UNL     1      -8.506  16.501  66.374  1.00  0.00    -0.321 C  
BRANCH  10  11
HETATM   11  O   UNL     1      -8.361  15.590  67.478  1.00  0.00    -0.156 OA 
BRANCH  11  12
HETATM   12  C   UNL     1      -8.804  14.313  67.263  1.00  0.00    -0.214 A  
HETATM   13  C   UNL     1      -7.966  13.259  67.678  1.00  0.00    -0.176 A  
HETATM   14  C   UNL     1      -8.392  11.924  67.480  1.00  0.00    -0.158 A  
HETATM   15  C   UNL     1      -6.621  13.556  68.295  1.00  0.00    -0.107 C  
HETATM   16  C   UNL     1      -7.560  10.745  67.926  1.00  0.00    -0.091 C  
HETATM   17  C   UNL     1      -9.623  11.674  66.823  1.00  0.00    -0.192 A  
HETATM   18  C   UNL     1     -10.407  12.719  66.323  1.00  0.00    -0.271 A  
HETATM   19  C   UNL     1     -11.652  12.534  65.507  1.00  0.00    -0.429 C  
HETATM   20  C   UNL     1      -9.998  14.032  66.588  1.00  0.00    -0.280 A  
BRANCH  17  21
HETATM   21  O   UNL     1      -9.896  10.298  66.573  1.00  0.00    -0.194 OA 
BRANCH  21  22
HETATM   22  C   UNL     1     -10.563   9.419  67.428  1.00  0.00    -0.258 C  
HETATM   23  C   UNL     1     -10.445   8.027  66.869  1.00  0.00    -0.387 C  
HETATM   24  O   UNL     1     -11.105   9.692  68.489  1.00  0.00    -0.157 OA 
ENDBRANCH  21  22
ENDBRANCH  17  21
ENDBRANCH  11  12
ENDBRANCH  10  11
ENDBRANCH   7  10
ENDBRANCH   6   7
ENDBRANCH   4   6
ENDBRANCH   2   4
TORSDOF 8
ENDMDL
MODEL      207
REMARK 921   NORMALIZED FREE ENERGY PREDICTED BY IDOCK:   -3.23 KCAL/MOL
REMARK 922        TOTAL FREE ENERGY PREDICTED BY IDOCK:   -5.98 KCAL/MOL
REMARK 923 INTER-LIGAND FREE ENERGY PREDICTED BY IDOCK:   -5.27 KCAL/MOL
REMARK 924 INTRA-LIGAND FREE ENERGY PREDICTED BY IDOCK:   -0.71 KCAL/MOL
REMARK 927      BINDING AFFINITY PREDICTED BY RF-SCORE:    0.00 PKD
ROOT
HETATM    1  C   UNL     1     -11.257   5.369  72.840  1.00  0.00    -0.372 C  
HETATM    2  C   UNL     1     -11.595   6.469  71.832  1.00  0.00    -0.312 C  
HETATM    3  C   UNL     1     -11.622   7.825  72.542  1.00  0.00    -0.422 C  
ENDROOT
BRANCH   2   4
HETATM    4  N   UNL     1     -10.595   6.432  70.760  1.00  0.00    -0.228 NA 
HETATM    5  H   UNL     1      -9.806   5.840  71.019  1.00  0.00     0.000 HD 
BRANCH   4   6
HETATM    6  C   UNL     1     -11.152   6.025  69.465  1.00  0.00    -0.398 C  
BRANCH   6   7
HETATM    7  C   UNL     1     -10.454   6.773  68.311  1.00  0.00    -0.206 C  
HETATM    8  O   UNL     1     -11.382   6.971  67.236  1.00  0.00    -0.605 OA 
HETATM    9  H   UNL     1     -10.952   7.432  66.524  1.00  0.00     0.000 HD 
BRANCH   7  10
HETATM   10  C   UNL     1      -9.916   8.127  68.793  1.00  0.00    -0.189 C  
BRANCH  10  11
HETATM   11  O   UNL     1     -10.458   9.155  67.945  1.00  0.00    -0.227 OA 
BRANCH  11  12
HETATM   12  C   UNL     1      -9.716  10.299  67.841  1.00  0.00    -0.145 A  
HETATM   13  C   UNL     1     -10.341  11.510  68.194  1.00  0.00    -0.211 A  
HETATM   14  C   UNL     1      -9.605  12.716  68.107  1.00  0.00    -0.219 A  
HETATM   15  C   UNL     1     -11.788  11.521  68.627  1.00  0.00    -0.382 C  
HETATM   16  C   UNL     1     -10.200  14.048  68.497  1.00  0.00    -0.237 C  
HETATM   17  C   UNL     1      -8.274  12.686  67.619  1.00  0.00    -0.174 A  
HETATM   18  C   UNL     1      -7.686  11.497  67.176  1.00  0.00    -0.160 A  
HETATM   19  C   UNL     1      -6.336  11.404  66.529  1.00  0.00    -0.095 C  
HETATM   20  C   UNL     1      -8.412  10.309  67.332  1.00  0.00    -0.125 A  
BRANCH  17  21
HETATM   21  O   UNL     1      -7.668  13.967  67.465  1.00  0.00    -0.162 OA 
BRANCH  21  22
HETATM   22  C   UNL     1      -6.764  14.566  68.343  1.00  0.00    -0.105 C  
HETATM   23  C   UNL     1      -6.079  15.698  67.626  1.00  0.00    -0.174 C  
HETATM   24  O   UNL     1      -6.582  14.284  69.518  1.00  0.00    -0.122 OA 
ENDBRANCH  21  22
ENDBRANCH  17  21
ENDBRANCH  11  12
ENDBRANCH  10  11
ENDBRANCH   7  10
ENDBRANCH   6   7
ENDBRANCH   4   6
ENDBRANCH   2   4
TORSDOF 8
ENDMDL
MODEL      208
REMARK 921   NORMALIZED FREE ENERGY PREDICTED BY IDOCK:   -3.18 KCAL/MOL
REMARK 922        TOTAL FREE ENERGY PREDICTED BY IDOCK:   -5.90 KCAL/MOL
REMARK 923 INTER-LIGAND FREE ENERGY PREDICTED BY IDOCK:   -5.25 KCAL/MOL
REMARK 924 INTRA-LIGAND FREE ENERGY PREDICTED BY IDOCK:   -0.65 KCAL/MOL
REMARK 927      BINDING AFFINITY PREDICTED BY RF-SCORE:    0.00 PKD
ROOT
HETATM    1  C   UNL     1      -7.567  15.226  68.921  1.00  0.00    -0.152 C  
HETATM    2  C   UNL     1      -8.599  15.647  67.874  1.00  0.00    -0.162 C  
HETATM    3  C   UNL     1      -8.348  17.100  67.462  1.00  0.00    -0.199 C  
ENDROOT
BRANCH   2   4
HETATM    4  N   UNL     1      -8.495  14.729  66.734  1.00  0.00    -0.390 NA 
HETATM    5  H   UNL     1      -7.529  14.434  66.591  1.00  0.00     0.000 HD 
BRANCH   4   6
HETATM    6  C   UNL     1      -9.385  13.567  66.847  1.00  0.00    -0.253 C  
BRANCH   6   7
HETATM    7  C   UNL     1     -10.596  13.712  65.904  1.00  0.00    -0.289 C  
HETATM    8  O   UNL     1     -10.138  13.947  64.565  1.00  0.00    -0.637 OA 
HETATM    9  H   UNL     1     -10.884  14.037  63.984  1.00  0.00     0.000 HD 
BRANCH   7  10
HETATM   10  C   UNL     1     -11.465  12.448  65.944  1.00  0.00    -0.374 C  
BRANCH  10  11
HETATM   11  O   UNL     1     -11.071  11.596  64.854  1.00  0.00    -0.299 OA 
BRANCH  11  12
HETATM   12  C   UNL     1     -10.198  10.589  65.165  1.00  0.00    -0.288 A  
HETATM   13  C   UNL     1      -9.340  10.138  64.144  1.00  0.00    -0.340 A  
HETATM   14  C   UNL     1      -8.418   9.103  64.428  1.00  0.00    -0.198 A  
HETATM   15  C   UNL     1      -9.429  10.731  62.759  1.00  0.00    -0.358 C  
HETATM   16  C   UNL     1      -7.447   8.589  63.391  1.00  0.00    -0.112 C  
HETATM   17  C   UNL     1      -8.413   8.507  65.714  1.00  0.00    -0.154 A  
HETATM   18  C   UNL     1      -9.332   8.888  66.698  1.00  0.00    -0.237 A  
HETATM   19  C   UNL     1      -9.475   8.220  68.034  1.00  0.00    -0.153 C  
HETATM   20  C   UNL     1     -10.190   9.958  66.414  1.00  0.00    -0.292 A  
BRANCH  17  21
HETATM   21  O   UNL     1      -7.527   7.400  65.854  1.00  0.00    -0.076 OA 
BRANCH  21  22
HETATM   22  C   UNL     1      -7.817   6.066  65.563  1.00  0.00    -0.105 C  
HETATM   23  C   UNL     1      -6.822   5.193  66.279  1.00  0.00    -0.058 C  
HETATM   24  O   UNL     1      -8.750   5.644  64.896  1.00  0.00    -0.127 OA 
ENDBRANCH  21  22
ENDBRANCH  17  21
ENDBRANCH  11  12
ENDBRANCH  10  11
ENDBRANCH   7  10
ENDBRANCH   6   7
ENDBRANCH   4   6
ENDBRANCH   2   4
TORSDOF 8
ENDMDL
MODEL      209
REMARK 921   NORMALIZED FREE ENERGY PREDICTED BY IDOCK:   -3.17 KCAL/MOL
REMARK 922        TOTAL FREE ENERGY PREDICTED BY IDOCK:   -5.89 KCAL/MOL
REMARK 923 INTER-LIGAND FREE ENERGY PREDICTED BY IDOCK:   -4.84 KCAL/MOL
REMARK 924 INTRA-LIGAND FREE ENERGY PREDICTED BY IDOCK:   -1.05 KCAL/MOL
REMARK 927      BINDING AFFINITY PREDICTED BY RF-SCORE:    0.00 PKD
ROOT
HETATM    1  C   UNL     1     -10.288  11.578  63.347  1.00  0.00    -0.469 C  
HETATM    2  C   UNL     1     -10.369  11.339  64.855  1.00  0.00    -0.304 C  
HETATM    3  C   UNL     1      -9.693  10.009  65.200  1.00  0.00    -0.380 C  
ENDROOT
BRANCH   2   4
HETATM    4  N   UNL     1      -9.728  12.470  65.533  1.00  0.00    -0.420 NA 
HETATM    5  H   UNL     1      -9.485  13.203  64.866  1.00  0.00     0.000 HD 
BRANCH   4   6
HETATM    6  C   UNL     1     -10.530  13.011  66.636  1.00  0.00    -0.264 C  
BRANCH   6   7
HETATM    7  C   UNL     1      -9.861  12.718  67.994  1.00  0.00    -0.226 C  
HETATM    8  O   UNL     1     -10.146  13.783  68.911  1.00  0.00    -0.373 OA 
HETATM    9  H   UNL     1      -9.733  13.602  69.748  1.00  0.00     0.000 HD 
BRANCH   7  10
HETATM   10  C   UNL     1     -10.365  11.387  68.567  1.00  0.00    -0.205 C  
BRANCH  10  11
HETATM   11  O   UNL     1      -9.274  10.748  69.253  1.00  0.00    -0.153 OA 
BRANCH  11  12
HETATM   12  C   UNL     1      -9.118   9.409  69.016  1.00  0.00    -0.142 A  
HETATM   13  C   UNL     1      -7.941   9.001  68.360  1.00  0.00    -0.104 A  
HETATM   14  C   UNL     1      -7.740   7.624  68.104  1.00  0.00    -0.119 A  
HETATM   15  C   UNL     1      -6.927  10.025  67.910  1.00  0.00    -0.084 C  
HETATM   16  C   UNL     1      -6.489   7.110  67.432  1.00  0.00    -0.058 C  
HETATM   17  C   UNL     1      -8.746   6.693  68.463  1.00  0.00    -0.123 A  
HETATM   18  C   UNL     1      -9.958   7.109  69.026  1.00  0.00    -0.174 A  
HETATM   19  C   UNL     1     -11.119   6.204  69.314  1.00  0.00    -0.463 C  
HETATM   20  C   UNL     1     -10.106   8.468  69.329  1.00  0.00    -0.203 A  
BRANCH  17  21
HETATM   21  O   UNL     1      -8.490   5.352  68.055  1.00  0.00    -0.099 OA 
BRANCH  21  22
HETATM   22  C   UNL     1      -9.265   4.591  67.178  1.00  0.00    -0.135 C  
HETATM   23  C   UNL     1      -9.322   5.299  65.852  1.00  0.00    -0.165 C  
HETATM   24  O   UNL     1      -9.772   3.501  67.399  1.00  0.00    -0.180 OA 
ENDBRANCH  21  22
ENDBRANCH  17  21
ENDBRANCH  11  12
ENDBRANCH  10  11
ENDBRANCH   7  10
ENDBRANCH   6   7
ENDBRANCH   4   6
ENDBRANCH   2   4
TORSDOF 8
ENDMDL
MODEL      210
REMARK 921   NORMALIZED FREE ENERGY PREDICTED BY IDOCK:   -3.16 KCAL/MOL
REMARK 922        TOTAL FREE ENERGY PREDICTED BY IDOCK:   -5.87 KCAL/MOL
REMARK 923 INTER-LIGAND FREE ENERGY PREDICTED BY IDOCK:   -5.24 KCAL/MOL
REMARK 924 INTRA-LIGAND FREE ENERGY PREDICTED BY IDOCK:   -0.63 KCAL/MOL
REMARK 927      BINDING AFFINITY PREDICTED BY RF-SCORE:    0.00 PKD
ROOT
HETATM    1  C   UNL     1     -12.578  13.681  63.629  1.00  0.00    -0.065 C  
HETATM    2  C   UNL     1     -11.514  13.486  64.710  1.00  0.00    -0.346 C  
HETATM    3  C   UNL     1     -10.601  14.714  64.758  1.00  0.00    -0.379 C  
ENDROOT
BRANCH   2   4
HETATM    4  N   UNL     1     -12.195  13.260  65.989  1.00  0.00    -0.430 NA 
HETATM    5  H   UNL     1     -13.207  13.241  65.863  1.00  0.00     0.000 HD 
BRANCH   4   6
HETATM    6  C   UNL     1     -11.731  12.054  66.684  1.00  0.00    -0.256 C  
BRANCH   6   7
HETATM    7  C   UNL     1     -10.946  12.426  67.958  1.00  0.00    -0.225 C  
HETATM    8  O   UNL     1     -11.854  12.903  68.961  1.00  0.00    -0.299 OA 
HETATM    9  H   UNL     1     -11.371  13.132  69.746  1.00  0.00     0.000 HD 
BRANCH   7  10
HETATM   10  C   UNL     1     -10.175  11.210  68.490  1.00  0.00    -0.198 C  
BRANCH  10  11
HETATM   11  O   UNL     1     -11.128  10.201  68.867  1.00  0.00    -0.231 OA 
BRANCH  11  12
HETATM   12  C   UNL     1     -10.642   9.172  69.627  1.00  0.00    -0.228 A  
HETATM   13  C   UNL     1     -11.188   9.005  70.914  1.00  0.00    -0.348 A  
HETATM   14  C   UNL     1     -10.717   7.948  71.728  1.00  0.00    -0.281 A  
HETATM   15  C   UNL     1     -12.237   9.963  71.425  1.00  0.00    -0.499 C  
HETATM   16  C   UNL     1     -11.277   7.689  73.108  1.00  0.00    -0.311 C  
HETATM   17  C   UNL     1      -9.673   7.114  71.255  1.00  0.00    -0.170 A  
HETATM   18  C   UNL     1      -9.064   7.341  70.016  1.00  0.00    -0.148 A  
HETATM   19  C   UNL     1      -7.873   6.587  69.502  1.00  0.00    -0.105 C  
HETATM   20  C   UNL     1      -9.590   8.351  69.202  1.00  0.00    -0.164 A  
BRANCH  17  21
HETATM   21  O   UNL     1      -9.199   6.158  72.200  1.00  0.00    -0.143 OA 
BRANCH  21  22
HETATM   22  C   UNL     1      -9.261   4.769  72.075  1.00  0.00    -0.136 C  
HETATM   23  C   UNL     1      -8.283   4.157  73.041  1.00  0.00    -0.090 C  
HETATM   24  O   UNL     1     -10.016   4.128  71.359  1.00  0.00    -0.185 OA 
ENDBRANCH  21  22
ENDBRANCH  17  21
ENDBRANCH  11  12
ENDBRANCH  10  11
ENDBRANCH   7  10
ENDBRANCH   6   7
ENDBRANCH   4   6
ENDBRANCH   2   4
TORSDOF 8
ENDMDL
MODEL      211
REMARK 921   NORMALIZED FREE ENERGY PREDICTED BY IDOCK:   -3.16 KCAL/MOL
REMARK 922        TOTAL FREE ENERGY PREDICTED BY IDOCK:   -5.87 KCAL/MOL
REMARK 923 INTER-LIGAND FREE ENERGY PREDICTED BY IDOCK:   -5.06 KCAL/MOL
REMARK 924 INTRA-LIGAND FREE ENERGY PREDICTED BY IDOCK:   -0.81 KCAL/MOL
REMARK 927      BINDING AFFINITY PREDICTED BY RF-SCORE:    0.00 PKD
ROOT
HETATM    1  C   UNL     1     -13.264  10.469  71.594  1.00  0.00    -0.493 C  
HETATM    2  C   UNL     1     -11.924  10.591  70.869  1.00  0.00    -0.377 C  
HETATM    3  C   UNL     1     -11.049   9.379  71.201  1.00  0.00    -0.432 C  
ENDROOT
BRANCH   2   4
HETATM    4  N   UNL     1     -12.189  10.696  69.430  1.00  0.00    -0.597 NA 
HETATM    5  H   UNL     1     -13.121  11.073  69.259  1.00  0.00     0.000 HD 
BRANCH   4   6
HETATM    6  C   UNL     1     -11.171  11.470  68.711  1.00  0.00    -0.249 C  
BRANCH   6   7
HETATM    7  C   UNL     1     -11.151  11.091  67.217  1.00  0.00    -0.294 C  
HETATM    8  O   UNL     1     -10.640  12.189  66.449  1.00  0.00    -0.231 OA 
HETATM    9  H   UNL     1     -10.627  11.956  65.528  1.00  0.00     0.000 HD 
BRANCH   7  10
HETATM   10  C   UNL     1     -10.282   9.847  66.989  1.00  0.00    -0.233 C  
BRANCH  10  11
HETATM   11  O   UNL     1     -10.701   8.829  67.915  1.00  0.00    -0.203 OA 
BRANCH  11  12
HETATM   12  C   UNL     1     -10.189   7.577  67.702  1.00  0.00    -0.213 A  
HETATM   13  C   UNL     1      -8.968   7.263  68.329  1.00  0.00    -0.125 A  
HETATM   14  C   UNL     1      -8.410   5.977  68.139  1.00  0.00    -0.113 A  
HETATM   15  C   UNL     1      -8.252   8.298  69.162  1.00  0.00    -0.121 C  
HETATM   16  C   UNL     1      -7.118   5.559  68.802  1.00  0.00    -0.065 C  
HETATM   17  C   UNL     1      -9.061   5.052  67.284  1.00  0.00    -0.114 A  
HETATM   18  C   UNL     1     -10.222   5.399  66.585  1.00  0.00    -0.285 A  
HETATM   19  C   UNL     1     -10.896   4.527  65.568  1.00  0.00    -0.085 C  
HETATM   20  C   UNL     1     -10.790   6.654  66.839  1.00  0.00    -0.415 A  
BRANCH  17  21
HETATM   21  O   UNL     1      -8.353   3.833  67.075  1.00  0.00    -0.098 OA 
BRANCH  21  22
HETATM   22  C   UNL     1      -8.545   2.636  67.765  1.00  0.00    -0.096 C  
HETATM   23  C   UNL     1      -7.608   1.602  67.201  1.00  0.00    -0.060 C  
HETATM   24  O   UNL     1      -9.293   2.444  68.713  1.00  0.00    -0.157 OA 
ENDBRANCH  21  22
ENDBRANCH  17  21
ENDBRANCH  11  12
ENDBRANCH  10  11
ENDBRANCH   7  10
ENDBRANCH   6   7
ENDBRANCH   4   6
ENDBRANCH   2   4
TORSDOF 8
ENDMDL
MODEL      212
REMARK 921   NORMALIZED FREE ENERGY PREDICTED BY IDOCK:   -3.14 KCAL/MOL
REMARK 922        TOTAL FREE ENERGY PREDICTED BY IDOCK:   -5.85 KCAL/MOL
REMARK 923 INTER-LIGAND FREE ENERGY PREDICTED BY IDOCK:   -5.18 KCAL/MOL
REMARK 924 INTRA-LIGAND FREE ENERGY PREDICTED BY IDOCK:   -0.66 KCAL/MOL
REMARK 927      BINDING AFFINITY PREDICTED BY RF-SCORE:    0.00 PKD
ROOT
HETATM    1  C   UNL     1     -11.338  13.913  64.328  1.00  0.00    -0.309 C  
HETATM    2  C   UNL     1     -11.813  12.505  64.690  1.00  0.00    -0.378 C  
HETATM    3  C   UNL     1     -10.694  11.499  64.408  1.00  0.00    -0.404 C  
ENDROOT
BRANCH   2   4
HETATM    4  N   UNL     1     -12.207  12.503  66.103  1.00  0.00    -0.608 NA 
HETATM    5  H   UNL     1     -12.742  11.665  66.330  1.00  0.00     0.000 HD 
BRANCH   4   6
HETATM    6  C   UNL     1     -11.072  12.664  67.019  1.00  0.00    -0.281 C  
BRANCH   6   7
HETATM    7  C   UNL     1     -11.547  12.647  68.485  1.00  0.00    -0.323 C  
HETATM    8  O   UNL     1     -12.516  13.684  68.689  1.00  0.00    -0.306 OA 
HETATM    9  H   UNL     1     -12.809  13.675  69.593  1.00  0.00     0.000 HD 
BRANCH   7  10
HETATM   10  C   UNL     1     -12.158  11.285  68.839  1.00  0.00    -0.224 C  
BRANCH  10  11
HETATM   11  O   UNL     1     -11.566  10.831  70.069  1.00  0.00    -0.277 OA 
BRANCH  11  12
HETATM   12  C   UNL     1     -10.593   9.876  69.950  1.00  0.00    -0.273 A  
HETATM   13  C   UNL     1     -10.880   8.594  70.455  1.00  0.00    -0.250 A  
HETATM   14  C   UNL     1      -9.902   7.577  70.344  1.00  0.00    -0.183 A  
HETATM   15  C   UNL     1     -12.201   8.321  71.133  1.00  0.00    -0.253 C  
HETATM   16  C   UNL     1     -10.151   6.170  70.836  1.00  0.00    -0.237 C  
HETATM   17  C   UNL     1      -8.639   7.882  69.778  1.00  0.00    -0.133 A  
HETATM   18  C   UNL     1      -8.319   9.180  69.366  1.00  0.00    -0.124 A  
HETATM   19  C   UNL     1      -6.968   9.610  68.878  1.00  0.00    -0.059 C  
HETATM   20  C   UNL     1      -9.325  10.153  69.426  1.00  0.00    -0.235 A  
BRANCH  17  21
HETATM   21  O   UNL     1      -7.693   6.817  69.822  1.00  0.00    -0.107 OA 
BRANCH  21  22
HETATM   22  C   UNL     1      -7.361   5.961  68.771  1.00  0.00    -0.084 C  
HETATM   23  C   UNL     1      -6.773   4.701  69.347  1.00  0.00    -0.045 C  
HETATM   24  O   UNL     1      -7.560   6.146  67.579  1.00  0.00    -0.090 OA 
ENDBRANCH  21  22
ENDBRANCH  17  21
ENDBRANCH  11  12
ENDBRANCH  10  11
ENDBRANCH   7  10
ENDBRANCH   6   7
ENDBRANCH   4   6
ENDBRANCH   2   4
TORSDOF 8
ENDMDL
MODEL      213
REMARK 921   NORMALIZED FREE ENERGY PREDICTED BY IDOCK:   -3.14 KCAL/MOL
REMARK 922        TOTAL FREE ENERGY PREDICTED BY IDOCK:   -5.84 KCAL/MOL
REMARK 923 INTER-LIGAND FREE ENERGY PREDICTED BY IDOCK:   -5.02 KCAL/MOL
REMARK 924 INTRA-LIGAND FREE ENERGY PREDICTED BY IDOCK:   -0.83 KCAL/MOL
REMARK 927      BINDING AFFINITY PREDICTED BY RF-SCORE:    0.00 PKD
ROOT
HETATM    1  C   UNL     1      -9.364   9.392  62.361  1.00  0.00     0.065 C  
HETATM    2  C   UNL     1      -8.483  10.445  63.035  1.00  0.00    -0.180 C  
HETATM    3  C   UNL     1      -7.080  10.407  62.425  1.00  0.00    -0.159 C  
ENDROOT
BRANCH   2   4
HETATM    4  N   UNL     1      -9.120  11.755  62.862  1.00  0.00    -0.634 NA 
HETATM    5  H   UNL     1      -9.174  12.005  61.874  1.00  0.00     0.000 HD 
BRANCH   4   6
HETATM    6  C   UNL     1     -10.440  11.843  63.496  1.00  0.00    -0.459 C  
BRANCH   6   7
HETATM    7  C   UNL     1     -10.500  13.035  64.471  1.00  0.00    -0.392 C  
HETATM    8  O   UNL     1     -11.625  13.865  64.149  1.00  0.00    -0.531 OA 
HETATM    9  H   UNL     1     -11.662  14.600  64.750  1.00  0.00     0.000 HD 
BRANCH   7  10
HETATM   10  C   UNL     1     -10.614  12.542  65.920  1.00  0.00    -0.265 C  
BRANCH  10  11
HETATM   11  O   UNL     1      -9.805  11.360  66.059  1.00  0.00    -0.207 OA 
BRANCH  11  12
HETATM   12  C   UNL     1      -9.635  10.897  67.335  1.00  0.00    -0.163 A  
HETATM   13  C   UNL     1      -8.339  10.967  67.882  1.00  0.00    -0.119 A  
HETATM   14  C   UNL     1      -8.124  10.504  69.202  1.00  0.00    -0.152 A  
HETATM   15  C   UNL     1      -7.193  11.499  67.056  1.00  0.00    -0.146 C  
HETATM   16  C   UNL     1      -6.769  10.575  69.864  1.00  0.00    -0.142 C  
HETATM   17  C   UNL     1      -9.201   9.933  69.925  1.00  0.00    -0.212 A  
HETATM   18  C   UNL     1     -10.465   9.773  69.346  1.00  0.00    -0.241 A  
HETATM   19  C   UNL     1     -11.616   9.065  69.996  1.00  0.00     0.081 C  
HETATM   20  C   UNL     1     -10.669  10.298  68.064  1.00  0.00    -0.299 A  
BRANCH  17  21
HETATM   21  O   UNL     1      -8.847   9.395  71.196  1.00  0.00    -0.272 OA 
BRANCH  21  22
HETATM   22  C   UNL     1      -8.808   8.044  71.542  1.00  0.00    -0.143 C  
HETATM   23  C   UNL     1      -9.558   7.858  72.833  1.00  0.00    -0.329 C  
HETATM   24  O   UNL     1      -8.312   7.133  70.895  1.00  0.00    -0.119 OA 
ENDBRANCH  21  22
ENDBRANCH  17  21
ENDBRANCH  11  12
ENDBRANCH  10  11
ENDBRANCH   7  10
ENDBRANCH   6   7
ENDBRANCH   4   6
ENDBRANCH   2   4
TORSDOF 8
ENDMDL
MODEL      214
REMARK 921   NORMALIZED FREE ENERGY PREDICTED BY IDOCK:   -3.13 KCAL/MOL
REMARK 922        TOTAL FREE ENERGY PREDICTED BY IDOCK:   -5.83 KCAL/MOL
REMARK 923 INTER-LIGAND FREE ENERGY PREDICTED BY IDOCK:   -5.37 KCAL/MOL
REMARK 924 INTRA-LIGAND FREE ENERGY PREDICTED BY IDOCK:   -0.46 KCAL/MOL
REMARK 927      BINDING AFFINITY PREDICTED BY RF-SCORE:    0.00 PKD
ROOT
HETATM    1  C   UNL     1      -8.805   9.007  70.334  1.00  0.00    -0.228 C  
HETATM    2  C   UNL     1      -7.627   8.605  69.445  1.00  0.00    -0.092 C  
HETATM    3  C   UNL     1      -6.720   7.633  70.204  1.00  0.00    -0.049 C  
ENDROOT
BRANCH   2   4
HETATM    4  N   UNL     1      -8.162   8.008  68.216  1.00  0.00    -0.122 NA 
HETATM    5  H   UNL     1      -7.542   7.277  67.867  1.00  0.00     0.000 HD 
BRANCH   4   6
HETATM    6  C   UNL     1      -9.532   7.504  68.369  1.00  0.00    -0.148 C  
BRANCH   6   7
HETATM    7  C   UNL     1     -10.386   7.861  67.136  1.00  0.00    -0.328 C  
HETATM    8  O   UNL     1     -11.384   6.851  66.935  1.00  0.00    -0.681 OA 
HETATM    9  H   UNL     1     -11.911   7.070  66.175  1.00  0.00     0.000 HD 
BRANCH   7  10
HETATM   10  C   UNL     1     -11.057   9.228  67.323  1.00  0.00     0.290 C  
BRANCH  10  11
HETATM   11  O   UNL     1     -10.045  10.245  67.222  1.00  0.00    -0.184 OA 
BRANCH  11  12
HETATM   12  C   UNL     1     -10.473  11.535  67.384  1.00  0.00    -0.209 A  
HETATM   13  C   UNL     1     -10.298  12.415  66.299  1.00  0.00    -0.267 A  
HETATM   14  C   UNL     1     -10.734  13.756  66.425  1.00  0.00    -0.281 A  
HETATM   15  C   UNL     1      -9.626  11.939  65.034  1.00  0.00    -0.110 C  
HETATM   16  C   UNL     1     -10.607  14.748  65.294  1.00  0.00    -0.414 C  
HETATM   17  C   UNL     1     -11.287  14.197  67.653  1.00  0.00    -0.319 A  
HETATM   18  C   UNL     1     -11.369  13.349  68.763  1.00  0.00    -0.332 A  
HETATM   19  C   UNL     1     -11.820  13.774  70.129  1.00  0.00    -0.360 C  
HETATM   20  C   UNL     1     -10.992  12.011  68.594  1.00  0.00    -0.281 A  
BRANCH  17  21
HETATM   21  O   UNL     1     -11.584  15.590  67.706  1.00  0.00    -0.302 OA 
BRANCH  21  22
HETATM   22  C   UNL     1     -10.762  16.593  68.223  1.00  0.00    -0.351 C  
HETATM   23  C   UNL     1      -9.648  15.945  69.000  1.00  0.00    -0.247 C  
HETATM   24  O   UNL     1     -10.865  17.796  68.040  1.00  0.00    -0.354 OA 
ENDBRANCH  21  22
ENDBRANCH  17  21
ENDBRANCH  11  12
ENDBRANCH  10  11
ENDBRANCH   7  10
ENDBRANCH   6   7
ENDBRANCH   4   6
ENDBRANCH   2   4
TORSDOF 8
ENDMDL
MODEL      215
REMARK 921   NORMALIZED FREE ENERGY PREDICTED BY IDOCK:   -3.11 KCAL/MOL
REMARK 922        TOTAL FREE ENERGY PREDICTED BY IDOCK:   -5.81 KCAL/MOL
REMARK 923 INTER-LIGAND FREE ENERGY PREDICTED BY IDOCK:   -4.82 KCAL/MOL
REMARK 924 INTRA-LIGAND FREE ENERGY PREDICTED BY IDOCK:   -0.99 KCAL/MOL
REMARK 927      BINDING AFFINITY PREDICTED BY RF-SCORE:    0.00 PKD
ROOT
HETATM    1  C   UNL     1     -10.263  10.779  64.109  1.00  0.00    -0.412 C  
HETATM    2  C   UNL     1     -10.014  12.284  64.229  1.00  0.00    -0.217 C  
HETATM    3  C   UNL     1     -11.293  13.044  63.866  1.00  0.00    -0.460 C  
ENDROOT
BRANCH   2   4
HETATM    4  N   UNL     1      -9.578  12.569  65.600  1.00  0.00    -0.433 NA 
HETATM    5  H   UNL     1      -8.745  13.157  65.601  1.00  0.00     0.000 HD 
BRANCH   4   6
HETATM    6  C   UNL     1     -10.635  13.156  66.431  1.00  0.00    -0.286 C  
BRANCH   6   7
HETATM    7  C   UNL     1     -10.921  12.269  67.659  1.00  0.00    -0.244 C  
HETATM    8  O   UNL     1     -12.030  11.403  67.378  1.00  0.00    -0.606 OA 
HETATM    9  H   UNL     1     -12.207  10.856  68.135  1.00  0.00     0.000 HD 
BRANCH   7  10
HETATM   10  C   UNL     1      -9.686  11.433  68.021  1.00  0.00    -0.186 C  
BRANCH  10  11
HETATM   11  O   UNL     1      -9.862  10.111  67.483  1.00  0.00    -0.168 OA 
BRANCH  11  12
HETATM   12  C   UNL     1      -9.619   9.076  68.344  1.00  0.00    -0.152 A  
HETATM   13  C   UNL     1      -8.549   8.215  68.035  1.00  0.00    -0.129 A  
HETATM   14  C   UNL     1      -8.261   7.137  68.906  1.00  0.00    -0.125 A  
HETATM   15  C   UNL     1      -7.743   8.425  66.776  1.00  0.00    -0.091 C  
HETATM   16  C   UNL     1      -7.110   6.191  68.655  1.00  0.00    -0.082 C  
HETATM   17  C   UNL     1      -9.085   6.915  70.037  1.00  0.00    -0.145 A  
HETATM   18  C   UNL     1     -10.207   7.711  70.290  1.00  0.00    -0.205 A  
HETATM   19  C   UNL     1     -11.198   7.462  71.388  1.00  0.00    -0.272 C  
HETATM   20  C   UNL     1     -10.433   8.810  69.452  1.00  0.00    -0.228 A  
BRANCH  17  21
HETATM   21  O   UNL     1      -8.776   5.737  70.777  1.00  0.00    -0.127 OA 
BRANCH  21  22
HETATM   22  C   UNL     1      -7.778   5.604  71.744  1.00  0.00    -0.101 C  
HETATM   23  C   UNL     1      -7.691   6.890  72.521  1.00  0.00    -0.095 C  
HETATM   24  O   UNL     1      -7.114   4.607  71.985  1.00  0.00    -0.057 OA 
ENDBRANCH  21  22
ENDBRANCH  17  21
ENDBRANCH  11  12
ENDBRANCH  10  11
ENDBRANCH   7  10
ENDBRANCH   6   7
ENDBRANCH   4   6
ENDBRANCH   2   4
TORSDOF 8
ENDMDL
MODEL      216
REMARK 921   NORMALIZED FREE ENERGY PREDICTED BY IDOCK:   -3.07 KCAL/MOL
REMARK 922        TOTAL FREE ENERGY PREDICTED BY IDOCK:   -5.75 KCAL/MOL
REMARK 923 INTER-LIGAND FREE ENERGY PREDICTED BY IDOCK:   -4.93 KCAL/MOL
REMARK 924 INTRA-LIGAND FREE ENERGY PREDICTED BY IDOCK:   -0.82 KCAL/MOL
REMARK 927      BINDING AFFINITY PREDICTED BY RF-SCORE:    0.00 PKD
ROOT
HETATM    1  C   UNL     1     -11.003   6.278  66.687  1.00  0.00    -0.213 C  
HETATM    2  C   UNL     1     -10.672   5.782  68.096  1.00  0.00    -0.209 C  
HETATM    3  C   UNL     1      -9.774   4.546  68.007  1.00  0.00    -0.192 C  
ENDROOT
BRANCH   2   4
HETATM    4  N   UNL     1     -10.026   6.877  68.827  1.00  0.00    -0.150 NA 
HETATM    5  H   UNL     1      -9.769   6.583  69.770  1.00  0.00     0.000 HD 
BRANCH   4   6
HETATM    6  C   UNL     1      -8.869   7.439  68.121  1.00  0.00    -0.127 C  
BRANCH   6   7
HETATM    7  C   UNL     1      -8.067   8.376  69.046  1.00  0.00    -0.116 C  
HETATM    8  O   UNL     1      -6.666   8.097  68.916  1.00  0.00    -0.047 OA 
HETATM    9  H   UNL     1      -6.171   8.675  69.485  1.00  0.00     0.000 HD 
BRANCH   7  10
HETATM   10  C   UNL     1      -8.341   9.845  68.694  1.00  0.00    -0.110 C  
BRANCH  10  11
HETATM   11  O   UNL     1      -9.766  10.037  68.640  1.00  0.00    -0.151 OA 
BRANCH  11  12
HETATM   12  C   UNL     1     -10.192  11.333  68.538  1.00  0.00    -0.205 A  
HETATM   13  C   UNL     1     -11.217  11.747  69.409  1.00  0.00    -0.300 A  
HETATM   14  C   UNL     1     -11.681  13.083  69.340  1.00  0.00    -0.386 A  
HETATM   15  C   UNL     1     -11.832  10.768  70.380  1.00  0.00    -0.450 C  
HETATM   16  C   UNL     1     -12.756  13.606  70.263  1.00  0.00    -0.163 C  
HETATM   17  C   UNL     1     -11.143  13.958  68.363  1.00  0.00    -0.255 A  
HETATM   18  C   UNL     1     -10.195  13.518  67.433  1.00  0.00    -0.237 A  
HETATM   19  C   UNL     1      -9.676  14.342  66.292  1.00  0.00    -0.330 C  
HETATM   20  C   UNL     1      -9.706  12.213  67.563  1.00  0.00    -0.185 A  
BRANCH  17  21
HETATM   21  O   UNL     1     -11.763  15.240  68.306  1.00  0.00    -0.343 OA 
BRANCH  21  22
HETATM   22  C   UNL     1     -11.259  16.428  68.838  1.00  0.00    -0.304 C  
HETATM   23  C   UNL     1     -11.000  17.387  67.708  1.00  0.00    -0.142 C  
HETATM   24  O   UNL     1     -11.102  16.697  70.020  1.00  0.00    -0.312 OA 
ENDBRANCH  21  22
ENDBRANCH  17  21
ENDBRANCH  11  12
ENDBRANCH  10  11
ENDBRANCH   7  10
ENDBRANCH   6   7
ENDBRANCH   4   6
ENDBRANCH   2   4
TORSDOF 8
ENDMDL
MODEL      217
REMARK 921   NORMALIZED FREE ENERGY PREDICTED BY IDOCK:   -2.99 KCAL/MOL
REMARK 922        TOTAL FREE ENERGY PREDICTED BY IDOCK:   -5.62 KCAL/MOL
REMARK 923 INTER-LIGAND FREE ENERGY PREDICTED BY IDOCK:   -5.25 KCAL/MOL
REMARK 924 INTRA-LIGAND FREE ENERGY PREDICTED BY IDOCK:   -0.37 KCAL/MOL
REMARK 927      BINDING AFFINITY PREDICTED BY RF-SCORE:    0.00 PKD
ROOT
HETATM    1  C   UNL     1      -9.570  20.044  67.419  1.00  0.00    -0.524 C  
HETATM    2  C   UNL     1      -8.211  19.343  67.414  1.00  0.00    -0.287 C  
HETATM    3  C   UNL     1      -7.681  19.242  68.847  1.00  0.00    -0.376 C  
ENDROOT
BRANCH   2   4
HETATM    4  N   UNL     1      -8.378  18.022  66.799  1.00  0.00    -0.244 NA 
HETATM    5  H   UNL     1      -8.078  17.283  67.436  1.00  0.00     0.000 HD 
BRANCH   4   6
HETATM    6  C   UNL     1      -9.743  17.777  66.320  1.00  0.00    -0.267 C  
BRANCH   6   7
HETATM    7  C   UNL     1     -10.350  16.539  67.009  1.00  0.00    -0.301 C  
HETATM    8  O   UNL     1     -11.272  15.896  66.118  1.00  0.00    -0.107 OA 
HETATM    9  H   UNL     1     -11.647  15.133  66.542  1.00  0.00     0.000 HD 
BRANCH   7  10
HETATM   10  C   UNL     1      -9.247  15.554  67.417  1.00  0.00    -0.202 C  
BRANCH  10  11
HETATM   11  O   UNL     1      -9.362  14.381  66.593  1.00  0.00    -0.258 OA 
BRANCH  11  12
HETATM   12  C   UNL     1      -9.044  13.193  67.193  1.00  0.00    -0.230 A  
HETATM   13  C   UNL     1     -10.110  12.353  67.571  1.00  0.00    -0.205 A  
HETATM   14  C   UNL     1      -9.822  11.113  68.188  1.00  0.00    -0.188 A  
HETATM   15  C   UNL     1     -11.537  12.790  67.348  1.00  0.00    -0.415 C  
HETATM   16  C   UNL     1     -10.911  10.148  68.593  1.00  0.00    -0.273 C  
HETATM   17  C   UNL     1      -8.475  10.765  68.460  1.00  0.00    -0.143 A  
HETATM   18  C   UNL     1      -7.423  11.642  68.174  1.00  0.00    -0.103 A  
HETATM   19  C   UNL     1      -5.990  11.404  68.548  1.00  0.00    -0.045 C  
HETATM   20  C   UNL     1      -7.727  12.834  67.505  1.00  0.00    -0.168 A  
BRANCH  17  21
HETATM   21  O   UNL     1      -8.308   9.550  69.187  1.00  0.00    -0.113 OA 
BRANCH  21  22
HETATM   22  C   UNL     1      -8.122   9.428  70.564  1.00  0.00    -0.184 C  
HETATM   23  C   UNL     1      -9.361   8.820  71.164  1.00  0.00    -0.297 C  
HETATM   24  O   UNL     1      -7.113   9.701  71.197  1.00  0.00    -0.319 OA 
ENDBRANCH  21  22
ENDBRANCH  17  21
ENDBRANCH  11  12
ENDBRANCH  10  11
ENDBRANCH   7  10
ENDBRANCH   6   7
ENDBRANCH   4   6
ENDBRANCH   2   4
TORSDOF 8
ENDMDL
MODEL      218
REMARK 921   NORMALIZED FREE ENERGY PREDICTED BY IDOCK:   -2.98 KCAL/MOL
REMARK 922        TOTAL FREE ENERGY PREDICTED BY IDOCK:   -5.61 KCAL/MOL
REMARK 923 INTER-LIGAND FREE ENERGY PREDICTED BY IDOCK:   -5.11 KCAL/MOL
REMARK 924 INTRA-LIGAND FREE ENERGY PREDICTED BY IDOCK:   -0.50 KCAL/MOL
REMARK 927      BINDING AFFINITY PREDICTED BY RF-SCORE:    0.00 PKD
ROOT
HETATM    1  C   UNL     1     -13.085  10.307  71.237  1.00  0.00    -0.492 C  
HETATM    2  C   UNL     1     -11.930  10.948  70.466  1.00  0.00    -0.371 C  
HETATM    3  C   UNL     1     -10.823   9.914  70.248  1.00  0.00    -0.367 C  
ENDROOT
BRANCH   2   4
HETATM    4  N   UNL     1     -12.456  11.463  69.197  1.00  0.00    -0.277 NA 
HETATM    5  H   UNL     1     -13.469  11.352  69.151  1.00  0.00     0.000 HD 
BRANCH   4   6
HETATM    6  C   UNL     1     -12.071  12.855  68.935  1.00  0.00    -0.142 C  
BRANCH   6   7
HETATM    7  C   UNL     1     -12.052  13.141  67.420  1.00  0.00    -0.263 C  
HETATM    8  O   UNL     1     -12.066  14.558  67.198  1.00  0.00    -0.498 OA 
HETATM    9  H   UNL     1     -12.055  14.735  66.264  1.00  0.00     0.000 HD 
BRANCH   7  10
HETATM   10  C   UNL     1     -10.807  12.523  66.770  1.00  0.00    -0.249 C  
BRANCH  10  11
HETATM   11  O   UNL     1     -10.937  11.091  66.817  1.00  0.00    -0.267 OA 
BRANCH  11  12
HETATM   12  C   UNL     1      -9.925  10.378  66.235  1.00  0.00    -0.226 A  
HETATM   13  C   UNL     1      -9.859  10.380  64.828  1.00  0.00    -0.406 A  
HETATM   14  C   UNL     1      -8.822   9.660  64.188  1.00  0.00    -0.257 A  
HETATM   15  C   UNL     1     -10.900  11.115  64.019  1.00  0.00    -0.351 C  
HETATM   16  C   UNL     1      -8.671   9.641  62.685  1.00  0.00    -0.226 C  
HETATM   17  C   UNL     1      -7.907   8.911  64.970  1.00  0.00    -0.112 A  
HETATM   18  C   UNL     1      -8.033   8.829  66.361  1.00  0.00    -0.103 A  
HETATM   19  C   UNL     1      -7.188   7.959  67.242  1.00  0.00    -0.090 C  
HETATM   20  C   UNL     1      -9.026   9.602  66.975  1.00  0.00    -0.150 A  
BRANCH  17  21
HETATM   21  O   UNL     1      -6.979   8.133  64.218  1.00  0.00    -0.067 OA 
BRANCH  21  22
HETATM   22  C   UNL     1      -7.211   6.874  63.664  1.00  0.00    -0.067 C  
HETATM   23  C   UNL     1      -6.008   6.477  62.854  1.00  0.00    -0.031 C  
HETATM   24  O   UNL     1      -8.189   6.161  63.841  1.00  0.00    -0.099 OA 
ENDBRANCH  21  22
ENDBRANCH  17  21
ENDBRANCH  11  12
ENDBRANCH  10  11
ENDBRANCH   7  10
ENDBRANCH   6   7
ENDBRANCH   4   6
ENDBRANCH   2   4
TORSDOF 8
ENDMDL
MODEL      219
REMARK 921   NORMALIZED FREE ENERGY PREDICTED BY IDOCK:   -2.93 KCAL/MOL
REMARK 922        TOTAL FREE ENERGY PREDICTED BY IDOCK:   -5.53 KCAL/MOL
REMARK 923 INTER-LIGAND FREE ENERGY PREDICTED BY IDOCK:   -5.30 KCAL/MOL
REMARK 924 INTRA-LIGAND FREE ENERGY PREDICTED BY IDOCK:   -0.23 KCAL/MOL
REMARK 927      BINDING AFFINITY PREDICTED BY RF-SCORE:    0.00 PKD
ROOT
HETATM    1  C   UNL     1      -7.103   9.992  67.777  1.00  0.00    -0.086 C  
HETATM    2  C   UNL     1      -6.490  11.393  67.758  1.00  0.00    -0.065 C  
HETATM    3  C   UNL     1      -5.629  11.559  66.503  1.00  0.00    -0.119 C  
ENDROOT
BRANCH   2   4
HETATM    4  N   UNL     1      -7.582  12.372  67.806  1.00  0.00    -0.122 NA 
HETATM    5  H   UNL     1      -8.125  12.268  68.664  1.00  0.00     0.000 HD 
BRANCH   4   6
HETATM    6  C   UNL     1      -7.124  13.756  67.642  1.00  0.00    -0.176 C  
BRANCH   6   7
HETATM    7  C   UNL     1      -8.274  14.748  67.908  1.00  0.00    -0.150 C  
HETATM    8  O   UNL     1      -7.869  15.698  68.903  1.00  0.00    -0.156 OA 
HETATM    9  H   UNL     1      -8.578  16.309  69.068  1.00  0.00     0.000 HD 
BRANCH   7  10
HETATM   10  C   UNL     1      -8.664  15.479  66.617  1.00  0.00    -0.291 C  
BRANCH  10  11
HETATM   11  O   UNL     1     -10.074  15.291  66.400  1.00  0.00    -0.253 OA 
BRANCH  11  12
HETATM   12  C   UNL     1     -10.678  14.339  67.176  1.00  0.00    -0.282 A  
HETATM   13  C   UNL     1     -10.695  13.019  66.684  1.00  0.00    -0.285 A  
HETATM   14  C   UNL     1     -11.304  12.004  67.461  1.00  0.00    -0.387 A  
HETATM   15  C   UNL     1     -10.101  12.704  65.333  1.00  0.00    -0.277 C  
HETATM   16  C   UNL     1     -11.334  10.563  67.011  1.00  0.00     0.102 C  
HETATM   17  C   UNL     1     -11.927  12.344  68.688  1.00  0.00    -0.225 A  
HETATM   18  C   UNL     1     -11.995  13.670  69.129  1.00  0.00    -0.394 A  
HETATM   19  C   UNL     1     -12.745  14.125  70.345  1.00  0.00    -0.341 C  
HETATM   20  C   UNL     1     -11.330  14.646  68.376  1.00  0.00    -0.312 A  
BRANCH  17  21
HETATM   21  O   UNL     1     -12.607  11.268  69.328  1.00  0.00    -0.289 OA 
BRANCH  21  22
HETATM   22  C   UNL     1     -12.326  10.746  70.592  1.00  0.00    -0.372 C  
HETATM   23  C   UNL     1     -10.983  10.071  70.544  1.00  0.00    -0.392 C  
HETATM   24  O   UNL     1     -13.006  10.857  71.602  1.00  0.00    -0.433 OA 
ENDBRANCH  21  22
ENDBRANCH  17  21
ENDBRANCH  11  12
ENDBRANCH  10  11
ENDBRANCH   7  10
ENDBRANCH   6   7
ENDBRANCH   4   6
ENDBRANCH   2   4
TORSDOF 8
ENDMDL
MODEL      220
REMARK 921   NORMALIZED FREE ENERGY PREDICTED BY IDOCK:   -2.89 KCAL/MOL
REMARK 922        TOTAL FREE ENERGY PREDICTED BY IDOCK:   -5.49 KCAL/MOL
REMARK 923 INTER-LIGAND FREE ENERGY PREDICTED BY IDOCK:   -5.05 KCAL/MOL
REMARK 924 INTRA-LIGAND FREE ENERGY PREDICTED BY IDOCK:   -0.44 KCAL/MOL
REMARK 927      BINDING AFFINITY PREDICTED BY RF-SCORE:    0.00 PKD
ROOT
HETATM    1  C   UNL     1      -6.925  12.297  68.744  1.00  0.00    -0.098 C  
HETATM    2  C   UNL     1      -7.526  11.153  67.924  1.00  0.00    -0.094 C  
HETATM    3  C   UNL     1      -7.079   9.812  68.511  1.00  0.00    -0.068 C  
ENDROOT
BRANCH   2   4
HETATM    4  N   UNL     1      -8.986  11.298  67.938  1.00  0.00    -0.142 NA 
HETATM    5  H   UNL     1      -9.259  12.189  68.353  1.00  0.00     0.000 HD 
BRANCH   4   6
HETATM    6  C   UNL     1      -9.594  11.130  66.613  1.00  0.00    -0.190 C  
BRANCH   6   7
HETATM    7  C   UNL     1     -10.528  12.312  66.286  1.00  0.00    -0.238 C  
HETATM    8  O   UNL     1     -11.887  11.938  66.546  1.00  0.00    -0.579 OA 
HETATM    9  H   UNL     1     -12.463  12.667  66.345  1.00  0.00     0.000 HD 
BRANCH   7  10
HETATM   10  C   UNL     1     -10.155  13.541  67.127  1.00  0.00    -0.245 C  
BRANCH  10  11
HETATM   11  O   UNL     1     -10.463  14.720  66.363  1.00  0.00    -0.281 OA 
BRANCH  11  12
HETATM   12  C   UNL     1      -9.766  15.850  66.697  1.00  0.00    -0.253 A  
HETATM   13  C   UNL     1     -10.316  16.677  67.695  1.00  0.00    -0.305 A  
HETATM   14  C   UNL     1      -9.622  17.850  68.074  1.00  0.00    -0.290 A  
HETATM   15  C   UNL     1     -11.643  16.329  68.325  1.00  0.00    -0.118 C  
HETATM   16  C   UNL     1     -10.136  18.770  69.157  1.00  0.00    -0.193 C  
HETATM   17  C   UNL     1      -8.420  18.196  67.408  1.00  0.00    -0.240 A  
HETATM   18  C   UNL     1      -7.926  17.427  66.349  1.00  0.00    -0.325 A  
HETATM   19  C   UNL     1      -6.736  17.793  65.512  1.00  0.00     0.015 C  
HETATM   20  C   UNL     1      -8.594  16.236  66.036  1.00  0.00    -0.246 A  
BRANCH  17  21
HETATM   21  O   UNL     1      -7.868  19.454  67.788  1.00  0.00    -0.267 OA 
BRANCH  21  22
HETATM   22  C   UNL     1      -6.754  19.657  68.604  1.00  0.00    -0.297 C  
HETATM   23  C   UNL     1      -6.422  18.360  69.291  1.00  0.00    -0.268 C  
HETATM   24  O   UNL     1      -6.099  20.683  68.714  1.00  0.00    -0.329 OA 
ENDBRANCH  21  22
ENDBRANCH  17  21
ENDBRANCH  11  12
ENDBRANCH  10  11
ENDBRANCH   7  10
ENDBRANCH   6   7
ENDBRANCH   4   6
ENDBRANCH   2   4
TORSDOF 8
ENDMDL
MODEL      221
REMARK 921   NORMALIZED FREE ENERGY PREDICTED BY IDOCK:   -2.88 KCAL/MOL
REMARK 922        TOTAL FREE ENERGY PREDICTED BY IDOCK:   -5.46 KCAL/MOL
REMARK 923 INTER-LIGAND FREE ENERGY PREDICTED BY IDOCK:   -4.66 KCAL/MOL
REMARK 924 INTRA-LIGAND FREE ENERGY PREDICTED BY IDOCK:   -0.80 KCAL/MOL
REMARK 927      BINDING AFFINITY PREDICTED BY RF-SCORE:    0.00 PKD
ROOT
HETATM    1  C   UNL     1      -8.493   3.337  69.037  1.00  0.00    -0.094 C  
HETATM    2  C   UNL     1      -8.513   4.387  67.925  1.00  0.00    -0.098 C  
HETATM    3  C   UNL     1      -9.487   3.952  66.827  1.00  0.00    -0.223 C  
ENDROOT
BRANCH   2   4
HETATM    4  N   UNL     1      -8.895   5.674  68.517  1.00  0.00    -0.109 NA 
HETATM    5  H   UNL     1      -8.465   6.448  68.011  1.00  0.00     0.000 HD 
BRANCH   4   6
HETATM    6  C   UNL     1     -10.348   5.856  68.614  1.00  0.00    -0.215 C  
BRANCH   6   7
HETATM    7  C   UNL     1     -10.694   7.318  68.957  1.00  0.00    -0.166 C  
HETATM    8  O   UNL     1      -9.749   7.825  69.909  1.00  0.00    -0.174 OA 
HETATM    9  H   UNL     1      -9.962   8.727  70.122  1.00  0.00     0.000 HD 
BRANCH   7  10
HETATM   10  C   UNL     1     -10.678   8.187  67.693  1.00  0.00    -0.133 C  
BRANCH  10  11
HETATM   11  O   UNL     1      -9.441   8.920  67.665  1.00  0.00    -0.135 OA 
BRANCH  11  12
HETATM   12  C   UNL     1      -9.509  10.193  67.166  1.00  0.00    -0.158 A  
HETATM   13  C   UNL     1      -8.852  11.206  67.889  1.00  0.00    -0.136 A  
HETATM   14  C   UNL     1      -8.893  12.535  67.403  1.00  0.00    -0.187 A  
HETATM   15  C   UNL     1      -8.144  10.881  69.182  1.00  0.00    -0.104 C  
HETATM   16  C   UNL     1      -8.187  13.668  68.109  1.00  0.00    -0.158 C  
HETATM   17  C   UNL     1      -9.635  12.826  66.230  1.00  0.00    -0.242 A  
HETATM   18  C   UNL     1     -10.368  11.836  65.567  1.00  0.00    -0.304 A  
HETATM   19  C   UNL     1     -11.277  12.087  64.401  1.00  0.00    -0.406 C  
HETATM   20  C   UNL     1     -10.259  10.519  66.030  1.00  0.00    -0.310 A  
BRANCH  17  21
HETATM   21  O   UNL     1      -9.703  14.209  65.897  1.00  0.00    -0.292 OA 
BRANCH  21  22
HETATM   22  C   UNL     1     -10.782  15.065  66.130  1.00  0.00    -0.327 C  
HETATM   23  C   UNL     1     -10.668  16.242  65.200  1.00  0.00    -0.350 C  
HETATM   24  O   UNL     1     -11.710  14.885  66.904  1.00  0.00    -0.343 OA 
ENDBRANCH  21  22
ENDBRANCH  17  21
ENDBRANCH  11  12
ENDBRANCH  10  11
ENDBRANCH   7  10
ENDBRANCH   6   7
ENDBRANCH   4   6
ENDBRANCH   2   4
TORSDOF 8
ENDMDL
MODEL      222
REMARK 921   NORMALIZED FREE ENERGY PREDICTED BY IDOCK:   -2.87 KCAL/MOL
REMARK 922        TOTAL FREE ENERGY PREDICTED BY IDOCK:   -5.46 KCAL/MOL
REMARK 923 INTER-LIGAND FREE ENERGY PREDICTED BY IDOCK:   -4.82 KCAL/MOL
REMARK 924 INTRA-LIGAND FREE ENERGY PREDICTED BY IDOCK:   -0.63 KCAL/MOL
REMARK 927      BINDING AFFINITY PREDICTED BY RF-SCORE:    0.00 PKD
ROOT
HETATM    1  C   UNL     1      -8.567  18.092  66.713  1.00  0.00    -0.272 C  
HETATM    2  C   UNL     1      -9.806  18.604  67.450  1.00  0.00    -0.318 C  
HETATM    3  C   UNL     1     -10.755  19.275  66.454  1.00  0.00    -0.479 C  
ENDROOT
BRANCH   2   4
HETATM    4  N   UNL     1     -10.438  17.466  68.128  1.00  0.00    -0.374 NA 
HETATM    5  H   UNL     1     -11.315  17.747  68.567  1.00  0.00     0.000 HD 
BRANCH   4   6
HETATM    6  C   UNL     1     -10.641  16.311  67.247  1.00  0.00    -0.298 C  
BRANCH   6   7
HETATM    7  C   UNL     1     -11.601  15.293  67.894  1.00  0.00    -0.289 C  
HETATM    8  O   UNL     1     -12.382  14.653  66.875  1.00  0.00    -0.475 OA 
HETATM    9  H   UNL     1     -12.974  14.025  67.274  1.00  0.00     0.000 HD 
BRANCH   7  10
HETATM   10  C   UNL     1     -10.816  14.240  68.688  1.00  0.00    -0.253 C  
BRANCH  10  11
HETATM   11  O   UNL     1     -10.183  13.350  67.753  1.00  0.00    -0.227 OA 
BRANCH  11  12
HETATM   12  C   UNL     1      -9.583  12.243  68.291  1.00  0.00    -0.212 A  
HETATM   13  C   UNL     1      -8.176  12.192  68.263  1.00  0.00    -0.168 A  
HETATM   14  C   UNL     1      -7.519  11.067  68.815  1.00  0.00    -0.116 A  
HETATM   15  C   UNL     1      -7.387  13.307  67.622  1.00  0.00    -0.164 C  
HETATM   16  C   UNL     1      -6.012  10.956  68.847  1.00  0.00    -0.040 C  
HETATM   17  C   UNL     1      -8.287   9.996  69.336  1.00  0.00    -0.165 A  
HETATM   18  C   UNL     1      -9.684  10.003  69.275  1.00  0.00    -0.227 A  
HETATM   19  C   UNL     1     -10.561   8.857  69.685  1.00  0.00    -0.230 C  
HETATM   20  C   UNL     1     -10.312  11.154  68.783  1.00  0.00    -0.222 A  
BRANCH  17  21
HETATM   21  O   UNL     1      -7.526   8.868  69.760  1.00  0.00    -0.054 OA 
BRANCH  21  22
HETATM   22  C   UNL     1      -7.267   7.717  69.014  1.00  0.00    -0.080 C  
HETATM   23  C   UNL     1      -7.428   6.519  69.911  1.00  0.00    -0.088 C  
HETATM   24  O   UNL     1      -7.012   7.655  67.821  1.00  0.00    -0.072 OA 
ENDBRANCH  21  22
ENDBRANCH  17  21
ENDBRANCH  11  12
ENDBRANCH  10  11
ENDBRANCH   7  10
ENDBRANCH   6   7
ENDBRANCH   4   6
ENDBRANCH   2   4
TORSDOF 8
ENDMDL
MODEL      223
REMARK 921   NORMALIZED FREE ENERGY PREDICTED BY IDOCK:   -2.87 KCAL/MOL
REMARK 922        TOTAL FREE ENERGY PREDICTED BY IDOCK:   -5.45 KCAL/MOL
REMARK 923 INTER-LIGAND FREE ENERGY PREDICTED BY IDOCK:   -5.42 KCAL/MOL
REMARK 924 INTRA-LIGAND FREE ENERGY PREDICTED BY IDOCK:   -0.03 KCAL/MOL
REMARK 927      BINDING AFFINITY PREDICTED BY RF-SCORE:    0.00 PKD
ROOT
HETATM    1  C   UNL     1      -7.380   9.484  70.190  1.00  0.00    -0.124 C  
HETATM    2  C   UNL     1      -8.872   9.148  70.154  1.00  0.00    -0.197 C  
HETATM    3  C   UNL     1      -9.364   8.848  71.572  1.00  0.00    -0.335 C  
ENDROOT
BRANCH   2   4
HETATM    4  N   UNL     1      -9.583  10.284  69.557  1.00  0.00    -0.313 NA 
HETATM    5  H   UNL     1      -8.943  11.058  69.375  1.00  0.00     0.000 HD 
BRANCH   4   6
HETATM    6  C   UNL     1     -10.328   9.925  68.345  1.00  0.00    -0.198 C  
BRANCH   6   7
HETATM    7  C   UNL     1     -10.170  11.013  67.264  1.00  0.00    -0.199 C  
HETATM    8  O   UNL     1     -11.446  11.295  66.674  1.00  0.00    -0.373 OA 
HETATM    9  H   UNL     1     -11.349  11.965  66.008  1.00  0.00     0.000 HD 
BRANCH   7  10
HETATM   10  C   UNL     1      -9.582  12.294  67.870  1.00  0.00    -0.203 C  
BRANCH  10  11
HETATM   11  O   UNL     1      -8.858  12.990  66.840  1.00  0.00    -0.214 OA 
BRANCH  11  12
HETATM   12  C   UNL     1      -8.904  14.356  66.893  1.00  0.00    -0.223 A  
HETATM   13  C   UNL     1      -8.080  14.995  67.839  1.00  0.00    -0.142 A  
HETATM   14  C   UNL     1      -8.093  16.408  67.920  1.00  0.00    -0.164 A  
HETATM   15  C   UNL     1      -7.220  14.179  68.773  1.00  0.00    -0.120 C  
HETATM   16  C   UNL     1      -7.215  17.163  68.890  1.00  0.00    -0.242 C  
HETATM   17  C   UNL     1      -8.972  17.146  67.087  1.00  0.00    -0.228 A  
HETATM   18  C   UNL     1      -9.861  16.506  66.217  1.00  0.00    -0.336 A  
HETATM   19  C   UNL     1     -10.907  17.207  65.402  1.00  0.00    -0.051 C  
HETATM   20  C   UNL     1      -9.783  15.112  66.108  1.00  0.00    -0.338 A  
BRANCH  17  21
HETATM   21  O   UNL     1      -8.987  18.549  67.333  1.00  0.00    -0.268 OA 
BRANCH  21  22
HETATM   22  C   UNL     1      -8.978  19.559  66.370  1.00  0.00    -0.370 C  
HETATM   23  C   UNL     1      -7.573  19.719  65.856  1.00  0.00    -0.332 C  
HETATM   24  O   UNL     1      -9.942  20.182  65.947  1.00  0.00    -0.447 OA 
ENDBRANCH  21  22
ENDBRANCH  17  21
ENDBRANCH  11  12
ENDBRANCH  10  11
ENDBRANCH   7  10
ENDBRANCH   6   7
ENDBRANCH   4   6
ENDBRANCH   2   4
TORSDOF 8
ENDMDL
MODEL      224
REMARK 921   NORMALIZED FREE ENERGY PREDICTED BY IDOCK:   -2.86 KCAL/MOL
REMARK 922        TOTAL FREE ENERGY PREDICTED BY IDOCK:   -5.44 KCAL/MOL
REMARK 923 INTER-LIGAND FREE ENERGY PREDICTED BY IDOCK:   -4.47 KCAL/MOL
REMARK 924 INTRA-LIGAND FREE ENERGY PREDICTED BY IDOCK:   -0.97 KCAL/MOL
REMARK 927      BINDING AFFINITY PREDICTED BY RF-SCORE:    0.00 PKD
ROOT
HETATM    1  C   UNL     1      -8.936   9.126  68.825  1.00  0.00    -0.136 C  
HETATM    2  C   UNL     1      -7.820   9.651  69.729  1.00  0.00    -0.142 C  
HETATM    3  C   UNL     1      -6.493   8.996  69.337  1.00  0.00    -0.044 C  
ENDROOT
BRANCH   2   4
HETATM    4  N   UNL     1      -7.770  11.111  69.596  1.00  0.00    -0.357 NA 
HETATM    5  H   UNL     1      -7.676  11.556  70.509  1.00  0.00     0.000 HD 
BRANCH   4   6
HETATM    6  C   UNL     1      -6.722  11.571  68.678  1.00  0.00    -0.072 C  
BRANCH   6   7
HETATM    7  C   UNL     1      -7.188  12.815  67.896  1.00  0.00    -0.120 C  
HETATM    8  O   UNL     1      -6.132  13.268  67.038  1.00  0.00    -0.438 OA 
HETATM    9  H   UNL     1      -6.418  14.034  66.555  1.00  0.00     0.000 HD 
BRANCH   7  10
HETATM   10  C   UNL     1      -8.435  12.491  67.061  1.00  0.00    -0.161 C  
BRANCH  10  11
HETATM   11  O   UNL     1      -9.580  13.051  67.727  1.00  0.00    -0.195 OA 
BRANCH  11  12
HETATM   12  C   UNL     1      -9.893  14.342  67.398  1.00  0.00    -0.235 A  
HETATM   13  C   UNL     1      -9.810  15.308  68.419  1.00  0.00    -0.216 A  
HETATM   14  C   UNL     1     -10.119  16.656  68.117  1.00  0.00    -0.267 A  
HETATM   15  C   UNL     1      -9.429  14.901  69.821  1.00  0.00     0.146 C  
HETATM   16  C   UNL     1     -10.024  17.750  69.153  1.00  0.00    -0.189 C  
HETATM   17  C   UNL     1     -10.554  16.996  66.811  1.00  0.00    -0.191 A  
HETATM   18  C   UNL     1     -10.730  16.020  65.824  1.00  0.00    -0.310 A  
HETATM   19  C   UNL     1     -11.307  16.280  64.464  1.00  0.00    -0.209 C  
HETATM   20  C   UNL     1     -10.357  14.706  66.128  1.00  0.00    -0.309 A  
BRANCH  17  21
HETATM   21  O   UNL     1     -10.948  18.356  66.650  1.00  0.00    -0.150 OA 
BRANCH  21  22
HETATM   22  C   UNL     1     -10.352  19.296  65.808  1.00  0.00    -0.316 C  
HETATM   23  C   UNL     1      -8.929  19.502  66.252  1.00  0.00    -0.400 C  
HETATM   24  O   UNL     1     -10.853  19.832  64.831  1.00  0.00    -0.157 OA 
ENDBRANCH  21  22
ENDBRANCH  17  21
ENDBRANCH  11  12
ENDBRANCH  10  11
ENDBRANCH   7  10
ENDBRANCH   6   7
ENDBRANCH   4   6
ENDBRANCH   2   4
TORSDOF 8
ENDMDL
MODEL      225
REMARK 921   NORMALIZED FREE ENERGY PREDICTED BY IDOCK:   -2.86 KCAL/MOL
REMARK 922        TOTAL FREE ENERGY PREDICTED BY IDOCK:   -5.43 KCAL/MOL
REMARK 923 INTER-LIGAND FREE ENERGY PREDICTED BY IDOCK:   -4.72 KCAL/MOL
REMARK 924 INTRA-LIGAND FREE ENERGY PREDICTED BY IDOCK:   -0.71 KCAL/MOL
REMARK 927      BINDING AFFINITY PREDICTED BY RF-SCORE:    0.00 PKD
ROOT
HETATM    1  C   UNL     1      -9.408   1.978  68.856  1.00  0.00    -0.209 C  
HETATM    2  C   UNL     1      -9.304   3.232  69.725  1.00  0.00    -0.159 C  
HETATM    3  C   UNL     1      -8.074   3.127  70.631  1.00  0.00    -0.061 C  
ENDROOT
BRANCH   2   4
HETATM    4  N   UNL     1      -9.234   4.399  68.840  1.00  0.00    -0.128 NA 
HETATM    5  H   UNL     1      -9.683   4.204  67.945  1.00  0.00     0.000 HD 
BRANCH   4   6
HETATM    6  C   UNL     1      -9.783   5.617  69.446  1.00  0.00    -0.157 C  
BRANCH   6   7
HETATM    7  C   UNL     1     -10.952   6.167  68.605  1.00  0.00    -0.336 C  
HETATM    8  O   UNL     1     -12.015   6.583  69.474  1.00  0.00    -0.601 OA 
HETATM    9  H   UNL     1     -12.736   6.922  68.956  1.00  0.00     0.000 HD 
BRANCH   7  10
HETATM   10  C   UNL     1     -10.489   7.350  67.745  1.00  0.00    -0.232 C  
BRANCH  10  11
HETATM   11  O   UNL     1      -9.500   8.086  68.485  1.00  0.00    -0.142 OA 
BRANCH  11  12
HETATM   12  C   UNL     1      -9.559   9.449  68.373  1.00  0.00    -0.146 A  
HETATM   13  C   UNL     1      -8.370  10.121  68.031  1.00  0.00    -0.117 A  
HETATM   14  C   UNL     1      -8.391  11.530  67.898  1.00  0.00    -0.136 A  
HETATM   15  C   UNL     1      -7.087   9.349  67.841  1.00  0.00    -0.081 C  
HETATM   16  C   UNL     1      -7.163  12.316  67.504  1.00  0.00    -0.139 C  
HETATM   17  C   UNL     1      -9.591  12.238  68.163  1.00  0.00    -0.213 A  
HETATM   18  C   UNL     1     -10.745  11.579  68.598  1.00  0.00    -0.242 A  
HETATM   19  C   UNL     1     -12.010  12.265  69.021  1.00  0.00    -0.300 C  
HETATM   20  C   UNL     1     -10.718  10.180  68.659  1.00  0.00    -0.253 A  
BRANCH  17  21
HETATM   21  O   UNL     1      -9.469  13.657  68.112  1.00  0.00    -0.205 OA 
BRANCH  21  22
HETATM   22  C   UNL     1     -10.127  14.513  67.227  1.00  0.00    -0.247 C  
HETATM   23  C   UNL     1     -10.108  13.892  65.857  1.00  0.00    -0.331 C  
HETATM   24  O   UNL     1     -10.688  15.564  67.500  1.00  0.00    -0.288 OA 
ENDBRANCH  21  22
ENDBRANCH  17  21
ENDBRANCH  11  12
ENDBRANCH  10  11
ENDBRANCH   7  10
ENDBRANCH   6   7
ENDBRANCH   4   6
ENDBRANCH   2   4
TORSDOF 8
ENDMDL
MODEL      226
REMARK 921   NORMALIZED FREE ENERGY PREDICTED BY IDOCK:   -2.86 KCAL/MOL
REMARK 922        TOTAL FREE ENERGY PREDICTED BY IDOCK:   -5.43 KCAL/MOL
REMARK 923 INTER-LIGAND FREE ENERGY PREDICTED BY IDOCK:   -5.31 KCAL/MOL
REMARK 924 INTRA-LIGAND FREE ENERGY PREDICTED BY IDOCK:   -0.12 KCAL/MOL
REMARK 927      BINDING AFFINITY PREDICTED BY RF-SCORE:    0.00 PKD
ROOT
HETATM    1  C   UNL     1      -6.519  15.724  69.464  1.00  0.00    -0.177 C  
HETATM    2  C   UNL     1      -6.222  14.539  68.543  1.00  0.00    -0.089 C  
HETATM    3  C   UNL     1      -5.320  13.539  69.270  1.00  0.00    -0.074 C  
ENDROOT
BRANCH   2   4
HETATM    4  N   UNL     1      -7.499  13.937  68.145  1.00  0.00    -0.111 NA 
HETATM    5  H   UNL     1      -8.037  14.578  67.563  1.00  0.00     0.000 HD 
BRANCH   4   6
HETATM    6  C   UNL     1      -7.341  12.636  67.484  1.00  0.00    -0.151 C  
BRANCH   6   7
HETATM    7  C   UNL     1      -8.311  11.598  68.082  1.00  0.00    -0.154 C  
HETATM    8  O   UNL     1      -7.894  11.260  69.411  1.00  0.00    -0.355 OA 
HETATM    9  H   UNL     1      -8.492  10.619  69.780  1.00  0.00     0.000 HD 
BRANCH   7  10
HETATM   10  C   UNL     1      -9.743  12.151  68.109  1.00  0.00    -0.208 C  
BRANCH  10  11
HETATM   11  O   UNL     1     -10.643  11.090  67.743  1.00  0.00    -0.188 OA 
BRANCH  11  12
HETATM   12  C   UNL     1     -10.895  10.157  68.712  1.00  0.00    -0.225 A  
HETATM   13  C   UNL     1     -11.723  10.543  69.782  1.00  0.00    -0.354 A  
HETATM   14  C   UNL     1     -12.014   9.604  70.800  1.00  0.00    -0.356 A  
HETATM   15  C   UNL     1     -12.265  11.950  69.855  1.00  0.00    -0.269 C  
HETATM   16  C   UNL     1     -12.918   9.938  71.963  1.00  0.00    -0.518 C  
HETATM   17  C   UNL     1     -11.424   8.316  70.750  1.00  0.00    -0.252 A  
HETATM   18  C   UNL     1     -10.523   7.965  69.739  1.00  0.00    -0.233 A  
HETATM   19  C   UNL     1      -9.762   6.674  69.686  1.00  0.00    -0.162 C  
HETATM   20  C   UNL     1     -10.303   8.888  68.708  1.00  0.00    -0.232 A  
BRANCH  17  21
HETATM   21  O   UNL     1     -11.692   7.493  71.883  1.00  0.00    -0.267 OA 
BRANCH  21  22
HETATM   22  C   UNL     1     -10.807   7.204  72.923  1.00  0.00    -0.323 C  
HETATM   23  C   UNL     1     -10.979   5.761  73.310  1.00  0.00    -0.292 C  
HETATM   24  O   UNL     1      -9.977   7.955  73.414  1.00  0.00    -0.314 OA 
ENDBRANCH  21  22
ENDBRANCH  17  21
ENDBRANCH  11  12
ENDBRANCH  10  11
ENDBRANCH   7  10
ENDBRANCH   6   7
ENDBRANCH   4   6
ENDBRANCH   2   4
TORSDOF 8
ENDMDL
MODEL      227
REMARK 921   NORMALIZED FREE ENERGY PREDICTED BY IDOCK:   -2.84 KCAL/MOL
REMARK 922        TOTAL FREE ENERGY PREDICTED BY IDOCK:   -5.40 KCAL/MOL
REMARK 923 INTER-LIGAND FREE ENERGY PREDICTED BY IDOCK:   -4.62 KCAL/MOL
REMARK 924 INTRA-LIGAND FREE ENERGY PREDICTED BY IDOCK:   -0.78 KCAL/MOL
REMARK 927      BINDING AFFINITY PREDICTED BY RF-SCORE:    0.00 PKD
ROOT
HETATM    1  C   UNL     1     -14.400   7.294  71.537  1.00  0.00    -0.558 C  
HETATM    2  C   UNL     1     -12.954   7.767  71.376  1.00  0.00    -0.288 C  
HETATM    3  C   UNL     1     -12.683   8.924  72.341  1.00  0.00    -0.436 C  
ENDROOT
BRANCH   2   4
HETATM    4  N   UNL     1     -12.069   6.625  71.628  1.00  0.00    -0.346 NA 
HETATM    5  H   UNL     1     -12.267   5.861  70.981  1.00  0.00     0.000 HD 
BRANCH   4   6
HETATM    6  C   UNL     1     -10.646   6.981  71.597  1.00  0.00    -0.204 C  
BRANCH   6   7
HETATM    7  C   UNL     1      -9.828   5.902  70.861  1.00  0.00    -0.179 C  
HETATM    8  O   UNL     1     -10.226   4.601  71.317  1.00  0.00    -0.192 OA 
HETATM    9  H   UNL     1      -9.722   3.936  70.863  1.00  0.00     0.000 HD 
BRANCH   7  10
HETATM   10  C   UNL     1     -10.036   6.009  69.344  1.00  0.00    -0.192 C  
BRANCH  10  11
HETATM   11  O   UNL     1      -8.869   6.625  68.771  1.00  0.00    -0.127 OA 
BRANCH  11  12
HETATM   12  C   UNL     1      -8.896   7.991  68.682  1.00  0.00    -0.134 A  
HETATM   13  C   UNL     1      -7.803   8.695  69.223  1.00  0.00    -0.101 A  
HETATM   14  C   UNL     1      -7.789  10.108  69.144  1.00  0.00    -0.120 A  
HETATM   15  C   UNL     1      -6.681   7.951  69.905  1.00  0.00    -0.037 C  
HETATM   16  C   UNL     1      -6.637  10.928  69.675  1.00  0.00    -0.123 C  
HETATM   17  C   UNL     1      -8.895  10.785  68.571  1.00  0.00    -0.149 A  
HETATM   18  C   UNL     1     -10.024  10.091  68.124  1.00  0.00    -0.176 A  
HETATM   19  C   UNL     1     -11.281  10.739  67.627  1.00  0.00    -0.370 C  
HETATM   20  C   UNL     1      -9.986   8.691  68.153  1.00  0.00    -0.210 A  
BRANCH  17  21
HETATM   21  O   UNL     1      -8.827  12.207  68.649  1.00  0.00    -0.121 OA 
BRANCH  21  22
HETATM   22  C   UNL     1      -8.377  13.070  67.648  1.00  0.00    -0.181 C  
HETATM   23  C   UNL     1      -9.527  13.934  67.207  1.00  0.00    -0.239 C  
HETATM   24  O   UNL     1      -7.235  13.174  67.226  1.00  0.00    -0.136 OA 
ENDBRANCH  21  22
ENDBRANCH  17  21
ENDBRANCH  11  12
ENDBRANCH  10  11
ENDBRANCH   7  10
ENDBRANCH   6   7
ENDBRANCH   4   6
ENDBRANCH   2   4
TORSDOF 8
ENDMDL
MODEL      228
REMARK 921   NORMALIZED FREE ENERGY PREDICTED BY IDOCK:   -2.83 KCAL/MOL
REMARK 922        TOTAL FREE ENERGY PREDICTED BY IDOCK:   -5.39 KCAL/MOL
REMARK 923 INTER-LIGAND FREE ENERGY PREDICTED BY IDOCK:   -4.58 KCAL/MOL
REMARK 924 INTRA-LIGAND FREE ENERGY PREDICTED BY IDOCK:   -0.82 KCAL/MOL
REMARK 927      BINDING AFFINITY PREDICTED BY RF-SCORE:    0.00 PKD
ROOT
HETATM    1  C   UNL     1     -14.380   7.511  71.598  1.00  0.00    -0.621 C  
HETATM    2  C   UNL     1     -12.881   7.384  71.322  1.00  0.00    -0.321 C  
HETATM    3  C   UNL     1     -12.203   8.739  71.544  1.00  0.00    -0.382 C  
ENDROOT
BRANCH   2   4
HETATM    4  N   UNL     1     -12.338   6.349  72.208  1.00  0.00    -0.537 NA 
HETATM    5  H   UNL     1     -12.359   5.435  71.754  1.00  0.00     0.000 HD 
BRANCH   4   6
HETATM    6  C   UNL     1     -10.990   6.658  72.698  1.00  0.00    -0.255 C  
BRANCH   6   7
HETATM    7  C   UNL     1      -9.990   5.563  72.277  1.00  0.00    -0.174 C  
HETATM    8  O   UNL     1     -10.137   4.422  73.133  1.00  0.00    -0.139 OA 
HETATM    9  H   UNL     1      -9.520   3.747  72.874  1.00  0.00     0.000 HD 
BRANCH   7  10
HETATM   10  C   UNL     1     -10.224   5.153  70.817  1.00  0.00    -0.238 C  
BRANCH  10  11
HETATM   11  O   UNL     1      -9.058   5.514  70.054  1.00  0.00    -0.131 OA 
BRANCH  11  12
HETATM   12  C   UNL     1      -9.273   6.344  68.988  1.00  0.00    -0.129 A  
HETATM   13  C   UNL     1      -8.932   5.858  67.711  1.00  0.00    -0.111 A  
HETATM   14  C   UNL     1      -9.145   6.684  66.582  1.00  0.00    -0.159 A  
HETATM   15  C   UNL     1      -8.318   4.488  67.558  1.00  0.00    -0.100 C  
HETATM   16  C   UNL     1      -8.831   6.220  65.180  1.00  0.00     0.119 C  
HETATM   17  C   UNL     1      -9.646   7.998  66.764  1.00  0.00    -0.216 A  
HETATM   18  C   UNL     1      -9.892   8.515  68.040  1.00  0.00    -0.202 A  
HETATM   19  C   UNL     1     -10.298   9.931  68.322  1.00  0.00    -0.232 C  
HETATM   20  C   UNL     1      -9.735   7.657  69.136  1.00  0.00    -0.164 A  
BRANCH  17  21
HETATM   21  O   UNL     1      -9.712   8.780  65.574  1.00  0.00    -0.089 OA 
BRANCH  21  22
HETATM   22  C   UNL     1      -8.924   9.890  65.268  1.00  0.00    -0.191 C  
HETATM   23  C   UNL     1      -7.498   9.581  65.635  1.00  0.00    -0.094 C  
HETATM   24  O   UNL     1      -9.288  10.928  64.735  1.00  0.00    -0.210 OA 
ENDBRANCH  21  22
ENDBRANCH  17  21
ENDBRANCH  11  12
ENDBRANCH  10  11
ENDBRANCH   7  10
ENDBRANCH   6   7
ENDBRANCH   4   6
ENDBRANCH   2   4
TORSDOF 8
ENDMDL
MODEL      229
REMARK 921   NORMALIZED FREE ENERGY PREDICTED BY IDOCK:   -2.83 KCAL/MOL
REMARK 922        TOTAL FREE ENERGY PREDICTED BY IDOCK:   -5.39 KCAL/MOL
REMARK 923 INTER-LIGAND FREE ENERGY PREDICTED BY IDOCK:   -4.69 KCAL/MOL
REMARK 924 INTRA-LIGAND FREE ENERGY PREDICTED BY IDOCK:   -0.71 KCAL/MOL
REMARK 927      BINDING AFFINITY PREDICTED BY RF-SCORE:    0.00 PKD
ROOT
HETATM    1  C   UNL     1     -13.835   7.819  71.704  1.00  0.00    -0.465 C  
HETATM    2  C   UNL     1     -12.417   8.392  71.673  1.00  0.00    -0.328 C  
HETATM    3  C   UNL     1     -12.481   9.921  71.716  1.00  0.00    -0.487 C  
ENDROOT
BRANCH   2   4
HETATM    4  N   UNL     1     -11.676   7.843  72.814  1.00  0.00    -0.580 NA 
HETATM    5  H   UNL     1     -12.062   6.942  73.098  1.00  0.00     0.000 HD 
BRANCH   4   6
HETATM    6  C   UNL     1     -10.233   7.738  72.568  1.00  0.00    -0.260 C  
BRANCH   6   7
HETATM    7  C   UNL     1      -9.677   6.416  73.131  1.00  0.00    -0.160 C  
HETATM    8  O   UNL     1      -9.521   6.526  74.552  1.00  0.00    -0.214 OA 
HETATM    9  H   UNL     1      -9.177   5.711  74.900  1.00  0.00     0.000 HD 
BRANCH   7  10
HETATM   10  C   UNL     1     -10.618   5.250  72.799  1.00  0.00    -0.230 C  
BRANCH  10  11
HETATM   11  O   UNL     1      -9.871   4.263  72.065  1.00  0.00    -0.159 OA 
BRANCH  11  12
HETATM   12  C   UNL     1      -9.616   4.559  70.753  1.00  0.00    -0.183 A  
HETATM   13  C   UNL     1      -8.342   4.231  70.253  1.00  0.00    -0.081 A  
HETATM   14  C   UNL     1      -8.041   4.514  68.899  1.00  0.00    -0.077 A  
HETATM   15  C   UNL     1      -7.303   3.618  71.160  1.00  0.00    -0.033 C  
HETATM   16  C   UNL     1      -6.706   4.164  68.285  1.00  0.00    -0.047 C  
HETATM   17  C   UNL     1      -9.007   5.166  68.092  1.00  0.00    -0.110 A  
HETATM   18  C   UNL     1     -10.236   5.579  68.616  1.00  0.00    -0.261 A  
HETATM   19  C   UNL     1     -11.254   6.385  67.865  1.00  0.00    -0.262 C  
HETATM   20  C   UNL     1     -10.535   5.231  69.938  1.00  0.00    -0.351 A  
BRANCH  17  21
HETATM   21  O   UNL     1      -8.557   5.505  66.782  1.00  0.00    -0.111 OA 
BRANCH  21  22
HETATM   22  C   UNL     1      -8.109   6.758  66.359  1.00  0.00    -0.110 C  
HETATM   23  C   UNL     1      -6.868   6.567  65.530  1.00  0.00    -0.048 C  
HETATM   24  O   UNL     1      -8.647   7.837  66.559  1.00  0.00    -0.130 OA 
ENDBRANCH  21  22
ENDBRANCH  17  21
ENDBRANCH  11  12
ENDBRANCH  10  11
ENDBRANCH   7  10
ENDBRANCH   6   7
ENDBRANCH   4   6
ENDBRANCH   2   4
TORSDOF 8
ENDMDL
MODEL      230
REMARK 921   NORMALIZED FREE ENERGY PREDICTED BY IDOCK:   -2.83 KCAL/MOL
REMARK 922        TOTAL FREE ENERGY PREDICTED BY IDOCK:   -5.38 KCAL/MOL
REMARK 923 INTER-LIGAND FREE ENERGY PREDICTED BY IDOCK:   -4.75 KCAL/MOL
REMARK 924 INTRA-LIGAND FREE ENERGY PREDICTED BY IDOCK:   -0.63 KCAL/MOL
REMARK 927      BINDING AFFINITY PREDICTED BY RF-SCORE:    0.00 PKD
ROOT
HETATM    1  C   UNL     1     -13.333   9.533  71.833  1.00  0.00    -0.518 C  
HETATM    2  C   UNL     1     -12.073  10.304  71.436  1.00  0.00    -0.362 C  
HETATM    3  C   UNL     1     -10.946   9.317  71.124  1.00  0.00    -0.409 C  
ENDROOT
BRANCH   2   4
HETATM    4  N   UNL     1     -12.397  11.149  70.282  1.00  0.00    -0.318 NA 
HETATM    5  H   UNL     1     -13.290  10.876  69.871  1.00  0.00     0.000 HD 
BRANCH   4   6
HETATM    6  C   UNL     1     -12.381  12.582  70.594  1.00  0.00    -0.282 C  
BRANCH   6   7
HETATM    7  C   UNL     1     -12.119  13.415  69.323  1.00  0.00    -0.264 C  
HETATM    8  O   UNL     1     -12.005  14.802  69.672  1.00  0.00    -0.290 OA 
HETATM    9  H   UNL     1     -11.843  15.315  68.889  1.00  0.00     0.000 HD 
BRANCH   7  10
HETATM   10  C   UNL     1     -10.836  12.945  68.626  1.00  0.00    -0.258 C  
BRANCH  10  11
HETATM   11  O   UNL     1     -11.207  12.176  67.468  1.00  0.00    -0.260 OA 
BRANCH  11  12
HETATM   12  C   UNL     1     -10.466  11.049  67.234  1.00  0.00    -0.231 A  
HETATM   13  C   UNL     1      -9.165  11.225  66.725  1.00  0.00    -0.186 A  
HETATM   14  C   UNL     1      -8.365  10.084  66.477  1.00  0.00    -0.126 A  
HETATM   15  C   UNL     1      -8.648  12.609  66.421  1.00  0.00     0.152 C  
HETATM   16  C   UNL     1      -6.950  10.196  65.960  1.00  0.00    -0.117 C  
HETATM   17  C   UNL     1      -8.906   8.792  66.694  1.00  0.00    -0.131 A  
HETATM   18  C   UNL     1     -10.231   8.616  67.105  1.00  0.00    -0.353 A  
HETATM   19  C   UNL     1     -10.914   7.286  67.233  1.00  0.00    -0.284 C  
HETATM   20  C   UNL     1     -10.981   9.759  67.407  1.00  0.00    -0.176 A  
BRANCH  17  21
HETATM   21  O   UNL     1      -8.056   7.717  66.302  1.00  0.00    -0.105 OA 
BRANCH  21  22
HETATM   22  C   UNL     1      -7.279   6.925  67.149  1.00  0.00    -0.085 C  
HETATM   23  C   UNL     1      -7.342   7.502  68.536  1.00  0.00    -0.099 C  
HETATM   24  O   UNL     1      -6.687   5.896  66.856  1.00  0.00    -0.054 OA 
ENDBRANCH  21  22
ENDBRANCH  17  21
ENDBRANCH  11  12
ENDBRANCH  10  11
ENDBRANCH   7  10
ENDBRANCH   6   7
ENDBRANCH   4   6
ENDBRANCH   2   4
TORSDOF 8
ENDMDL
MODEL      231
REMARK 921   NORMALIZED FREE ENERGY PREDICTED BY IDOCK:   -2.82 KCAL/MOL
REMARK 922        TOTAL FREE ENERGY PREDICTED BY IDOCK:   -5.37 KCAL/MOL
REMARK 923 INTER-LIGAND FREE ENERGY PREDICTED BY IDOCK:   -5.01 KCAL/MOL
REMARK 924 INTRA-LIGAND FREE ENERGY PREDICTED BY IDOCK:   -0.37 KCAL/MOL
REMARK 927      BINDING AFFINITY PREDICTED BY RF-SCORE:    0.00 PKD
ROOT
HETATM    1  C   UNL     1     -12.772  14.770  70.125  1.00  0.00    -0.264 C  
HETATM    2  C   UNL     1     -12.997  14.238  71.541  1.00  0.00    -0.340 C  
HETATM    3  C   UNL     1     -14.368  14.693  72.048  1.00  0.00    -0.642 C  
ENDROOT
BRANCH   2   4
HETATM    4  N   UNL     1     -12.885  12.775  71.505  1.00  0.00    -0.328 NA 
HETATM    5  H   UNL     1     -13.804  12.339  71.571  1.00  0.00     0.000 HD 
BRANCH   4   6
HETATM    6  C   UNL     1     -12.155  12.282  70.331  1.00  0.00    -0.300 C  
BRANCH   6   7
HETATM    7  C   UNL     1     -11.646  10.846  70.568  1.00  0.00    -0.300 C  
HETATM    8  O   UNL     1     -12.726  10.022  71.026  1.00  0.00    -0.331 OA 
HETATM    9  H   UNL     1     -12.412   9.137  71.173  1.00  0.00     0.000 HD 
BRANCH   7  10
HETATM   10  C   UNL     1     -11.055  10.264  69.277  1.00  0.00    -0.245 C  
BRANCH  10  11
HETATM   11  O   UNL     1      -9.823   9.598  69.605  1.00  0.00    -0.188 OA 
BRANCH  11  12
HETATM   12  C   UNL     1      -9.850   8.231  69.561  1.00  0.00    -0.181 A  
HETATM   13  C   UNL     1      -9.619   7.619  68.314  1.00  0.00    -0.160 A  
HETATM   14  C   UNL     1      -9.631   6.207  68.228  1.00  0.00    -0.122 A  
HETATM   15  C   UNL     1      -9.394   8.463  67.083  1.00  0.00    -0.192 C  
HETATM   16  C   UNL     1      -9.363   5.481  66.931  1.00  0.00    -0.129 C  
HETATM   17  C   UNL     1      -9.927   5.440  69.384  1.00  0.00    -0.210 A  
HETATM   18  C   UNL     1     -10.253   6.050  70.599  1.00  0.00    -0.260 A  
HETATM   19  C   UNL     1     -10.702   5.316  71.828  1.00  0.00    -0.240 C  
HETATM   20  C   UNL     1     -10.171   7.446  70.675  1.00  0.00    -0.202 A  
BRANCH  17  21
HETATM   21  O   UNL     1     -10.027   4.037  69.158  1.00  0.00    -0.087 OA 
BRANCH  21  22
HETATM   22  C   UNL     1      -9.233   3.046  69.738  1.00  0.00    -0.149 C  
HETATM   23  C   UNL     1      -7.855   3.608  69.963  1.00  0.00    -0.048 C  
HETATM   24  O   UNL     1      -9.584   1.926  70.076  1.00  0.00    -0.088 OA 
ENDBRANCH  21  22
ENDBRANCH  17  21
ENDBRANCH  11  12
ENDBRANCH  10  11
ENDBRANCH   7  10
ENDBRANCH   6   7
ENDBRANCH   4   6
ENDBRANCH   2   4
TORSDOF 8
ENDMDL
MODEL      232
REMARK 921   NORMALIZED FREE ENERGY PREDICTED BY IDOCK:   -2.80 KCAL/MOL
REMARK 922        TOTAL FREE ENERGY PREDICTED BY IDOCK:   -5.35 KCAL/MOL
REMARK 923 INTER-LIGAND FREE ENERGY PREDICTED BY IDOCK:   -4.53 KCAL/MOL
REMARK 924 INTRA-LIGAND FREE ENERGY PREDICTED BY IDOCK:   -0.83 KCAL/MOL
REMARK 927      BINDING AFFINITY PREDICTED BY RF-SCORE:    0.00 PKD
ROOT
HETATM    1  C   UNL     1      -7.863   9.253  63.278  1.00  0.00    -0.133 C  
HETATM    2  C   UNL     1      -6.687   8.829  64.159  1.00  0.00    -0.078 C  
HETATM    3  C   UNL     1      -5.422   9.569  63.717  1.00  0.00    -0.072 C  
ENDROOT
BRANCH   2   4
HETATM    4  N   UNL     1      -7.032   9.119  65.555  1.00  0.00    -0.080 NA 
HETATM    5  H   UNL     1      -7.846   9.732  65.608  1.00  0.00     0.000 HD 
BRANCH   4   6
HETATM    6  C   UNL     1      -7.235   7.911  66.362  1.00  0.00    -0.082 C  
BRANCH   6   7
HETATM    7  C   UNL     1      -8.525   7.181  65.940  1.00  0.00    -0.147 C  
HETATM    8  O   UNL     1      -8.428   5.792  66.285  1.00  0.00    -0.119 OA 
HETATM    9  H   UNL     1      -9.223   5.342  66.025  1.00  0.00     0.000 HD 
BRANCH   7  10
HETATM   10  C   UNL     1      -9.747   7.805  66.628  1.00  0.00    -0.222 C  
BRANCH  10  11
HETATM   11  O   UNL     1      -9.295   8.512  67.797  1.00  0.00    -0.136 OA 
BRANCH  11  12
HETATM   12  C   UNL     1     -10.035   9.604  68.160  1.00  0.00    -0.159 A  
HETATM   13  C   UNL     1     -10.608   9.597  69.446  1.00  0.00    -0.243 A  
HETATM   14  C   UNL     1     -11.375  10.712  69.863  1.00  0.00    -0.386 A  
HETATM   15  C   UNL     1     -10.432   8.402  70.351  1.00  0.00    -0.228 C  
HETATM   16  C   UNL     1     -11.995  10.788  71.238  1.00  0.00    -0.286 C  
HETATM   17  C   UNL     1     -11.593  11.784  68.962  1.00  0.00    -0.311 A  
HETATM   18  C   UNL     1     -11.106  11.746  67.651  1.00  0.00    -0.312 A  
HETATM   19  C   UNL     1     -11.401  12.777  66.602  1.00  0.00    -0.364 C  
HETATM   20  C   UNL     1     -10.296  10.664  67.284  1.00  0.00    -0.265 A  
BRANCH  17  21
HETATM   21  O   UNL     1     -12.472  12.797  69.443  1.00  0.00    -0.009 OA 
BRANCH  21  22
HETATM   22  C   UNL     1     -12.106  13.945  70.148  1.00  0.00    -0.349 C  
HETATM   23  C   UNL     1     -13.267  14.371  71.005  1.00  0.00    -0.395 C  
HETATM   24  O   UNL     1     -11.016  14.497  70.140  1.00  0.00    -0.151 OA 
ENDBRANCH  21  22
ENDBRANCH  17  21
ENDBRANCH  11  12
ENDBRANCH  10  11
ENDBRANCH   7  10
ENDBRANCH   6   7
ENDBRANCH   4   6
ENDBRANCH   2   4
TORSDOF 8
ENDMDL
MODEL      233
REMARK 921   NORMALIZED FREE ENERGY PREDICTED BY IDOCK:   -2.76 KCAL/MOL
REMARK 922        TOTAL FREE ENERGY PREDICTED BY IDOCK:   -5.29 KCAL/MOL
REMARK 923 INTER-LIGAND FREE ENERGY PREDICTED BY IDOCK:   -4.59 KCAL/MOL
REMARK 924 INTRA-LIGAND FREE ENERGY PREDICTED BY IDOCK:   -0.70 KCAL/MOL
REMARK 927      BINDING AFFINITY PREDICTED BY RF-SCORE:    0.00 PKD
ROOT
HETATM    1  C   UNL     1      -7.864   2.887  69.498  1.00  0.00    -0.049 C  
HETATM    2  C   UNL     1      -7.261   3.632  70.689  1.00  0.00    -0.037 C  
HETATM    3  C   UNL     1      -5.890   4.193  70.302  1.00  0.00    -0.017 C  
ENDROOT
BRANCH   2   4
HETATM    4  N   UNL     1      -8.193   4.692  71.087  1.00  0.00    -0.090 NA 
HETATM    5  H   UNL     1      -8.921   4.819  70.383  1.00  0.00     0.000 HD 
BRANCH   4   6
HETATM    6  C   UNL     1      -8.780   4.476  72.414  1.00  0.00    -0.117 C  
BRANCH   6   7
HETATM    7  C   UNL     1      -8.475   5.665  73.347  1.00  0.00    -0.116 C  
HETATM    8  O   UNL     1      -7.302   6.349  72.886  1.00  0.00    -0.092 OA 
HETATM    9  H   UNL     1      -7.114   7.082  73.461  1.00  0.00     0.000 HD 
BRANCH   7  10
HETATM   10  C   UNL     1      -9.663   6.635  73.389  1.00  0.00    -0.183 C  
BRANCH  10  11
HETATM   11  O   UNL     1     -10.293   6.635  72.096  1.00  0.00    -0.198 OA 
BRANCH  11  12
HETATM   12  C   UNL     1     -10.359   7.845  71.461  1.00  0.00    -0.201 A  
HETATM   13  C   UNL     1     -11.624   8.455  71.362  1.00  0.00    -0.332 A  
HETATM   14  C   UNL     1     -11.733   9.711  70.718  1.00  0.00    -0.390 A  
HETATM   15  C   UNL     1     -12.848   7.760  71.907  1.00  0.00    -0.317 C  
HETATM   16  C   UNL     1     -13.051  10.438  70.601  1.00  0.00    -0.293 C  
HETATM   17  C   UNL     1     -10.580  10.302  70.142  1.00  0.00    -0.246 A  
HETATM   18  C   UNL     1      -9.343   9.649  70.155  1.00  0.00    -0.294 A  
HETATM   19  C   UNL     1      -8.111  10.147  69.458  1.00  0.00    -0.176 C  
HETATM   20  C   UNL     1      -9.247   8.440  70.853  1.00  0.00    -0.192 A  
BRANCH  17  21
HETATM   21  O   UNL     1     -10.826  11.506  69.421  1.00  0.00    -0.210 OA 
BRANCH  21  22
HETATM   22  C   UNL     1     -11.380  11.608  68.144  1.00  0.00    -0.292 C  
HETATM   23  C   UNL     1     -11.007  10.378  67.361  1.00  0.00    -0.335 C  
HETATM   24  O   UNL     1     -12.102  12.500  67.724  1.00  0.00    -0.409 OA 
ENDBRANCH  21  22
ENDBRANCH  17  21
ENDBRANCH  11  12
ENDBRANCH  10  11
ENDBRANCH   7  10
ENDBRANCH   6   7
ENDBRANCH   4   6
ENDBRANCH   2   4
TORSDOF 8
ENDMDL
MODEL      234
REMARK 921   NORMALIZED FREE ENERGY PREDICTED BY IDOCK:   -2.76 KCAL/MOL
REMARK 922        TOTAL FREE ENERGY PREDICTED BY IDOCK:   -5.29 KCAL/MOL
REMARK 923 INTER-LIGAND FREE ENERGY PREDICTED BY IDOCK:   -4.93 KCAL/MOL
REMARK 924 INTRA-LIGAND FREE ENERGY PREDICTED BY IDOCK:   -0.37 KCAL/MOL
REMARK 927      BINDING AFFINITY PREDICTED BY RF-SCORE:    0.00 PKD
ROOT
HETATM    1  C   UNL     1     -11.195   4.366  73.542  1.00  0.00    -0.375 C  
HETATM    2  C   UNL     1     -10.171   5.407  73.996  1.00  0.00    -0.251 C  
HETATM    3  C   UNL     1      -8.901   4.701  74.477  1.00  0.00    -0.107 C  
ENDROOT
BRANCH   2   4
HETATM    4  N   UNL     1      -9.903   6.308  72.869  1.00  0.00    -0.166 NA 
HETATM    5  H   UNL     1     -10.192   5.883  71.988  1.00  0.00     0.000 HD 
BRANCH   4   6
HETATM    6  C   UNL     1     -10.509   7.634  73.034  1.00  0.00    -0.356 C  
BRANCH   6   7
HETATM    7  C   UNL     1     -11.910   7.678  72.393  1.00  0.00    -0.289 C  
HETATM    8  O   UNL     1     -12.681   8.729  72.991  1.00  0.00    -0.574 OA 
HETATM    9  H   UNL     1     -13.545   8.756  72.597  1.00  0.00     0.000 HD 
BRANCH   7  10
HETATM   10  C   UNL     1     -11.803   7.907  70.879  1.00  0.00    -0.229 C  
BRANCH  10  11
HETATM   11  O   UNL     1     -12.202   9.260  70.598  1.00  0.00    -0.193 OA 
BRANCH  11  12
HETATM   12  C   UNL     1     -11.598   9.852  69.523  1.00  0.00     0.001 A  
HETATM   13  C   UNL     1     -12.018  11.152  69.179  1.00  0.00    -0.413 A  
HETATM   14  C   UNL     1     -11.413  11.801  68.077  1.00  0.00    -0.388 A  
HETATM   15  C   UNL     1     -13.122  11.825  69.958  1.00  0.00     0.772 C  
HETATM   16  C   UNL     1     -11.792  13.205  67.668  1.00  0.00    -0.405 C  
HETATM   17  C   UNL     1     -10.437  11.114  67.312  1.00  0.00    -0.226 A  
HETATM   18  C   UNL     1     -10.091   9.788  67.594  1.00  0.00    -0.236 A  
HETATM   19  C   UNL     1      -9.167   8.953  66.758  1.00  0.00    -0.201 C  
HETATM   20  C   UNL     1     -10.655   9.190  68.728  1.00  0.00    -0.208 A  
BRANCH  17  21
HETATM   21  O   UNL     1      -9.980  11.816  66.160  1.00  0.00    -0.214 OA 
BRANCH  21  22
HETATM   22  C   UNL     1     -10.343  11.562  64.837  1.00  0.00    -0.289 C  
HETATM   23  C   UNL     1     -10.324  12.860  64.077  1.00  0.00    -0.346 C  
HETATM   24  O   UNL     1     -10.580  10.473  64.335  1.00  0.00    -0.235 OA 
ENDBRANCH  21  22
ENDBRANCH  17  21
ENDBRANCH  11  12
ENDBRANCH  10  11
ENDBRANCH   7  10
ENDBRANCH   6   7
ENDBRANCH   4   6
ENDBRANCH   2   4
TORSDOF 8
ENDMDL
MODEL      235
REMARK 921   NORMALIZED FREE ENERGY PREDICTED BY IDOCK:   -2.74 KCAL/MOL
REMARK 922        TOTAL FREE ENERGY PREDICTED BY IDOCK:   -5.26 KCAL/MOL
REMARK 923 INTER-LIGAND FREE ENERGY PREDICTED BY IDOCK:   -4.65 KCAL/MOL
REMARK 924 INTRA-LIGAND FREE ENERGY PREDICTED BY IDOCK:   -0.61 KCAL/MOL
REMARK 927      BINDING AFFINITY PREDICTED BY RF-SCORE:    0.00 PKD
ROOT
HETATM    1  C   UNL     1      -9.584   6.628  67.181  1.00  0.00    -0.168 C  
HETATM    2  C   UNL     1     -10.028   5.184  67.418  1.00  0.00    -0.180 C  
HETATM    3  C   UNL     1      -8.992   4.225  66.824  1.00  0.00    -0.125 C  
ENDROOT
BRANCH   2   4
HETATM    4  N   UNL     1     -10.192   4.986  68.862  1.00  0.00    -0.154 NA 
HETATM    5  H   UNL     1      -9.341   4.604  69.276  1.00  0.00     0.000 HD 
BRANCH   4   6
HETATM    6  C   UNL     1     -10.616   6.201  69.566  1.00  0.00    -0.287 C  
BRANCH   6   7
HETATM    7  C   UNL     1      -9.975   6.273  70.967  1.00  0.00    -0.182 C  
HETATM    8  O   UNL     1      -9.564   4.962  71.376  1.00  0.00    -0.151 OA 
HETATM    9  H   UNL     1      -9.169   5.006  72.239  1.00  0.00     0.000 HD 
BRANCH   7  10
HETATM   10  C   UNL     1      -8.768   7.220  70.959  1.00  0.00    -0.140 C  
BRANCH  10  11
HETATM   11  O   UNL     1      -9.209   8.518  71.394  1.00  0.00    -0.170 OA 
BRANCH  11  12
HETATM   12  C   UNL     1      -9.241   9.493  70.435  1.00  0.00    -0.253 A  
HETATM   13  C   UNL     1     -10.489  10.080  70.151  1.00  0.00    -0.338 A  
HETATM   14  C   UNL     1     -10.563  11.098  69.170  1.00  0.00    -0.238 A  
HETATM   15  C   UNL     1     -11.732   9.605  70.863  1.00  0.00    -0.412 C  
HETATM   16  C   UNL     1     -11.861  11.793  68.834  1.00  0.00    -0.381 C  
HETATM   17  C   UNL     1      -9.393  11.467  68.458  1.00  0.00    -0.180 A  
HETATM   18  C   UNL     1      -8.174  10.815  68.671  1.00  0.00    -0.139 A  
HETATM   19  C   UNL     1      -6.928  11.057  67.872  1.00  0.00    -0.073 C  
HETATM   20  C   UNL     1      -8.112   9.858  69.691  1.00  0.00    -0.171 A  
BRANCH  17  21
HETATM   21  O   UNL     1      -9.605  12.416  67.416  1.00  0.00    -0.179 OA 
BRANCH  21  22
HETATM   22  C   UNL     1      -9.864  13.778  67.577  1.00  0.00    -0.230 C  
HETATM   23  C   UNL     1     -10.822  14.213  66.501  1.00  0.00    -0.298 C  
HETATM   24  O   UNL     1      -9.450  14.506  68.467  1.00  0.00    -0.202 OA 
ENDBRANCH  21  22
ENDBRANCH  17  21
ENDBRANCH  11  12
ENDBRANCH  10  11
ENDBRANCH   7  10
ENDBRANCH   6   7
ENDBRANCH   4   6
ENDBRANCH   2   4
TORSDOF 8
ENDMDL
MODEL      236
REMARK 921   NORMALIZED FREE ENERGY PREDICTED BY IDOCK:   -2.70 KCAL/MOL
REMARK 922        TOTAL FREE ENERGY PREDICTED BY IDOCK:   -5.20 KCAL/MOL
REMARK 923 INTER-LIGAND FREE ENERGY PREDICTED BY IDOCK:   -4.49 KCAL/MOL
REMARK 924 INTRA-LIGAND FREE ENERGY PREDICTED BY IDOCK:   -0.71 KCAL/MOL
REMARK 927      BINDING AFFINITY PREDICTED BY RF-SCORE:    0.00 PKD
ROOT
HETATM    1  C   UNL     1     -12.073  14.510  64.412  1.00  0.00    -0.492 C  
HETATM    2  C   UNL     1     -12.618  13.105  64.675  1.00  0.00    -0.322 C  
HETATM    3  C   UNL     1     -11.917  12.103  63.754  1.00  0.00    -0.607 C  
ENDROOT
BRANCH   2   4
HETATM    4  N   UNL     1     -12.405  12.789  66.091  1.00  0.00    -0.531 NA 
HETATM    5  H   UNL     1     -13.266  12.450  66.521  1.00  0.00     0.000 HD 
BRANCH   4   6
HETATM    6  C   UNL     1     -11.303  11.846  66.312  1.00  0.00    -0.334 C  
BRANCH   6   7
HETATM    7  C   UNL     1     -10.257  12.443  67.275  1.00  0.00    -0.215 C  
HETATM    8  O   UNL     1     -10.847  13.517  68.020  1.00  0.00    -0.240 OA 
HETATM    9  H   UNL     1     -10.202  13.886  68.613  1.00  0.00     0.000 HD 
BRANCH   7  10
HETATM   10  C   UNL     1      -9.732  11.368  68.236  1.00  0.00    -0.202 C  
BRANCH  10  11
HETATM   11  O   UNL     1      -8.602  10.726  67.620  1.00  0.00    -0.122 OA 
BRANCH  11  12
HETATM   12  C   UNL     1      -8.377   9.427  67.987  1.00  0.00    -0.119 A  
HETATM   13  C   UNL     1      -7.908   8.546  66.993  1.00  0.00    -0.096 A  
HETATM   14  C   UNL     1      -7.657   7.196  67.334  1.00  0.00    -0.109 A  
HETATM   15  C   UNL     1      -7.709   9.033  65.578  1.00  0.00    -0.091 C  
HETATM   16  C   UNL     1      -7.125   6.202  66.329  1.00  0.00    -0.068 C  
HETATM   17  C   UNL     1      -7.931   6.746  68.650  1.00  0.00    -0.119 A  
HETATM   18  C   UNL     1      -8.490   7.597  69.610  1.00  0.00    -0.135 A  
HETATM   19  C   UNL     1      -8.926   7.167  70.979  1.00  0.00    -0.150 C  
HETATM   20  C   UNL     1      -8.668   8.943  69.268  1.00  0.00    -0.138 A  
BRANCH  17  21
HETATM   21  O   UNL     1      -7.752   5.347  68.851  1.00  0.00    -0.081 OA 
BRANCH  21  22
HETATM   22  C   UNL     1      -8.762   4.387  68.936  1.00  0.00    -0.086 C  
HETATM   23  C   UNL     1      -8.412   3.420  70.034  1.00  0.00    -0.094 C  
HETATM   24  O   UNL     1      -9.796   4.348  68.287  1.00  0.00    -0.138 OA 
ENDBRANCH  21  22
ENDBRANCH  17  21
ENDBRANCH  11  12
ENDBRANCH  10  11
ENDBRANCH   7  10
ENDBRANCH   6   7
ENDBRANCH   4   6
ENDBRANCH   2   4
TORSDOF 8
ENDMDL
MODEL      237
REMARK 921   NORMALIZED FREE ENERGY PREDICTED BY IDOCK:   -2.69 KCAL/MOL
REMARK 922        TOTAL FREE ENERGY PREDICTED BY IDOCK:   -5.19 KCAL/MOL
REMARK 923 INTER-LIGAND FREE ENERGY PREDICTED BY IDOCK:   -4.56 KCAL/MOL
REMARK 924 INTRA-LIGAND FREE ENERGY PREDICTED BY IDOCK:   -0.63 KCAL/MOL
REMARK 927      BINDING AFFINITY PREDICTED BY RF-SCORE:    0.00 PKD
ROOT
HETATM    1  C   UNL     1      -7.785   8.165  72.048  1.00  0.00    -0.136 C  
HETATM    2  C   UNL     1      -9.184   7.681  71.664  1.00  0.00    -0.134 C  
HETATM    3  C   UNL     1     -10.218   8.295  72.612  1.00  0.00    -0.368 C  
ENDROOT
BRANCH   2   4
HETATM    4  N   UNL     1      -9.432   8.056  70.268  1.00  0.00    -0.166 NA 
HETATM    5  H   UNL     1     -10.196   8.728  70.202  1.00  0.00     0.000 HD 
BRANCH   4   6
HETATM    6  C   UNL     1      -8.234   8.558  69.584  1.00  0.00    -0.115 C  
BRANCH   6   7
HETATM    7  C   UNL     1      -8.537   9.878  68.849  1.00  0.00    -0.135 C  
HETATM    8  O   UNL     1      -9.112  10.819  69.767  1.00  0.00    -0.368 OA 
HETATM    9  H   UNL     1      -9.300  11.633  69.314  1.00  0.00     0.000 HD 
BRANCH   7  10
HETATM   10  C   UNL     1      -7.256  10.462  68.239  1.00  0.00    -0.083 C  
BRANCH  10  11
HETATM   11  O   UNL     1      -7.609  11.156  67.029  1.00  0.00    -0.121 OA 
BRANCH  11  12
HETATM   12  C   UNL     1      -8.080  12.431  67.184  1.00  0.00    -0.167 A  
HETATM   13  C   UNL     1      -9.392  12.693  66.746  1.00  0.00    -0.232 A  
HETATM   14  C   UNL     1      -9.920  13.998  66.897  1.00  0.00    -0.263 A  
HETATM   15  C   UNL     1     -10.209  11.602  66.097  1.00  0.00    -0.263 C  
HETATM   16  C   UNL     1     -11.328  14.345  66.477  1.00  0.00    -0.353 C  
HETATM   17  C   UNL     1      -9.101  15.023  67.434  1.00  0.00    -0.186 A  
HETATM   18  C   UNL     1      -7.766  14.785  67.778  1.00  0.00    -0.170 A  
HETATM   19  C   UNL     1      -6.802  15.842  68.230  1.00  0.00    -0.121 C  
HETATM   20  C   UNL     1      -7.288  13.473  67.681  1.00  0.00    -0.180 A  
BRANCH  17  21
HETATM   21  O   UNL     1      -9.693  16.319  67.432  1.00  0.00    -0.230 OA 
BRANCH  21  22
HETATM   22  C   UNL     1      -9.690  17.232  68.489  1.00  0.00    -0.296 C  
HETATM   23  C   UNL     1     -10.267  16.559  69.704  1.00  0.00    -0.156 C  
HETATM   24  O   UNL     1      -9.244  18.370  68.477  1.00  0.00    -0.317 OA 
ENDBRANCH  21  22
ENDBRANCH  17  21
ENDBRANCH  11  12
ENDBRANCH  10  11
ENDBRANCH   7  10
ENDBRANCH   6   7
ENDBRANCH   4   6
ENDBRANCH   2   4
TORSDOF 8
ENDMDL
MODEL      238
REMARK 921   NORMALIZED FREE ENERGY PREDICTED BY IDOCK:   -2.66 KCAL/MOL
REMARK 922        TOTAL FREE ENERGY PREDICTED BY IDOCK:   -5.14 KCAL/MOL
REMARK 923 INTER-LIGAND FREE ENERGY PREDICTED BY IDOCK:   -6.47 KCAL/MOL
REMARK 924 INTRA-LIGAND FREE ENERGY PREDICTED BY IDOCK:    1.33 KCAL/MOL
REMARK 927      BINDING AFFINITY PREDICTED BY RF-SCORE:    0.00 PKD
ROOT
HETATM    1  C   UNL     1      -7.808  15.927  68.997  1.00  0.00    -0.216 C  
HETATM    2  C   UNL     1      -9.281  16.322  68.883  1.00  0.00    -0.249 C  
HETATM    3  C   UNL     1      -9.815  15.918  67.506  1.00  0.00    -0.230 C  
ENDROOT
BRANCH   2   4
HETATM    4  N   UNL     1     -10.017  15.667  69.969  1.00  0.00    -0.292 NA 
HETATM    5  H   UNL     1      -9.473  15.674  70.832  1.00  0.00     0.000 HD 
BRANCH   4   6
HETATM    6  C   UNL     1     -11.352  16.235  70.187  1.00  0.00    -0.282 C  
BRANCH   6   7
HETATM    7  C   UNL     1     -12.303  15.182  70.789  1.00  0.00    -0.360 C  
HETATM    8  O   UNL     1     -13.641  15.698  70.811  1.00  0.00    -0.827 OA 
HETATM    9  H   UNL     1     -14.228  15.049  71.182  1.00  0.00     0.000 HD 
BRANCH   7  10
HETATM   10  C   UNL     1     -12.258  13.885  69.970  1.00  0.00    -0.344 C  
BRANCH  10  11
HETATM   11  O   UNL     1     -12.248  12.774  70.885  1.00  0.00    -0.349 OA 
BRANCH  11  12
HETATM   12  C   UNL     1     -11.824  11.579  70.372  1.00  0.00    -0.320 A  
HETATM   13  C   UNL     1     -11.550  11.528  68.991  1.00  0.00    -0.383 A  
HETATM   14  C   UNL     1     -11.102  10.312  68.424  1.00  0.00    -0.302 A  
HETATM   15  C   UNL     1     -11.765  12.747  68.128  1.00  0.00    -0.392 C  
HETATM   16  C   UNL     1     -10.762  10.190  66.957  1.00  0.00    -0.264 C  
HETATM   17  C   UNL     1     -10.989   9.160  69.243  1.00  0.00    -0.061 A  
HETATM   18  C   UNL     1     -11.354   9.186  70.593  1.00  0.00    -0.323 A  
HETATM   19  C   UNL     1     -11.385   7.985  71.490  1.00  0.00    -0.299 C  
HETATM   20  C   UNL     1     -11.732  10.416  71.145  1.00  0.00    -0.387 A  
BRANCH  17  21
HETATM   21  O   UNL     1     -10.642   7.966  68.546  1.00  0.00    -0.187 OA 
BRANCH  21  22
HETATM   22  C   UNL     1      -9.501   7.189  68.753  1.00  0.00    -0.141 C  
HETATM   23  C   UNL     1      -8.359   7.801  67.987  1.00  0.00    -0.124 C  
HETATM   24  O   UNL     1      -9.399   6.210  69.477  1.00  0.00    -0.136 OA 
ENDBRANCH  21  22
ENDBRANCH  17  21
ENDBRANCH  11  12
ENDBRANCH  10  11
ENDBRANCH   7  10
ENDBRANCH   6   7
ENDBRANCH   4   6
ENDBRANCH   2   4
TORSDOF 8
ENDMDL
MODEL      239
REMARK 921   NORMALIZED FREE ENERGY PREDICTED BY IDOCK:   -2.65 KCAL/MOL
REMARK 922        TOTAL FREE ENERGY PREDICTED BY IDOCK:   -5.13 KCAL/MOL
REMARK 923 INTER-LIGAND FREE ENERGY PREDICTED BY IDOCK:   -4.53 KCAL/MOL
REMARK 924 INTRA-LIGAND FREE ENERGY PREDICTED BY IDOCK:   -0.60 KCAL/MOL
REMARK 927      BINDING AFFINITY PREDICTED BY RF-SCORE:    0.00 PKD
ROOT
HETATM    1  C   UNL     1     -13.043  10.544  72.040  1.00  0.00    -0.511 C  
HETATM    2  C   UNL     1     -12.729  10.635  70.546  1.00  0.00    -0.313 C  
HETATM    3  C   UNL     1     -12.208  12.036  70.216  1.00  0.00    -0.348 C  
ENDROOT
BRANCH   2   4
HETATM    4  N   UNL     1     -11.748   9.595  70.220  1.00  0.00    -0.421 NA 
HETATM    5  H   UNL     1     -11.308   9.780  69.318  1.00  0.00     0.000 HD 
BRANCH   4   6
HETATM    6  C   UNL     1     -10.737   9.407  71.266  1.00  0.00    -0.350 C  
BRANCH   6   7
HETATM    7  C   UNL     1     -10.288   7.934  71.334  1.00  0.00    -0.198 C  
HETATM    8  O   UNL     1     -11.416   7.076  71.116  1.00  0.00    -0.267 OA 
HETATM    9  H   UNL     1     -11.140   6.168  71.158  1.00  0.00     0.000 HD 
BRANCH   7  10
HETATM   10  C   UNL     1      -9.206   7.651  70.283  1.00  0.00    -0.157 C  
BRANCH  10  11
HETATM   11  O   UNL     1      -9.092   8.804  69.431  1.00  0.00    -0.143 OA 
BRANCH  11  12
HETATM   12  C   UNL     1      -8.648   8.568  68.159  1.00  0.00    -0.138 A  
HETATM   13  C   UNL     1      -9.300   9.244  67.110  1.00  0.00    -0.166 A  
HETATM   14  C   UNL     1      -8.865   9.032  65.780  1.00  0.00    -0.216 A  
HETATM   15  C   UNL     1     -10.467  10.156  67.403  1.00  0.00    -0.310 C  
HETATM   16  C   UNL     1      -9.498   9.745  64.608  1.00  0.00    -0.295 C  
HETATM   17  C   UNL     1      -7.821   8.108  65.526  1.00  0.00    -0.104 A  
HETATM   18  C   UNL     1      -7.240   7.363  66.558  1.00  0.00    -0.079 A  
HETATM   19  C   UNL     1      -6.225   6.277  66.358  1.00  0.00    -0.037 C  
HETATM   20  C   UNL     1      -7.642   7.638  67.871  1.00  0.00    -0.117 A  
BRANCH  17  21
HETATM   21  O   UNL     1      -7.544   7.887  64.146  1.00  0.00    -0.098 OA 
BRANCH  21  22
HETATM   22  C   UNL     1      -6.668   8.626  63.349  1.00  0.00    -0.089 C  
HETATM   23  C   UNL     1      -5.858   7.671  62.515  1.00  0.00    -0.059 C  
HETATM   24  O   UNL     1      -6.593   9.843  63.272  1.00  0.00    -0.114 OA 
ENDBRANCH  21  22
ENDBRANCH  17  21
ENDBRANCH  11  12
ENDBRANCH  10  11
ENDBRANCH   7  10
ENDBRANCH   6   7
ENDBRANCH   4   6
ENDBRANCH   2   4
TORSDOF 8
ENDMDL
MODEL      240
REMARK 921   NORMALIZED FREE ENERGY PREDICTED BY IDOCK:   -2.64 KCAL/MOL
REMARK 922        TOTAL FREE ENERGY PREDICTED BY IDOCK:   -5.12 KCAL/MOL
REMARK 923 INTER-LIGAND FREE ENERGY PREDICTED BY IDOCK:   -4.65 KCAL/MOL
REMARK 924 INTRA-LIGAND FREE ENERGY PREDICTED BY IDOCK:   -0.47 KCAL/MOL
REMARK 927      BINDING AFFINITY PREDICTED BY RF-SCORE:    0.00 PKD
ROOT
HETATM    1  C   UNL     1      -8.967   5.751  67.462  1.00  0.00    -0.107 C  
HETATM    2  C   UNL     1     -10.027   6.699  68.024  1.00  0.00    -0.142 C  
HETATM    3  C   UNL     1     -10.891   7.239  66.882  1.00  0.00    -0.265 C  
ENDROOT
BRANCH   2   4
HETATM    4  N   UNL     1     -10.824   5.962  69.012  1.00  0.00    -0.316 NA 
HETATM    5  H   UNL     1     -11.042   5.024  68.675  1.00  0.00     0.000 HD 
BRANCH   4   6
HETATM    6  C   UNL     1     -10.195   5.909  70.336  1.00  0.00    -0.213 C  
BRANCH   6   7
HETATM    7  C   UNL     1     -11.094   6.580  71.395  1.00  0.00    -0.268 C  
HETATM    8  O   UNL     1     -11.420   5.631  72.420  1.00  0.00    -0.285 OA 
HETATM    9  H   UNL     1     -11.974   6.044  73.072  1.00  0.00     0.000 HD 
BRANCH   7  10
HETATM   10  C   UNL     1     -10.385   7.793  72.013  1.00  0.00    -0.214 C  
BRANCH  10  11
HETATM   11  O   UNL     1      -9.323   8.193  71.130  1.00  0.00    -0.145 OA 
BRANCH  11  12
HETATM   12  C   UNL     1      -9.599   9.244  70.298  1.00  0.00    -0.235 A  
HETATM   13  C   UNL     1      -8.616   9.596  69.353  1.00  0.00    -0.160 A  
HETATM   14  C   UNL     1      -8.867  10.673  68.469  1.00  0.00    -0.148 A  
HETATM   15  C   UNL     1      -7.303   8.854  69.310  1.00  0.00    -0.070 C  
HETATM   16  C   UNL     1      -7.872  11.088  67.411  1.00  0.00    -0.118 C  
HETATM   17  C   UNL     1     -10.075  11.405  68.587  1.00  0.00    -0.210 A  
HETATM   18  C   UNL     1     -11.007  11.117  69.589  1.00  0.00    -0.254 A  
HETATM   19  C   UNL     1     -12.243  11.923  69.860  1.00  0.00    -0.269 C  
HETATM   20  C   UNL     1     -10.767  10.007  70.409  1.00  0.00    -0.369 A  
BRANCH  17  21
HETATM   21  O   UNL     1     -10.172  12.537  67.727  1.00  0.00    -0.208 OA 
BRANCH  21  22
HETATM   22  C   UNL     1      -9.802  13.847  68.037  1.00  0.00    -0.234 C  
HETATM   23  C   UNL     1     -10.971  14.531  68.693  1.00  0.00    -0.263 C  
HETATM   24  O   UNL     1      -8.706  14.360  67.874  1.00  0.00    -0.154 OA 
ENDBRANCH  21  22
ENDBRANCH  17  21
ENDBRANCH  11  12
ENDBRANCH  10  11
ENDBRANCH   7  10
ENDBRANCH   6   7
ENDBRANCH   4   6
ENDBRANCH   2   4
TORSDOF 8
ENDMDL
MODEL      241
REMARK 921   NORMALIZED FREE ENERGY PREDICTED BY IDOCK:   -2.63 KCAL/MOL
REMARK 922        TOTAL FREE ENERGY PREDICTED BY IDOCK:   -5.09 KCAL/MOL
REMARK 923 INTER-LIGAND FREE ENERGY PREDICTED BY IDOCK:   -4.45 KCAL/MOL
REMARK 924 INTRA-LIGAND FREE ENERGY PREDICTED BY IDOCK:   -0.64 KCAL/MOL
REMARK 927      BINDING AFFINITY PREDICTED BY RF-SCORE:    0.00 PKD
ROOT
HETATM    1  C   UNL     1     -12.937  10.630  70.990  1.00  0.00    -0.456 C  
HETATM    2  C   UNL     1     -11.639  10.691  70.183  1.00  0.00    -0.330 C  
HETATM    3  C   UNL     1     -10.738   9.516  70.571  1.00  0.00    -0.359 C  
ENDROOT
BRANCH   2   4
HETATM    4  N   UNL     1     -11.985  10.668  68.757  1.00  0.00    -0.736 NA 
HETATM    5  H   UNL     1     -12.973  10.885  68.619  1.00  0.00     0.000 HD 
BRANCH   4   6
HETATM    6  C   UNL     1     -11.138  11.548  67.944  1.00  0.00    -0.256 C  
BRANCH   6   7
HETATM    7  C   UNL     1     -11.162  11.116  66.465  1.00  0.00    -0.079 C  
HETATM    8  O   UNL     1     -11.094  12.275  65.623  1.00  0.00    -0.295 OA 
HETATM    9  H   UNL     1     -11.109  12.008  64.711  1.00  0.00     0.000 HD 
BRANCH   7  10
HETATM   10  C   UNL     1      -9.985  10.179  66.158  1.00  0.00    -0.246 C  
BRANCH  10  11
HETATM   11  O   UNL     1      -9.949   9.156  67.168  1.00  0.00    -0.185 OA 
BRANCH  11  12
HETATM   12  C   UNL     1      -9.204   8.046  66.871  1.00  0.00    -0.154 A  
HETATM   13  C   UNL     1      -9.840   6.794  66.976  1.00  0.00    -0.217 A  
HETATM   14  C   UNL     1      -9.106   5.623  66.670  1.00  0.00    -0.129 A  
HETATM   15  C   UNL     1     -11.274   6.706  67.440  1.00  0.00    -0.294 C  
HETATM   16  C   UNL     1      -9.730   4.249  66.731  1.00  0.00    -0.241 C  
HETATM   17  C   UNL     1      -7.738   5.730  66.316  1.00  0.00    -0.099 A  
HETATM   18  C   UNL     1      -7.081   6.965  66.308  1.00  0.00    -0.074 A  
HETATM   19  C   UNL     1      -5.611   7.147  66.072  1.00  0.00    -0.031 C  
HETATM   20  C   UNL     1      -7.843   8.114  66.550  1.00  0.00    -0.093 A  
BRANCH  17  21
HETATM   21  O   UNL     1      -7.068   4.484  66.142  1.00  0.00    -0.071 OA 
BRANCH  21  22
HETATM   22  C   UNL     1      -6.575   3.661  67.156  1.00  0.00    -0.042 C  
HETATM   23  C   UNL     1      -6.236   4.517  68.346  1.00  0.00    -0.032 C  
HETATM   24  O   UNL     1      -6.482   2.442  67.135  1.00  0.00    -0.033 OA 
ENDBRANCH  21  22
ENDBRANCH  17  21
ENDBRANCH  11  12
ENDBRANCH  10  11
ENDBRANCH   7  10
ENDBRANCH   6   7
ENDBRANCH   4   6
ENDBRANCH   2   4
TORSDOF 8
ENDMDL
MODEL      242
REMARK 921   NORMALIZED FREE ENERGY PREDICTED BY IDOCK:   -2.61 KCAL/MOL
REMARK 922        TOTAL FREE ENERGY PREDICTED BY IDOCK:   -5.07 KCAL/MOL
REMARK 923 INTER-LIGAND FREE ENERGY PREDICTED BY IDOCK:   -4.92 KCAL/MOL
REMARK 924 INTRA-LIGAND FREE ENERGY PREDICTED BY IDOCK:   -0.15 KCAL/MOL
REMARK 927      BINDING AFFINITY PREDICTED BY RF-SCORE:    0.00 PKD
ROOT
HETATM    1  C   UNL     1      -7.802  10.318  62.351  1.00  0.00    -0.165 C  
HETATM    2  C   UNL     1      -6.796   9.878  63.415  1.00  0.00    -0.125 C  
HETATM    3  C   UNL     1      -5.379   9.943  62.839  1.00  0.00    -0.093 C  
ENDROOT
BRANCH   2   4
HETATM    4  N   UNL     1      -6.953  10.751  64.583  1.00  0.00    -0.337 NA 
HETATM    5  H   UNL     1      -7.400  11.630  64.322  1.00  0.00     0.000 HD 
BRANCH   4   6
HETATM    6  C   UNL     1      -7.669  10.109  65.691  1.00  0.00    -0.143 C  
BRANCH   6   7
HETATM    7  C   UNL     1      -7.887   8.609  65.405  1.00  0.00    -0.101 C  
HETATM    8  O   UNL     1      -7.065   7.828  66.283  1.00  0.00    -0.067 OA 
HETATM    9  H   UNL     1      -7.199   6.904  66.107  1.00  0.00     0.000 HD 
BRANCH   7  10
HETATM   10  C   UNL     1      -9.362   8.232  65.599  1.00  0.00     0.052 C  
BRANCH  10  11
HETATM   11  O   UNL     1     -10.038   9.351  66.198  1.00  0.00    -0.292 OA 
BRANCH  11  12
HETATM   12  C   UNL     1     -10.391   9.205  67.512  1.00  0.00    -0.261 A  
HETATM   13  C   UNL     1     -10.990  10.309  68.148  1.00  0.00    -0.328 A  
HETATM   14  C   UNL     1     -11.376  10.195  69.505  1.00  0.00    -0.260 A  
HETATM   15  C   UNL     1     -11.185  11.605  67.398  1.00  0.00    -0.358 C  
HETATM   16  C   UNL     1     -12.049  11.327  70.244  1.00  0.00    -0.459 C  
HETATM   17  C   UNL     1     -11.105   8.994  70.208  1.00  0.00    -0.235 A  
HETATM   18  C   UNL     1     -10.423   7.933  69.604  1.00  0.00    -0.226 A  
HETATM   19  C   UNL     1      -9.987   6.686  70.315  1.00  0.00    -0.191 C  
HETATM   20  C   UNL     1     -10.110   8.045  68.244  1.00  0.00    -0.227 A  
BRANCH  17  21
HETATM   21  O   UNL     1     -11.430   9.031  71.596  1.00  0.00    -0.311 OA 
BRANCH  21  22
HETATM   22  C   UNL     1     -11.937   7.975  72.355  1.00  0.00    -0.350 C  
HETATM   23  C   UNL     1     -10.902   7.577  73.372  1.00  0.00    -0.339 C  
HETATM   24  O   UNL     1     -13.051   7.479  72.275  1.00  0.00    -0.102 OA 
ENDBRANCH  21  22
ENDBRANCH  17  21
ENDBRANCH  11  12
ENDBRANCH  10  11
ENDBRANCH   7  10
ENDBRANCH   6   7
ENDBRANCH   4   6
ENDBRANCH   2   4
TORSDOF 8
ENDMDL
MODEL      243
REMARK 921   NORMALIZED FREE ENERGY PREDICTED BY IDOCK:   -2.60 KCAL/MOL
REMARK 922        TOTAL FREE ENERGY PREDICTED BY IDOCK:   -5.05 KCAL/MOL
REMARK 923 INTER-LIGAND FREE ENERGY PREDICTED BY IDOCK:   -4.78 KCAL/MOL
REMARK 924 INTRA-LIGAND FREE ENERGY PREDICTED BY IDOCK:   -0.27 KCAL/MOL
REMARK 927      BINDING AFFINITY PREDICTED BY RF-SCORE:    0.00 PKD
ROOT
HETATM    1  C   UNL     1     -10.676   5.514  66.799  1.00  0.00    -0.329 C  
HETATM    2  C   UNL     1     -10.580   6.479  67.983  1.00  0.00    -0.251 C  
HETATM    3  C   UNL     1      -9.289   6.211  68.760  1.00  0.00    -0.123 C  
ENDROOT
BRANCH   2   4
HETATM    4  N   UNL     1     -10.632   7.849  67.462  1.00  0.00    -0.415 NA 
HETATM    5  H   UNL     1     -11.312   8.409  67.977  1.00  0.00     0.000 HD 
BRANCH   4   6
HETATM    6  C   UNL     1      -9.321   8.508  67.441  1.00  0.00    -0.148 C  
BRANCH   6   7
HETATM    7  C   UNL     1      -8.790   8.623  65.999  1.00  0.00    -0.178 C  
HETATM    8  O   UNL     1      -9.891   8.761  65.090  1.00  0.00    -0.230 OA 
HETATM    9  H   UNL     1      -9.564   8.832  64.201  1.00  0.00     0.000 HD 
BRANCH   7  10
HETATM   10  C   UNL     1      -7.850   9.829  65.865  1.00  0.00    -0.108 C  
BRANCH  10  11
HETATM   11  O   UNL     1      -7.810  10.512  67.130  1.00  0.00    -0.109 OA 
BRANCH  11  12
HETATM   12  C   UNL     1      -8.301  11.790  67.137  1.00  0.00    -0.168 A  
HETATM   13  C   UNL     1      -7.832  12.657  68.142  1.00  0.00    -0.145 A  
HETATM   14  C   UNL     1      -8.310  13.989  68.178  1.00  0.00    -0.164 A  
HETATM   15  C   UNL     1      -6.857  12.160  69.182  1.00  0.00    -0.078 C  
HETATM   16  C   UNL     1      -7.830  14.984  69.208  1.00  0.00    -0.190 C  
HETATM   17  C   UNL     1      -9.287  14.405  67.240  1.00  0.00    -0.208 A  
HETATM   18  C   UNL     1      -9.826  13.515  66.304  1.00  0.00    -0.306 A  
HETATM   19  C   UNL     1     -10.950  13.842  65.367  1.00  0.00    -0.309 C  
HETATM   20  C   UNL     1      -9.289  12.223  66.245  1.00  0.00    -0.206 A  
BRANCH  17  21
HETATM   21  O   UNL     1      -9.781  15.727  67.441  1.00  0.00    -0.221 OA 
BRANCH  21  22
HETATM   22  C   UNL     1     -10.787  16.108  68.330  1.00  0.00    -0.318 C  
HETATM   23  C   UNL     1     -11.822  15.017  68.379  1.00  0.00    -0.298 C  
HETATM   24  O   UNL     1     -10.819  17.119  69.015  1.00  0.00    -0.274 OA 
ENDBRANCH  21  22
ENDBRANCH  17  21
ENDBRANCH  11  12
ENDBRANCH  10  11
ENDBRANCH   7  10
ENDBRANCH   6   7
ENDBRANCH   4   6
ENDBRANCH   2   4
TORSDOF 8
ENDMDL
MODEL      244
REMARK 921   NORMALIZED FREE ENERGY PREDICTED BY IDOCK:   -2.60 KCAL/MOL
REMARK 922        TOTAL FREE ENERGY PREDICTED BY IDOCK:   -5.05 KCAL/MOL
REMARK 923 INTER-LIGAND FREE ENERGY PREDICTED BY IDOCK:   -4.73 KCAL/MOL
REMARK 924 INTRA-LIGAND FREE ENERGY PREDICTED BY IDOCK:   -0.32 KCAL/MOL
REMARK 927      BINDING AFFINITY PREDICTED BY RF-SCORE:    0.00 PKD
ROOT
HETATM    1  C   UNL     1      -8.626   9.215  64.040  1.00  0.00    -0.186 C  
HETATM    2  C   UNL     1      -9.266   9.903  65.247  1.00  0.00    -0.226 C  
HETATM    3  C   UNL     1     -10.178  11.035  64.767  1.00  0.00    -0.381 C  
ENDROOT
BRANCH   2   4
HETATM    4  N   UNL     1     -10.003   8.893  66.013  1.00  0.00    -0.431 NA 
HETATM    5  H   UNL     1     -10.872   8.642  65.541  1.00  0.00     0.000 HD 
BRANCH   4   6
HETATM    6  C   UNL     1      -9.205   7.698  66.310  1.00  0.00    -0.154 C  
BRANCH   6   7
HETATM    7  C   UNL     1      -8.815   7.658  67.801  1.00  0.00    -0.125 C  
HETATM    8  O   UNL     1      -7.415   7.935  67.941  1.00  0.00    -0.099 OA 
HETATM    9  H   UNL     1      -7.174   7.911  68.860  1.00  0.00     0.000 HD 
BRANCH   7  10
HETATM   10  C   UNL     1      -9.632   8.683  68.600  1.00  0.00    -0.155 C  
BRANCH  10  11
HETATM   11  O   UNL     1     -10.808   8.028  69.106  1.00  0.00    -0.152 OA 
BRANCH  11  12
HETATM   12  C   UNL     1     -10.595   7.065  70.055  1.00  0.00    -0.230 A  
HETATM   13  C   UNL     1     -10.528   7.484  71.398  1.00  0.00    -0.226 A  
HETATM   14  C   UNL     1     -10.317   6.517  72.410  1.00  0.00    -0.210 A  
HETATM   15  C   UNL     1     -10.646   8.948  71.744  1.00  0.00    -0.432 C  
HETATM   16  C   UNL     1     -10.262   6.889  73.873  1.00  0.00    -0.401 C  
HETATM   17  C   UNL     1     -10.126   5.160  72.049  1.00  0.00    -0.197 A  
HETATM   18  C   UNL     1     -10.095   4.759  70.709  1.00  0.00    -0.286 A  
HETATM   19  C   UNL     1      -9.772   3.371  70.242  1.00  0.00    -0.140 C  
HETATM   20  C   UNL     1     -10.371   5.722  69.730  1.00  0.00    -0.332 A  
BRANCH  17  21
HETATM   21  O   UNL     1      -9.806   4.294  73.135  1.00  0.00    -0.129 OA 
BRANCH  21  22
HETATM   22  C   UNL     1      -8.526   3.932  73.556  1.00  0.00    -0.088 C  
HETATM   23  C   UNL     1      -8.638   2.720  74.441  1.00  0.00    -0.071 C  
HETATM   24  O   UNL     1      -7.469   4.451  73.228  1.00  0.00    -0.074 OA 
ENDBRANCH  21  22
ENDBRANCH  17  21
ENDBRANCH  11  12
ENDBRANCH  10  11
ENDBRANCH   7  10
ENDBRANCH   6   7
ENDBRANCH   4   6
ENDBRANCH   2   4
TORSDOF 8
ENDMDL
MODEL      245
REMARK 921   NORMALIZED FREE ENERGY PREDICTED BY IDOCK:   -2.58 KCAL/MOL
REMARK 922        TOTAL FREE ENERGY PREDICTED BY IDOCK:   -5.02 KCAL/MOL
REMARK 923 INTER-LIGAND FREE ENERGY PREDICTED BY IDOCK:   -4.14 KCAL/MOL
REMARK 924 INTRA-LIGAND FREE ENERGY PREDICTED BY IDOCK:   -0.88 KCAL/MOL
REMARK 927      BINDING AFFINITY PREDICTED BY RF-SCORE:    0.00 PKD
ROOT
HETATM    1  C   UNL     1     -12.948  10.476  71.140  1.00  0.00    -0.506 C  
HETATM    2  C   UNL     1     -12.273  10.418  69.769  1.00  0.00    -0.097 C  
HETATM    3  C   UNL     1     -11.318  11.605  69.617  1.00  0.00    -0.308 C  
ENDROOT
BRANCH   2   4
HETATM    4  N   UNL     1     -11.573   9.134  69.656  1.00  0.00    -0.389 NA 
HETATM    5  H   UNL     1     -10.785   9.205  69.012  1.00  0.00     0.000 HD 
BRANCH   4   6
HETATM    6  C   UNL     1     -11.143   8.596  70.952  1.00  0.00    -0.264 C  
BRANCH   6   7
HETATM    7  C   UNL     1     -11.737   7.193  71.185  1.00  0.00    -0.313 C  
HETATM    8  O   UNL     1     -13.011   7.096  70.536  1.00  0.00    -0.581 OA 
HETATM    9  H   UNL     1     -13.378   6.231  70.679  1.00  0.00     0.000 HD 
BRANCH   7  10
HETATM   10  C   UNL     1     -10.792   6.111  70.645  1.00  0.00    -0.292 C  
BRANCH  10  11
HETATM   11  O   UNL     1      -9.854   6.736  69.752  1.00  0.00    -0.165 OA 
BRANCH  11  12
HETATM   12  C   UNL     1      -9.183   5.897  68.904  1.00  0.00    -0.119 A  
HETATM   13  C   UNL     1      -9.361   6.097  67.521  1.00  0.00    -0.113 A  
HETATM   14  C   UNL     1      -8.678   5.255  66.612  1.00  0.00    -0.113 A  
HETATM   15  C   UNL     1     -10.292   7.175  67.022  1.00  0.00    -0.368 C  
HETATM   16  C   UNL     1      -8.797   5.429  65.116  1.00  0.00    -0.111 C  
HETATM   17  C   UNL     1      -7.875   4.198  67.108  1.00  0.00    -0.096 A  
HETATM   18  C   UNL     1      -7.777   3.938  68.479  1.00  0.00    -0.061 A  
HETATM   19  C   UNL     1      -7.055   2.766  69.075  1.00  0.00    -0.044 C  
HETATM   20  C   UNL     1      -8.409   4.824  69.361  1.00  0.00    -0.079 A  
BRANCH  17  21
HETATM   21  O   UNL     1      -7.329   3.343  66.107  1.00  0.00    -0.070 OA 
BRANCH  21  22
HETATM   22  C   UNL     1      -5.977   3.189  65.797  1.00  0.00    -0.023 C  
HETATM   23  C   UNL     1      -5.691   1.722  65.619  1.00  0.00    -0.016 C  
HETATM   24  O   UNL     1      -5.154   4.077  65.630  1.00  0.00    -0.008 OA 
ENDBRANCH  21  22
ENDBRANCH  17  21
ENDBRANCH  11  12
ENDBRANCH  10  11
ENDBRANCH   7  10
ENDBRANCH   6   7
ENDBRANCH   4   6
ENDBRANCH   2   4
TORSDOF 8
ENDMDL
MODEL      246
REMARK 921   NORMALIZED FREE ENERGY PREDICTED BY IDOCK:   -2.52 KCAL/MOL
REMARK 922        TOTAL FREE ENERGY PREDICTED BY IDOCK:   -4.94 KCAL/MOL
REMARK 923 INTER-LIGAND FREE ENERGY PREDICTED BY IDOCK:   -4.31 KCAL/MOL
REMARK 924 INTRA-LIGAND FREE ENERGY PREDICTED BY IDOCK:   -0.63 KCAL/MOL
REMARK 927      BINDING AFFINITY PREDICTED BY RF-SCORE:    0.00 PKD
ROOT
HETATM    1  C   UNL     1     -13.090  12.101  71.726  1.00  0.00    -0.457 C  
HETATM    2  C   UNL     1     -12.983  11.557  70.301  1.00  0.00     0.259 C  
HETATM    3  C   UNL     1     -11.726  12.116  69.631  1.00  0.00    -0.396 C  
ENDROOT
BRANCH   2   4
HETATM    4  N   UNL     1     -12.961  10.092  70.370  1.00  0.00    -0.585 NA 
HETATM    5  H   UNL     1     -12.248   9.709  69.748  1.00  0.00     0.000 HD 
BRANCH   4   6
HETATM    6  C   UNL     1     -12.792   9.582  71.735  1.00  0.00    -0.406 C  
BRANCH   6   7
HETATM    7  C   UNL     1     -13.220   8.103  71.823  1.00  0.00    -0.341 C  
HETATM    8  O   UNL     1     -14.399   7.896  71.033  1.00  0.00    -0.662 OA 
HETATM    9  H   UNL     1     -14.663   6.984  71.086  1.00  0.00     0.000 HD 
BRANCH   7  10
HETATM   10  C   UNL     1     -12.093   7.186  71.329  1.00  0.00    -0.348 C  
BRANCH  10  11
HETATM   11  O   UNL     1     -10.961   8.005  70.989  1.00  0.00    -0.233 OA 
BRANCH  11  12
HETATM   12  C   UNL     1      -9.884   7.349  70.457  1.00  0.00    -0.180 A  
HETATM   13  C   UNL     1      -8.604   7.819  70.807  1.00  0.00    -0.133 A  
HETATM   14  C   UNL     1      -7.464   7.163  70.284  1.00  0.00    -0.085 A  
HETATM   15  C   UNL     1      -8.455   9.026  71.701  1.00  0.00    -0.030 C  
HETATM   16  C   UNL     1      -6.060   7.592  70.638  1.00  0.00    -0.034 C  
HETATM   17  C   UNL     1      -7.634   6.083  69.381  1.00  0.00    -0.097 A  
HETATM   18  C   UNL     1      -8.905   5.680  68.958  1.00  0.00    -0.106 A  
HETATM   19  C   UNL     1      -9.162   4.636  67.911  1.00  0.00    -0.154 C  
HETATM   20  C   UNL     1     -10.017   6.301  69.539  1.00  0.00    -0.198 A  
BRANCH  17  21
HETATM   21  O   UNL     1      -6.424   5.573  68.828  1.00  0.00    -0.039 OA 
BRANCH  21  22
HETATM   22  C   UNL     1      -6.166   5.336  67.477  1.00  0.00    -0.035 C  
HETATM   23  C   UNL     1      -5.896   6.654  66.803  1.00  0.00    -0.018 C  
HETATM   24  O   UNL     1      -6.101   4.251  66.919  1.00  0.00    -0.029 OA 
ENDBRANCH  21  22
ENDBRANCH  17  21
ENDBRANCH  11  12
ENDBRANCH  10  11
ENDBRANCH   7  10
ENDBRANCH   6   7
ENDBRANCH   4   6
ENDBRANCH   2   4
TORSDOF 8
ENDMDL
MODEL      247
REMARK 921   NORMALIZED FREE ENERGY PREDICTED BY IDOCK:   -2.52 KCAL/MOL
REMARK 922        TOTAL FREE ENERGY PREDICTED BY IDOCK:   -4.94 KCAL/MOL
REMARK 923 INTER-LIGAND FREE ENERGY PREDICTED BY IDOCK:   -4.33 KCAL/MOL
REMARK 924 INTRA-LIGAND FREE ENERGY PREDICTED BY IDOCK:   -0.61 KCAL/MOL
REMARK 927      BINDING AFFINITY PREDICTED BY RF-SCORE:    0.00 PKD
ROOT
HETATM    1  C   UNL     1      -8.785  10.739  62.530  1.00  0.00    -0.313 C  
HETATM    2  C   UNL     1      -7.920  10.031  63.574  1.00  0.00    -0.157 C  
HETATM    3  C   UNL     1      -6.450  10.096  63.150  1.00  0.00    -0.138 C  
ENDROOT
BRANCH   2   4
HETATM    4  N   UNL     1      -8.145  10.679  64.871  1.00  0.00    -0.333 NA 
HETATM    5  H   UNL     1      -9.003  11.230  64.858  1.00  0.00     0.000 HD 
BRANCH   4   6
HETATM    6  C   UNL     1      -8.146   9.735  65.994  1.00  0.00    -0.114 C  
BRANCH   6   7
HETATM    7  C   UNL     1      -8.698   8.364  65.555  1.00  0.00    -0.162 C  
HETATM    8  O   UNL     1      -7.651   7.385  65.604  1.00  0.00    -0.083 OA 
HETATM    9  H   UNL     1      -7.991   6.540  65.333  1.00  0.00     0.000 HD 
BRANCH   7  10
HETATM   10  C   UNL     1      -9.858   7.933  66.464  1.00  0.00    -0.202 C  
BRANCH  10  11
HETATM   11  O   UNL     1      -9.577   6.612  66.958  1.00  0.00    -0.138 OA 
BRANCH  11  12
HETATM   12  C   UNL     1      -9.793   6.413  68.294  1.00  0.00    -0.128 A  
HETATM   13  C   UNL     1      -8.819   5.688  69.007  1.00  0.00    -0.106 A  
HETATM   14  C   UNL     1      -9.003   5.467  70.392  1.00  0.00    -0.156 A  
HETATM   15  C   UNL     1      -7.613   5.129  68.292  1.00  0.00    -0.079 C  
HETATM   16  C   UNL     1      -7.986   4.725  71.227  1.00  0.00    -0.096 C  
HETATM   17  C   UNL     1     -10.185   5.932  71.022  1.00  0.00    -0.211 A  
HETATM   18  C   UNL     1     -11.198   6.565  70.294  1.00  0.00    -0.433 A  
HETATM   19  C   UNL     1     -12.528   6.969  70.859  1.00  0.00    -0.319 C  
HETATM   20  C   UNL     1     -10.964   6.830  68.939  1.00  0.00    -0.272 A  
BRANCH  17  21
HETATM   21  O   UNL     1     -10.320   5.554  72.389  1.00  0.00    -0.193 OA 
BRANCH  21  22
HETATM   22  C   UNL     1     -10.188   6.394  73.497  1.00  0.00    -0.248 C  
HETATM   23  C   UNL     1      -9.012   5.929  74.312  1.00  0.00    -0.124 C  
HETATM   24  O   UNL     1     -10.858   7.383  73.754  1.00  0.00    -0.321 OA 
ENDBRANCH  21  22
ENDBRANCH  17  21
ENDBRANCH  11  12
ENDBRANCH  10  11
ENDBRANCH   7  10
ENDBRANCH   6   7
ENDBRANCH   4   6
ENDBRANCH   2   4
TORSDOF 8
ENDMDL
MODEL      248
REMARK 921   NORMALIZED FREE ENERGY PREDICTED BY IDOCK:   -2.48 KCAL/MOL
REMARK 922        TOTAL FREE ENERGY PREDICTED BY IDOCK:   -4.87 KCAL/MOL
REMARK 923 INTER-LIGAND FREE ENERGY PREDICTED BY IDOCK:   -4.30 KCAL/MOL
REMARK 924 INTRA-LIGAND FREE ENERGY PREDICTED BY IDOCK:   -0.57 KCAL/MOL
REMARK 927      BINDING AFFINITY PREDICTED BY RF-SCORE:    0.00 PKD
ROOT
HETATM    1  C   UNL     1     -13.090  12.101  71.726  1.00  0.00    -0.457 C  
HETATM    2  C   UNL     1     -12.983  11.557  70.301  1.00  0.00     0.259 C  
HETATM    3  C   UNL     1     -11.726  12.116  69.631  1.00  0.00    -0.396 C  
ENDROOT
BRANCH   2   4
HETATM    4  N   UNL     1     -12.961  10.092  70.370  1.00  0.00    -0.585 NA 
HETATM    5  H   UNL     1     -12.248   9.709  69.748  1.00  0.00     0.000 HD 
BRANCH   4   6
HETATM    6  C   UNL     1     -12.792   9.582  71.735  1.00  0.00    -0.406 C  
BRANCH   6   7
HETATM    7  C   UNL     1     -13.220   8.103  71.823  1.00  0.00    -0.341 C  
HETATM    8  O   UNL     1     -14.399   7.896  71.033  1.00  0.00    -0.662 OA 
HETATM    9  H   UNL     1     -14.663   6.984  71.086  1.00  0.00     0.000 HD 
BRANCH   7  10
HETATM   10  C   UNL     1     -12.093   7.186  71.329  1.00  0.00    -0.348 C  
BRANCH  10  11
HETATM   11  O   UNL     1     -10.961   8.005  70.989  1.00  0.00    -0.233 OA 
BRANCH  11  12
HETATM   12  C   UNL     1      -9.884   7.349  70.457  1.00  0.00    -0.180 A  
HETATM   13  C   UNL     1      -9.801   7.273  69.054  1.00  0.00    -0.165 A  
HETATM   14  C   UNL     1      -8.698   6.609  68.466  1.00  0.00    -0.123 A  
HETATM   15  C   UNL     1     -10.891   7.865  68.194  1.00  0.00     0.002 C  
HETATM   16  C   UNL     1      -8.526   6.514  66.968  1.00  0.00    -0.113 C  
HETATM   17  C   UNL     1      -7.731   5.990  69.298  1.00  0.00    -0.095 A  
HETATM   18  C   UNL     1      -7.867   5.981  70.691  1.00  0.00    -0.106 A  
HETATM   19  C   UNL     1      -6.960   5.242  71.629  1.00  0.00    -0.066 C  
HETATM   20  C   UNL     1      -8.930   6.700  71.250  1.00  0.00    -0.144 A  
BRANCH  17  21
HETATM   21  O   UNL     1      -6.730   5.253  68.602  1.00  0.00    -0.047 OA 
BRANCH  21  22
HETATM   22  C   UNL     1      -6.322   3.947  68.877  1.00  0.00    -0.032 C  
HETATM   23  C   UNL     1      -7.362   2.999  68.347  1.00  0.00    -0.049 C  
HETATM   24  O   UNL     1      -5.275   3.598  69.401  1.00  0.00    -0.010 OA 
ENDBRANCH  21  22
ENDBRANCH  17  21
ENDBRANCH  11  12
ENDBRANCH  10  11
ENDBRANCH   7  10
ENDBRANCH   6   7
ENDBRANCH   4   6
ENDBRANCH   2   4
TORSDOF 8
ENDMDL
MODEL      249
REMARK 921   NORMALIZED FREE ENERGY PREDICTED BY IDOCK:   -2.47 KCAL/MOL
REMARK 922        TOTAL FREE ENERGY PREDICTED BY IDOCK:   -4.87 KCAL/MOL
REMARK 923 INTER-LIGAND FREE ENERGY PREDICTED BY IDOCK:   -4.43 KCAL/MOL
REMARK 924 INTRA-LIGAND FREE ENERGY PREDICTED BY IDOCK:   -0.43 KCAL/MOL
REMARK 927      BINDING AFFINITY PREDICTED BY RF-SCORE:    0.00 PKD
ROOT
HETATM    1  C   UNL     1      -6.225  13.078  69.935  1.00  0.00    -0.089 C  
HETATM    2  C   UNL     1      -6.696  13.264  68.492  1.00  0.00    -0.092 C  
HETATM    3  C   UNL     1      -5.966  14.454  67.864  1.00  0.00    -0.149 C  
ENDROOT
BRANCH   2   4
HETATM    4  N   UNL     1      -6.442  12.018  67.762  1.00  0.00    -0.076 NA 
HETATM    5  H   UNL     1      -5.728  11.461  68.232  1.00  0.00     0.000 HD 
BRANCH   4   6
HETATM    6  C   UNL     1      -7.655  11.226  67.532  1.00  0.00    -0.110 C  
BRANCH   6   7
HETATM    7  C   UNL     1      -7.988  11.162  66.028  1.00  0.00    -0.041 C  
HETATM    8  O   UNL     1      -7.364  10.010  65.445  1.00  0.00    -0.125 OA 
HETATM    9  H   UNL     1      -7.569   9.970  64.518  1.00  0.00     0.000 HD 
BRANCH   7  10
HETATM   10  C   UNL     1      -9.507  11.096  65.815  1.00  0.00    -0.221 C  
BRANCH  10  11
HETATM   11  O   UNL     1      -9.944   9.755  66.099  1.00  0.00    -0.244 OA 
BRANCH  11  12
HETATM   12  C   UNL     1     -10.368   9.522  67.379  1.00  0.00    -0.258 A  
HETATM   13  C   UNL     1     -10.182   8.225  67.895  1.00  0.00    -0.276 A  
HETATM   14  C   UNL     1     -10.601   7.945  69.218  1.00  0.00    -0.195 A  
HETATM   15  C   UNL     1      -9.573   7.144  67.035  1.00  0.00    -0.204 C  
HETATM   16  C   UNL     1     -10.407   6.587  69.848  1.00  0.00    -0.231 C  
HETATM   17  C   UNL     1     -11.245   8.957  69.974  1.00  0.00    -0.110 A  
HETATM   18  C   UNL     1     -11.518  10.215  69.426  1.00  0.00    -0.202 A  
HETATM   19  C   UNL     1     -12.306  11.290  70.114  1.00  0.00    -0.354 C  
HETATM   20  C   UNL     1     -11.036  10.488  68.140  1.00  0.00    -0.346 A  
BRANCH  17  21
HETATM   21  O   UNL     1     -11.727   8.533  71.246  1.00  0.00    -0.271 OA 
BRANCH  21  22
HETATM   22  C   UNL     1     -13.010   8.062  71.530  1.00  0.00    -0.303 C  
HETATM   23  C   UNL     1     -13.567   8.855  72.681  1.00  0.00    -0.395 C  
HETATM   24  O   UNL     1     -13.627   7.198  70.925  1.00  0.00    -0.139 OA 
ENDBRANCH  21  22
ENDBRANCH  17  21
ENDBRANCH  11  12
ENDBRANCH  10  11
ENDBRANCH   7  10
ENDBRANCH   6   7
ENDBRANCH   4   6
ENDBRANCH   2   4
TORSDOF 8
ENDMDL
MODEL      250
REMARK 921   NORMALIZED FREE ENERGY PREDICTED BY IDOCK:   -2.47 KCAL/MOL
REMARK 922        TOTAL FREE ENERGY PREDICTED BY IDOCK:   -4.86 KCAL/MOL
REMARK 923 INTER-LIGAND FREE ENERGY PREDICTED BY IDOCK:   -3.49 KCAL/MOL
REMARK 924 INTRA-LIGAND FREE ENERGY PREDICTED BY IDOCK:   -1.37 KCAL/MOL
REMARK 927      BINDING AFFINITY PREDICTED BY RF-SCORE:    0.00 PKD
ROOT
HETATM    1  C   UNL     1     -10.831   8.168  69.058  1.00  0.00    -0.014 C  
HETATM    2  C   UNL     1     -10.146   7.046  69.839  1.00  0.00    -0.193 C  
HETATM    3  C   UNL     1     -10.578   7.105  71.307  1.00  0.00    -0.230 C  
ENDROOT
BRANCH   2   4
HETATM    4  N   UNL     1     -10.502   5.768  69.215  1.00  0.00    -0.258 NA 
HETATM    5  H   UNL     1     -11.342   5.377  69.642  1.00  0.00     0.000 HD 
BRANCH   4   6
HETATM    6  C   UNL     1     -10.651   5.860  67.758  1.00  0.00    -0.259 C  
BRANCH   6   7
HETATM    7  C   UNL     1      -9.564   5.031  67.044  1.00  0.00    -0.152 C  
HETATM    8  O   UNL     1     -10.022   3.683  66.874  1.00  0.00    -0.357 OA 
HETATM    9  H   UNL     1      -9.352   3.171  66.434  1.00  0.00     0.000 HD 
BRANCH   7  10
HETATM   10  C   UNL     1      -9.228   5.645  65.678  1.00  0.00    -0.055 C  
BRANCH  10  11
HETATM   11  O   UNL     1      -7.953   6.303  65.781  1.00  0.00    -0.104 OA 
BRANCH  11  12
HETATM   12  C   UNL     1      -7.986   7.618  66.159  1.00  0.00    -0.110 A  
HETATM   13  C   UNL     1      -7.361   7.958  67.374  1.00  0.00    -0.092 A  
HETATM   14  C   UNL     1      -7.367   9.308  67.796  1.00  0.00    -0.084 A  
HETATM   15  C   UNL     1      -6.724   6.887  68.226  1.00  0.00    -0.068 C  
HETATM   16  C   UNL     1      -6.692   9.752  69.072  1.00  0.00    -0.049 C  
HETATM   17  C   UNL     1      -8.045  10.280  67.016  1.00  0.00    -0.121 A  
HETATM   18  C   UNL     1      -8.749   9.925  65.861  1.00  0.00    -0.154 A  
HETATM   19  C   UNL     1      -9.594  10.867  65.056  1.00  0.00    -0.299 C  
HETATM   20  C   UNL     1      -8.674   8.595  65.429  1.00  0.00    -0.208 A  
BRANCH  17  21
HETATM   21  O   UNL     1      -8.086  11.582  67.592  1.00  0.00    -0.120 OA 
BRANCH  21  22
HETATM   22  C   UNL     1      -9.177  12.168  68.237  1.00  0.00    -0.192 C  
HETATM   23  C   UNL     1      -9.190  13.638  67.915  1.00  0.00    -0.203 C  
HETATM   24  O   UNL     1     -10.030  11.601  68.903  1.00  0.00    -0.168 OA 
ENDBRANCH  21  22
ENDBRANCH  17  21
ENDBRANCH  11  12
ENDBRANCH  10  11
ENDBRANCH   7  10
ENDBRANCH   6   7
ENDBRANCH   4   6
ENDBRANCH   2   4
TORSDOF 8
ENDMDL
MODEL      251
REMARK 921   NORMALIZED FREE ENERGY PREDICTED BY IDOCK:   -2.40 KCAL/MOL
REMARK 922        TOTAL FREE ENERGY PREDICTED BY IDOCK:   -4.76 KCAL/MOL
REMARK 923 INTER-LIGAND FREE ENERGY PREDICTED BY IDOCK:   -4.36 KCAL/MOL
REMARK 924 INTRA-LIGAND FREE ENERGY PREDICTED BY IDOCK:   -0.40 KCAL/MOL
REMARK 927      BINDING AFFINITY PREDICTED BY RF-SCORE:    0.00 PKD
ROOT
HETATM    1  C   UNL     1      -8.588   8.628  68.839  1.00  0.00    -0.130 C  
HETATM    2  C   UNL     1      -7.640   8.662  70.039  1.00  0.00    -0.068 C  
HETATM    3  C   UNL     1      -6.258   8.160  69.614  1.00  0.00    -0.033 C  
ENDROOT
BRANCH   2   4
HETATM    4  N   UNL     1      -7.592  10.038  70.545  1.00  0.00    -0.409 NA 
HETATM    5  H   UNL     1      -7.686  10.055  71.561  1.00  0.00     0.000 HD 
BRANCH   4   6
HETATM    6  C   UNL     1      -6.392  10.768  70.118  1.00  0.00    -0.147 C  
BRANCH   6   7
HETATM    7  C   UNL     1      -6.769  11.955  69.210  1.00  0.00    -0.099 C  
HETATM    8  O   UNL     1      -5.912  13.069  69.494  1.00  0.00    -0.095 OA 
HETATM    9  H   UNL     1      -6.144  13.801  68.934  1.00  0.00     0.000 HD 
BRANCH   7  10
HETATM   10  C   UNL     1      -6.644  11.563  67.731  1.00  0.00    -0.068 C  
BRANCH  10  11
HETATM   11  O   UNL     1      -7.896  10.997  67.307  1.00  0.00    -0.114 OA 
BRANCH  11  12
HETATM   12  C   UNL     1      -8.701  11.814  66.560  1.00  0.00    -0.173 A  
HETATM   13  C   UNL     1      -9.062  11.367  65.275  1.00  0.00    -0.087 A  
HETATM   14  C   UNL     1      -9.899  12.180  64.474  1.00  0.00    -0.151 A  
HETATM   15  C   UNL     1      -8.534  10.053  64.750  1.00  0.00    -0.180 C  
HETATM   16  C   UNL     1     -10.352  11.753  63.098  1.00  0.00    -0.364 C  
HETATM   17  C   UNL     1     -10.313  13.446  64.960  1.00  0.00    -0.347 A  
HETATM   18  C   UNL     1      -9.873  13.932  66.196  1.00  0.00    -0.316 A  
HETATM   19  C   UNL     1     -10.160  15.308  66.720  1.00  0.00    -0.262 C  
HETATM   20  C   UNL     1      -9.100  13.083  66.996  1.00  0.00    -0.230 A  
BRANCH  17  21
HETATM   21  O   UNL     1     -11.055  14.228  64.027  1.00  0.00    -0.036 OA 
BRANCH  21  22
HETATM   22  C   UNL     1     -12.249  14.905  64.281  1.00  0.00    -0.344 C  
HETATM   23  C   UNL     1     -13.159  13.997  65.061  1.00  0.00    -0.008 C  
HETATM   24  O   UNL     1     -12.515  16.061  63.987  1.00  0.00    -0.703 OA 
ENDBRANCH  21  22
ENDBRANCH  17  21
ENDBRANCH  11  12
ENDBRANCH  10  11
ENDBRANCH   7  10
ENDBRANCH   6   7
ENDBRANCH   4   6
ENDBRANCH   2   4
TORSDOF 8
ENDMDL
MODEL      252
REMARK 921   NORMALIZED FREE ENERGY PREDICTED BY IDOCK:   -2.37 KCAL/MOL
REMARK 922        TOTAL FREE ENERGY PREDICTED BY IDOCK:   -4.72 KCAL/MOL
REMARK 923 INTER-LIGAND FREE ENERGY PREDICTED BY IDOCK:   -4.02 KCAL/MOL
REMARK 924 INTRA-LIGAND FREE ENERGY PREDICTED BY IDOCK:   -0.70 KCAL/MOL
REMARK 927      BINDING AFFINITY PREDICTED BY RF-SCORE:    0.00 PKD
ROOT
HETATM    1  C   UNL     1      -6.989  16.531  69.235  1.00  0.00    -0.227 C  
HETATM    2  C   UNL     1      -7.236  15.651  68.009  1.00  0.00    -0.129 C  
HETATM    3  C   UNL     1      -6.073  14.670  67.838  1.00  0.00    -0.162 C  
ENDROOT
BRANCH   2   4
HETATM    4  N   UNL     1      -8.515  14.957  68.192  1.00  0.00    -0.141 NA 
HETATM    5  H   UNL     1      -9.299  15.586  68.013  1.00  0.00     0.000 HD 
BRANCH   4   6
HETATM    6  C   UNL     1      -8.630  13.736  67.387  1.00  0.00    -0.203 C  
BRANCH   6   7
HETATM    7  C   UNL     1      -9.090  12.549  68.256  1.00  0.00    -0.183 C  
HETATM    8  O   UNL     1     -10.152  12.971  69.123  1.00  0.00    -0.417 OA 
HETATM    9  H   UNL     1     -10.436  12.240  69.659  1.00  0.00     0.000 HD 
BRANCH   7  10
HETATM   10  C   UNL     1      -9.568  11.388  67.373  1.00  0.00    -0.174 C  
BRANCH  10  11
HETATM   11  O   UNL     1      -8.606  10.324  67.468  1.00  0.00    -0.119 OA 
BRANCH  11  12
HETATM   12  C   UNL     1      -8.812   9.417  68.473  1.00  0.00    -0.128 A  
HETATM   13  C   UNL     1      -7.830   9.331  69.478  1.00  0.00    -0.086 A  
HETATM   14  C   UNL     1      -8.009   8.411  70.538  1.00  0.00    -0.098 A  
HETATM   15  C   UNL     1      -6.589  10.188  69.404  1.00  0.00    -0.054 C  
HETATM   16  C   UNL     1      -7.013   8.284  71.666  1.00  0.00    -0.079 C  
HETATM   17  C   UNL     1      -9.144   7.560  70.538  1.00  0.00    -0.156 A  
HETATM   18  C   UNL     1     -10.068   7.577  69.488  1.00  0.00    -0.189 A  
HETATM   19  C   UNL     1     -11.218   6.625  69.351  1.00  0.00    -0.356 C  
HETATM   20  C   UNL     1      -9.903   8.541  68.486  1.00  0.00    -0.186 A  
BRANCH  17  21
HETATM   21  O   UNL     1      -9.164   6.596  71.587  1.00  0.00    -0.146 OA 
BRANCH  21  22
HETATM   22  C   UNL     1     -10.121   6.493  72.598  1.00  0.00    -0.174 C  
HETATM   23  C   UNL     1     -10.603   5.069  72.658  1.00  0.00    -0.274 C  
HETATM   24  O   UNL     1     -10.482   7.375  73.363  1.00  0.00    -0.335 OA 
ENDBRANCH  21  22
ENDBRANCH  17  21
ENDBRANCH  11  12
ENDBRANCH  10  11
ENDBRANCH   7  10
ENDBRANCH   6   7
ENDBRANCH   4   6
ENDBRANCH   2   4
TORSDOF 8
ENDMDL
MODEL      253
REMARK 921   NORMALIZED FREE ENERGY PREDICTED BY IDOCK:   -2.37 KCAL/MOL
REMARK 922        TOTAL FREE ENERGY PREDICTED BY IDOCK:   -4.71 KCAL/MOL
REMARK 923 INTER-LIGAND FREE ENERGY PREDICTED BY IDOCK:   -4.18 KCAL/MOL
REMARK 924 INTRA-LIGAND FREE ENERGY PREDICTED BY IDOCK:   -0.53 KCAL/MOL
REMARK 927      BINDING AFFINITY PREDICTED BY RF-SCORE:    0.00 PKD
ROOT
HETATM    1  C   UNL     1      -8.331   6.966  65.320  1.00  0.00    -0.102 C  
HETATM    2  C   UNL     1      -7.140   6.192  65.886  1.00  0.00    -0.070 C  
HETATM    3  C   UNL     1      -6.127   7.173  66.482  1.00  0.00    -0.039 C  
ENDROOT
BRANCH   2   4
HETATM    4  N   UNL     1      -7.642   5.248  66.890  1.00  0.00    -0.088 NA 
HETATM    5  H   UNL     1      -7.378   5.542  67.830  1.00  0.00     0.000 HD 
BRANCH   4   6
HETATM    6  C   UNL     1      -9.090   5.025  66.799  1.00  0.00    -0.118 C  
BRANCH   6   7
HETATM    7  C   UNL     1      -9.607   4.277  68.043  1.00  0.00    -0.147 C  
HETATM    8  O   UNL     1      -9.722   2.878  67.750  1.00  0.00    -0.304 OA 
HETATM    9  H   UNL     1     -10.041   2.416  68.517  1.00  0.00     0.000 HD 
BRANCH   7  10
HETATM   10  C   UNL     1      -8.657   4.485  69.231  1.00  0.00    -0.078 C  
BRANCH  10  11
HETATM   11  O   UNL     1      -9.425   4.980  70.341  1.00  0.00    -0.148 OA 
BRANCH  11  12
HETATM   12  C   UNL     1      -9.614   6.335  70.383  1.00  0.00    -0.165 A  
HETATM   13  C   UNL     1     -10.674   6.816  71.175  1.00  0.00    -0.261 A  
HETATM   14  C   UNL     1     -10.898   8.211  71.249  1.00  0.00    -0.278 A  
HETATM   15  C   UNL     1     -11.576   5.851  71.905  1.00  0.00    -0.255 C  
HETATM   16  C   UNL     1     -11.997   8.802  72.101  1.00  0.00    -0.436 C  
HETATM   17  C   UNL     1     -10.087   9.090  70.487  1.00  0.00    -0.215 A  
HETATM   18  C   UNL     1      -9.098   8.605  69.625  1.00  0.00    -0.149 A  
HETATM   19  C   UNL     1      -8.289   9.457  68.692  1.00  0.00    -0.117 C  
HETATM   20  C   UNL     1      -8.853   7.226  69.618  1.00  0.00    -0.141 A  
BRANCH  17  21
HETATM   21  O   UNL     1     -10.474  10.460  70.547  1.00  0.00    -0.122 OA 
BRANCH  21  22
HETATM   22  C   UNL     1     -11.567  11.041  69.903  1.00  0.00    -0.337 C  
HETATM   23  C   UNL     1     -11.401  10.858  68.419  1.00  0.00    -0.370 C  
HETATM   24  O   UNL     1     -12.540  11.561  70.429  1.00  0.00    -0.239 OA 
ENDBRANCH  21  22
ENDBRANCH  17  21
ENDBRANCH  11  12
ENDBRANCH  10  11
ENDBRANCH   7  10
ENDBRANCH   6   7
ENDBRANCH   4   6
ENDBRANCH   2   4
TORSDOF 8
ENDMDL
MODEL      254
REMARK 921   NORMALIZED FREE ENERGY PREDICTED BY IDOCK:   -2.30 KCAL/MOL
REMARK 922        TOTAL FREE ENERGY PREDICTED BY IDOCK:   -4.61 KCAL/MOL
REMARK 923 INTER-LIGAND FREE ENERGY PREDICTED BY IDOCK:   -4.16 KCAL/MOL
REMARK 924 INTRA-LIGAND FREE ENERGY PREDICTED BY IDOCK:   -0.45 KCAL/MOL
REMARK 927      BINDING AFFINITY PREDICTED BY RF-SCORE:    0.00 PKD
ROOT
HETATM    1  C   UNL     1     -10.421   8.891  71.997  1.00  0.00    -0.383 C  
HETATM    2  C   UNL     1     -11.243   7.611  72.159  1.00  0.00    -0.284 C  
HETATM    3  C   UNL     1     -12.624   7.806  71.528  1.00  0.00    -0.356 C  
ENDROOT
BRANCH   2   4
HETATM    4  N   UNL     1     -10.505   6.509  71.532  1.00  0.00    -0.212 NA 
HETATM    5  H   UNL     1     -10.639   5.641  72.051  1.00  0.00     0.000 HD 
BRANCH   4   6
HETATM    6  C   UNL     1     -10.833   6.328  70.114  1.00  0.00    -0.313 C  
BRANCH   6   7
HETATM    7  C   UNL     1      -9.665   6.787  69.219  1.00  0.00    -0.151 C  
HETATM    8  O   UNL     1      -9.116   5.657  68.528  1.00  0.00    -0.114 OA 
HETATM    9  H   UNL     1      -8.395   5.940  67.976  1.00  0.00     0.000 HD 
BRANCH   7  10
HETATM   10  C   UNL     1     -10.142   7.837  68.207  1.00  0.00    -0.192 C  
BRANCH  10  11
HETATM   11  O   UNL     1      -9.013   8.242  67.412  1.00  0.00    -0.132 OA 
BRANCH  11  12
HETATM   12  C   UNL     1      -9.055   9.517  66.917  1.00  0.00    -0.135 A  
HETATM   13  C   UNL     1      -8.012  10.389  67.285  1.00  0.00    -0.110 A  
HETATM   14  C   UNL     1      -8.016  11.714  66.788  1.00  0.00    -0.140 A  
HETATM   15  C   UNL     1      -6.926   9.921  68.223  1.00  0.00    -0.072 C  
HETATM   16  C   UNL     1      -6.916  12.695  67.116  1.00  0.00    -0.031 C  
HETATM   17  C   UNL     1      -9.092  12.151  65.975  1.00  0.00    -0.056 A  
HETATM   18  C   UNL     1     -10.178  11.315  65.691  1.00  0.00    -0.304 A  
HETATM   19  C   UNL     1     -11.410  11.742  64.950  1.00  0.00    -0.299 C  
HETATM   20  C   UNL     1     -10.119   9.990  66.140  1.00  0.00    -0.317 A  
BRANCH  17  21
HETATM   21  O   UNL     1      -9.053  13.532  65.627  1.00  0.00     0.301 OA 
BRANCH  21  22
HETATM   22  C   UNL     1      -9.796  14.556  66.217  1.00  0.00    -0.304 C  
HETATM   23  C   UNL     1     -10.234  14.104  67.584  1.00  0.00    -0.241 C  
HETATM   24  O   UNL     1     -10.017  15.666  65.755  1.00  0.00    -0.311 OA 
ENDBRANCH  21  22
ENDBRANCH  17  21
ENDBRANCH  11  12
ENDBRANCH  10  11
ENDBRANCH   7  10
ENDBRANCH   6   7
ENDBRANCH   4   6
ENDBRANCH   2   4
TORSDOF 8
ENDMDL
MODEL      255
REMARK 921   NORMALIZED FREE ENERGY PREDICTED BY IDOCK:   -2.28 KCAL/MOL
REMARK 922        TOTAL FREE ENERGY PREDICTED BY IDOCK:   -4.58 KCAL/MOL
REMARK 923 INTER-LIGAND FREE ENERGY PREDICTED BY IDOCK:   -3.89 KCAL/MOL
REMARK 924 INTRA-LIGAND FREE ENERGY PREDICTED BY IDOCK:   -0.69 KCAL/MOL
REMARK 927      BINDING AFFINITY PREDICTED BY RF-SCORE:    0.00 PKD
ROOT
HETATM    1  C   UNL     1      -5.515   6.713  63.024  1.00  0.00    -0.031 C  
HETATM    2  C   UNL     1      -6.079   7.042  64.408  1.00  0.00    -0.037 C  
HETATM    3  C   UNL     1      -5.194   6.412  65.486  1.00  0.00    -0.014 C  
ENDROOT
BRANCH   2   4
HETATM    4  N   UNL     1      -6.147   8.502  64.539  1.00  0.00    -0.065 NA 
HETATM    5  H   UNL     1      -5.244   8.884  64.819  1.00  0.00     0.000 HD 
BRANCH   4   6
HETATM    6  C   UNL     1      -6.645   9.168  63.330  1.00  0.00    -0.090 C  
BRANCH   6   7
HETATM    7  C   UNL     1      -8.154   9.458  63.448  1.00  0.00    -0.153 C  
HETATM    8  O   UNL     1      -8.898   8.386  62.853  1.00  0.00    -0.424 OA 
HETATM    9  H   UNL     1      -9.829   8.564  62.925  1.00  0.00     0.000 HD 
BRANCH   7  10
HETATM   10  C   UNL     1      -8.559   9.620  64.919  1.00  0.00    -0.170 C  
BRANCH  10  11
HETATM   11  O   UNL     1      -8.756   8.310  65.480  1.00  0.00    -0.166 OA 
BRANCH  11  12
HETATM   12  C   UNL     1      -8.942   8.260  66.835  1.00  0.00    -0.146 A  
HETATM   13  C   UNL     1      -9.866   7.318  67.326  1.00  0.00    -0.224 A  
HETATM   14  C   UNL     1     -10.081   7.230  68.722  1.00  0.00    -0.179 A  
HETATM   15  C   UNL     1     -10.636   6.439  66.371  1.00  0.00    -0.009 C  
HETATM   16  C   UNL     1     -11.034   6.224  69.323  1.00  0.00    -0.435 C  
HETATM   17  C   UNL     1      -9.406   8.124  69.590  1.00  0.00    -0.159 A  
HETATM   18  C   UNL     1      -8.564   9.125  69.094  1.00  0.00    -0.133 A  
HETATM   19  C   UNL     1      -7.917  10.187  69.933  1.00  0.00    -0.149 C  
HETATM   20  C   UNL     1      -8.316   9.150  67.716  1.00  0.00    -0.117 A  
BRANCH  17  21
HETATM   21  O   UNL     1      -9.785   8.025  70.960  1.00  0.00    -0.159 OA 
BRANCH  21  22
HETATM   22  C   UNL     1     -10.935   8.560  71.542  1.00  0.00    -0.269 C  
HETATM   23  C   UNL     1     -11.408   7.620  72.618  1.00  0.00    -0.423 C  
HETATM   24  O   UNL     1     -11.457   9.635  71.287  1.00  0.00    -0.339 OA 
ENDBRANCH  21  22
ENDBRANCH  17  21
ENDBRANCH  11  12
ENDBRANCH  10  11
ENDBRANCH   7  10
ENDBRANCH   6   7
ENDBRANCH   4   6
ENDBRANCH   2   4
TORSDOF 8
ENDMDL
MODEL      256
REMARK 921   NORMALIZED FREE ENERGY PREDICTED BY IDOCK:   -2.27 KCAL/MOL
REMARK 922        TOTAL FREE ENERGY PREDICTED BY IDOCK:   -4.56 KCAL/MOL
REMARK 923 INTER-LIGAND FREE ENERGY PREDICTED BY IDOCK:   -3.81 KCAL/MOL
REMARK 924 INTRA-LIGAND FREE ENERGY PREDICTED BY IDOCK:   -0.75 KCAL/MOL
REMARK 927      BINDING AFFINITY PREDICTED BY RF-SCORE:    0.00 PKD
ROOT
HETATM    1  C   UNL     1      -8.112  10.233  62.349  1.00  0.00    -0.180 C  
HETATM    2  C   UNL     1      -7.005   9.971  63.372  1.00  0.00    -0.131 C  
HETATM    3  C   UNL     1      -5.666  10.462  62.816  1.00  0.00    -0.141 C  
ENDROOT
BRANCH   2   4
HETATM    4  N   UNL     1      -7.364  10.653  64.620  1.00  0.00    -0.354 NA 
HETATM    5  H   UNL     1      -8.355  10.895  64.630  1.00  0.00     0.000 HD 
BRANCH   4   6
HETATM    6  C   UNL     1      -6.999   9.890  65.819  1.00  0.00    -0.109 C  
BRANCH   6   7
HETATM    7  C   UNL     1      -6.949   8.380  65.512  1.00  0.00    -0.070 C  
HETATM    8  O   UNL     1      -5.606   7.902  65.668  1.00  0.00    -0.035 OA 
HETATM    9  H   UNL     1      -5.574   6.972  65.479  1.00  0.00     0.000 HD 
BRANCH   7  10
HETATM   10  C   UNL     1      -7.889   7.608  66.447  1.00  0.00    -0.094 C  
BRANCH  10  11
HETATM   11  O   UNL     1      -7.180   7.324  67.666  1.00  0.00    -0.085 OA 
BRANCH  11  12
HETATM   12  C   UNL     1      -7.953   7.004  68.749  1.00  0.00    -0.120 A  
HETATM   13  C   UNL     1      -8.081   7.975  69.761  1.00  0.00    -0.115 A  
HETATM   14  C   UNL     1      -8.878   7.685  70.894  1.00  0.00    -0.146 A  
HETATM   15  C   UNL     1      -7.351   9.291  69.649  1.00  0.00    -0.068 C  
HETATM   16  C   UNL     1      -9.086   8.688  72.004  1.00  0.00    -0.311 C  
HETATM   17  C   UNL     1      -9.486   6.410  71.012  1.00  0.00    -0.171 A  
HETATM   18  C   UNL     1      -9.278   5.412  70.054  1.00  0.00    -0.175 A  
HETATM   19  C   UNL     1      -9.778   4.002  70.170  1.00  0.00    -0.265 C  
HETATM   20  C   UNL     1      -8.540   5.744  68.911  1.00  0.00    -0.106 A  
BRANCH  17  21
HETATM   21  O   UNL     1     -10.168   6.187  72.243  1.00  0.00    -0.182 OA 
BRANCH  21  22
HETATM   22  C   UNL     1     -11.525   5.899  72.398  1.00  0.00    -0.306 C  
HETATM   23  C   UNL     1     -12.318   6.871  71.567  1.00  0.00    -0.420 C  
HETATM   24  O   UNL     1     -12.014   4.981  73.040  1.00  0.00    -0.226 OA 
ENDBRANCH  21  22
ENDBRANCH  17  21
ENDBRANCH  11  12
ENDBRANCH  10  11
ENDBRANCH   7  10
ENDBRANCH   6   7
ENDBRANCH   4   6
ENDBRANCH   2   4
TORSDOF 8
ENDMDL
MODEL      257
REMARK 921   NORMALIZED FREE ENERGY PREDICTED BY IDOCK:   -2.26 KCAL/MOL
REMARK 922        TOTAL FREE ENERGY PREDICTED BY IDOCK:   -4.55 KCAL/MOL
REMARK 923 INTER-LIGAND FREE ENERGY PREDICTED BY IDOCK:   -3.92 KCAL/MOL
REMARK 924 INTRA-LIGAND FREE ENERGY PREDICTED BY IDOCK:   -0.62 KCAL/MOL
REMARK 927      BINDING AFFINITY PREDICTED BY RF-SCORE:    0.00 PKD
ROOT
HETATM    1  C   UNL     1      -8.912  10.684  62.415  1.00  0.00    -0.329 C  
HETATM    2  C   UNL     1      -7.881  10.027  63.335  1.00  0.00    -0.151 C  
HETATM    3  C   UNL     1      -6.516  10.006  62.642  1.00  0.00    -0.121 C  
ENDROOT
BRANCH   2   4
HETATM    4  N   UNL     1      -7.845  10.779  64.594  1.00  0.00    -0.356 NA 
HETATM    5  H   UNL     1      -8.713  11.297  64.733  1.00  0.00     0.000 HD 
BRANCH   4   6
HETATM    6  C   UNL     1      -7.545   9.939  65.759  1.00  0.00    -0.113 C  
BRANCH   6   7
HETATM    7  C   UNL     1      -8.206   8.553  65.618  1.00  0.00    -0.130 C  
HETATM    8  O   UNL     1      -7.217   7.529  65.784  1.00  0.00    -0.064 OA 
HETATM    9  H   UNL     1      -7.624   6.674  65.697  1.00  0.00     0.000 HD 
BRANCH   7  10
HETATM   10  C   UNL     1      -9.319   8.378  66.661  1.00  0.00    -0.191 C  
BRANCH  10  11
HETATM   11  O   UNL     1      -9.004   7.230  67.468  1.00  0.00    -0.122 OA 
BRANCH  11  12
HETATM   12  C   UNL     1      -8.980   7.437  68.821  1.00  0.00    -0.129 A  
HETATM   13  C   UNL     1     -10.095   6.998  69.561  1.00  0.00    -0.179 A  
HETATM   14  C   UNL     1     -10.106   7.187  70.963  1.00  0.00    -0.199 A  
HETATM   15  C   UNL     1     -11.273   6.366  68.859  1.00  0.00    -0.385 C  
HETATM   16  C   UNL     1     -11.254   6.716  71.825  1.00  0.00    -0.299 C  
HETATM   17  C   UNL     1      -9.023   7.858  71.585  1.00  0.00    -0.138 A  
HETATM   18  C   UNL     1      -7.962   8.380  70.838  1.00  0.00    -0.112 A  
HETATM   19  C   UNL     1      -6.849   9.210  71.404  1.00  0.00    -0.041 C  
HETATM   20  C   UNL     1      -7.943   8.124  69.461  1.00  0.00    -0.113 A  
BRANCH  17  21
HETATM   21  O   UNL     1      -9.192   8.095  72.980  1.00  0.00    -0.247 OA 
BRANCH  21  22
HETATM   22  C   UNL     1      -8.398   7.585  74.009  1.00  0.00    -0.196 C  
HETATM   23  C   UNL     1      -8.962   6.257  74.436  1.00  0.00    -0.159 C  
HETATM   24  O   UNL     1      -7.376   8.078  74.464  1.00  0.00    -0.150 OA 
ENDBRANCH  21  22
ENDBRANCH  17  21
ENDBRANCH  11  12
ENDBRANCH  10  11
ENDBRANCH   7  10
ENDBRANCH   6   7
ENDBRANCH   4   6
ENDBRANCH   2   4
TORSDOF 8
ENDMDL
MODEL      258
REMARK 921   NORMALIZED FREE ENERGY PREDICTED BY IDOCK:   -2.20 KCAL/MOL
REMARK 922        TOTAL FREE ENERGY PREDICTED BY IDOCK:   -4.47 KCAL/MOL
REMARK 923 INTER-LIGAND FREE ENERGY PREDICTED BY IDOCK:   -4.85 KCAL/MOL
REMARK 924 INTRA-LIGAND FREE ENERGY PREDICTED BY IDOCK:    0.38 KCAL/MOL
REMARK 927      BINDING AFFINITY PREDICTED BY RF-SCORE:    0.00 PKD
ROOT
HETATM    1  C   UNL     1     -11.162   8.958  72.232  1.00  0.00    -0.269 C  
HETATM    2  C   UNL     1     -12.636   8.606  72.445  1.00  0.00    -0.362 C  
HETATM    3  C   UNL     1     -13.508   9.485  71.545  1.00  0.00    -0.444 C  
ENDROOT
BRANCH   2   4
HETATM    4  N   UNL     1     -12.813   7.179  72.157  1.00  0.00    -0.529 NA 
HETATM    5  H   UNL     1     -13.724   6.854  72.481  1.00  0.00     0.000 HD 
BRANCH   4   6
HETATM    6  C   UNL     1     -12.612   6.848  70.742  1.00  0.00    -0.122 C  
BRANCH   6   7
HETATM    7  C   UNL     1     -11.116   6.635  70.438  1.00  0.00    -0.322 C  
HETATM    8  O   UNL     1     -10.769   5.262  70.667  1.00  0.00    -0.230 OA 
HETATM    9  H   UNL     1      -9.846   5.131  70.480  1.00  0.00     0.000 HD 
BRANCH   7  10
HETATM   10  C   UNL     1     -10.801   7.017  68.985  1.00  0.00    -0.182 C  
BRANCH  10  11
HETATM   11  O   UNL     1      -9.478   7.579  68.944  1.00  0.00    -0.146 OA 
BRANCH  11  12
HETATM   12  C   UNL     1      -9.202   8.384  67.872  1.00  0.00    -0.135 A  
HETATM   13  C   UNL     1      -9.427   9.765  68.025  1.00  0.00    -0.144 A  
HETATM   14  C   UNL     1      -9.147  10.632  66.942  1.00  0.00    -0.168 A  
HETATM   15  C   UNL     1      -9.990  10.305  69.317  1.00  0.00    -0.244 C  
HETATM   16  C   UNL     1      -9.336  12.127  67.043  1.00  0.00    -0.201 C  
HETATM   17  C   UNL     1      -8.697  10.088  65.712  1.00  0.00    -0.145 A  
HETATM   18  C   UNL     1      -8.567   8.708  65.529  1.00  0.00    -0.200 A  
HETATM   19  C   UNL     1      -8.223   8.050  64.226  1.00  0.00    -0.070 C  
HETATM   20  C   UNL     1      -8.788   7.877  66.634  1.00  0.00    -0.166 A  
BRANCH  17  21
HETATM   21  O   UNL     1      -8.558  11.037  64.657  1.00  0.00    -0.052 OA 
BRANCH  21  22
HETATM   22  C   UNL     1      -9.492  11.302  63.654  1.00  0.00    -0.228 C  
HETATM   23  C   UNL     1     -10.868  11.030  64.197  1.00  0.00    -0.250 C  
HETATM   24  O   UNL     1      -9.267  11.743  62.537  1.00  0.00    -0.236 OA 
ENDBRANCH  21  22
ENDBRANCH  17  21
ENDBRANCH  11  12
ENDBRANCH  10  11
ENDBRANCH   7  10
ENDBRANCH   6   7
ENDBRANCH   4   6
ENDBRANCH   2   4
TORSDOF 8
ENDMDL
MODEL      259
REMARK 921   NORMALIZED FREE ENERGY PREDICTED BY IDOCK:   -2.20 KCAL/MOL
REMARK 922        TOTAL FREE ENERGY PREDICTED BY IDOCK:   -4.47 KCAL/MOL
REMARK 923 INTER-LIGAND FREE ENERGY PREDICTED BY IDOCK:   -4.12 KCAL/MOL
REMARK 924 INTRA-LIGAND FREE ENERGY PREDICTED BY IDOCK:   -0.34 KCAL/MOL
REMARK 927      BINDING AFFINITY PREDICTED BY RF-SCORE:    0.00 PKD
ROOT
HETATM    1  C   UNL     1      -7.054   9.526  67.766  1.00  0.00    -0.081 C  
HETATM    2  C   UNL     1      -6.052  10.635  67.440  1.00  0.00    -0.053 C  
HETATM    3  C   UNL     1      -5.716  10.600  65.947  1.00  0.00    -0.132 C  
ENDROOT
BRANCH   2   4
HETATM    4  N   UNL     1      -6.642  11.918  67.839  1.00  0.00    -0.069 NA 
HETATM    5  H   UNL     1      -7.472  11.773  68.414  1.00  0.00     0.000 HD 
BRANCH   4   6
HETATM    6  C   UNL     1      -5.689  12.807  68.513  1.00  0.00    -0.061 C  
BRANCH   6   7
HETATM    7  C   UNL     1      -6.335  13.467  69.746  1.00  0.00    -0.087 C  
HETATM    8  O   UNL     1      -6.046  12.690  70.916  1.00  0.00    -0.539 OA 
HETATM    9  H   UNL     1      -6.444  13.096  71.677  1.00  0.00     0.000 HD 
BRANCH   7  10
HETATM   10  C   UNL     1      -5.811  14.898  69.928  1.00  0.00    -0.123 C  
BRANCH  10  11
HETATM   11  O   UNL     1      -6.939  15.770  70.119  1.00  0.00     0.003 OA 
BRANCH  11  12
HETATM   12  C   UNL     1      -7.956  15.643  69.212  1.00  0.00    -0.237 A  
HETATM   13  C   UNL     1      -7.868  16.402  68.030  1.00  0.00    -0.159 A  
HETATM   14  C   UNL     1      -8.896  16.293  67.064  1.00  0.00    -0.228 A  
HETATM   15  C   UNL     1      -6.707  17.343  67.816  1.00  0.00    -0.172 C  
HETATM   16  C   UNL     1      -8.854  17.054  65.760  1.00  0.00     0.154 C  
HETATM   17  C   UNL     1     -10.015  15.464  67.328  1.00  0.00    -0.226 A  
HETATM   18  C   UNL     1     -10.150  14.787  68.544  1.00  0.00    -0.230 A  
HETATM   19  C   UNL     1     -11.360  13.997  68.950  1.00  0.00    -0.314 C  
HETATM   20  C   UNL     1      -9.090  14.859  69.456  1.00  0.00     0.018 A  
BRANCH  17  21
HETATM   21  O   UNL     1     -11.042  15.519  66.341  1.00  0.00    -0.283 OA 
BRANCH  21  22
HETATM   22  C   UNL     1     -11.571  14.437  65.636  1.00  0.00    -0.347 C  
HETATM   23  C   UNL     1     -10.496  13.876  64.744  1.00  0.00    -0.451 C  
HETATM   24  O   UNL     1     -12.691  13.962  65.747  1.00  0.00    -0.504 OA 
ENDBRANCH  21  22
ENDBRANCH  17  21
ENDBRANCH  11  12
ENDBRANCH  10  11
ENDBRANCH   7  10
ENDBRANCH   6   7
ENDBRANCH   4   6
ENDBRANCH   2   4
TORSDOF 8
ENDMDL
MODEL      260
REMARK 921   NORMALIZED FREE ENERGY PREDICTED BY IDOCK:   -2.14 KCAL/MOL
REMARK 922        TOTAL FREE ENERGY PREDICTED BY IDOCK:   -4.38 KCAL/MOL
REMARK 923 INTER-LIGAND FREE ENERGY PREDICTED BY IDOCK:   -4.06 KCAL/MOL
REMARK 924 INTRA-LIGAND FREE ENERGY PREDICTED BY IDOCK:   -0.31 KCAL/MOL
REMARK 927      BINDING AFFINITY PREDICTED BY RF-SCORE:    0.00 PKD
ROOT
HETATM    1  C   UNL     1     -11.933   9.178  70.648  1.00  0.00    -0.171 C  
HETATM    2  C   UNL     1     -11.960   8.466  72.001  1.00  0.00    -0.357 C  
HETATM    3  C   UNL     1     -13.222   8.869  72.767  1.00  0.00    -0.226 C  
ENDROOT
BRANCH   2   4
HETATM    4  N   UNL     1     -11.903   7.021  71.760  1.00  0.00    -0.296 NA 
HETATM    5  H   UNL     1     -12.823   6.596  71.881  1.00  0.00     0.000 HD 
BRANCH   4   6
HETATM    6  C   UNL     1     -11.336   6.675  70.452  1.00  0.00    -0.365 C  
BRANCH   6   7
HETATM    7  C   UNL     1      -9.923   6.079  70.609  1.00  0.00    -0.185 C  
HETATM    8  O   UNL     1     -10.021   4.715  71.040  1.00  0.00    -0.192 OA 
HETATM    9  H   UNL     1      -9.151   4.347  71.137  1.00  0.00     0.000 HD 
BRANCH   7  10
HETATM   10  C   UNL     1      -9.156   6.153  69.282  1.00  0.00    -0.129 C  
BRANCH  10  11
HETATM   11  O   UNL     1      -8.179   7.204  69.384  1.00  0.00    -0.128 OA 
BRANCH  11  12
HETATM   12  C   UNL     1      -8.344   8.261  68.531  1.00  0.00    -0.129 A  
HETATM   13  C   UNL     1      -7.433   8.380  67.464  1.00  0.00    -0.094 A  
HETATM   14  C   UNL     1      -7.574   9.456  66.556  1.00  0.00    -0.093 A  
HETATM   15  C   UNL     1      -6.303   7.390  67.315  1.00  0.00    -0.055 C  
HETATM   16  C   UNL     1      -6.653   9.631  65.372  1.00  0.00    -0.082 C  
HETATM   17  C   UNL     1      -8.594  10.418  66.768  1.00  0.00    -0.124 A  
HETATM   18  C   UNL     1      -9.437  10.354  67.882  1.00  0.00    -0.150 A  
HETATM   19  C   UNL     1     -10.450  11.399  68.245  1.00  0.00    -0.221 C  
HETATM   20  C   UNL     1      -9.319   9.245  68.730  1.00  0.00    -0.139 A  
BRANCH  17  21
HETATM   21  O   UNL     1      -8.572  11.518  65.862  1.00  0.00    -0.116 OA 
BRANCH  21  22
HETATM   22  C   UNL     1      -9.681  12.131  65.276  1.00  0.00    -0.141 C  
HETATM   23  C   UNL     1     -10.185  11.248  64.167  1.00  0.00    -0.391 C  
HETATM   24  O   UNL     1     -10.215  13.174  65.624  1.00  0.00    -0.281 OA 
ENDBRANCH  21  22
ENDBRANCH  17  21
ENDBRANCH  11  12
ENDBRANCH  10  11
ENDBRANCH   7  10
ENDBRANCH   6   7
ENDBRANCH   4   6
ENDBRANCH   2   4
TORSDOF 8
ENDMDL
MODEL      261
REMARK 921   NORMALIZED FREE ENERGY PREDICTED BY IDOCK:   -2.06 KCAL/MOL
REMARK 922        TOTAL FREE ENERGY PREDICTED BY IDOCK:   -4.27 KCAL/MOL
REMARK 923 INTER-LIGAND FREE ENERGY PREDICTED BY IDOCK:   -3.88 KCAL/MOL
REMARK 924 INTRA-LIGAND FREE ENERGY PREDICTED BY IDOCK:   -0.39 KCAL/MOL
REMARK 927      BINDING AFFINITY PREDICTED BY RF-SCORE:    0.00 PKD
ROOT
HETATM    1  C   UNL     1      -6.875  13.904  69.416  1.00  0.00    -0.065 C  
HETATM    2  C   UNL     1      -7.395  14.042  67.985  1.00  0.00    -0.141 C  
HETATM    3  C   UNL     1      -6.927  15.375  67.395  1.00  0.00    -0.222 C  
ENDROOT
BRANCH   2   4
HETATM    4  N   UNL     1      -6.907  12.898  67.207  1.00  0.00    -0.323 NA 
HETATM    5  H   UNL     1      -6.018  12.560  67.577  1.00  0.00     0.000 HD 
BRANCH   4   6
HETATM    6  C   UNL     1      -7.882  11.806  67.113  1.00  0.00    -0.166 C  
BRANCH   6   7
HETATM    7  C   UNL     1      -8.459  11.711  65.686  1.00  0.00     0.290 C  
HETATM    8  O   UNL     1      -7.575  10.940  64.861  1.00  0.00    -0.353 OA 
HETATM    9  H   UNL     1      -7.930  10.881  63.981  1.00  0.00     0.000 HD 
BRANCH   7  10
HETATM   10  C   UNL     1      -9.850  11.063  65.709  1.00  0.00    -0.235 C  
BRANCH  10  11
HETATM   11  O   UNL     1      -9.681   9.635  65.750  1.00  0.00    -0.244 OA 
BRANCH  11  12
HETATM   12  C   UNL     1      -9.593   9.077  66.997  1.00  0.00    -0.176 A  
HETATM   13  C   UNL     1      -8.785   7.933  67.138  1.00  0.00    -0.133 A  
HETATM   14  C   UNL     1      -8.662   7.330  68.412  1.00  0.00    -0.122 A  
HETATM   15  C   UNL     1      -8.087   7.342  65.936  1.00  0.00    -0.125 C  
HETATM   16  C   UNL     1      -7.790   6.119  68.645  1.00  0.00    -0.101 C  
HETATM   17  C   UNL     1      -9.394   7.857  69.506  1.00  0.00    -0.156 A  
HETATM   18  C   UNL     1     -10.273   8.934  69.345  1.00  0.00    -0.210 A  
HETATM   19  C   UNL     1     -11.176   9.464  70.418  1.00  0.00    -0.309 C  
HETATM   20  C   UNL     1     -10.327   9.552  68.090  1.00  0.00    -0.251 A  
BRANCH  17  21
HETATM   21  O   UNL     1      -9.286   7.106  70.712  1.00  0.00    -0.160 OA 
BRANCH  21  22
HETATM   22  C   UNL     1     -10.131   6.073  71.122  1.00  0.00    -0.194 C  
HETATM   23  C   UNL     1     -10.656   6.399  72.493  1.00  0.00    -0.240 C  
HETATM   24  O   UNL     1     -10.459   5.089  70.474  1.00  0.00    -0.240 OA 
ENDBRANCH  21  22
ENDBRANCH  17  21
ENDBRANCH  11  12
ENDBRANCH  10  11
ENDBRANCH   7  10
ENDBRANCH   6   7
ENDBRANCH   4   6
ENDBRANCH   2   4
TORSDOF 8
ENDMDL
MODEL      262
REMARK 921   NORMALIZED FREE ENERGY PREDICTED BY IDOCK:   -2.04 KCAL/MOL
REMARK 922        TOTAL FREE ENERGY PREDICTED BY IDOCK:   -4.24 KCAL/MOL
REMARK 923 INTER-LIGAND FREE ENERGY PREDICTED BY IDOCK:   -4.09 KCAL/MOL
REMARK 924 INTRA-LIGAND FREE ENERGY PREDICTED BY IDOCK:   -0.15 KCAL/MOL
REMARK 927      BINDING AFFINITY PREDICTED BY RF-SCORE:    0.00 PKD
ROOT
HETATM    1  C   UNL     1      -7.151  12.460  68.663  1.00  0.00    -0.103 C  
HETATM    2  C   UNL     1      -7.276  11.236  67.754  1.00  0.00    -0.088 C  
HETATM    3  C   UNL     1      -6.541  10.051  68.385  1.00  0.00    -0.054 C  
ENDROOT
BRANCH   2   4
HETATM    4  N   UNL     1      -8.703  10.954  67.559  1.00  0.00    -0.129 NA 
HETATM    5  H   UNL     1      -9.267  11.781  67.756  1.00  0.00     0.000 HD 
BRANCH   4   6
HETATM    6  C   UNL     1      -9.008  10.417  66.229  1.00  0.00    -0.155 C  
BRANCH   6   7
HETATM    7  C   UNL     1      -9.381   8.923  66.315  1.00  0.00    -0.219 C  
HETATM    8  O   UNL     1      -8.425   8.145  65.582  1.00  0.00    -0.141 OA 
HETATM    9  H   UNL     1      -8.655   7.225  65.634  1.00  0.00     0.000 HD 
BRANCH   7  10
HETATM   10  C   UNL     1      -9.419   8.460  67.777  1.00  0.00    -0.149 C  
BRANCH  10  11
HETATM   11  O   UNL     1     -10.596   7.654  67.965  1.00  0.00    -0.205 OA 
BRANCH  11  12
HETATM   12  C   UNL     1     -10.670   6.968  69.146  1.00  0.00    -0.218 A  
HETATM   13  C   UNL     1     -11.106   7.678  70.281  1.00  0.00    -0.256 A  
HETATM   14  C   UNL     1     -11.203   7.001  71.520  1.00  0.00    -0.279 A  
HETATM   15  C   UNL     1     -11.433   9.148  70.179  1.00  0.00    -0.110 C  
HETATM   16  C   UNL     1     -11.691   7.690  72.773  1.00  0.00    -0.276 C  
HETATM   17  C   UNL     1     -10.810   5.642  71.605  1.00  0.00    -0.237 A  
HETATM   18  C   UNL     1     -10.284   4.964  70.500  1.00  0.00    -0.288 A  
HETATM   19  C   UNL     1      -9.728   3.572  70.540  1.00  0.00    -0.187 C  
HETATM   20  C   UNL     1     -10.259   5.635  69.271  1.00  0.00    -0.309 A  
BRANCH  17  21
HETATM   21  O   UNL     1     -10.839   5.095  72.921  1.00  0.00    -0.229 OA 
BRANCH  21  22
HETATM   22  C   UNL     1      -9.733   4.722  73.687  1.00  0.00    -0.136 C  
HETATM   23  C   UNL     1     -10.071   3.461  74.434  1.00  0.00    -0.203 C  
HETATM   24  O   UNL     1      -8.641   5.270  73.717  1.00  0.00    -0.114 OA 
ENDBRANCH  21  22
ENDBRANCH  17  21
ENDBRANCH  11  12
ENDBRANCH  10  11
ENDBRANCH   7  10
ENDBRANCH   6   7
ENDBRANCH   4   6
ENDBRANCH   2   4
TORSDOF 8
ENDMDL
MODEL      263
REMARK 921   NORMALIZED FREE ENERGY PREDICTED BY IDOCK:   -2.03 KCAL/MOL
REMARK 922        TOTAL FREE ENERGY PREDICTED BY IDOCK:   -4.22 KCAL/MOL
REMARK 923 INTER-LIGAND FREE ENERGY PREDICTED BY IDOCK:   -4.15 KCAL/MOL
REMARK 924 INTRA-LIGAND FREE ENERGY PREDICTED BY IDOCK:   -0.07 KCAL/MOL
REMARK 927      BINDING AFFINITY PREDICTED BY RF-SCORE:    0.00 PKD
ROOT
HETATM    1  C   UNL     1      -8.604  11.840  68.266  1.00  0.00    -0.162 C  
HETATM    2  C   UNL     1      -9.553  13.024  68.072  1.00  0.00    -0.224 C  
HETATM    3  C   UNL     1      -9.985  13.101  66.606  1.00  0.00    -0.270 C  
ENDROOT
BRANCH   2   4
HETATM    4  N   UNL     1     -10.698  12.845  68.971  1.00  0.00    -0.412 NA 
HETATM    5  H   UNL     1     -11.366  13.610  68.866  1.00  0.00     0.000 HD 
BRANCH   4   6
HETATM    6  C   UNL     1     -11.361  11.546  68.810  1.00  0.00    -0.265 C  
BRANCH   6   7
HETATM    7  C   UNL     1     -11.125  10.655  70.046  1.00  0.00    -0.289 C  
HETATM    8  O   UNL     1     -12.032  11.032  71.091  1.00  0.00    -0.279 OA 
HETATM    9  H   UNL     1     -11.886  10.484  71.854  1.00  0.00     0.000 HD 
BRANCH   7  10
HETATM   10  C   UNL     1     -11.325   9.176  69.691  1.00  0.00     0.088 C  
BRANCH  10  11
HETATM   11  O   UNL     1     -10.206   8.748  68.895  1.00  0.00    -0.197 OA 
BRANCH  11  12
HETATM   12  C   UNL     1     -10.092   7.399  68.698  1.00  0.00    -0.179 A  
HETATM   13  C   UNL     1      -9.429   6.654  69.692  1.00  0.00    -0.144 A  
HETATM   14  C   UNL     1      -9.296   5.254  69.529  1.00  0.00    -0.176 A  
HETATM   15  C   UNL     1      -8.841   7.348  70.897  1.00  0.00    -0.148 C  
HETATM   16  C   UNL     1      -8.624   4.387  70.567  1.00  0.00    -0.110 C  
HETATM   17  C   UNL     1      -9.785   4.640  68.348  1.00  0.00    -0.134 A  
HETATM   18  C   UNL     1     -10.355   5.394  67.317  1.00  0.00    -0.273 A  
HETATM   19  C   UNL     1     -10.777   4.839  65.989  1.00  0.00    -0.211 C  
HETATM   20  C   UNL     1     -10.534   6.767  67.530  1.00  0.00    -0.302 A  
BRANCH  17  21
HETATM   21  O   UNL     1      -9.496   3.250  68.236  1.00  0.00    -0.188 OA 
BRANCH  21  22
HETATM   22  C   UNL     1      -8.616   2.657  67.329  1.00  0.00    -0.106 C  
HETATM   23  C   UNL     1      -7.216   2.792  67.862  1.00  0.00    -0.049 C  
HETATM   24  O   UNL     1      -8.908   2.066  66.300  1.00  0.00    -0.121 OA 
ENDBRANCH  21  22
ENDBRANCH  17  21
ENDBRANCH  11  12
ENDBRANCH  10  11
ENDBRANCH   7  10
ENDBRANCH   6   7
ENDBRANCH   4   6
ENDBRANCH   2   4
TORSDOF 8
ENDMDL
MODEL      264
REMARK 921   NORMALIZED FREE ENERGY PREDICTED BY IDOCK:   -2.02 KCAL/MOL
REMARK 922        TOTAL FREE ENERGY PREDICTED BY IDOCK:   -4.20 KCAL/MOL
REMARK 923 INTER-LIGAND FREE ENERGY PREDICTED BY IDOCK:   -3.68 KCAL/MOL
REMARK 924 INTRA-LIGAND FREE ENERGY PREDICTED BY IDOCK:   -0.52 KCAL/MOL
REMARK 927      BINDING AFFINITY PREDICTED BY RF-SCORE:    0.00 PKD
ROOT
HETATM    1  C   UNL     1      -6.379  13.031  69.930  1.00  0.00    -0.034 C  
HETATM    2  C   UNL     1      -6.695  12.866  68.443  1.00  0.00    -0.092 C  
HETATM    3  C   UNL     1      -5.855  13.852  67.627  1.00  0.00    -0.034 C  
ENDROOT
BRANCH   2   4
HETATM    4  N   UNL     1      -6.423  11.474  68.068  1.00  0.00    -0.053 NA 
HETATM    5  H   UNL     1      -5.881  11.002  68.793  1.00  0.00     0.000 HD 
BRANCH   4   6
HETATM    6  C   UNL     1      -7.637  10.716  67.746  1.00  0.00    -0.095 C  
BRANCH   6   7
HETATM    7  C   UNL     1      -8.716  11.640  67.147  1.00  0.00    -0.164 C  
HETATM    8  O   UNL     1      -8.437  11.868  65.759  1.00  0.00    -0.377 OA 
HETATM    9  H   UNL     1      -9.102  12.438  65.389  1.00  0.00     0.000 HD 
BRANCH   7  10
HETATM   10  C   UNL     1     -10.109  11.015  67.304  1.00  0.00    -0.189 C  
BRANCH  10  11
HETATM   11  O   UNL     1     -10.299  10.065  66.241  1.00  0.00    -0.223 OA 
BRANCH  11  12
HETATM   12  C   UNL     1      -9.912   8.780  66.508  1.00  0.00    -0.290 A  
HETATM   13  C   UNL     1      -9.013   8.175  65.610  1.00  0.00    -0.128 A  
HETATM   14  C   UNL     1      -8.583   6.849  65.855  1.00  0.00    -0.152 A  
HETATM   15  C   UNL     1      -8.543   8.922  64.385  1.00  0.00    -0.140 C  
HETATM   16  C   UNL     1      -7.598   6.146  64.952  1.00  0.00    -0.090 C  
HETATM   17  C   UNL     1      -9.105   6.142  66.968  1.00  0.00    -0.118 A  
HETATM   18  C   UNL     1     -10.072   6.709  67.804  1.00  0.00    -0.180 A  
HETATM   19  C   UNL     1     -10.764   5.983  68.920  1.00  0.00    -0.384 C  
HETATM   20  C   UNL     1     -10.432   8.043  67.579  1.00  0.00    -0.331 A  
BRANCH  17  21
HETATM   21  O   UNL     1      -8.694   4.780  67.054  1.00  0.00    -0.105 OA 
BRANCH  21  22
HETATM   22  C   UNL     1      -9.381   3.674  66.550  1.00  0.00    -0.187 C  
HETATM   23  C   UNL     1      -9.364   2.586  67.589  1.00  0.00    -0.199 C  
HETATM   24  O   UNL     1      -9.963   3.595  65.478  1.00  0.00    -0.117 OA 
ENDBRANCH  21  22
ENDBRANCH  17  21
ENDBRANCH  11  12
ENDBRANCH  10  11
ENDBRANCH   7  10
ENDBRANCH   6   7
ENDBRANCH   4   6
ENDBRANCH   2   4
TORSDOF 8
ENDMDL
MODEL      265
REMARK 921   NORMALIZED FREE ENERGY PREDICTED BY IDOCK:   -1.90 KCAL/MOL
REMARK 922        TOTAL FREE ENERGY PREDICTED BY IDOCK:   -4.03 KCAL/MOL
REMARK 923 INTER-LIGAND FREE ENERGY PREDICTED BY IDOCK:   -3.67 KCAL/MOL
REMARK 924 INTRA-LIGAND FREE ENERGY PREDICTED BY IDOCK:   -0.35 KCAL/MOL
REMARK 927      BINDING AFFINITY PREDICTED BY RF-SCORE:    0.00 PKD
ROOT
HETATM    1  C   UNL     1      -7.232  12.462  68.397  1.00  0.00    -0.110 C  
HETATM    2  C   UNL     1      -7.319  11.316  67.389  1.00  0.00    -0.115 C  
HETATM    3  C   UNL     1      -6.297  10.235  67.752  1.00  0.00    -0.057 C  
ENDROOT
BRANCH   2   4
HETATM    4  N   UNL     1      -8.691  10.798  67.401  1.00  0.00    -0.126 NA 
HETATM    5  H   UNL     1      -9.326  11.462  67.845  1.00  0.00     0.000 HD 
BRANCH   4   6
HETATM    6  C   UNL     1      -9.177  10.420  66.069  1.00  0.00    -0.167 C  
BRANCH   6   7
HETATM    7  C   UNL     1      -9.649   8.952  66.056  1.00  0.00    -0.250 C  
HETATM    8  O   UNL     1      -8.774   8.172  65.230  1.00  0.00    -0.300 OA 
HETATM    9  H   UNL     1      -9.065   7.268  65.221  1.00  0.00     0.000 HD 
BRANCH   7  10
HETATM   10  C   UNL     1      -9.670   8.380  67.480  1.00  0.00    -0.162 C  
BRANCH  10  11
HETATM   11  O   UNL     1     -10.652   7.329  67.529  1.00  0.00    -0.238 OA 
BRANCH  11  12
HETATM   12  C   UNL     1     -10.810   6.714  68.741  1.00  0.00    -0.267 A  
HETATM   13  C   UNL     1      -9.954   5.635  69.035  1.00  0.00    -0.233 A  
HETATM   14  C   UNL     1     -10.082   4.976  70.281  1.00  0.00    -0.339 A  
HETATM   15  C   UNL     1      -8.939   5.171  68.019  1.00  0.00    -0.117 C  
HETATM   16  C   UNL     1      -9.180   3.831  70.678  1.00  0.00    -0.201 C  
HETATM   17  C   UNL     1     -11.099   5.380  71.183  1.00  0.00     0.029 A  
HETATM   18  C   UNL     1     -12.011   6.386  70.849  1.00  0.00    -0.258 A  
HETATM   19  C   UNL     1     -13.189   6.781  71.690  1.00  0.00    -0.235 C  
HETATM   20  C   UNL     1     -11.824   7.066  69.639  1.00  0.00     0.113 A  
BRANCH  17  21
HETATM   21  O   UNL     1     -11.211   4.575  72.353  1.00  0.00     0.040 OA 
BRANCH  21  22
HETATM   22  C   UNL     1     -10.533   4.767  73.558  1.00  0.00    -0.220 C  
HETATM   23  C   UNL     1     -10.318   6.243  73.757  1.00  0.00    -0.301 C  
HETATM   24  O   UNL     1     -10.211   3.909  74.367  1.00  0.00    -0.159 OA 
ENDBRANCH  21  22
ENDBRANCH  17  21
ENDBRANCH  11  12
ENDBRANCH  10  11
ENDBRANCH   7  10
ENDBRANCH   6   7
ENDBRANCH   4   6
ENDBRANCH   2   4
TORSDOF 8
ENDMDL
MODEL      266
REMARK 921   NORMALIZED FREE ENERGY PREDICTED BY IDOCK:   -1.89 KCAL/MOL
REMARK 922        TOTAL FREE ENERGY PREDICTED BY IDOCK:   -4.01 KCAL/MOL
REMARK 923 INTER-LIGAND FREE ENERGY PREDICTED BY IDOCK:   -3.28 KCAL/MOL
REMARK 924 INTRA-LIGAND FREE ENERGY PREDICTED BY IDOCK:   -0.73 KCAL/MOL
REMARK 927      BINDING AFFINITY PREDICTED BY RF-SCORE:    0.00 PKD
ROOT
HETATM    1  C   UNL     1      -9.125  15.272  67.655  1.00  0.00    -0.184 C  
HETATM    2  C   UNL     1      -7.815  14.546  67.346  1.00  0.00    -0.199 C  
HETATM    3  C   UNL     1      -6.809  14.801  68.472  1.00  0.00    -0.107 C  
ENDROOT
BRANCH   2   4
HETATM    4  N   UNL     1      -8.109  13.118  67.188  1.00  0.00    -0.344 NA 
HETATM    5  H   UNL     1      -7.809  12.592  68.009  1.00  0.00     0.000 HD 
BRANCH   4   6
HETATM    6  C   UNL     1      -9.518  12.850  66.881  1.00  0.00    -0.237 C  
BRANCH   6   7
HETATM    7  C   UNL     1     -10.058  11.699  67.753  1.00  0.00    -0.187 C  
HETATM    8  O   UNL     1     -10.703  10.725  66.920  1.00  0.00    -0.256 OA 
HETATM    9  H   UNL     1     -11.035  10.015  67.457  1.00  0.00     0.000 HD 
BRANCH   7  10
HETATM   10  C   UNL     1      -8.918  11.039  68.540  1.00  0.00    -0.163 C  
BRANCH  10  11
HETATM   11  O   UNL     1      -8.067  10.348  67.608  1.00  0.00    -0.106 OA 
BRANCH  11  12
HETATM   12  C   UNL     1      -7.984   8.991  67.764  1.00  0.00    -0.101 A  
HETATM   13  C   UNL     1      -7.873   8.212  66.597  1.00  0.00    -0.094 A  
HETATM   14  C   UNL     1      -7.777   6.805  66.716  1.00  0.00    -0.106 A  
HETATM   15  C   UNL     1      -7.889   8.870  65.238  1.00  0.00    -0.104 C  
HETATM   16  C   UNL     1      -7.626   5.908  65.510  1.00  0.00    -0.084 C  
HETATM   17  C   UNL     1      -7.848   6.207  67.999  1.00  0.00    -0.106 A  
HETATM   18  C   UNL     1      -8.058   6.974  69.150  1.00  0.00    -0.121 A  
HETATM   19  C   UNL     1      -8.272   6.409  70.523  1.00  0.00    -0.118 C  
HETATM   20  C   UNL     1      -8.084   8.368  69.013  1.00  0.00    -0.116 A  
BRANCH  17  21
HETATM   21  O   UNL     1      -7.859   4.782  67.993  1.00  0.00    -0.082 OA 
BRANCH  21  22
HETATM   22  C   UNL     1      -8.983   3.962  68.098  1.00  0.00    -0.121 C  
HETATM   23  C   UNL     1      -9.028   3.054  66.900  1.00  0.00    -0.178 C  
HETATM   24  O   UNL     1      -9.780   3.921  69.025  1.00  0.00    -0.164 OA 
ENDBRANCH  21  22
ENDBRANCH  17  21
ENDBRANCH  11  12
ENDBRANCH  10  11
ENDBRANCH   7  10
ENDBRANCH   6   7
ENDBRANCH   4   6
ENDBRANCH   2   4
TORSDOF 8
ENDMDL
MODEL      267
REMARK 921   NORMALIZED FREE ENERGY PREDICTED BY IDOCK:   -1.83 KCAL/MOL
REMARK 922        TOTAL FREE ENERGY PREDICTED BY IDOCK:   -3.93 KCAL/MOL
REMARK 923 INTER-LIGAND FREE ENERGY PREDICTED BY IDOCK:   -4.12 KCAL/MOL
REMARK 924 INTRA-LIGAND FREE ENERGY PREDICTED BY IDOCK:    0.19 KCAL/MOL
REMARK 927      BINDING AFFINITY PREDICTED BY RF-SCORE:    0.00 PKD
ROOT
HETATM    1  C   UNL     1      -9.473  14.388  67.886  1.00  0.00    -0.214 C  
HETATM    2  C   UNL     1      -8.310  13.713  67.159  1.00  0.00    -0.137 C  
HETATM    3  C   UNL     1      -6.996  14.394  67.550  1.00  0.00    -0.182 C  
ENDROOT
BRANCH   2   4
HETATM    4  N   UNL     1      -8.314  12.289  67.511  1.00  0.00    -0.159 NA 
HETATM    5  H   UNL     1      -9.184  11.844  67.217  1.00  0.00     0.000 HD 
BRANCH   4   6
HETATM    6  C   UNL     1      -7.152  11.562  66.988  1.00  0.00    -0.147 C  
BRANCH   6   7
HETATM    7  C   UNL     1      -7.596  10.300  66.222  1.00  0.00    -0.117 C  
HETATM    8  O   UNL     1      -7.002   9.140  66.819  1.00  0.00    -0.079 OA 
HETATM    9  H   UNL     1      -7.275   8.362  66.347  1.00  0.00     0.000 HD 
BRANCH   7  10
HETATM   10  C   UNL     1      -9.125  10.170  66.239  1.00  0.00    -0.154 C  
BRANCH  10  11
HETATM   11  O   UNL     1      -9.551  10.030  67.605  1.00  0.00    -0.146 OA 
BRANCH  11  12
HETATM   12  C   UNL     1      -9.853   8.759  68.012  1.00  0.00    -0.169 A  
HETATM   13  C   UNL     1      -9.714   8.469  69.383  1.00  0.00    -0.177 A  
HETATM   14  C   UNL     1     -10.024   7.167  69.845  1.00  0.00    -0.184 A  
HETATM   15  C   UNL     1      -9.210   9.525  70.337  1.00  0.00    -0.305 C  
HETATM   16  C   UNL     1      -9.926   6.791  71.305  1.00  0.00    -0.189 C  
HETATM   17  C   UNL     1     -10.415   6.172  68.915  1.00  0.00    -0.238 A  
HETATM   18  C   UNL     1     -10.458   6.434  67.541  1.00  0.00    -0.290 A  
HETATM   19  C   UNL     1     -10.736   5.404  66.486  1.00  0.00    -0.309 C  
HETATM   20  C   UNL     1     -10.211   7.745  67.116  1.00  0.00    -0.365 A  
BRANCH  17  21
HETATM   21  O   UNL     1     -10.590   4.872  69.472  1.00  0.00    -0.110 OA 
BRANCH  21  22
HETATM   22  C   UNL     1      -9.629   4.131  70.162  1.00  0.00    -0.202 C  
HETATM   23  C   UNL     1      -8.400   4.020  69.301  1.00  0.00    -0.081 C  
HETATM   24  O   UNL     1      -9.717   3.689  71.298  1.00  0.00    -0.165 OA 
ENDBRANCH  21  22
ENDBRANCH  17  21
ENDBRANCH  11  12
ENDBRANCH  10  11
ENDBRANCH   7  10
ENDBRANCH   6   7
ENDBRANCH   4   6
ENDBRANCH   2   4
TORSDOF 8
ENDMDL
MODEL      268
REMARK 921   NORMALIZED FREE ENERGY PREDICTED BY IDOCK:   -1.55 KCAL/MOL
REMARK 922        TOTAL FREE ENERGY PREDICTED BY IDOCK:   -3.51 KCAL/MOL
REMARK 923 INTER-LIGAND FREE ENERGY PREDICTED BY IDOCK:   -4.55 KCAL/MOL
REMARK 924 INTRA-LIGAND FREE ENERGY PREDICTED BY IDOCK:    1.04 KCAL/MOL
REMARK 927      BINDING AFFINITY PREDICTED BY RF-SCORE:    0.00 PKD
ROOT
HETATM    1  C   UNL     1     -11.195   4.389  73.507  1.00  0.00    -0.375 C  
HETATM    2  C   UNL     1     -10.165   5.442  73.921  1.00  0.00    -0.237 C  
HETATM    3  C   UNL     1      -8.942   4.751  74.529  1.00  0.00    -0.111 C  
ENDROOT
BRANCH   2   4
HETATM    4  N   UNL     1      -9.815   6.231  72.735  1.00  0.00    -0.166 NA 
HETATM    5  H   UNL     1     -10.104   5.753  71.881  1.00  0.00     0.000 HD 
BRANCH   4   6
HETATM    6  C   UNL     1     -10.347   7.598  72.774  1.00  0.00    -0.295 C  
BRANCH   6   7
HETATM    7  C   UNL     1     -11.670   7.692  71.988  1.00  0.00    -0.298 C  
HETATM    8  O   UNL     1     -12.419   8.829  72.440  1.00  0.00    -0.379 OA 
HETATM    9  H   UNL     1     -13.234   8.887  71.956  1.00  0.00     0.000 HD 
BRANCH   7  10
HETATM   10  C   UNL     1     -11.395   7.814  70.483  1.00  0.00    -0.241 C  
BRANCH  10  11
HETATM   11  O   UNL     1     -11.533   9.197  70.110  1.00  0.00    -0.208 OA 
BRANCH  11  12
HETATM   12  C   UNL     1     -10.702   9.635  69.115  1.00  0.00    -0.217 A  
HETATM   13  C   UNL     1     -10.304   8.696  68.144  1.00  0.00    -0.267 A  
HETATM   14  C   UNL     1      -9.450   9.112  67.094  1.00  0.00    -0.197 A  
HETATM   15  C   UNL     1     -10.757   7.260  68.245  1.00  0.00    -0.174 C  
HETATM   16  C   UNL     1      -9.006   8.168  66.002  1.00  0.00    -0.213 C  
HETATM   17  C   UNL     1      -8.973  10.446  67.071  1.00  0.00    -0.139 A  
HETATM   18  C   UNL     1      -9.289  11.352  68.089  1.00  0.00    -0.181 A  
HETATM   19  C   UNL     1      -8.723  12.736  68.204  1.00  0.00    -0.193 C  
HETATM   20  C   UNL     1     -10.187  10.936  69.080  1.00  0.00    -0.215 A  
BRANCH  17  21
HETATM   21  O   UNL     1      -8.031  10.724  66.038  1.00  0.00    -0.156 OA 
BRANCH  21  22
HETATM   22  C   UNL     1      -6.641  10.671  66.150  1.00  0.00    -0.130 C  
HETATM   23  C   UNL     1      -6.063  10.356  64.797  1.00  0.00    -0.103 C  
HETATM   24  O   UNL     1      -5.973  10.900  67.148  1.00  0.00    -0.056 OA 
ENDBRANCH  21  22
ENDBRANCH  17  21
ENDBRANCH  11  12
ENDBRANCH  10  11
ENDBRANCH   7  10
ENDBRANCH   6   7
ENDBRANCH   4   6
ENDBRANCH   2   4
TORSDOF 8
ENDMDL
MODEL      269
REMARK 921   NORMALIZED FREE ENERGY PREDICTED BY IDOCK:   -1.46 KCAL/MOL
REMARK 922        TOTAL FREE ENERGY PREDICTED BY IDOCK:   -3.38 KCAL/MOL
REMARK 923 INTER-LIGAND FREE ENERGY PREDICTED BY IDOCK:   -3.77 KCAL/MOL
REMARK 924 INTRA-LIGAND FREE ENERGY PREDICTED BY IDOCK:    0.39 KCAL/MOL
REMARK 927      BINDING AFFINITY PREDICTED BY RF-SCORE:    0.00 PKD
ROOT
HETATM    1  C   UNL     1      -5.574   6.824  63.095  1.00  0.00    -0.035 C  
HETATM    2  C   UNL     1      -6.351   6.602  64.394  1.00  0.00    -0.038 C  
HETATM    3  C   UNL     1      -5.683   5.490  65.207  1.00  0.00    -0.017 C  
ENDROOT
BRANCH   2   4
HETATM    4  N   UNL     1      -6.387   7.871  65.129  1.00  0.00    -0.041 NA 
HETATM    5  H   UNL     1      -5.515   8.022  65.637  1.00  0.00     0.000 HD 
BRANCH   4   6
HETATM    6  C   UNL     1      -6.700   9.023  64.276  1.00  0.00    -0.083 C  
BRANCH   6   7
HETATM    7  C   UNL     1      -8.015   9.693  64.724  1.00  0.00    -0.129 C  
HETATM    8  O   UNL     1      -9.080   9.294  63.850  1.00  0.00    -0.423 OA 
HETATM    9  H   UNL     1      -9.891   9.706  64.126  1.00  0.00     0.000 HD 
BRANCH   7  10
HETATM   10  C   UNL     1      -8.353   9.304  66.170  1.00  0.00    -0.119 C  
BRANCH  10  11
HETATM   11  O   UNL     1      -9.385   8.301  66.137  1.00  0.00    -0.203 OA 
BRANCH  11  12
HETATM   12  C   UNL     1      -9.889   7.921  67.351  1.00  0.00    -0.181 A  
HETATM   13  C   UNL     1     -10.562   8.900  68.107  1.00  0.00    -0.211 A  
HETATM   14  C   UNL     1     -11.105   8.544  69.365  1.00  0.00     0.086 A  
HETATM   15  C   UNL     1     -10.672  10.315  67.593  1.00  0.00    -0.339 C  
HETATM   16  C   UNL     1     -11.865   9.533  70.217  1.00  0.00    -0.109 C  
HETATM   17  C   UNL     1     -10.915   7.230  69.860  1.00  0.00    -0.243 A  
HETATM   18  C   UNL     1     -10.162   6.286  69.153  1.00  0.00    -0.229 A  
HETATM   19  C   UNL     1      -9.808   4.922  69.666  1.00  0.00    -0.288 C  
HETATM   20  C   UNL     1      -9.691   6.641  67.883  1.00  0.00    -0.130 A  
BRANCH  17  21
HETATM   21  O   UNL     1     -11.401   7.015  71.182  1.00  0.00    -0.259 OA 
BRANCH  21  22
HETATM   22  C   UNL     1     -11.006   7.703  72.331  1.00  0.00    -0.301 C  
HETATM   23  C   UNL     1      -9.505   7.795  72.342  1.00  0.00    -0.234 C  
HETATM   24  O   UNL     1     -11.734   8.212  73.171  1.00  0.00    -0.245 OA 
ENDBRANCH  21  22
ENDBRANCH  17  21
ENDBRANCH  11  12
ENDBRANCH  10  11
ENDBRANCH   7  10
ENDBRANCH   6   7
ENDBRANCH   4   6
ENDBRANCH   2   4
TORSDOF 8
ENDMDL
MODEL      270
REMARK 921   NORMALIZED FREE ENERGY PREDICTED BY IDOCK:   -1.25 KCAL/MOL
REMARK 922        TOTAL FREE ENERGY PREDICTED BY IDOCK:   -3.07 KCAL/MOL
REMARK 923 INTER-LIGAND FREE ENERGY PREDICTED BY IDOCK:   -4.89 KCAL/MOL
REMARK 924 INTRA-LIGAND FREE ENERGY PREDICTED BY IDOCK:    1.82 KCAL/MOL
REMARK 927      BINDING AFFINITY PREDICTED BY RF-SCORE:    0.00 PKD
ROOT
HETATM    1  C   UNL     1      -8.794   8.797  64.473  1.00  0.00    -0.011 C  
HETATM    2  C   UNL     1      -9.167   9.835  65.532  1.00  0.00    -0.215 C  
HETATM    3  C   UNL     1      -9.576  11.142  64.847  1.00  0.00    -0.279 C  
ENDROOT
BRANCH   2   4
HETATM    4  N   UNL     1     -10.252   9.285  66.352  1.00  0.00    -0.260 NA 
HETATM    5  H   UNL     1     -11.117   9.221  65.815  1.00  0.00     0.000 HD 
BRANCH   4   6
HETATM    6  C   UNL     1      -9.917   7.991  66.958  1.00  0.00    -0.254 C  
BRANCH   6   7
HETATM    7  C   UNL     1      -8.759   8.143  67.964  1.00  0.00    -0.128 C  
HETATM    8  O   UNL     1      -7.575   7.535  67.430  1.00  0.00    -0.103 OA 
HETATM    9  H   UNL     1      -6.860   7.628  68.050  1.00  0.00     0.000 HD 
BRANCH   7  10
HETATM   10  C   UNL     1      -8.495   9.625  68.263  1.00  0.00    -0.118 C  
BRANCH  10  11
HETATM   11  O   UNL     1      -9.582  10.125  69.061  1.00  0.00    -0.176 OA 
BRANCH  11  12
HETATM   12  C   UNL     1      -9.960   9.341  70.118  1.00  0.00    -0.215 A  
HETATM   13  C   UNL     1      -8.953   8.934  71.014  1.00  0.00    -0.298 A  
HETATM   14  C   UNL     1      -9.305   8.129  72.123  1.00  0.00    -0.270 A  
HETATM   15  C   UNL     1      -7.516   9.326  70.772  1.00  0.00    -0.144 C  
HETATM   16  C   UNL     1      -8.284   7.679  73.141  1.00  0.00    -0.177 C  
HETATM   17  C   UNL     1     -10.649   7.706  72.280  1.00  0.00    -0.246 A  
HETATM   18  C   UNL     1     -11.630   8.029  71.337  1.00  0.00    -0.301 A  
HETATM   19  C   UNL     1     -13.039   7.515  71.363  1.00  0.00    -0.373 C  
HETATM   20  C   UNL     1     -11.271   8.880  70.284  1.00  0.00    -0.219 A  
BRANCH  17  21
HETATM   21  O   UNL     1     -10.867   6.806  73.364  1.00  0.00    -0.291 OA 
BRANCH  21  22
HETATM   22  C   UNL     1     -10.895   5.413  73.290  1.00  0.00    -0.298 C  
HETATM   23  C   UNL     1     -10.451   4.998  71.913  1.00  0.00    -0.255 C  
HETATM   24  O   UNL     1     -11.168   4.633  74.190  1.00  0.00    -0.257 OA 
ENDBRANCH  21  22
ENDBRANCH  17  21
ENDBRANCH  11  12
ENDBRANCH  10  11
ENDBRANCH   7  10
ENDBRANCH   6   7
ENDBRANCH   4   6
ENDBRANCH   2   4
TORSDOF 8
ENDMDL
MODEL      271
REMARK 921   NORMALIZED FREE ENERGY PREDICTED BY IDOCK:   -1.07 KCAL/MOL
REMARK 922        TOTAL FREE ENERGY PREDICTED BY IDOCK:   -2.81 KCAL/MOL
REMARK 923 INTER-LIGAND FREE ENERGY PREDICTED BY IDOCK:   -3.56 KCAL/MOL
REMARK 924 INTRA-LIGAND FREE ENERGY PREDICTED BY IDOCK:    0.75 KCAL/MOL
REMARK 927      BINDING AFFINITY PREDICTED BY RF-SCORE:    0.00 PKD
ROOT
HETATM    1  C   UNL     1     -11.173   8.991  72.281  1.00  0.00    -0.160 C  
HETATM    2  C   UNL     1     -12.674   8.728  72.415  1.00  0.00    -0.368 C  
HETATM    3  C   UNL     1     -13.444   9.676  71.491  1.00  0.00    -0.430 C  
ENDROOT
BRANCH   2   4
HETATM    4  N   UNL     1     -12.924   7.321  72.087  1.00  0.00    -0.522 NA 
HETATM    5  H   UNL     1     -13.899   7.076  72.259  1.00  0.00     0.000 HD 
BRANCH   4   6
HETATM    6  C   UNL     1     -12.529   6.968  70.719  1.00  0.00    -0.203 C  
BRANCH   6   7
HETATM    7  C   UNL     1     -11.036   6.588  70.661  1.00  0.00    -0.309 C  
HETATM    8  O   UNL     1     -10.893   5.173  70.843  1.00  0.00    -0.127 OA 
HETATM    9  H   UNL     1      -9.973   4.938  70.807  1.00  0.00     0.000 HD 
BRANCH   7  10
HETATM   10  C   UNL     1     -10.425   7.006  69.317  1.00  0.00    -0.210 C  
BRANCH  10  11
HETATM   11  O   UNL     1      -9.205   6.267  69.127  1.00  0.00    -0.129 OA 
BRANCH  11  12
HETATM   12  C   UNL     1      -8.294   6.824  68.271  1.00  0.00    -0.118 A  
HETATM   13  C   UNL     1      -7.363   7.729  68.817  1.00  0.00    -0.087 A  
HETATM   14  C   UNL     1      -6.400   8.320  67.965  1.00  0.00    -0.056 A  
HETATM   15  C   UNL     1      -7.417   8.083  70.283  1.00  0.00    -0.072 C  
HETATM   16  C   UNL     1      -5.352   9.276  68.485  1.00  0.00    -0.037 C  
HETATM   17  C   UNL     1      -6.425   8.033  66.578  1.00  0.00    -0.051 A  
HETATM   18  C   UNL     1      -7.411   7.211  66.021  1.00  0.00    -0.080 A  
HETATM   19  C   UNL     1      -7.583   6.963  64.552  1.00  0.00    -0.107 C  
HETATM   20  C   UNL     1      -8.312   6.587  66.892  1.00  0.00    -0.113 A  
BRANCH  17  21
HETATM   21  O   UNL     1      -5.487   8.771  65.799  1.00  0.00    -0.037 OA 
BRANCH  21  22
HETATM   22  C   UNL     1      -5.733   9.963  65.117  1.00  0.00    -0.081 C  
HETATM   23  C   UNL     1      -5.582  11.107  66.083  1.00  0.00    -0.141 C  
HETATM   24  O   UNL     1      -5.970  10.094  63.926  1.00  0.00    -0.123 OA 
ENDBRANCH  21  22
ENDBRANCH  17  21
ENDBRANCH  11  12
ENDBRANCH  10  11
ENDBRANCH   7  10
ENDBRANCH   6   7
ENDBRANCH   4   6
ENDBRANCH   2   4
TORSDOF 8
ENDMDL
MODEL      272
REMARK 921   NORMALIZED FREE ENERGY PREDICTED BY IDOCK:   -0.96 KCAL/MOL
REMARK 922        TOTAL FREE ENERGY PREDICTED BY IDOCK:   -2.65 KCAL/MOL
REMARK 923 INTER-LIGAND FREE ENERGY PREDICTED BY IDOCK:   -3.52 KCAL/MOL
REMARK 924 INTRA-LIGAND FREE ENERGY PREDICTED BY IDOCK:    0.87 KCAL/MOL
REMARK 927      BINDING AFFINITY PREDICTED BY RF-SCORE:    0.00 PKD
ROOT
HETATM    1  C   UNL     1     -11.571  15.490  64.219  1.00  0.00    -0.198 C  
HETATM    2  C   UNL     1     -10.533  15.015  65.237  1.00  0.00    -0.403 C  
HETATM    3  C   UNL     1      -9.589  16.169  65.585  1.00  0.00    -0.185 C  
ENDROOT
BRANCH   2   4
HETATM    4  N   UNL     1     -11.246  14.515  66.418  1.00  0.00    -0.335 NA 
HETATM    5  H   UNL     1     -12.253  14.501  66.256  1.00  0.00     0.000 HD 
BRANCH   4   6
HETATM    6  C   UNL     1     -10.770  13.201  66.866  1.00  0.00    -0.263 C  
BRANCH   6   7
HETATM    7  C   UNL     1      -9.585  13.352  67.840  1.00  0.00    -0.216 C  
HETATM    8  O   UNL     1     -10.049  13.200  69.189  1.00  0.00    -0.422 OA 
HETATM    9  H   UNL     1      -9.318  13.293  69.790  1.00  0.00     0.000 HD 
BRANCH   7  10
HETATM   10  C   UNL     1      -8.504  12.305  67.540  1.00  0.00    -0.172 C  
BRANCH  10  11
HETATM   11  O   UNL     1      -8.640  11.231  68.486  1.00  0.00    -0.149 OA 
BRANCH  11  12
HETATM   12  C   UNL     1      -8.191  10.006  68.072  1.00  0.00    -0.116 A  
HETATM   13  C   UNL     1      -8.712   9.501  66.865  1.00  0.00    -0.136 A  
HETATM   14  C   UNL     1      -8.268   8.241  66.399  1.00  0.00    -0.107 A  
HETATM   15  C   UNL     1      -9.754  10.281  66.101  1.00  0.00    -0.266 C  
HETATM   16  C   UNL     1      -8.760   7.648  65.100  1.00  0.00     0.079 C  
HETATM   17  C   UNL     1      -7.350   7.492  67.179  1.00  0.00    -0.094 A  
HETATM   18  C   UNL     1      -6.908   7.951  68.425  1.00  0.00    -0.071 A  
HETATM   19  C   UNL     1      -6.043   7.164  69.364  1.00  0.00    -0.030 C  
HETATM   20  C   UNL     1      -7.311   9.228  68.833  1.00  0.00    -0.074 A  
BRANCH  17  21
HETATM   21  O   UNL     1      -7.061   6.192  66.674  1.00  0.00    -0.069 OA 
BRANCH  21  22
HETATM   22  C   UNL     1      -7.916   5.089  66.688  1.00  0.00    -0.107 C  
HETATM   23  C   UNL     1      -7.343   4.027  65.789  1.00  0.00    -0.076 C  
HETATM   24  O   UNL     1      -8.930   4.953  67.356  1.00  0.00    -0.107 OA 
ENDBRANCH  21  22
ENDBRANCH  17  21
ENDBRANCH  11  12
ENDBRANCH  10  11
ENDBRANCH   7  10
ENDBRANCH   6   7
ENDBRANCH   4   6
ENDBRANCH   2   4
TORSDOF 8
ENDMDL
MODEL      273
REMARK 921   NORMALIZED FREE ENERGY PREDICTED BY IDOCK:    1.30 KCAL/MOL
REMARK 922        TOTAL FREE ENERGY PREDICTED BY IDOCK:    0.68 KCAL/MOL
REMARK 923 INTER-LIGAND FREE ENERGY PREDICTED BY IDOCK:   -2.77 KCAL/MOL
REMARK 924 INTRA-LIGAND FREE ENERGY PREDICTED BY IDOCK:    3.44 KCAL/MOL
REMARK 927      BINDING AFFINITY PREDICTED BY RF-SCORE:    0.00 PKD
ROOT
HETATM    1  C   UNL     1      -9.681   7.542  72.361  1.00  0.00    -0.208 C  
HETATM    2  C   UNL     1     -11.065   7.371  72.991  1.00  0.00    -0.343 C  
HETATM    3  C   UNL     1     -12.086   8.214  72.223  1.00  0.00    -0.419 C  
ENDROOT
BRANCH   2   4
HETATM    4  N   UNL     1     -11.405   5.944  72.969  1.00  0.00    -0.460 NA 
HETATM    5  H   UNL     1     -12.078   5.720  73.703  1.00  0.00     0.000 HD 
BRANCH   4   6
HETATM    6  C   UNL     1     -11.886   5.486  71.661  1.00  0.00     0.535 C  
BRANCH   6   7
HETATM    7  C   UNL     1     -10.806   5.692  70.580  1.00  0.00    -0.244 C  
HETATM    8  O   UNL     1     -10.998   4.743  69.521  1.00  0.00     0.664 OA 
HETATM    9  H   UNL     1     -10.333   4.869  68.855  1.00  0.00     0.000 HD 
BRANCH   7  10
HETATM   10  C   UNL     1     -10.871   7.119  70.019  1.00  0.00    -0.254 C  
BRANCH  10  11
HETATM   11  O   UNL     1     -10.935   7.037  68.584  1.00  0.00    -0.177 OA 
BRANCH  11  12
HETATM   12  C   UNL     1     -10.135   7.910  67.897  1.00  0.00    -0.191 A  
HETATM   13  C   UNL     1      -8.923   7.410  67.384  1.00  0.00    -0.124 A  
HETATM   14  C   UNL     1      -8.072   8.280  66.661  1.00  0.00    -0.102 A  
HETATM   15  C   UNL     1      -8.528   5.974  67.630  1.00  0.00    -0.107 C  
HETATM   16  C   UNL     1      -6.772   7.807  66.056  1.00  0.00    -0.049 C  
HETATM   17  C   UNL     1      -8.430   9.644  66.515  1.00  0.00    -0.123 A  
HETATM   18  C   UNL     1      -9.585  10.162  67.110  1.00  0.00    -0.202 A  
HETATM   19  C   UNL     1      -9.965  11.613  67.111  1.00  0.00    -0.219 C  
HETATM   20  C   UNL     1     -10.443   9.269  67.763  1.00  0.00    -0.313 A  
BRANCH  17  21
HETATM   21  O   UNL     1      -7.447  10.451  65.873  1.00  0.00    -0.129 OA 
BRANCH  21  22
HETATM   22  C   UNL     1      -6.312  11.004  66.467  1.00  0.00    -0.132 C  
HETATM   23  C   UNL     1      -6.747  11.856  67.629  1.00  0.00    -0.105 C  
HETATM   24  O   UNL     1      -5.147  10.801  66.160  1.00  0.00    -0.065 OA 
ENDBRANCH  21  22
ENDBRANCH  17  21
ENDBRANCH  11  12
ENDBRANCH  10  11
ENDBRANCH   7  10
ENDBRANCH   6   7
ENDBRANCH   4   6
ENDBRANCH   2   4
TORSDOF 8
ENDMDL
MODEL      274
REMARK 921   NORMALIZED FREE ENERGY PREDICTED BY IDOCK:    6.68 KCAL/MOL
REMARK 922        TOTAL FREE ENERGY PREDICTED BY IDOCK:    8.57 KCAL/MOL
REMARK 923 INTER-LIGAND FREE ENERGY PREDICTED BY IDOCK:   -1.49 KCAL/MOL
REMARK 924 INTRA-LIGAND FREE ENERGY PREDICTED BY IDOCK:   10.07 KCAL/MOL
REMARK 927      BINDING AFFINITY PREDICTED BY RF-SCORE:    0.00 PKD
ROOT
HETATM    1  C   UNL     1      -7.706  10.776  69.044  1.00  0.00    -0.133 C  
HETATM    2  C   UNL     1      -6.279  11.277  68.811  1.00  0.00    -0.045 C  
HETATM    3  C   UNL     1      -5.856  12.178  69.974  1.00  0.00    -0.152 C  
ENDROOT
BRANCH   2   4
HETATM    4  N   UNL     1      -5.401  10.111  68.673  1.00  0.00    -0.039 NA 
HETATM    5  H   UNL     1      -5.255   9.657  69.575  1.00  0.00     0.000 HD 
BRANCH   4   6
HETATM    6  C   UNL     1      -5.874   9.147  67.673  1.00  0.00    -0.046 C  
BRANCH   6   7
HETATM    7  C   UNL     1      -5.546   9.632  66.247  1.00  0.00    -0.052 C  
HETATM    8  O   UNL     1      -5.130   8.520  65.443  1.00  0.00    -0.033 OA 
HETATM    9  H   UNL     1      -4.928   8.819  64.564  1.00  0.00     0.000 HD 
BRANCH   7  10
HETATM   10  C   UNL     1      -6.770  10.306  65.612  1.00  0.00    -0.122 C  
BRANCH  10  11
HETATM   11  O   UNL     1      -7.816  10.362  66.598  1.00  0.00    -0.113 OA 
BRANCH  11  12
HETATM   12  C   UNL     1      -8.428  11.576  66.754  1.00  0.00    -0.168 A  
HETATM   13  C   UNL     1      -7.601  12.713  66.824  1.00  0.00     0.261 A  
HETATM   14  C   UNL     1      -8.196  13.988  66.979  1.00  0.00    -0.078 A  
HETATM   15  C   UNL     1      -6.100  12.566  66.769  1.00  0.00     0.549 C  
HETATM   16  C   UNL     1      -7.374  15.254  67.032  1.00  0.00    -0.072 C  
HETATM   17  C   UNL     1      -9.604  14.089  67.112  1.00  0.00    -0.245 A  
HETATM   18  C   UNL     1     -10.417  12.951  67.140  1.00  0.00    -0.241 A  
HETATM   19  C   UNL     1     -11.893  12.965  67.406  1.00  0.00    -0.418 C  
HETATM   20  C   UNL     1      -9.812  11.707  66.921  1.00  0.00    -0.218 A  
BRANCH  17  21
HETATM   21  O   UNL     1     -10.084  15.404  67.377  1.00  0.00    -0.230 OA 
BRANCH  21  22
HETATM   22  C   UNL     1     -11.280  15.735  68.017  1.00  0.00    -0.338 C  
HETATM   23  C   UNL     1     -11.622  17.162  67.685  1.00  0.00     0.756 C  
HETATM   24  O   UNL     1     -11.985  14.995  68.688  1.00  0.00    -0.313 OA 
ENDBRANCH  21  22
ENDBRANCH  17  21
ENDBRANCH  11  12
ENDBRANCH  10  11
ENDBRANCH   7  10
ENDBRANCH   6   7
ENDBRANCH   4   6
ENDBRANCH   2   4
TORSDOF 8
ENDMDL
MODEL      275
REMARK 921   NORMALIZED FREE ENERGY PREDICTED BY IDOCK:    7.23 KCAL/MOL
REMARK 922        TOTAL FREE ENERGY PREDICTED BY IDOCK:    9.38 KCAL/MOL
REMARK 923 INTER-LIGAND FREE ENERGY PREDICTED BY IDOCK:   10.05 KCAL/MOL
REMARK 924 INTRA-LIGAND FREE ENERGY PREDICTED BY IDOCK:   -0.67 KCAL/MOL
REMARK 927      BINDING AFFINITY PREDICTED BY RF-SCORE:    0.00 PKD
ROOT
HETATM    1  C   UNL     1      -7.374  13.440  73.543  1.00  0.00     7.088 C  
HETATM    2  C   UNL     1      -6.163  13.933  72.750  1.00  0.00     1.216 C  
HETATM    3  C   UNL     1      -5.233  14.725  73.672  1.00  0.00     0.169 C  
ENDROOT
BRANCH   2   4
HETATM    4  N   UNL     1      -5.492  12.766  72.166  1.00  0.00    -0.352 NA 
HETATM    5  H   UNL     1      -4.530  12.696  72.500  1.00  0.00     0.000 HD 
BRANCH   4   6
HETATM    6  C   UNL     1      -6.217  11.511  72.392  1.00  0.00     3.323 C  
BRANCH   6   7
HETATM    7  C   UNL     1      -5.234  10.338  72.579  1.00  0.00     0.145 C  
HETATM    8  O   UNL     1      -5.207   9.948  73.959  1.00  0.00    -0.264 OA 
HETATM    9  H   UNL     1      -4.601   9.225  74.074  1.00  0.00     0.000 HD 
BRANCH   7  10
HETATM   10  C   UNL     1      -5.647   9.144  71.707  1.00  0.00    -0.067 C  
BRANCH  10  11
HETATM   11  O   UNL     1      -6.338   9.648  70.551  1.00  0.00    -0.067 OA 
BRANCH  11  12
HETATM   12  C   UNL     1      -6.854   8.706  69.703  1.00  0.00    -0.046 A  
HETATM   13  C   UNL     1      -7.092   9.095  68.371  1.00  0.00    -0.073 A  
HETATM   14  C   UNL     1      -7.619   8.147  67.462  1.00  0.00    -0.101 A  
HETATM   15  C   UNL     1      -6.819  10.513  67.933  1.00  0.00    -0.069 C  
HETATM   16  C   UNL     1      -7.872   8.484  66.011  1.00  0.00    -0.098 C  
HETATM   17  C   UNL     1      -7.944   6.846  67.920  1.00  0.00    -0.114 A  
HETATM   18  C   UNL     1      -7.800   6.490  69.265  1.00  0.00    -0.110 A  
HETATM   19  C   UNL     1      -8.240   5.181  69.852  1.00  0.00    -0.086 C  
HETATM   20  C   UNL     1      -7.217   7.423  70.131  1.00  0.00    -0.070 A  
BRANCH  17  21
HETATM   21  O   UNL     1      -8.574   6.013  66.951  1.00  0.00    -0.109 OA 
BRANCH  21  22
HETATM   22  C   UNL     1      -8.071   4.817  66.436  1.00  0.00    -0.107 C  
HETATM   23  C   UNL     1      -6.577   4.940  66.309  1.00  0.00    -0.049 C  
HETATM   24  O   UNL     1      -8.703   3.802  66.181  1.00  0.00    -0.111 OA 
ENDBRANCH  21  22
ENDBRANCH  17  21
ENDBRANCH  11  12
ENDBRANCH  10  11
ENDBRANCH   7  10
ENDBRANCH   6   7
ENDBRANCH   4   6
ENDBRANCH   2   4
TORSDOF 8
ENDMDL
