MODEL        1
REMARK 921   NORMALIZED FREE ENERGY PREDICTED BY IDOCK:   -7.70 KCAL/MOL
REMARK 922        TOTAL FREE ENERGY PREDICTED BY IDOCK:   -8.99 KCAL/MOL
REMARK 923 INTER-LIGAND FREE ENERGY PREDICTED BY IDOCK:   -8.60 KCAL/MOL
REMARK 924 INTRA-LIGAND FREE ENERGY PREDICTED BY IDOCK:   -0.40 KCAL/MOL
REMARK 927      BINDING AFFINITY PREDICTED BY RF-SCORE:    0.00 PKD
ROOT
HETATM    1  C   UNL     1     -13.697  13.261  72.314  1.00  0.00    -0.589 C  
HETATM    2  N   UNL     1     -13.869  14.518  71.592  1.00  0.00    -0.407 NA 
HETATM    3  C   UNL     1     -13.863  15.691  72.469  1.00  0.00    -0.555 C  
HETATM    4  C   UNL     1     -12.476  16.041  73.009  1.00  0.00    -0.614 C  
HETATM    5  C   UNL     1     -11.461  16.196  71.880  1.00  0.00    -0.360 C  
HETATM    6  C   UNL     1     -11.461  14.978  70.931  1.00  0.00    -0.330 C  
HETATM    7  C   UNL     1     -12.906  14.661  70.495  1.00  0.00    -0.317 C  
ENDROOT
BRANCH   6   8
HETATM    8  C   UNL     1     -10.513  15.276  69.743  1.00  0.00    -0.287 C  
BRANCH   8   9
HETATM    9  C   UNL     1     -11.136  15.793  68.397  1.00  0.00    -0.341 C  
HETATM   10  C   UNL     1     -10.595  17.164  67.966  1.00  0.00    -0.374 A  
HETATM   11  C   UNL     1     -10.378  18.171  68.938  1.00  0.00    -0.217 A  
HETATM   12  C   UNL     1     -10.043  19.485  68.592  1.00  0.00    -0.535 A  
HETATM   13  C   UNL     1      -9.942  19.843  67.259  1.00  0.00    -0.556 A  
HETATM   14  C   UNL     1     -10.124  18.869  66.284  1.00  0.00    -0.460 A  
HETATM   15  C   UNL     1     -10.428  17.533  66.626  1.00  0.00    -0.270 A  
HETATM   16  S   UNL     1     -10.550  16.428  65.254  1.00  0.00    -0.198 SA 
HETATM   17  C   UNL     1     -10.931  14.870  65.989  1.00  0.00    -0.334 A  
HETATM   18  C   UNL     1     -10.934  13.773  65.106  1.00  0.00    -0.337 A  
HETATM   19  C   UNL     1     -11.296  12.501  65.533  1.00  0.00    -0.368 A  
HETATM   20  C   UNL     1     -11.712  12.321  66.841  1.00  0.00    -0.404 A  
HETATM   21  C   UNL     1     -11.712  13.404  67.723  1.00  0.00    -0.394 A  
HETATM   22  C   UNL     1     -11.253  14.687  67.339  1.00  0.00    -0.351 A  
ENDBRANCH   8   9
ENDBRANCH   6   8
TORSDOF 2
ENDMDL
MODEL        2
REMARK 921   NORMALIZED FREE ENERGY PREDICTED BY IDOCK:   -7.41 KCAL/MOL
REMARK 922        TOTAL FREE ENERGY PREDICTED BY IDOCK:   -8.67 KCAL/MOL
REMARK 923 INTER-LIGAND FREE ENERGY PREDICTED BY IDOCK:   -7.84 KCAL/MOL
REMARK 924 INTRA-LIGAND FREE ENERGY PREDICTED BY IDOCK:   -0.83 KCAL/MOL
REMARK 927      BINDING AFFINITY PREDICTED BY RF-SCORE:    0.00 PKD
ROOT
HETATM    1  C   UNL     1      -9.863  19.153  66.249  1.00  0.00    -0.383 C  
HETATM    2  N   UNL     1      -9.305  17.818  66.056  1.00  0.00    -0.523 NA 
HETATM    3  C   UNL     1      -8.104  17.574  66.859  1.00  0.00    -0.227 C  
HETATM    4  C   UNL     1      -8.396  17.378  68.347  1.00  0.00    -0.263 C  
HETATM    5  C   UNL     1      -9.436  16.286  68.572  1.00  0.00    -0.219 C  
HETATM    6  C   UNL     1     -10.706  16.511  67.722  1.00  0.00    -0.329 C  
HETATM    7  C   UNL     1     -10.308  16.766  66.254  1.00  0.00    -0.310 C  
ENDROOT
BRANCH   6   8
HETATM    8  C   UNL     1     -11.644  15.292  67.901  1.00  0.00    -0.301 C  
BRANCH   8   9
HETATM    9  C   UNL     1     -11.257  14.196  68.959  1.00  0.00    -0.303 C  
HETATM   10  C   UNL     1     -12.172  14.194  70.192  1.00  0.00    -0.415 A  
HETATM   11  C   UNL     1     -12.603  15.422  70.750  1.00  0.00    -0.497 A  
HETATM   12  C   UNL     1     -13.299  15.490  71.962  1.00  0.00    -0.566 A  
HETATM   13  C   UNL     1     -13.564  14.331  72.671  1.00  0.00    -0.601 A  
HETATM   14  C   UNL     1     -13.176  13.109  72.134  1.00  0.00    -0.561 A  
HETATM   15  C   UNL     1     -12.503  13.029  70.895  1.00  0.00    -0.310 A  
HETATM   16  S   UNL     1     -12.158  11.388  70.345  1.00  0.00    -0.377 SA 
HETATM   17  C   UNL     1     -11.330  11.615  68.804  1.00  0.00    -0.264 A  
HETATM   18  C   UNL     1     -11.076  10.436  68.077  1.00  0.00    -0.359 A  
HETATM   19  C   UNL     1     -10.359  10.459  66.887  1.00  0.00    -0.297 A  
HETATM   20  C   UNL     1      -9.843  11.660  66.433  1.00  0.00    -0.233 A  
HETATM   21  C   UNL     1     -10.090  12.835  67.148  1.00  0.00    -0.234 A  
HETATM   22  C   UNL     1     -10.900  12.852  68.310  1.00  0.00    -0.263 A  
ENDBRANCH   8   9
ENDBRANCH   6   8
TORSDOF 2
ENDMDL
MODEL        3
REMARK 921   NORMALIZED FREE ENERGY PREDICTED BY IDOCK:   -7.19 KCAL/MOL
REMARK 922        TOTAL FREE ENERGY PREDICTED BY IDOCK:   -8.42 KCAL/MOL
REMARK 923 INTER-LIGAND FREE ENERGY PREDICTED BY IDOCK:   -7.71 KCAL/MOL
REMARK 924 INTRA-LIGAND FREE ENERGY PREDICTED BY IDOCK:   -0.71 KCAL/MOL
REMARK 927      BINDING AFFINITY PREDICTED BY RF-SCORE:    0.00 PKD
ROOT
HETATM    1  C   UNL     1     -12.269   6.541  71.721  1.00  0.00    -0.322 C  
HETATM    2  N   UNL     1     -12.071   7.765  72.490  1.00  0.00    -0.252 NA 
HETATM    3  C   UNL     1     -10.658   8.075  72.725  1.00  0.00    -0.351 C  
HETATM    4  C   UNL     1      -9.932   8.586  71.480  1.00  0.00    -0.314 C  
HETATM    5  C   UNL     1     -10.657   9.776  70.860  1.00  0.00    -0.344 C  
HETATM    6  C   UNL     1     -12.154   9.479  70.619  1.00  0.00    -0.230 C  
HETATM    7  C   UNL     1     -12.782   8.907  71.906  1.00  0.00    -0.376 C  
ENDROOT
BRANCH   6   8
HETATM    8  C   UNL     1     -12.842  10.775  70.124  1.00  0.00    -0.148 C  
BRANCH   8   9
HETATM    9  C   UNL     1     -11.955  12.050  69.884  1.00  0.00    -0.391 C  
HETATM   10  C   UNL     1     -11.597  12.269  68.407  1.00  0.00    -0.377 A  
HETATM   11  C   UNL     1     -11.263  11.160  67.592  1.00  0.00    -0.364 A  
HETATM   12  C   UNL     1     -10.773  11.308  66.290  1.00  0.00    -0.312 A  
HETATM   13  C   UNL     1     -10.573  12.574  65.768  1.00  0.00    -0.299 A  
HETATM   14  C   UNL     1     -10.916  13.681  66.536  1.00  0.00    -0.295 A  
HETATM   15  C   UNL     1     -11.444  13.540  67.837  1.00  0.00    -0.318 A  
HETATM   16  S   UNL     1     -11.887  15.056  68.626  1.00  0.00    -0.257 SA 
HETATM   17  C   UNL     1     -12.502  14.559  70.202  1.00  0.00    -0.321 A  
HETATM   18  C   UNL     1     -13.068  15.587  70.980  1.00  0.00    -0.551 A  
HETATM   19  C   UNL     1     -13.517  15.354  72.274  1.00  0.00    -0.573 A  
HETATM   20  C   UNL     1     -13.357  14.095  72.827  1.00  0.00    -0.618 A  
HETATM   21  C   UNL     1     -12.796  13.069  72.063  1.00  0.00    -0.297 A  
HETATM   22  C   UNL     1     -12.422  13.257  70.710  1.00  0.00    -0.403 A  
ENDBRANCH   8   9
ENDBRANCH   6   8
TORSDOF 2
ENDMDL
MODEL        4
REMARK 921   NORMALIZED FREE ENERGY PREDICTED BY IDOCK:   -7.18 KCAL/MOL
REMARK 922        TOTAL FREE ENERGY PREDICTED BY IDOCK:   -8.41 KCAL/MOL
REMARK 923 INTER-LIGAND FREE ENERGY PREDICTED BY IDOCK:   -7.82 KCAL/MOL
REMARK 924 INTRA-LIGAND FREE ENERGY PREDICTED BY IDOCK:   -0.59 KCAL/MOL
REMARK 927      BINDING AFFINITY PREDICTED BY RF-SCORE:    0.00 PKD
ROOT
HETATM    1  C   UNL     1     -13.626  13.050  72.529  1.00  0.00    -0.434 C  
HETATM    2  N   UNL     1     -13.982  14.463  72.457  1.00  0.00    -0.551 NA 
HETATM    3  C   UNL     1     -13.245  15.292  73.415  1.00  0.00    -0.408 C  
HETATM    4  C   UNL     1     -11.781  15.509  73.033  1.00  0.00    -0.495 C  
HETATM    5  C   UNL     1     -11.649  16.061  71.617  1.00  0.00    -0.538 C  
HETATM    6  C   UNL     1     -12.433  15.214  70.591  1.00  0.00    -0.442 C  
HETATM    7  C   UNL     1     -13.874  14.992  71.093  1.00  0.00    -0.395 C  
ENDROOT
BRANCH   6   8
HETATM    8  C   UNL     1     -12.364  15.918  69.213  1.00  0.00     0.085 C  
BRANCH   8   9
HETATM    9  C   UNL     1     -11.042  15.794  68.372  1.00  0.00    -0.341 C  
HETATM   10  C   UNL     1     -11.121  14.725  67.273  1.00  0.00    -0.334 A  
HETATM   11  C   UNL     1     -11.767  13.492  67.536  1.00  0.00    -0.403 A  
HETATM   12  C   UNL     1     -11.730  12.421  66.637  1.00  0.00    -0.438 A  
HETATM   13  C   UNL     1     -11.021  12.538  65.453  1.00  0.00    -0.329 A  
HETATM   14  C   UNL     1     -10.399  13.745  65.157  1.00  0.00    -0.391 A  
HETATM   15  C   UNL     1     -10.460  14.842  66.044  1.00  0.00    -0.316 A  
HETATM   16  S   UNL     1      -9.672  16.310  65.461  1.00  0.00     0.105 SA 
HETATM   17  C   UNL     1      -9.914  17.475  66.762  1.00  0.00    -0.313 A  
HETATM   18  C   UNL     1      -9.502  18.792  66.477  1.00  0.00    -0.353 A  
HETATM   19  C   UNL     1      -9.558  19.793  67.439  1.00  0.00    -0.475 A  
HETATM   20  C   UNL     1      -9.981  19.477  68.718  1.00  0.00    -0.547 A  
HETATM   21  C   UNL     1     -10.392  18.174  69.010  1.00  0.00    -0.135 A  
HETATM   22  C   UNL     1     -10.437  17.161  68.022  1.00  0.00    -0.369 A  
ENDBRANCH   8   9
ENDBRANCH   6   8
TORSDOF 2
ENDMDL
MODEL        5
REMARK 921   NORMALIZED FREE ENERGY PREDICTED BY IDOCK:   -7.17 KCAL/MOL
REMARK 922        TOTAL FREE ENERGY PREDICTED BY IDOCK:   -8.40 KCAL/MOL
REMARK 923 INTER-LIGAND FREE ENERGY PREDICTED BY IDOCK:   -7.78 KCAL/MOL
REMARK 924 INTRA-LIGAND FREE ENERGY PREDICTED BY IDOCK:   -0.62 KCAL/MOL
REMARK 927      BINDING AFFINITY PREDICTED BY RF-SCORE:    0.00 PKD
ROOT
HETATM    1  C   UNL     1     -14.380   7.343  71.525  1.00  0.00    -0.440 C  
HETATM    2  N   UNL     1     -13.085   7.501  72.176  1.00  0.00    -0.127 NA 
HETATM    3  C   UNL     1     -12.104   6.495  71.762  1.00  0.00    -0.342 C  
HETATM    4  C   UNL     1     -11.565   6.716  70.348  1.00  0.00    -0.457 C  
HETATM    5  C   UNL     1     -11.007   8.126  70.178  1.00  0.00    -0.223 C  
HETATM    6  C   UNL     1     -12.018   9.205  70.626  1.00  0.00    -0.171 C  
HETATM    7  C   UNL     1     -12.555   8.861  72.030  1.00  0.00    -0.394 C  
ENDROOT
BRANCH   6   8
HETATM    8  C   UNL     1     -11.326  10.590  70.555  1.00  0.00    -0.400 C  
BRANCH   8   9
HETATM    9  C   UNL     1     -12.024  11.735  69.736  1.00  0.00    -0.392 C  
HETATM   10  C   UNL     1     -12.358  12.970  70.585  1.00  0.00    -0.391 A  
HETATM   11  C   UNL     1     -12.852  12.805  71.902  1.00  0.00    -0.306 A  
HETATM   12  C   UNL     1     -13.326  13.879  72.664  1.00  0.00    -0.640 A  
HETATM   13  C   UNL     1     -13.347  15.153  72.122  1.00  0.00    -0.501 A  
HETATM   14  C   UNL     1     -12.843  15.349  70.841  1.00  0.00    -0.536 A  
HETATM   15  C   UNL     1     -12.332  14.275  70.079  1.00  0.00    -0.346 A  
HETATM   16  S   UNL     1     -11.671  14.733  68.507  1.00  0.00    -0.301 SA 
HETATM   17  C   UNL     1     -11.123  13.208  67.810  1.00  0.00    -0.262 A  
HETATM   18  C   UNL     1     -10.410  13.321  66.601  1.00  0.00    -0.274 A  
HETATM   19  C   UNL     1      -9.990  12.196  65.900  1.00  0.00    -0.267 A  
HETATM   20  C   UNL     1     -10.324  10.941  66.377  1.00  0.00    -0.306 A  
HETATM   21  C   UNL     1     -11.031  10.820  67.575  1.00  0.00    -0.372 A  
HETATM   22  C   UNL     1     -11.384  11.946  68.357  1.00  0.00    -0.331 A  
ENDBRANCH   8   9
ENDBRANCH   6   8
TORSDOF 2
ENDMDL
MODEL        6
REMARK 921   NORMALIZED FREE ENERGY PREDICTED BY IDOCK:   -7.09 KCAL/MOL
REMARK 922        TOTAL FREE ENERGY PREDICTED BY IDOCK:   -8.32 KCAL/MOL
REMARK 923 INTER-LIGAND FREE ENERGY PREDICTED BY IDOCK:   -7.55 KCAL/MOL
REMARK 924 INTRA-LIGAND FREE ENERGY PREDICTED BY IDOCK:   -0.77 KCAL/MOL
REMARK 927      BINDING AFFINITY PREDICTED BY RF-SCORE:    0.00 PKD
ROOT
HETATM    1  C   UNL     1     -10.071  11.047  63.278  1.00  0.00    -0.348 C  
HETATM    2  N   UNL     1     -10.367  12.445  63.573  1.00  0.00    -0.410 NA 
HETATM    3  C   UNL     1     -11.771  12.798  63.345  1.00  0.00    -0.488 C  
HETATM    4  C   UNL     1     -12.719  12.239  64.406  1.00  0.00    -0.384 C  
HETATM    5  C   UNL     1     -12.278  12.633  65.812  1.00  0.00    -0.427 C  
HETATM    6  C   UNL     1     -10.794  12.287  66.071  1.00  0.00    -0.310 C  
HETATM    7  C   UNL     1      -9.927  12.831  64.918  1.00  0.00    -0.136 C  
ENDROOT
BRANCH   6   8
HETATM    8  C   UNL     1     -10.391  12.844  67.459  1.00  0.00    -0.223 C  
BRANCH   8   9
HETATM    9  C   UNL     1     -11.386  13.812  68.196  1.00  0.00    -0.315 C  
HETATM   10  C   UNL     1     -11.847  13.282  69.561  1.00  0.00    -0.388 A  
HETATM   11  C   UNL     1     -12.143  11.906  69.718  1.00  0.00    -0.321 A  
HETATM   12  C   UNL     1     -12.720  11.393  70.884  1.00  0.00    -0.397 A  
HETATM   13  C   UNL     1     -13.047  12.245  71.925  1.00  0.00    -0.469 A  
HETATM   14  C   UNL     1     -12.744  13.597  71.809  1.00  0.00    -0.359 A  
HETATM   15  C   UNL     1     -12.130  14.117  70.649  1.00  0.00    -0.351 A  
HETATM   16  S   UNL     1     -11.758  15.842  70.719  1.00  0.00    -0.427 SA 
HETATM   17  C   UNL     1     -11.014  16.185  69.156  1.00  0.00    -0.309 A  
HETATM   18  C   UNL     1     -10.482  17.481  69.014  1.00  0.00    -0.250 A  
HETATM   19  C   UNL     1      -9.941  17.915  67.810  1.00  0.00    -0.331 A  
HETATM   20  C   UNL     1      -9.972  17.070  66.714  1.00  0.00    -0.297 A  
HETATM   21  C   UNL     1     -10.497  15.782  66.846  1.00  0.00    -0.315 A  
HETATM   22  C   UNL     1     -10.964  15.284  68.086  1.00  0.00    -0.292 A  
ENDBRANCH   8   9
ENDBRANCH   6   8
TORSDOF 2
ENDMDL
MODEL        7
REMARK 921   NORMALIZED FREE ENERGY PREDICTED BY IDOCK:   -7.00 KCAL/MOL
REMARK 922        TOTAL FREE ENERGY PREDICTED BY IDOCK:   -8.21 KCAL/MOL
REMARK 923 INTER-LIGAND FREE ENERGY PREDICTED BY IDOCK:   -7.57 KCAL/MOL
REMARK 924 INTRA-LIGAND FREE ENERGY PREDICTED BY IDOCK:   -0.64 KCAL/MOL
REMARK 927      BINDING AFFINITY PREDICTED BY RF-SCORE:    0.00 PKD
ROOT
HETATM    1  C   UNL     1     -10.995  16.933  64.835  1.00  0.00    -0.001 C  
HETATM    2  N   UNL     1      -9.792  16.993  65.658  1.00  0.00    -0.562 NA 
HETATM    3  C   UNL     1      -9.622  18.282  66.336  1.00  0.00    -0.305 C  
HETATM    4  C   UNL     1     -10.587  18.487  67.503  1.00  0.00    -0.461 C  
HETATM    5  C   UNL     1     -10.514  17.332  68.497  1.00  0.00    -0.375 C  
HETATM    6  C   UNL     1     -10.672  15.961  67.803  1.00  0.00    -0.320 C  
HETATM    7  C   UNL     1      -9.710  15.874  66.602  1.00  0.00    -0.253 C  
ENDROOT
BRANCH   6   8
HETATM    8  C   UNL     1     -10.446  14.845  68.853  1.00  0.00    -0.242 C  
BRANCH   8   9
HETATM    9  C   UNL     1     -11.542  13.731  69.012  1.00  0.00    -0.356 C  
HETATM   10  C   UNL     1     -11.029  12.323  68.676  1.00  0.00    -0.276 A  
HETATM   11  C   UNL     1     -10.157  12.137  67.575  1.00  0.00    -0.204 A  
HETATM   12  C   UNL     1      -9.786  10.867  67.120  1.00  0.00    -0.199 A  
HETATM   13  C   UNL     1     -10.297   9.738  67.736  1.00  0.00    -0.274 A  
HETATM   14  C   UNL     1     -11.134   9.890  68.835  1.00  0.00    -0.181 A  
HETATM   15  C   UNL     1     -11.486  11.168  69.321  1.00  0.00    -0.294 A  
HETATM   16  S   UNL     1     -12.497  11.157  70.768  1.00  0.00    -0.374 SA 
HETATM   17  C   UNL     1     -12.761  12.864  71.123  1.00  0.00    -0.276 A  
HETATM   18  C   UNL     1     -13.425  13.132  72.336  1.00  0.00    -0.643 A  
HETATM   19  C   UNL     1     -13.771  14.427  72.702  1.00  0.00    -0.546 A  
HETATM   20  C   UNL     1     -13.501  15.469  71.832  1.00  0.00    -0.576 A  
HETATM   21  C   UNL     1     -12.842  15.213  70.627  1.00  0.00    -0.440 A  
HETATM   22  C   UNL     1     -12.392  13.916  70.277  1.00  0.00    -0.413 A  
ENDBRANCH   8   9
ENDBRANCH   6   8
TORSDOF 2
ENDMDL
MODEL        8
REMARK 921   NORMALIZED FREE ENERGY PREDICTED BY IDOCK:   -6.97 KCAL/MOL
REMARK 922        TOTAL FREE ENERGY PREDICTED BY IDOCK:   -8.18 KCAL/MOL
REMARK 923 INTER-LIGAND FREE ENERGY PREDICTED BY IDOCK:   -7.45 KCAL/MOL
REMARK 924 INTRA-LIGAND FREE ENERGY PREDICTED BY IDOCK:   -0.73 KCAL/MOL
REMARK 927      BINDING AFFINITY PREDICTED BY RF-SCORE:    0.00 PKD
ROOT
HETATM    1  C   UNL     1     -10.271  19.804  68.150  1.00  0.00    -0.452 C  
HETATM    2  N   UNL     1     -10.545  18.605  67.365  1.00  0.00    -0.434 NA 
HETATM    3  C   UNL     1      -9.574  18.385  66.290  1.00  0.00    -0.261 C  
HETATM    4  C   UNL     1      -8.212  17.903  66.788  1.00  0.00    -0.273 C  
HETATM    5  C   UNL     1      -8.346  16.663  67.666  1.00  0.00    -0.183 C  
HETATM    6  C   UNL     1      -9.378  16.864  68.798  1.00  0.00    -0.260 C  
HETATM    7  C   UNL     1     -10.693  17.414  68.209  1.00  0.00    -0.327 C  
ENDROOT
BRANCH   6   8
HETATM    8  C   UNL     1      -9.556  15.521  69.549  1.00  0.00    -0.278 C  
BRANCH   8   9
HETATM    9  C   UNL     1     -10.963  14.823  69.514  1.00  0.00    -0.287 C  
HETATM   10  C   UNL     1     -10.947  13.462  68.803  1.00  0.00    -0.290 A  
HETATM   11  C   UNL     1     -10.178  13.293  67.626  1.00  0.00    -0.228 A  
HETATM   12  C   UNL     1     -10.248  12.134  66.846  1.00  0.00    -0.228 A  
HETATM   13  C   UNL     1     -11.114  11.114  67.203  1.00  0.00    -0.352 A  
HETATM   14  C   UNL     1     -11.861  11.241  68.367  1.00  0.00    -0.331 A  
HETATM   15  C   UNL     1     -11.770  12.393  69.179  1.00  0.00    -0.322 A  
HETATM   16  S   UNL     1     -12.740  12.339  70.653  1.00  0.00     0.033 SA 
HETATM   17  C   UNL     1     -12.420  13.887  71.436  1.00  0.00    -0.340 A  
HETATM   18  C   UNL     1     -12.968  14.034  72.725  1.00  0.00    -0.473 A  
HETATM   19  C   UNL     1     -12.864  15.230  73.424  1.00  0.00    -0.667 A  
HETATM   20  C   UNL     1     -12.253  16.315  72.818  1.00  0.00    -0.592 A  
HETATM   21  C   UNL     1     -11.708  16.178  71.540  1.00  0.00    -0.533 A  
HETATM   22  C   UNL     1     -11.714  14.942  70.848  1.00  0.00    -0.374 A  
ENDBRANCH   8   9
ENDBRANCH   6   8
TORSDOF 2
ENDMDL
MODEL        9
REMARK 921   NORMALIZED FREE ENERGY PREDICTED BY IDOCK:   -6.92 KCAL/MOL
REMARK 922        TOTAL FREE ENERGY PREDICTED BY IDOCK:   -8.13 KCAL/MOL
REMARK 923 INTER-LIGAND FREE ENERGY PREDICTED BY IDOCK:   -7.33 KCAL/MOL
REMARK 924 INTRA-LIGAND FREE ENERGY PREDICTED BY IDOCK:   -0.80 KCAL/MOL
REMARK 927      BINDING AFFINITY PREDICTED BY RF-SCORE:    0.00 PKD
ROOT
HETATM    1  C   UNL     1      -7.540  20.222  66.659  1.00  0.00    -0.265 C  
HETATM    2  N   UNL     1      -8.495  20.064  67.751  1.00  0.00    -0.306 NA 
HETATM    3  C   UNL     1      -9.846  20.514  67.405  1.00  0.00    -0.434 C  
HETATM    4  C   UNL     1     -10.578  19.566  66.456  1.00  0.00    -0.579 C  
HETATM    5  C   UNL     1     -10.598  18.140  66.998  1.00  0.00    -0.346 C  
HETATM    6  C   UNL     1      -9.186  17.649  67.387  1.00  0.00    -0.247 C  
HETATM    7  C   UNL     1      -8.503  18.699  68.287  1.00  0.00    -0.324 C  
ENDROOT
BRANCH   6   8
HETATM    8  C   UNL     1      -9.313  16.257  68.055  1.00  0.00    -0.214 C  
BRANCH   8   9
HETATM    9  C   UNL     1     -10.692  15.509  67.974  1.00  0.00    -0.283 C  
HETATM   10  C   UNL     1     -10.704  14.367  66.948  1.00  0.00    -0.292 A  
HETATM   11  C   UNL     1     -10.053  14.536  65.701  1.00  0.00    -0.384 A  
HETATM   12  C   UNL     1     -10.165  13.601  64.666  1.00  0.00    -0.338 A  
HETATM   13  C   UNL     1     -10.955  12.477  64.834  1.00  0.00    -0.335 A  
HETATM   14  C   UNL     1     -11.584  12.272  66.057  1.00  0.00    -0.451 A  
HETATM   15  C   UNL     1     -11.448  13.194  67.118  1.00  0.00    -0.334 A  
HETATM   16  S   UNL     1     -12.261  12.725  68.614  1.00  0.00     0.223 SA 
HETATM   17  C   UNL     1     -11.914  14.050  69.726  1.00  0.00    -0.334 A  
HETATM   18  C   UNL     1     -12.332  13.845  71.055  1.00  0.00    -0.453 A  
HETATM   19  C   UNL     1     -12.197  14.838  72.018  1.00  0.00    -0.408 A  
HETATM   20  C   UNL     1     -11.688  16.071  71.649  1.00  0.00    -0.583 A  
HETATM   21  C   UNL     1     -11.271  16.282  70.332  1.00  0.00    -0.336 A  
HETATM   22  C   UNL     1     -11.306  15.255  69.358  1.00  0.00    -0.304 A  
ENDBRANCH   8   9
ENDBRANCH   6   8
TORSDOF 2
ENDMDL
MODEL       10
REMARK 921   NORMALIZED FREE ENERGY PREDICTED BY IDOCK:   -6.92 KCAL/MOL
REMARK 922        TOTAL FREE ENERGY PREDICTED BY IDOCK:   -8.13 KCAL/MOL
REMARK 923 INTER-LIGAND FREE ENERGY PREDICTED BY IDOCK:   -7.41 KCAL/MOL
REMARK 924 INTRA-LIGAND FREE ENERGY PREDICTED BY IDOCK:   -0.72 KCAL/MOL
REMARK 927      BINDING AFFINITY PREDICTED BY RF-SCORE:    0.00 PKD
ROOT
HETATM    1  C   UNL     1      -9.672   9.902  65.198  1.00  0.00    -0.306 C  
HETATM    2  N   UNL     1      -9.473  11.323  64.930  1.00  0.00    -0.216 NA 
HETATM    3  C   UNL     1      -9.842  11.709  63.566  1.00  0.00    -0.370 C  
HETATM    4  C   UNL     1     -11.352  11.745  63.331  1.00  0.00    -0.437 C  
HETATM    5  C   UNL     1     -12.056  12.625  64.359  1.00  0.00    -0.487 C  
HETATM    6  C   UNL     1     -11.669  12.248  65.806  1.00  0.00    -0.445 C  
HETATM    7  C   UNL     1     -10.134  12.171  65.928  1.00  0.00    -0.245 C  
ENDROOT
BRANCH   6   8
HETATM    8  C   UNL     1     -12.311  13.273  66.773  1.00  0.00    -0.239 C  
BRANCH   8   9
HETATM    9  C   UNL     1     -11.422  13.887  67.914  1.00  0.00    -0.350 C  
HETATM   10  C   UNL     1     -11.092  15.370  67.692  1.00  0.00    -0.316 A  
HETATM   11  C   UNL     1     -10.781  15.835  66.391  1.00  0.00    -0.277 A  
HETATM   12  C   UNL     1     -10.316  17.132  66.150  1.00  0.00    -0.327 A  
HETATM   13  C   UNL     1     -10.119  18.002  67.209  1.00  0.00    -0.346 A  
HETATM   14  C   UNL     1     -10.441  17.582  68.495  1.00  0.00    -0.361 A  
HETATM   15  C   UNL     1     -10.944  16.285  68.742  1.00  0.00    -0.343 A  
HETATM   16  S   UNL     1     -11.362  15.962  70.426  1.00  0.00    -0.405 SA 
HETATM   17  C   UNL     1     -11.948  14.299  70.413  1.00  0.00    -0.332 A  
HETATM   18  C   UNL     1     -12.492  13.842  71.629  1.00  0.00    -0.337 A  
HETATM   19  C   UNL     1     -12.916  12.528  71.785  1.00  0.00    -0.419 A  
HETATM   20  C   UNL     1     -12.752  11.638  70.738  1.00  0.00    -0.291 A  
HETATM   21  C   UNL     1     -12.213  12.082  69.529  1.00  0.00    -0.176 A  
HETATM   22  C   UNL     1     -11.865  13.437  69.313  1.00  0.00    -0.385 A  
ENDBRANCH   8   9
ENDBRANCH   6   8
TORSDOF 2
ENDMDL
MODEL       11
REMARK 921   NORMALIZED FREE ENERGY PREDICTED BY IDOCK:   -6.92 KCAL/MOL
REMARK 922        TOTAL FREE ENERGY PREDICTED BY IDOCK:   -8.13 KCAL/MOL
REMARK 923 INTER-LIGAND FREE ENERGY PREDICTED BY IDOCK:   -7.50 KCAL/MOL
REMARK 924 INTRA-LIGAND FREE ENERGY PREDICTED BY IDOCK:   -0.62 KCAL/MOL
REMARK 927      BINDING AFFINITY PREDICTED BY RF-SCORE:    0.00 PKD
ROOT
HETATM    1  C   UNL     1      -7.077  17.062  67.242  1.00  0.00    -0.163 C  
HETATM    2  N   UNL     1      -7.859  17.348  68.440  1.00  0.00    -0.247 NA 
HETATM    3  C   UNL     1      -8.364  18.723  68.483  1.00  0.00    -0.346 C  
HETATM    4  C   UNL     1      -9.517  18.979  67.512  1.00  0.00    -0.351 C  
HETATM    5  C   UNL     1     -10.647  17.975  67.711  1.00  0.00    -0.409 C  
HETATM    6  C   UNL     1     -10.137  16.517  67.688  1.00  0.00    -0.266 C  
HETATM    7  C   UNL     1      -8.936  16.373  68.644  1.00  0.00    -0.233 C  
ENDROOT
BRANCH   6   8
HETATM    8  C   UNL     1     -11.315  15.574  68.035  1.00  0.00    -0.332 C  
BRANCH   8   9
HETATM    9  C   UNL     1     -11.058  14.390  69.036  1.00  0.00    -0.282 C  
HETATM   10  C   UNL     1     -12.010  14.396  70.240  1.00  0.00    -0.388 A  
HETATM   11  C   UNL     1     -12.353  15.623  70.858  1.00  0.00    -0.479 A  
HETATM   12  C   UNL     1     -13.081  15.682  72.052  1.00  0.00    -0.541 A  
HETATM   13  C   UNL     1     -13.468  14.512  72.683  1.00  0.00    -0.590 A  
HETATM   14  C   UNL     1     -13.168  13.293  72.085  1.00  0.00    -0.562 A  
HETATM   15  C   UNL     1     -12.464  13.227  70.863  1.00  0.00    -0.342 A  
HETATM   16  S   UNL     1     -12.241  11.595  70.225  1.00  0.00    -0.288 SA 
HETATM   17  C   UNL     1     -11.347  11.838  68.724  1.00  0.00    -0.267 A  
HETATM   18  C   UNL     1     -11.170  10.685  67.935  1.00  0.00    -0.376 A  
HETATM   19  C   UNL     1     -10.415  10.713  66.769  1.00  0.00    -0.303 A  
HETATM   20  C   UNL     1      -9.783  11.889  66.403  1.00  0.00    -0.238 A  
HETATM   21  C   UNL     1      -9.953  13.038  67.180  1.00  0.00    -0.235 A  
HETATM   22  C   UNL     1     -10.796  13.058  68.317  1.00  0.00    -0.267 A  
ENDBRANCH   8   9
ENDBRANCH   6   8
TORSDOF 2
ENDMDL
MODEL       12
REMARK 921   NORMALIZED FREE ENERGY PREDICTED BY IDOCK:   -6.90 KCAL/MOL
REMARK 922        TOTAL FREE ENERGY PREDICTED BY IDOCK:   -8.11 KCAL/MOL
REMARK 923 INTER-LIGAND FREE ENERGY PREDICTED BY IDOCK:   -7.34 KCAL/MOL
REMARK 924 INTRA-LIGAND FREE ENERGY PREDICTED BY IDOCK:   -0.76 KCAL/MOL
REMARK 927      BINDING AFFINITY PREDICTED BY RF-SCORE:    0.00 PKD
ROOT
HETATM    1  C   UNL     1      -8.824   8.755  67.275  1.00  0.00    -0.132 C  
HETATM    2  N   UNL     1      -8.494  10.127  66.906  1.00  0.00    -0.125 NA 
HETATM    3  C   UNL     1      -8.325  10.310  65.462  1.00  0.00    -0.164 C  
HETATM    4  C   UNL     1      -9.643  10.281  64.686  1.00  0.00    -0.374 C  
HETATM    5  C   UNL     1     -10.645  11.282  65.251  1.00  0.00    -0.323 C  
HETATM    6  C   UNL     1     -10.827  11.121  66.777  1.00  0.00    -0.322 C  
HETATM    7  C   UNL     1      -9.446  11.094  67.463  1.00  0.00    -0.168 C  
ENDROOT
BRANCH   6   8
HETATM    8  C   UNL     1     -11.745  12.258  67.289  1.00  0.00    -0.394 C  
BRANCH   8   9
HETATM    9  C   UNL     1     -11.197  13.221  68.403  1.00  0.00    -0.314 C  
HETATM   10  C   UNL     1     -10.986  14.660  67.911  1.00  0.00    -0.283 A  
HETATM   11  C   UNL     1     -10.449  14.889  66.620  1.00  0.00    -0.292 A  
HETATM   12  C   UNL     1     -10.083  16.165  66.179  1.00  0.00    -0.356 A  
HETATM   13  C   UNL     1     -10.216  17.253  67.025  1.00  0.00    -0.320 A  
HETATM   14  C   UNL     1     -10.764  17.061  68.288  1.00  0.00    -0.372 A  
HETATM   15  C   UNL     1     -11.168  15.782  68.728  1.00  0.00    -0.342 A  
HETATM   16  S   UNL     1     -11.908  15.751  70.331  1.00  0.00    -0.359 SA 
HETATM   17  C   UNL     1     -12.297  14.050  70.593  1.00  0.00    -0.375 A  
HETATM   18  C   UNL     1     -13.042  13.775  71.755  1.00  0.00    -0.463 A  
HETATM   19  C   UNL     1     -13.348  12.472  72.129  1.00  0.00    -0.540 A  
HETATM   20  C   UNL     1     -12.866  11.421  71.367  1.00  0.00    -0.502 A  
HETATM   21  C   UNL     1     -12.126  11.685  70.212  1.00  0.00    -0.443 A  
HETATM   22  C   UNL     1     -11.885  13.004  69.758  1.00  0.00    -0.381 A  
ENDBRANCH   8   9
ENDBRANCH   6   8
TORSDOF 2
ENDMDL
MODEL       13
REMARK 921   NORMALIZED FREE ENERGY PREDICTED BY IDOCK:   -6.78 KCAL/MOL
REMARK 922        TOTAL FREE ENERGY PREDICTED BY IDOCK:   -7.97 KCAL/MOL
REMARK 923 INTER-LIGAND FREE ENERGY PREDICTED BY IDOCK:   -7.51 KCAL/MOL
REMARK 924 INTRA-LIGAND FREE ENERGY PREDICTED BY IDOCK:   -0.45 KCAL/MOL
REMARK 927      BINDING AFFINITY PREDICTED BY RF-SCORE:    0.00 PKD
ROOT
HETATM    1  C   UNL     1      -9.781   8.222  72.375  1.00  0.00    -0.303 C  
HETATM    2  N   UNL     1     -10.664   7.787  71.299  1.00  0.00    -0.227 NA 
HETATM    3  C   UNL     1     -11.916   7.198  71.783  1.00  0.00    -0.313 C  
HETATM    4  C   UNL     1     -12.896   8.229  72.345  1.00  0.00    -0.261 C  
HETATM    5  C   UNL     1     -13.168   9.345  71.343  1.00  0.00    -0.415 C  
HETATM    6  C   UNL     1     -11.862   9.970  70.804  1.00  0.00    -0.435 C  
HETATM    7  C   UNL     1     -10.913   8.854  70.323  1.00  0.00    -0.241 C  
ENDROOT
BRANCH   6   8
HETATM    8  C   UNL     1     -12.222  10.990  69.695  1.00  0.00    -0.370 C  
BRANCH   8   9
HETATM    9  C   UNL     1     -11.564  12.416  69.745  1.00  0.00    -0.302 C  
HETATM   10  C   UNL     1     -11.023  12.881  68.385  1.00  0.00    -0.285 A  
HETATM   11  C   UNL     1     -10.362  11.958  67.538  1.00  0.00    -0.219 A  
HETATM   12  C   UNL     1      -9.708  12.353  66.366  1.00  0.00    -0.246 A  
HETATM   13  C   UNL     1      -9.668  13.692  66.016  1.00  0.00    -0.239 A  
HETATM   14  C   UNL     1     -10.330  14.617  66.815  1.00  0.00    -0.268 A  
HETATM   15  C   UNL     1     -11.023  14.221  67.980  1.00  0.00    -0.249 A  
HETATM   16  S   UNL     1     -11.861  15.527  68.822  1.00  0.00    -0.251 SA 
HETATM   17  C   UNL     1     -12.614  14.734  70.206  1.00  0.00    -0.315 A  
HETATM   18  C   UNL     1     -13.479  15.544  70.967  1.00  0.00    -0.436 A  
HETATM   19  C   UNL     1     -14.076  15.074  72.131  1.00  0.00    -0.629 A  
HETATM   20  C   UNL     1     -13.772  13.799  72.576  1.00  0.00    -0.667 A  
HETATM   21  C   UNL     1     -12.915  12.989  71.828  1.00  0.00    -0.420 A  
HETATM   22  C   UNL     1     -12.373  13.410  70.589  1.00  0.00    -0.423 A  
ENDBRANCH   8   9
ENDBRANCH   6   8
TORSDOF 2
ENDMDL
MODEL       14
REMARK 921   NORMALIZED FREE ENERGY PREDICTED BY IDOCK:   -6.78 KCAL/MOL
REMARK 922        TOTAL FREE ENERGY PREDICTED BY IDOCK:   -7.97 KCAL/MOL
REMARK 923 INTER-LIGAND FREE ENERGY PREDICTED BY IDOCK:   -7.18 KCAL/MOL
REMARK 924 INTRA-LIGAND FREE ENERGY PREDICTED BY IDOCK:   -0.79 KCAL/MOL
REMARK 927      BINDING AFFINITY PREDICTED BY RF-SCORE:    0.00 PKD
ROOT
HETATM    1  C   UNL     1      -7.752  10.552  69.402  1.00  0.00    -0.155 C  
HETATM    2  N   UNL     1      -8.855   9.725  68.925  1.00  0.00    -0.134 NA 
HETATM    3  C   UNL     1      -9.291   8.725  69.904  1.00  0.00    -0.162 C  
HETATM    4  C   UNL     1     -10.074   9.321  71.074  1.00  0.00    -0.373 C  
HETATM    5  C   UNL     1     -11.251  10.160  70.587  1.00  0.00    -0.418 C  
HETATM    6  C   UNL     1     -10.819  11.210  69.539  1.00  0.00    -0.241 C  
HETATM    7  C   UNL     1      -9.981  10.529  68.439  1.00  0.00    -0.164 C  
ENDROOT
BRANCH   6   8
HETATM    8  C   UNL     1     -12.085  11.918  68.997  1.00  0.00    -0.245 C  
BRANCH   8   9
HETATM    9  C   UNL     1     -12.159  13.486  69.072  1.00  0.00    -0.330 C  
HETATM   10  C   UNL     1     -12.199  14.023  70.510  1.00  0.00    -0.435 A  
HETATM   11  C   UNL     1     -12.971  13.351  71.489  1.00  0.00    -0.429 A  
HETATM   12  C   UNL     1     -13.179  13.877  72.769  1.00  0.00    -0.543 A  
HETATM   13  C   UNL     1     -12.644  15.110  73.103  1.00  0.00    -0.585 A  
HETATM   14  C   UNL     1     -11.860  15.779  72.171  1.00  0.00    -0.593 A  
HETATM   15  C   UNL     1     -11.617  15.238  70.889  1.00  0.00    -0.343 A  
HETATM   16  S   UNL     1     -10.539  16.199  69.873  1.00  0.00    -0.273 SA 
HETATM   17  C   UNL     1     -10.434  15.282  68.370  1.00  0.00    -0.236 A  
HETATM   18  C   UNL     1      -9.502  15.767  67.432  1.00  0.00    -0.213 A  
HETATM   19  C   UNL     1      -9.373  15.191  66.174  1.00  0.00    -0.346 A  
HETATM   20  C   UNL     1     -10.214  14.151  65.819  1.00  0.00    -0.347 A  
HETATM   21  C   UNL     1     -11.142  13.664  66.742  1.00  0.00    -0.315 A  
HETATM   22  C   UNL     1     -11.224  14.168  68.063  1.00  0.00    -0.302 A  
ENDBRANCH   8   9
ENDBRANCH   6   8
TORSDOF 2
ENDMDL
MODEL       15
REMARK 921   NORMALIZED FREE ENERGY PREDICTED BY IDOCK:   -6.72 KCAL/MOL
REMARK 922        TOTAL FREE ENERGY PREDICTED BY IDOCK:   -7.90 KCAL/MOL
REMARK 923 INTER-LIGAND FREE ENERGY PREDICTED BY IDOCK:   -7.45 KCAL/MOL
REMARK 924 INTRA-LIGAND FREE ENERGY PREDICTED BY IDOCK:   -0.45 KCAL/MOL
REMARK 927      BINDING AFFINITY PREDICTED BY RF-SCORE:    0.00 PKD
ROOT
HETATM    1  C   UNL     1     -12.392  14.624  73.827  1.00  0.00    -0.165 C  
HETATM    2  N   UNL     1     -13.540  14.472  72.939  1.00  0.00    -0.590 NA 
HETATM    3  C   UNL     1     -13.679  15.575  71.984  1.00  0.00    -0.498 C  
HETATM    4  C   UNL     1     -12.643  15.542  70.861  1.00  0.00    -0.512 C  
HETATM    5  C   UNL     1     -12.638  14.195  70.144  1.00  0.00    -0.325 C  
HETATM    6  C   UNL     1     -12.510  13.015  71.133  1.00  0.00    -0.364 C  
HETATM    7  C   UNL     1     -13.548  13.170  72.263  1.00  0.00    -0.581 C  
ENDROOT
BRANCH   6   8
HETATM    8  C   UNL     1     -12.656  11.691  70.343  1.00  0.00    -0.213 C  
BRANCH   8   9
HETATM    9  C   UNL     1     -11.356  10.879  69.994  1.00  0.00    -0.386 C  
HETATM   10  C   UNL     1     -11.343   9.467  70.598  1.00  0.00    -0.364 A  
HETATM   11  C   UNL     1     -11.830   9.260  71.912  1.00  0.00    -0.426 A  
HETATM   12  C   UNL     1     -11.696   8.036  72.576  1.00  0.00    -0.446 A  
HETATM   13  C   UNL     1     -11.044   6.983  71.956  1.00  0.00    -0.276 A  
HETATM   14  C   UNL     1     -10.580   7.149  70.657  1.00  0.00    -0.243 A  
HETATM   15  C   UNL     1     -10.742   8.371  69.968  1.00  0.00    -0.236 A  
HETATM   16  S   UNL     1     -10.152   8.366  68.304  1.00  0.00    -0.204 SA 
HETATM   17  C   UNL     1     -10.488   9.997  67.722  1.00  0.00    -0.234 A  
HETATM   18  C   UNL     1     -10.244  10.211  66.352  1.00  0.00    -0.288 A  
HETATM   19  C   UNL     1     -10.387  11.468  65.777  1.00  0.00    -0.295 A  
HETATM   20  C   UNL     1     -10.728  12.542  66.581  1.00  0.00    -0.261 A  
HETATM   21  C   UNL     1     -10.972  12.339  67.942  1.00  0.00    -0.265 A  
HETATM   22  C   UNL     1     -10.929  11.052  68.530  1.00  0.00    -0.276 A  
ENDBRANCH   8   9
ENDBRANCH   6   8
TORSDOF 2
ENDMDL
MODEL       16
REMARK 921   NORMALIZED FREE ENERGY PREDICTED BY IDOCK:   -6.67 KCAL/MOL
REMARK 922        TOTAL FREE ENERGY PREDICTED BY IDOCK:   -7.85 KCAL/MOL
REMARK 923 INTER-LIGAND FREE ENERGY PREDICTED BY IDOCK:   -8.28 KCAL/MOL
REMARK 924 INTRA-LIGAND FREE ENERGY PREDICTED BY IDOCK:    0.43 KCAL/MOL
REMARK 927      BINDING AFFINITY PREDICTED BY RF-SCORE:    0.00 PKD
ROOT
HETATM    1  C   UNL     1     -12.118  15.170  64.102  1.00  0.00    -0.176 C  
HETATM    2  N   UNL     1     -12.730  13.853  64.238  1.00  0.00    -0.649 NA 
HETATM    3  C   UNL     1     -12.121  12.842  63.368  1.00  0.00    -0.530 C  
HETATM    4  C   UNL     1     -10.738  12.391  63.836  1.00  0.00    -0.465 C  
HETATM    5  C   UNL     1     -10.766  11.919  65.287  1.00  0.00    -0.331 C  
HETATM    6  C   UNL     1     -11.421  12.961  66.221  1.00  0.00    -0.395 C  
HETATM    7  C   UNL     1     -12.775  13.405  65.634  1.00  0.00    -0.370 C  
ENDROOT
BRANCH   6   8
HETATM    8  C   UNL     1     -11.537  12.349  67.639  1.00  0.00    -0.421 C  
BRANCH   8   9
HETATM    9  C   UNL     1     -11.108  13.225  68.871  1.00  0.00    -0.304 C  
HETATM   10  C   UNL     1     -10.840  14.693  68.508  1.00  0.00    -0.256 A  
HETATM   11  C   UNL     1     -10.168  15.006  67.302  1.00  0.00    -0.242 A  
HETATM   12  C   UNL     1      -9.752  16.306  66.993  1.00  0.00    -0.244 A  
HETATM   13  C   UNL     1      -9.971  17.333  67.895  1.00  0.00    -0.297 A  
HETATM   14  C   UNL     1     -10.652  17.059  69.076  1.00  0.00    -0.314 A  
HETATM   15  C   UNL     1     -11.105  15.757  69.379  1.00  0.00    -0.314 A  
HETATM   16  S   UNL     1     -12.012  15.621  70.887  1.00  0.00    -0.433 SA 
HETATM   17  C   UNL     1     -12.433  13.911  70.985  1.00  0.00    -0.377 A  
HETATM   18  C   UNL     1     -13.300  13.563  72.039  1.00  0.00    -0.563 A  
HETATM   19  C   UNL     1     -13.649  12.241  72.284  1.00  0.00    -0.299 A  
HETATM   20  C   UNL     1     -13.091  11.241  71.505  1.00  0.00    -0.459 A  
HETATM   21  C   UNL     1     -12.230  11.577  70.458  1.00  0.00    -0.469 A  
HETATM   22  C   UNL     1     -11.938  12.922  70.127  1.00  0.00    -0.373 A  
ENDBRANCH   8   9
ENDBRANCH   6   8
TORSDOF 2
ENDMDL
MODEL       17
REMARK 921   NORMALIZED FREE ENERGY PREDICTED BY IDOCK:   -6.64 KCAL/MOL
REMARK 922        TOTAL FREE ENERGY PREDICTED BY IDOCK:   -7.81 KCAL/MOL
REMARK 923 INTER-LIGAND FREE ENERGY PREDICTED BY IDOCK:   -7.42 KCAL/MOL
REMARK 924 INTRA-LIGAND FREE ENERGY PREDICTED BY IDOCK:   -0.39 KCAL/MOL
REMARK 927      BINDING AFFINITY PREDICTED BY RF-SCORE:    0.00 PKD
ROOT
HETATM    1  C   UNL     1     -14.342  15.450  71.355  1.00  0.00    -0.389 C  
HETATM    2  N   UNL     1     -13.058  15.013  71.892  1.00  0.00    -0.325 NA 
HETATM    3  C   UNL     1     -13.176  13.891  72.827  1.00  0.00    -0.441 C  
HETATM    4  C   UNL     1     -13.488  12.560  72.143  1.00  0.00    -0.523 C  
HETATM    5  C   UNL     1     -12.482  12.249  71.039  1.00  0.00    -0.361 C  
HETATM    6  C   UNL     1     -12.327  13.426  70.050  1.00  0.00    -0.294 C  
HETATM    7  C   UNL     1     -12.082  14.732  70.833  1.00  0.00    -0.324 C  
ENDROOT
BRANCH   6   8
HETATM    8  C   UNL     1     -11.193  13.087  69.052  1.00  0.00    -0.316 C  
BRANCH   8   9
HETATM    9  C   UNL     1     -11.425  11.927  68.018  1.00  0.00    -0.389 C  
HETATM   10  C   UNL     1     -11.540  12.420  66.568  1.00  0.00    -0.447 A  
HETATM   11  C   UNL     1     -12.253  13.611  66.285  1.00  0.00    -0.484 A  
HETATM   12  C   UNL     1     -12.531  14.024  64.978  1.00  0.00    -0.446 A  
HETATM   13  C   UNL     1     -12.127  13.244  63.908  1.00  0.00    -0.531 A  
HETATM   14  C   UNL     1     -11.403  12.084  64.155  1.00  0.00    -0.455 A  
HETATM   15  C   UNL     1     -11.089  11.678  65.470  1.00  0.00    -0.237 A  
HETATM   16  S   UNL     1     -10.100  10.219  65.579  1.00  0.00    -0.249 SA 
HETATM   17  C   UNL     1      -9.882   9.974  67.312  1.00  0.00    -0.181 A  
HETATM   18  C   UNL     1      -8.991   8.943  67.667  1.00  0.00    -0.141 A  
HETATM   19  C   UNL     1      -8.788   8.587  68.995  1.00  0.00    -0.145 A  
HETATM   20  C   UNL     1      -9.515   9.227  69.984  1.00  0.00    -0.236 A  
HETATM   21  C   UNL     1     -10.401  10.251  69.640  1.00  0.00    -0.281 A  
HETATM   22  C   UNL     1     -10.552  10.698  68.306  1.00  0.00    -0.227 A  
ENDBRANCH   8   9
ENDBRANCH   6   8
TORSDOF 2
ENDMDL
MODEL       18
REMARK 921   NORMALIZED FREE ENERGY PREDICTED BY IDOCK:   -6.56 KCAL/MOL
REMARK 922        TOTAL FREE ENERGY PREDICTED BY IDOCK:   -7.72 KCAL/MOL
REMARK 923 INTER-LIGAND FREE ENERGY PREDICTED BY IDOCK:   -7.36 KCAL/MOL
REMARK 924 INTRA-LIGAND FREE ENERGY PREDICTED BY IDOCK:   -0.37 KCAL/MOL
REMARK 927      BINDING AFFINITY PREDICTED BY RF-SCORE:    0.00 PKD
ROOT
HETATM    1  C   UNL     1     -11.085  15.627  64.778  1.00  0.00    -0.412 C  
HETATM    2  N   UNL     1     -11.864  14.476  65.220  1.00  0.00    -0.362 NA 
HETATM    3  C   UNL     1     -11.541  13.247  64.490  1.00  0.00    -0.369 C  
HETATM    4  C   UNL     1     -10.191  12.645  64.879  1.00  0.00    -0.295 C  
HETATM    5  C   UNL     1     -10.089  12.429  66.386  1.00  0.00    -0.252 C  
HETATM    6  C   UNL     1     -10.443  13.707  67.178  1.00  0.00    -0.264 C  
HETATM    7  C   UNL     1     -11.783  14.277  66.671  1.00  0.00    -0.400 C  
ENDROOT
BRANCH   6   8
HETATM    8  C   UNL     1     -10.453  13.366  68.689  1.00  0.00    -0.237 C  
BRANCH   8   9
HETATM    9  C   UNL     1     -11.674  12.564  69.269  1.00  0.00    -0.379 C  
HETATM   10  C   UNL     1     -11.338  11.103  69.599  1.00  0.00    -0.366 A  
HETATM   11  C   UNL     1     -10.507  10.358  68.725  1.00  0.00    -0.219 A  
HETATM   12  C   UNL     1     -10.297   8.984  68.883  1.00  0.00    -0.232 A  
HETATM   13  C   UNL     1     -10.934   8.302  69.905  1.00  0.00    -0.166 A  
HETATM   14  C   UNL     1     -11.734   9.011  70.793  1.00  0.00    -0.286 A  
HETATM   15  C   UNL     1     -11.923  10.404  70.661  1.00  0.00    -0.351 A  
HETATM   16  S   UNL     1     -12.913  11.140  71.926  1.00  0.00    -0.234 SA 
HETATM   17  C   UNL     1     -12.964  12.849  71.493  1.00  0.00    -0.294 A  
HETATM   18  C   UNL     1     -13.578  13.692  72.440  1.00  0.00    -0.703 A  
HETATM   19  C   UNL     1     -13.761  15.047  72.193  1.00  0.00    -0.559 A  
HETATM   20  C   UNL     1     -13.376  15.567  70.969  1.00  0.00    -0.495 A  
HETATM   21  C   UNL     1     -12.767  14.738  70.024  1.00  0.00    -0.199 A  
HETATM   22  C   UNL     1     -12.481  13.378  70.290  1.00  0.00    -0.285 A  
ENDBRANCH   8   9
ENDBRANCH   6   8
TORSDOF 2
ENDMDL
MODEL       19
REMARK 921   NORMALIZED FREE ENERGY PREDICTED BY IDOCK:   -6.54 KCAL/MOL
REMARK 922        TOTAL FREE ENERGY PREDICTED BY IDOCK:   -7.70 KCAL/MOL
REMARK 923 INTER-LIGAND FREE ENERGY PREDICTED BY IDOCK:   -6.97 KCAL/MOL
REMARK 924 INTRA-LIGAND FREE ENERGY PREDICTED BY IDOCK:   -0.73 KCAL/MOL
REMARK 927      BINDING AFFINITY PREDICTED BY RF-SCORE:    0.00 PKD
ROOT
HETATM    1  C   UNL     1     -10.390  12.909  64.764  1.00  0.00    -0.323 C  
HETATM    2  N   UNL     1     -10.843  11.584  65.172  1.00  0.00    -0.285 NA 
HETATM    3  C   UNL     1     -10.011  10.501  64.639  1.00  0.00    -0.347 C  
HETATM    4  C   UNL     1      -8.649  10.388  65.324  1.00  0.00    -0.184 C  
HETATM    5  C   UNL     1      -8.794  10.273  66.838  1.00  0.00    -0.141 C  
HETATM    6  C   UNL     1      -9.683  11.394  67.421  1.00  0.00    -0.196 C  
HETATM    7  C   UNL     1     -11.001  11.476  66.626  1.00  0.00    -0.296 C  
ENDROOT
BRANCH   6   8
HETATM    8  C   UNL     1      -9.892  11.123  68.932  1.00  0.00    -0.176 C  
BRANCH   8   9
HETATM    9  C   UNL     1     -11.317  10.679  69.424  1.00  0.00    -0.348 C  
HETATM   10  C   UNL     1     -11.347   9.249  69.981  1.00  0.00    -0.137 A  
HETATM   11  C   UNL     1     -10.603   8.229  69.340  1.00  0.00    -0.203 A  
HETATM   12  C   UNL     1     -10.716   6.881  69.699  1.00  0.00    -0.276 A  
HETATM   13  C   UNL     1     -11.601   6.505  70.695  1.00  0.00    -0.442 A  
HETATM   14  C   UNL     1     -12.325   7.488  71.360  1.00  0.00    -0.374 A  
HETATM   15  C   UNL     1     -12.190   8.854  71.027  1.00  0.00    -0.203 A  
HETATM   16  S   UNL     1     -13.137   9.957  72.029  1.00  0.00    -0.423 SA 
HETATM   17  C   UNL     1     -12.765  11.554  71.381  1.00  0.00    -0.364 A  
HETATM   18  C   UNL     1     -13.286  12.638  72.114  1.00  0.00    -0.570 A  
HETATM   19  C   UNL     1     -13.140  13.948  71.673  1.00  0.00    -0.446 A  
HETATM   20  C   UNL     1     -12.513  14.186  70.463  1.00  0.00    -0.431 A  
HETATM   21  C   UNL     1     -11.992  13.117  69.729  1.00  0.00    -0.382 A  
HETATM   22  C   UNL     1     -12.041  11.785  70.205  1.00  0.00    -0.426 A  
ENDBRANCH   8   9
ENDBRANCH   6   8
TORSDOF 2
ENDMDL
MODEL       20
REMARK 921   NORMALIZED FREE ENERGY PREDICTED BY IDOCK:   -6.53 KCAL/MOL
REMARK 922        TOTAL FREE ENERGY PREDICTED BY IDOCK:   -7.69 KCAL/MOL
REMARK 923 INTER-LIGAND FREE ENERGY PREDICTED BY IDOCK:   -6.92 KCAL/MOL
REMARK 924 INTRA-LIGAND FREE ENERGY PREDICTED BY IDOCK:   -0.77 KCAL/MOL
REMARK 927      BINDING AFFINITY PREDICTED BY RF-SCORE:    0.00 PKD
ROOT
HETATM    1  C   UNL     1     -10.712  13.050  64.097  1.00  0.00    -0.402 C  
HETATM    2  N   UNL     1     -11.098  11.824  64.787  1.00  0.00    -0.310 NA 
HETATM    3  C   UNL     1     -10.251  10.678  64.444  1.00  0.00    -0.330 C  
HETATM    4  C   UNL     1      -8.857  10.744  65.068  1.00  0.00    -0.190 C  
HETATM    5  C   UNL     1      -8.931  10.936  66.580  1.00  0.00    -0.178 C  
HETATM    6  C   UNL     1      -9.834  12.128  66.968  1.00  0.00    -0.212 C  
HETATM    7  C   UNL     1     -11.188  12.011  66.239  1.00  0.00    -0.342 C  
ENDROOT
BRANCH   6   8
HETATM    8  C   UNL     1      -9.968  12.166  68.510  1.00  0.00    -0.180 C  
BRANCH   8   9
HETATM    9  C   UNL     1     -11.372  11.870  69.149  1.00  0.00    -0.338 C  
HETATM   10  C   UNL     1     -11.421  10.540  69.916  1.00  0.00    -0.384 A  
HETATM   11  C   UNL     1     -10.763   9.402  69.390  1.00  0.00    -0.234 A  
HETATM   12  C   UNL     1     -10.904   8.129  69.954  1.00  0.00    -0.215 A  
HETATM   13  C   UNL     1     -11.734   7.947  71.047  1.00  0.00    -0.293 A  
HETATM   14  C   UNL     1     -12.372   9.051  71.600  1.00  0.00    -0.416 A  
HETATM   15  C   UNL     1     -12.207  10.345  71.058  1.00  0.00    -0.393 A  
HETATM   16  S   UNL     1     -13.038  11.628  71.940  1.00  0.00    -0.235 SA 
HETATM   17  C   UNL     1     -12.648  13.093  71.038  1.00  0.00    -0.312 A  
HETATM   18  C   UNL     1     -13.076  14.297  71.630  1.00  0.00    -0.417 A  
HETATM   19  C   UNL     1     -12.909  15.519  70.990  1.00  0.00    -0.543 A  
HETATM   20  C   UNL     1     -12.355  15.546  69.722  1.00  0.00    -0.261 A  
HETATM   21  C   UNL     1     -11.928  14.356  69.126  1.00  0.00    -0.357 A  
HETATM   22  C   UNL     1     -11.998  13.112  69.799  1.00  0.00    -0.382 A  
ENDBRANCH   8   9
ENDBRANCH   6   8
TORSDOF 2
ENDMDL
MODEL       21
REMARK 921   NORMALIZED FREE ENERGY PREDICTED BY IDOCK:   -6.49 KCAL/MOL
REMARK 922        TOTAL FREE ENERGY PREDICTED BY IDOCK:   -7.65 KCAL/MOL
REMARK 923 INTER-LIGAND FREE ENERGY PREDICTED BY IDOCK:   -6.94 KCAL/MOL
REMARK 924 INTRA-LIGAND FREE ENERGY PREDICTED BY IDOCK:   -0.70 KCAL/MOL
REMARK 927      BINDING AFFINITY PREDICTED BY RF-SCORE:    0.00 PKD
ROOT
HETATM    1  C   UNL     1      -7.778  14.951  69.245  1.00  0.00    -0.166 C  
HETATM    2  N   UNL     1      -9.011  15.728  69.311  1.00  0.00    -0.258 NA 
HETATM    3  C   UNL     1      -9.018  16.876  68.400  1.00  0.00    -0.244 C  
HETATM    4  C   UNL     1      -9.188  16.488  66.932  1.00  0.00    -0.244 C  
HETATM    5  C   UNL     1     -10.425  15.618  66.724  1.00  0.00    -0.297 C  
HETATM    6  C   UNL     1     -10.450  14.410  67.686  1.00  0.00    -0.245 C  
HETATM    7  C   UNL     1     -10.203  14.891  69.130  1.00  0.00    -0.242 C  
ENDROOT
BRANCH   6   8
HETATM    8  C   UNL     1     -11.795  13.664  67.509  1.00  0.00    -0.416 C  
BRANCH   8   9
HETATM    9  C   UNL     1     -11.764  12.136  67.143  1.00  0.00    -0.372 C  
HETATM   10  C   UNL     1     -11.006  11.840  65.841  1.00  0.00    -0.354 A  
HETATM   11  C   UNL     1     -11.151  12.707  64.731  1.00  0.00    -0.335 A  
HETATM   12  C   UNL     1     -10.619  12.407  63.472  1.00  0.00    -0.451 A  
HETATM   13  C   UNL     1      -9.947  11.212  63.275  1.00  0.00    -0.419 A  
HETATM   14  C   UNL     1      -9.767  10.354  64.353  1.00  0.00    -0.396 A  
HETATM   15  C   UNL     1     -10.271  10.667  65.635  1.00  0.00    -0.253 A  
HETATM   16  S   UNL     1      -9.879   9.490  66.891  1.00  0.00    -0.220 SA 
HETATM   17  C   UNL     1     -10.630  10.146  68.345  1.00  0.00    -0.217 A  
HETATM   18  C   UNL     1     -10.334   9.459  69.539  1.00  0.00    -0.223 A  
HETATM   19  C   UNL     1     -10.923   9.816  70.746  1.00  0.00    -0.406 A  
HETATM   20  C   UNL     1     -11.857  10.837  70.764  1.00  0.00    -0.443 A  
HETATM   21  C   UNL     1     -12.157  11.524  69.585  1.00  0.00    -0.363 A  
HETATM   22  C   UNL     1     -11.499  11.244  68.364  1.00  0.00    -0.377 A  
ENDBRANCH   8   9
ENDBRANCH   6   8
TORSDOF 2
ENDMDL
MODEL       22
REMARK 921   NORMALIZED FREE ENERGY PREDICTED BY IDOCK:   -6.48 KCAL/MOL
REMARK 922        TOTAL FREE ENERGY PREDICTED BY IDOCK:   -7.64 KCAL/MOL
REMARK 923 INTER-LIGAND FREE ENERGY PREDICTED BY IDOCK:   -6.98 KCAL/MOL
REMARK 924 INTRA-LIGAND FREE ENERGY PREDICTED BY IDOCK:   -0.66 KCAL/MOL
REMARK 927      BINDING AFFINITY PREDICTED BY RF-SCORE:    0.00 PKD
ROOT
HETATM    1  C   UNL     1      -7.557  10.534  68.602  1.00  0.00    -0.099 C  
HETATM    2  N   UNL     1      -8.635   9.567  68.421  1.00  0.00    -0.119 NA 
HETATM    3  C   UNL     1      -8.787   8.655  69.558  1.00  0.00    -0.144 C  
HETATM    4  C   UNL     1      -9.411   9.314  70.788  1.00  0.00    -0.336 C  
HETATM    5  C   UNL     1     -10.736   9.990  70.447  1.00  0.00    -0.369 C  
HETATM    6  C   UNL     1     -10.605  10.943  69.238  1.00  0.00    -0.251 C  
HETATM    7  C   UNL     1      -9.905  10.212  68.075  1.00  0.00    -0.148 C  
ENDROOT
BRANCH   6   8
HETATM    8  C   UNL     1     -12.013  11.474  68.872  1.00  0.00    -0.364 C  
BRANCH   8   9
HETATM    9  C   UNL     1     -12.161  12.982  68.456  1.00  0.00    -0.185 C  
HETATM   10  C   UNL     1     -11.866  13.960  69.602  1.00  0.00    -0.385 A  
HETATM   11  C   UNL     1     -12.319  13.665  70.911  1.00  0.00    -0.450 A  
HETATM   12  C   UNL     1     -12.225  14.586  71.961  1.00  0.00    -0.329 A  
HETATM   13  C   UNL     1     -11.698  15.845  71.729  1.00  0.00    -0.575 A  
HETATM   14  C   UNL     1     -11.221  16.153  70.460  1.00  0.00    -0.381 A  
HETATM   15  C   UNL     1     -11.281  15.217  69.404  1.00  0.00    -0.283 A  
HETATM   16  S   UNL     1     -10.560  15.764  67.888  1.00  0.00    -0.289 SA 
HETATM   17  C   UNL     1     -10.786  14.404  66.788  1.00  0.00    -0.301 A  
HETATM   18  C   UNL     1     -10.157  14.532  65.535  1.00  0.00    -0.394 A  
HETATM   19  C   UNL     1     -10.318  13.575  64.541  1.00  0.00    -0.381 A  
HETATM   20  C   UNL     1     -11.157  12.498  64.772  1.00  0.00    -0.338 A  
HETATM   21  C   UNL     1     -11.786  12.363  66.012  1.00  0.00    -0.459 A  
HETATM   22  C   UNL     1     -11.559  13.273  67.073  1.00  0.00    -0.404 A  
ENDBRANCH   8   9
ENDBRANCH   6   8
TORSDOF 2
ENDMDL
MODEL       23
REMARK 921   NORMALIZED FREE ENERGY PREDICTED BY IDOCK:   -6.47 KCAL/MOL
REMARK 922        TOTAL FREE ENERGY PREDICTED BY IDOCK:   -7.63 KCAL/MOL
REMARK 923 INTER-LIGAND FREE ENERGY PREDICTED BY IDOCK:   -7.01 KCAL/MOL
REMARK 924 INTRA-LIGAND FREE ENERGY PREDICTED BY IDOCK:   -0.62 KCAL/MOL
REMARK 927      BINDING AFFINITY PREDICTED BY RF-SCORE:    0.00 PKD
ROOT
HETATM    1  C   UNL     1     -10.590   7.823  67.000  1.00  0.00    -0.326 C  
HETATM    2  N   UNL     1      -9.305   8.512  66.960  1.00  0.00    -0.153 NA 
HETATM    3  C   UNL     1      -8.883   8.867  65.602  1.00  0.00    -0.191 C  
HETATM    4  C   UNL     1      -9.673  10.032  65.004  1.00  0.00    -0.386 C  
HETATM    5  C   UNL     1      -9.648  11.251  65.921  1.00  0.00    -0.249 C  
HETATM    6  C   UNL     1     -10.072  10.898  67.364  1.00  0.00    -0.223 C  
HETATM    7  C   UNL     1      -9.272   9.674  67.854  1.00  0.00    -0.124 C  
ENDROOT
BRANCH   6   8
HETATM    8  C   UNL     1      -9.885  12.151  68.255  1.00  0.00    -0.212 C  
BRANCH   8   9
HETATM    9  C   UNL     1     -11.125  13.082  68.510  1.00  0.00    -0.298 C  
HETATM   10  C   UNL     1     -11.799  12.836  69.867  1.00  0.00    -0.371 A  
HETATM   11  C   UNL     1     -11.950  11.512  70.347  1.00  0.00    -0.459 A  
HETATM   12  C   UNL     1     -12.695  11.212  71.492  1.00  0.00    -0.499 A  
HETATM   13  C   UNL     1     -13.339  12.225  72.182  1.00  0.00    -0.473 A  
HETATM   14  C   UNL     1     -13.187  13.537  71.749  1.00  0.00    -0.490 A  
HETATM   15  C   UNL     1     -12.407  13.852  70.614  1.00  0.00    -0.381 A  
HETATM   16  S   UNL     1     -12.274  15.577  70.264  1.00  0.00    -0.382 SA 
HETATM   17  C   UNL     1     -11.261  15.647  68.821  1.00  0.00    -0.332 A  
HETATM   18  C   UNL     1     -10.875  16.940  68.418  1.00  0.00    -0.347 A  
HETATM   19  C   UNL     1     -10.146  17.148  67.253  1.00  0.00    -0.294 A  
HETATM   20  C   UNL     1      -9.838  16.065  66.447  1.00  0.00    -0.308 A  
HETATM   21  C   UNL     1     -10.217  14.779  66.839  1.00  0.00    -0.257 A  
HETATM   22  C   UNL     1     -10.873  14.531  68.070  1.00  0.00    -0.249 A  
ENDBRANCH   8   9
ENDBRANCH   6   8
TORSDOF 2
ENDMDL
MODEL       24
REMARK 921   NORMALIZED FREE ENERGY PREDICTED BY IDOCK:   -6.39 KCAL/MOL
REMARK 922        TOTAL FREE ENERGY PREDICTED BY IDOCK:   -7.54 KCAL/MOL
REMARK 923 INTER-LIGAND FREE ENERGY PREDICTED BY IDOCK:   -6.80 KCAL/MOL
REMARK 924 INTRA-LIGAND FREE ENERGY PREDICTED BY IDOCK:   -0.74 KCAL/MOL
REMARK 927      BINDING AFFINITY PREDICTED BY RF-SCORE:    0.00 PKD
ROOT
HETATM    1  C   UNL     1      -6.777  15.362  69.542  1.00  0.00    -0.174 C  
HETATM    2  N   UNL     1      -7.299  16.676  69.180  1.00  0.00    -0.231 NA 
HETATM    3  C   UNL     1      -6.527  17.330  68.121  1.00  0.00    -0.162 C  
HETATM    4  C   UNL     1      -6.750  16.718  66.738  1.00  0.00    -0.257 C  
HETATM    5  C   UNL     1      -8.233  16.668  66.383  1.00  0.00    -0.353 C  
HETATM    6  C   UNL     1      -9.071  15.997  67.494  1.00  0.00    -0.203 C  
HETATM    7  C   UNL     1      -8.729  16.633  68.857  1.00  0.00    -0.238 C  
ENDROOT
BRANCH   6   8
HETATM    8  C   UNL     1     -10.570  16.113  67.122  1.00  0.00    -0.294 C  
BRANCH   8   9
HETATM    9  C   UNL     1     -11.481  14.842  67.274  1.00  0.00    -0.378 C  
HETATM   10  C   UNL     1     -11.042  13.671  66.383  1.00  0.00    -0.307 A  
HETATM   11  C   UNL     1     -10.600  13.922  65.061  1.00  0.00    -0.418 A  
HETATM   12  C   UNL     1     -10.343  12.891  64.150  1.00  0.00    -0.385 A  
HETATM   13  C   UNL     1     -10.547  11.574  64.523  1.00  0.00    -0.387 A  
HETATM   14  C   UNL     1     -10.956  11.297  65.822  1.00  0.00    -0.211 A  
HETATM   15  C   UNL     1     -11.184  12.330  66.758  1.00  0.00    -0.318 A  
HETATM   16  S   UNL     1     -11.627  11.778  68.376  1.00  0.00    -0.324 SA 
HETATM   17  C   UNL     1     -11.841  13.268  69.295  1.00  0.00    -0.331 A  
HETATM   18  C   UNL     1     -12.055  13.097  70.677  1.00  0.00    -0.346 A  
HETATM   19  C   UNL     1     -12.320  14.179  71.508  1.00  0.00    -0.395 A  
HETATM   20  C   UNL     1     -12.426  15.444  70.956  1.00  0.00    -0.469 A  
HETATM   21  C   UNL     1     -12.215  15.622  69.586  1.00  0.00    -0.264 A  
HETATM   22  C   UNL     1     -11.846  14.551  68.737  1.00  0.00    -0.350 A  
ENDBRANCH   8   9
ENDBRANCH   6   8
TORSDOF 2
ENDMDL
MODEL       25
REMARK 921   NORMALIZED FREE ENERGY PREDICTED BY IDOCK:   -6.36 KCAL/MOL
REMARK 922        TOTAL FREE ENERGY PREDICTED BY IDOCK:   -7.50 KCAL/MOL
REMARK 923 INTER-LIGAND FREE ENERGY PREDICTED BY IDOCK:   -7.09 KCAL/MOL
REMARK 924 INTRA-LIGAND FREE ENERGY PREDICTED BY IDOCK:   -0.41 KCAL/MOL
REMARK 927      BINDING AFFINITY PREDICTED BY RF-SCORE:    0.00 PKD
ROOT
HETATM    1  C   UNL     1     -11.312   7.137  72.955  1.00  0.00    -0.217 C  
HETATM    2  N   UNL     1     -11.874   7.245  71.612  1.00  0.00    -0.283 NA 
HETATM    3  C   UNL     1     -13.299   7.586  71.610  1.00  0.00    -0.358 C  
HETATM    4  C   UNL     1     -13.577   9.042  71.983  1.00  0.00    -0.500 C  
HETATM    5  C   UNL     1     -12.783  10.005  71.106  1.00  0.00    -0.484 C  
HETATM    6  C   UNL     1     -11.278   9.655  71.079  1.00  0.00    -0.445 C  
HETATM    7  C   UNL     1     -11.101   8.156  70.761  1.00  0.00    -0.259 C  
ENDROOT
BRANCH   6   8
HETATM    8  C   UNL     1     -10.572  10.586  70.062  1.00  0.00    -0.223 C  
BRANCH   8   9
HETATM    9  C   UNL     1     -11.448  11.317  68.981  1.00  0.00    -0.369 C  
HETATM   10  C   UNL     1     -11.750  12.780  69.335  1.00  0.00    -0.380 A  
HETATM   11  C   UNL     1     -12.054  13.132  70.673  1.00  0.00    -0.346 A  
HETATM   12  C   UNL     1     -12.495  14.411  71.029  1.00  0.00    -0.425 A  
HETATM   13  C   UNL     1     -12.674  15.375  70.052  1.00  0.00    -0.189 A  
HETATM   14  C   UNL     1     -12.358  15.067  68.734  1.00  0.00     0.005 A  
HETATM   15  C   UNL     1     -11.879  13.789  68.372  1.00  0.00    -0.376 A  
HETATM   16  S   UNL     1     -11.464  13.610  66.665  1.00  0.00    -0.360 SA 
HETATM   17  C   UNL     1     -10.910  11.941  66.529  1.00  0.00    -0.278 A  
HETATM   18  C   UNL     1     -10.371  11.586  65.277  1.00  0.00    -0.322 A  
HETATM   19  C   UNL     1      -9.972  10.283  65.004  1.00  0.00    -0.393 A  
HETATM   20  C   UNL     1     -10.155   9.305  65.966  1.00  0.00    -0.262 A  
HETATM   21  C   UNL     1     -10.688   9.649  67.211  1.00  0.00    -0.284 A  
HETATM   22  C   UNL     1     -11.010  10.986  67.547  1.00  0.00    -0.338 A  
ENDBRANCH   8   9
ENDBRANCH   6   8
TORSDOF 2
ENDMDL
MODEL       26
REMARK 921   NORMALIZED FREE ENERGY PREDICTED BY IDOCK:   -6.35 KCAL/MOL
REMARK 922        TOTAL FREE ENERGY PREDICTED BY IDOCK:   -7.48 KCAL/MOL
REMARK 923 INTER-LIGAND FREE ENERGY PREDICTED BY IDOCK:   -7.44 KCAL/MOL
REMARK 924 INTRA-LIGAND FREE ENERGY PREDICTED BY IDOCK:   -0.04 KCAL/MOL
REMARK 927      BINDING AFFINITY PREDICTED BY RF-SCORE:    0.00 PKD
ROOT
HETATM    1  C   UNL     1     -10.399  11.086  64.170  1.00  0.00    -0.369 C  
HETATM    2  N   UNL     1     -10.553  12.533  64.062  1.00  0.00    -0.391 NA 
HETATM    3  C   UNL     1     -11.850  12.935  63.510  1.00  0.00    -0.536 C  
HETATM    4  C   UNL     1     -13.010  12.754  64.489  1.00  0.00    -0.210 C  
HETATM    5  C   UNL     1     -12.737  13.459  65.814  1.00  0.00    -0.383 C  
HETATM    6  C   UNL     1     -11.366  13.066  66.407  1.00  0.00    -0.355 C  
HETATM    7  C   UNL     1     -10.273  13.215  65.330  1.00  0.00    -0.290 C  
ENDROOT
BRANCH   6   8
HETATM    8  C   UNL     1     -11.107  13.926  67.669  1.00  0.00    -0.295 C  
BRANCH   8   9
HETATM    9  C   UNL     1     -10.986  13.202  69.059  1.00  0.00    -0.241 C  
HETATM   10  C   UNL     1     -12.110  13.576  70.036  1.00  0.00    -0.411 A  
HETATM   11  C   UNL     1     -12.561  14.916  70.109  1.00  0.00    -0.309 A  
HETATM   12  C   UNL     1     -13.462  15.350  71.088  1.00  0.00    -0.565 A  
HETATM   13  C   UNL     1     -13.921  14.462  72.045  1.00  0.00    -0.592 A  
HETATM   14  C   UNL     1     -13.515  13.134  71.982  1.00  0.00    -0.598 A  
HETATM   15  C   UNL     1     -12.633  12.681  70.977  1.00  0.00    -0.262 A  
HETATM   16  S   UNL     1     -12.292  10.949  71.018  1.00  0.00    -0.391 SA 
HETATM   17  C   UNL     1     -11.185  10.696  69.668  1.00  0.00    -0.289 A  
HETATM   18  C   UNL     1     -10.873   9.352  69.389  1.00  0.00    -0.208 A  
HETATM   19  C   UNL     1      -9.951   9.011  68.407  1.00  0.00    -0.200 A  
HETATM   20  C   UNL     1      -9.289  10.017  67.725  1.00  0.00    -0.154 A  
HETATM   21  C   UNL     1      -9.592  11.353  67.996  1.00  0.00    -0.184 A  
HETATM   22  C   UNL     1     -10.598  11.724  68.921  1.00  0.00    -0.211 A  
ENDBRANCH   8   9
ENDBRANCH   6   8
TORSDOF 2
ENDMDL
MODEL       27
REMARK 921   NORMALIZED FREE ENERGY PREDICTED BY IDOCK:   -6.33 KCAL/MOL
REMARK 922        TOTAL FREE ENERGY PREDICTED BY IDOCK:   -7.47 KCAL/MOL
REMARK 923 INTER-LIGAND FREE ENERGY PREDICTED BY IDOCK:   -6.83 KCAL/MOL
REMARK 924 INTRA-LIGAND FREE ENERGY PREDICTED BY IDOCK:   -0.64 KCAL/MOL
REMARK 927      BINDING AFFINITY PREDICTED BY RF-SCORE:    0.00 PKD
ROOT
HETATM    1  C   UNL     1      -8.113   9.308  65.998  1.00  0.00    -0.110 C  
HETATM    2  N   UNL     1      -9.527   8.959  65.904  1.00  0.00    -0.245 NA 
HETATM    3  C   UNL     1      -9.894   7.812  66.739  1.00  0.00    -0.241 C  
HETATM    4  C   UNL     1      -9.941   8.136  68.232  1.00  0.00    -0.212 C  
HETATM    5  C   UNL     1     -10.845   9.331  68.516  1.00  0.00    -0.119 C  
HETATM    6  C   UNL     1     -10.489  10.548  67.634  1.00  0.00    -0.276 C  
HETATM    7  C   UNL     1     -10.398  10.111  66.159  1.00  0.00    -0.167 C  
ENDROOT
BRANCH   6   8
HETATM    8  C   UNL     1     -11.536  11.662  67.882  1.00  0.00    -0.381 C  
BRANCH   8   9
HETATM    9  C   UNL     1     -11.110  12.919  68.723  1.00  0.00    -0.305 C  
HETATM   10  C   UNL     1     -10.813  14.154  67.860  1.00  0.00    -0.253 A  
HETATM   11  C   UNL     1     -10.119  14.004  66.635  1.00  0.00    -0.276 A  
HETATM   12  C   UNL     1      -9.678  15.101  65.886  1.00  0.00    -0.385 A  
HETATM   13  C   UNL     1      -9.892  16.386  66.353  1.00  0.00    -0.312 A  
HETATM   14  C   UNL     1     -10.593  16.564  67.540  1.00  0.00    -0.313 A  
HETATM   15  C   UNL     1     -11.072  15.463  68.284  1.00  0.00    -0.309 A  
HETATM   16  S   UNL     1     -12.002  15.890  69.723  1.00  0.00    -0.176 SA 
HETATM   17  C   UNL     1     -12.452  14.335  70.422  1.00  0.00    -0.362 A  
HETATM   18  C   UNL     1     -13.339  14.399  71.514  1.00  0.00    -0.430 A  
HETATM   19  C   UNL     1     -13.712  13.258  72.213  1.00  0.00    -0.686 A  
HETATM   20  C   UNL     1     -13.161  12.039  71.858  1.00  0.00    -0.475 A  
HETATM   21  C   UNL     1     -12.280  11.965  70.776  1.00  0.00    -0.401 A  
HETATM   22  C   UNL     1     -11.962  13.098  69.988  1.00  0.00    -0.391 A  
ENDBRANCH   8   9
ENDBRANCH   6   8
TORSDOF 2
ENDMDL
MODEL       28
REMARK 921   NORMALIZED FREE ENERGY PREDICTED BY IDOCK:   -6.30 KCAL/MOL
REMARK 922        TOTAL FREE ENERGY PREDICTED BY IDOCK:   -7.43 KCAL/MOL
REMARK 923 INTER-LIGAND FREE ENERGY PREDICTED BY IDOCK:   -6.81 KCAL/MOL
REMARK 924 INTRA-LIGAND FREE ENERGY PREDICTED BY IDOCK:   -0.62 KCAL/MOL
REMARK 927      BINDING AFFINITY PREDICTED BY RF-SCORE:    0.00 PKD
ROOT
HETATM    1  C   UNL     1     -11.528   6.619  70.844  1.00  0.00    -0.347 C  
HETATM    2  N   UNL     1     -10.231   6.697  70.179  1.00  0.00    -0.184 NA 
HETATM    3  C   UNL     1     -10.117   5.793  69.031  1.00  0.00    -0.191 C  
HETATM    4  C   UNL     1     -10.916   6.254  67.811  1.00  0.00    -0.427 C  
HETATM    5  C   UNL     1     -10.559   7.684  67.419  1.00  0.00    -0.356 C  
HETATM    6  C   UNL     1     -10.655   8.654  68.618  1.00  0.00    -0.165 C  
HETATM    7  C   UNL     1      -9.878   8.074  69.817  1.00  0.00    -0.183 C  
ENDROOT
BRANCH   6   8
HETATM    8  C   UNL     1     -10.144  10.046  68.170  1.00  0.00    -0.186 C  
BRANCH   8   9
HETATM    9  C   UNL     1     -11.192  11.102  67.665  1.00  0.00    -0.364 C  
HETATM   10  C   UNL     1     -11.587  12.126  68.738  1.00  0.00    -0.380 A  
HETATM   11  C   UNL     1     -11.778  11.704  70.076  1.00  0.00    -0.402 A  
HETATM   12  C   UNL     1     -12.293  12.552  71.063  1.00  0.00    -0.307 A  
HETATM   13  C   UNL     1     -12.661  13.846  70.736  1.00  0.00    -0.424 A  
HETATM   14  C   UNL     1     -12.460  14.296  69.437  1.00  0.00    -0.112 A  
HETATM   15  C   UNL     1     -11.908  13.457  68.444  1.00  0.00    -0.366 A  
HETATM   16  S   UNL     1     -11.662  14.229  66.876  1.00  0.00    -0.420 SA 
HETATM   17  C   UNL     1     -10.976  12.953  65.870  1.00  0.00    -0.276 A  
HETATM   18  C   UNL     1     -10.543  13.360  64.593  1.00  0.00    -0.431 A  
HETATM   19  C   UNL     1     -10.059  12.444  63.666  1.00  0.00    -0.302 A  
HETATM   20  C   UNL     1     -10.049  11.098  63.990  1.00  0.00    -0.392 A  
HETATM   21  C   UNL     1     -10.476  10.686  65.255  1.00  0.00    -0.264 A  
HETATM   22  C   UNL     1     -10.881  11.609  66.249  1.00  0.00    -0.333 A  
ENDBRANCH   8   9
ENDBRANCH   6   8
TORSDOF 2
ENDMDL
MODEL       29
REMARK 921   NORMALIZED FREE ENERGY PREDICTED BY IDOCK:   -6.28 KCAL/MOL
REMARK 922        TOTAL FREE ENERGY PREDICTED BY IDOCK:   -7.42 KCAL/MOL
REMARK 923 INTER-LIGAND FREE ENERGY PREDICTED BY IDOCK:   -6.72 KCAL/MOL
REMARK 924 INTRA-LIGAND FREE ENERGY PREDICTED BY IDOCK:   -0.70 KCAL/MOL
REMARK 927      BINDING AFFINITY PREDICTED BY RF-SCORE:    0.00 PKD
ROOT
HETATM    1  C   UNL     1     -10.703  17.201  68.020  1.00  0.00    -0.372 C  
HETATM    2  N   UNL     1     -10.178  16.089  68.805  1.00  0.00    -0.215 NA 
HETATM    3  C   UNL     1     -10.619  16.111  70.203  1.00  0.00    -0.226 C  
HETATM    4  C   UNL     1     -12.085  15.717  70.385  1.00  0.00    -0.425 C  
HETATM    5  C   UNL     1     -12.384  14.368  69.738  1.00  0.00    -0.333 C  
HETATM    6  C   UNL     1     -11.911  14.313  68.268  1.00  0.00    -0.346 C  
HETATM    7  C   UNL     1     -10.448  14.792  68.176  1.00  0.00    -0.239 C  
ENDROOT
BRANCH   6   8
HETATM    8  C   UNL     1     -12.122  12.875  67.733  1.00  0.00    -0.218 C  
BRANCH   8   9
HETATM    9  C   UNL     1     -10.870  11.938  67.587  1.00  0.00    -0.271 C  
HETATM   10  C   UNL     1     -10.887  10.747  68.556  1.00  0.00    -0.270 A  
HETATM   11  C   UNL     1     -11.330  10.932  69.888  1.00  0.00    -0.381 A  
HETATM   12  C   UNL     1     -11.217   9.931  70.860  1.00  0.00    -0.433 A  
HETATM   13  C   UNL     1     -10.631   8.719  70.537  1.00  0.00    -0.252 A  
HETATM   14  C   UNL     1     -10.211   8.501  69.230  1.00  0.00    -0.211 A  
HETATM   15  C   UNL     1     -10.353   9.493  68.236  1.00  0.00    -0.207 A  
HETATM   16  S   UNL     1      -9.829   9.004  66.622  1.00  0.00    -0.269 SA 
HETATM   17  C   UNL     1     -10.125  10.428  65.623  1.00  0.00    -0.269 A  
HETATM   18  C   UNL     1      -9.926  10.245  64.241  1.00  0.00    -0.293 A  
HETATM   19  C   UNL     1     -10.043  11.302  63.346  1.00  0.00    -0.445 A  
HETATM   20  C   UNL     1     -10.312  12.570  63.832  1.00  0.00    -0.436 A  
HETATM   21  C   UNL     1     -10.510  12.760  65.202  1.00  0.00    -0.320 A  
HETATM   22  C   UNL     1     -10.493  11.683  66.121  1.00  0.00    -0.289 A  
ENDBRANCH   8   9
ENDBRANCH   6   8
TORSDOF 2
ENDMDL
MODEL       30
REMARK 921   NORMALIZED FREE ENERGY PREDICTED BY IDOCK:   -6.18 KCAL/MOL
REMARK 922        TOTAL FREE ENERGY PREDICTED BY IDOCK:   -7.30 KCAL/MOL
REMARK 923 INTER-LIGAND FREE ENERGY PREDICTED BY IDOCK:   -6.63 KCAL/MOL
REMARK 924 INTRA-LIGAND FREE ENERGY PREDICTED BY IDOCK:   -0.67 KCAL/MOL
REMARK 927      BINDING AFFINITY PREDICTED BY RF-SCORE:    0.00 PKD
ROOT
HETATM    1  C   UNL     1     -11.017  11.863  65.114  1.00  0.00    -0.312 C  
HETATM    2  N   UNL     1     -11.465  13.250  65.053  1.00  0.00    -0.299 NA 
HETATM    3  C   UNL     1     -12.463  13.578  66.075  1.00  0.00    -0.399 C  
HETATM    4  C   UNL     1     -11.878  13.694  67.482  1.00  0.00    -0.416 C  
HETATM    5  C   UNL     1     -10.711  14.675  67.523  1.00  0.00    -0.268 C  
HETATM    6  C   UNL     1      -9.653  14.360  66.442  1.00  0.00    -0.320 C  
HETATM    7  C   UNL     1     -10.343  14.195  65.073  1.00  0.00    -0.418 C  
ENDROOT
BRANCH   6   8
HETATM    8  C   UNL     1      -8.581  15.478  66.458  1.00  0.00    -0.320 C  
BRANCH   8   9
HETATM    9  C   UNL     1      -8.580  16.498  67.653  1.00  0.00    -0.189 C  
HETATM   10  C   UNL     1      -7.298  16.443  68.496  1.00  0.00    -0.181 A  
HETATM   11  C   UNL     1      -6.705  15.191  68.793  1.00  0.00    -0.099 A  
HETATM   12  C   UNL     1      -5.636  15.062  69.686  1.00  0.00    -0.098 A  
HETATM   13  C   UNL     1      -5.141  16.180  70.335  1.00  0.00    -0.173 A  
HETATM   14  C   UNL     1      -5.686  17.425  70.044  1.00  0.00    -0.243 A  
HETATM   15  C   UNL     1      -6.742  17.568  69.118  1.00  0.00    -0.243 A  
HETATM   16  S   UNL     1      -7.251  19.233  68.826  1.00  0.00    -0.355 SA 
HETATM   17  C   UNL     1      -8.556  19.085  67.649  1.00  0.00    -0.289 A  
HETATM   18  C   UNL     1      -9.041  20.302  67.131  1.00  0.00    -0.499 A  
HETATM   19  C   UNL     1     -10.122  20.338  66.259  1.00  0.00    -0.460 A  
HETATM   20  C   UNL     1     -10.766  19.157  65.933  1.00  0.00    -0.435 A  
HETATM   21  C   UNL     1     -10.292  17.946  66.442  1.00  0.00    -0.365 A  
HETATM   22  C   UNL     1      -9.134  17.873  67.253  1.00  0.00    -0.251 A  
ENDBRANCH   8   9
ENDBRANCH   6   8
TORSDOF 2
ENDMDL
MODEL       31
REMARK 921   NORMALIZED FREE ENERGY PREDICTED BY IDOCK:   -6.14 KCAL/MOL
REMARK 922        TOTAL FREE ENERGY PREDICTED BY IDOCK:   -7.25 KCAL/MOL
REMARK 923 INTER-LIGAND FREE ENERGY PREDICTED BY IDOCK:   -6.59 KCAL/MOL
REMARK 924 INTRA-LIGAND FREE ENERGY PREDICTED BY IDOCK:   -0.66 KCAL/MOL
REMARK 927      BINDING AFFINITY PREDICTED BY RF-SCORE:    0.00 PKD
ROOT
HETATM    1  C   UNL     1     -12.621  12.170  63.336  1.00  0.00    -0.463 C  
HETATM    2  N   UNL     1     -11.517  12.952  63.882  1.00  0.00    -0.418 NA 
HETATM    3  C   UNL     1     -11.937  14.257  64.400  1.00  0.00    -0.456 C  
HETATM    4  C   UNL     1     -12.700  14.170  65.722  1.00  0.00    -0.443 C  
HETATM    5  C   UNL     1     -11.912  13.393  66.772  1.00  0.00    -0.447 C  
HETATM    6  C   UNL     1     -11.443  12.019  66.242  1.00  0.00    -0.408 C  
HETATM    7  C   UNL     1     -10.747  12.200  64.879  1.00  0.00    -0.295 C  
ENDROOT
BRANCH   6   8
HETATM    8  C   UNL     1     -10.537  11.360  67.312  1.00  0.00    -0.264 C  
BRANCH   8   9
HETATM    9  C   UNL     1     -10.885   9.907  67.797  1.00  0.00    -0.321 C  
HETATM   10  C   UNL     1      -9.843   8.861  67.374  1.00  0.00    -0.247 A  
HETATM   11  C   UNL     1      -9.265   8.927  66.083  1.00  0.00    -0.273 A  
HETATM   12  C   UNL     1      -8.436   7.918  65.582  1.00  0.00    -0.160 A  
HETATM   13  C   UNL     1      -8.180   6.792  66.346  1.00  0.00    -0.117 A  
HETATM   14  C   UNL     1      -8.713   6.713  67.628  1.00  0.00    -0.118 A  
HETATM   15  C   UNL     1      -9.521   7.744  68.154  1.00  0.00    -0.146 A  
HETATM   16  S   UNL     1     -10.044   7.495  69.822  1.00  0.00    -0.199 SA 
HETATM   17  C   UNL     1     -11.017   8.921  70.185  1.00  0.00    -0.227 A  
HETATM   18  C   UNL     1     -11.435   9.040  71.525  1.00  0.00    -0.407 A  
HETATM   19  C   UNL     1     -12.274  10.069  71.934  1.00  0.00    -0.269 A  
HETATM   20  C   UNL     1     -12.749  10.967  70.992  1.00  0.00    -0.505 A  
HETATM   21  C   UNL     1     -12.339  10.856  69.661  1.00  0.00    -0.290 A  
HETATM   22  C   UNL     1     -11.408   9.877  69.240  1.00  0.00    -0.116 A  
ENDBRANCH   8   9
ENDBRANCH   6   8
TORSDOF 2
ENDMDL
MODEL       32
REMARK 921   NORMALIZED FREE ENERGY PREDICTED BY IDOCK:   -6.13 KCAL/MOL
REMARK 922        TOTAL FREE ENERGY PREDICTED BY IDOCK:   -7.24 KCAL/MOL
REMARK 923 INTER-LIGAND FREE ENERGY PREDICTED BY IDOCK:   -6.45 KCAL/MOL
REMARK 924 INTRA-LIGAND FREE ENERGY PREDICTED BY IDOCK:   -0.79 KCAL/MOL
REMARK 927      BINDING AFFINITY PREDICTED BY RF-SCORE:    0.00 PKD
ROOT
HETATM    1  C   UNL     1      -6.555  11.482  67.809  1.00  0.00    -0.068 C  
HETATM    2  N   UNL     1      -7.227  10.192  67.690  1.00  0.00    -0.087 NA 
HETATM    3  C   UNL     1      -7.081   9.354  68.884  1.00  0.00    -0.068 C  
HETATM    4  C   UNL     1      -7.923   9.828  70.068  1.00  0.00    -0.196 C  
HETATM    5  C   UNL     1      -9.391   9.981  69.683  1.00  0.00    -0.242 C  
HETATM    6  C   UNL     1      -9.570  10.847  68.416  1.00  0.00    -0.177 C  
HETATM    7  C   UNL     1      -8.635  10.335  67.303  1.00  0.00    -0.125 C  
ENDROOT
BRANCH   6   8
HETATM    8  C   UNL     1     -11.066  10.834  68.016  1.00  0.00    -0.359 C  
BRANCH   8   9
HETATM    9  C   UNL     1     -11.870  12.183  68.078  1.00  0.00    -0.351 C  
HETATM   10  C   UNL     1     -12.155  12.654  69.511  1.00  0.00    -0.253 A  
HETATM   11  C   UNL     1     -12.515  11.709  70.503  1.00  0.00    -0.344 A  
HETATM   12  C   UNL     1     -12.942  12.090  71.780  1.00  0.00    -0.445 A  
HETATM   13  C   UNL     1     -13.050  13.433  72.099  1.00  0.00    -0.487 A  
HETATM   14  C   UNL     1     -12.679  14.382  71.153  1.00  0.00    -0.422 A  
HETATM   15  C   UNL     1     -12.213  14.005  69.875  1.00  0.00    -0.340 A  
HETATM   16  S   UNL     1     -11.721  15.348  68.840  1.00  0.00    -0.342 SA 
HETATM   17  C   UNL     1     -11.200  14.571  67.345  1.00  0.00    -0.327 A  
HETATM   18  C   UNL     1     -10.611  15.428  66.395  1.00  0.00    -0.307 A  
HETATM   19  C   UNL     1     -10.230  14.966  65.140  1.00  0.00    -0.409 A  
HETATM   20  C   UNL     1     -10.482  13.648  64.802  1.00  0.00    -0.436 A  
HETATM   21  C   UNL     1     -11.066  12.791  65.738  1.00  0.00    -0.316 A  
HETATM   22  C   UNL     1     -11.372  13.213  67.054  1.00  0.00    -0.349 A  
ENDBRANCH   8   9
ENDBRANCH   6   8
TORSDOF 2
ENDMDL
MODEL       33
REMARK 921   NORMALIZED FREE ENERGY PREDICTED BY IDOCK:   -6.12 KCAL/MOL
REMARK 922        TOTAL FREE ENERGY PREDICTED BY IDOCK:   -7.23 KCAL/MOL
REMARK 923 INTER-LIGAND FREE ENERGY PREDICTED BY IDOCK:   -6.50 KCAL/MOL
REMARK 924 INTRA-LIGAND FREE ENERGY PREDICTED BY IDOCK:   -0.73 KCAL/MOL
REMARK 927      BINDING AFFINITY PREDICTED BY RF-SCORE:    0.00 PKD
ROOT
HETATM    1  C   UNL     1     -10.077  11.967  64.605  1.00  0.00    -0.269 C  
HETATM    2  N   UNL     1     -10.468  13.349  64.352  1.00  0.00    -0.432 NA 
HETATM    3  C   UNL     1     -11.911  13.512  64.155  1.00  0.00    -0.448 C  
HETATM    4  C   UNL     1     -12.720  13.385  65.447  1.00  0.00    -0.484 C  
HETATM    5  C   UNL     1     -12.203  14.333  66.524  1.00  0.00    -0.419 C  
HETATM    6  C   UNL     1     -10.680  14.192  66.737  1.00  0.00    -0.286 C  
HETATM    7  C   UNL     1      -9.957  14.265  65.377  1.00  0.00    -0.303 C  
ENDROOT
BRANCH   6   8
HETATM    8  C   UNL     1     -10.217  15.280  67.738  1.00  0.00    -0.237 C  
BRANCH   8   9
HETATM    9  C   UNL     1      -8.941  16.127  67.388  1.00  0.00    -0.201 C  
HETATM   10  C   UNL     1      -9.251  17.607  67.120  1.00  0.00    -0.245 A  
HETATM   11  C   UNL     1     -10.410  17.961  66.388  1.00  0.00    -0.365 A  
HETATM   12  C   UNL     1     -10.661  19.274  65.973  1.00  0.00    -0.550 A  
HETATM   13  C   UNL     1      -9.745  20.273  66.254  1.00  0.00    -0.455 A  
HETATM   14  C   UNL     1      -8.611  19.959  66.994  1.00  0.00    -0.389 A  
HETATM   15  C   UNL     1      -8.368  18.644  67.446  1.00  0.00    -0.260 A  
HETATM   16  S   UNL     1      -6.915  18.457  68.432  1.00  0.00    -0.261 SA 
HETATM   17  C   UNL     1      -6.885  16.740  68.834  1.00  0.00    -0.198 A  
HETATM   18  C   UNL     1      -5.890  16.353  69.752  1.00  0.00    -0.191 A  
HETATM   19  C   UNL     1      -5.699  15.020  70.096  1.00  0.00    -0.133 A  
HETATM   20  C   UNL     1      -6.472  14.049  69.484  1.00  0.00    -0.122 A  
HETATM   21  C   UNL     1      -7.462  14.423  68.572  1.00  0.00    -0.122 A  
HETATM   22  C   UNL     1      -7.741  15.780  68.281  1.00  0.00    -0.132 A  
ENDBRANCH   8   9
ENDBRANCH   6   8
TORSDOF 2
ENDMDL
MODEL       34
REMARK 921   NORMALIZED FREE ENERGY PREDICTED BY IDOCK:   -6.11 KCAL/MOL
REMARK 922        TOTAL FREE ENERGY PREDICTED BY IDOCK:   -7.22 KCAL/MOL
REMARK 923 INTER-LIGAND FREE ENERGY PREDICTED BY IDOCK:   -6.61 KCAL/MOL
REMARK 924 INTRA-LIGAND FREE ENERGY PREDICTED BY IDOCK:   -0.61 KCAL/MOL
REMARK 927      BINDING AFFINITY PREDICTED BY RF-SCORE:    0.00 PKD
ROOT
HETATM    1  C   UNL     1      -7.643  10.154  64.850  1.00  0.00    -0.138 C  
HETATM    2  N   UNL     1      -8.913   9.439  64.791  1.00  0.00    -0.207 NA 
HETATM    3  C   UNL     1      -8.835   8.080  65.336  1.00  0.00    -0.014 C  
HETATM    4  C   UNL     1      -8.735   8.040  66.860  1.00  0.00    -0.136 C  
HETATM    5  C   UNL     1      -9.867   8.828  67.514  1.00  0.00    -0.232 C  
HETATM    6  C   UNL     1      -9.981  10.259  66.944  1.00  0.00    -0.259 C  
HETATM    7  C   UNL     1     -10.006  10.202  65.403  1.00  0.00    -0.307 C  
ENDROOT
BRANCH   6   8
HETATM    8  C   UNL     1     -11.232  10.937  67.554  1.00  0.00    -0.364 C  
BRANCH   8   9
HETATM    9  C   UNL     1     -11.046  11.864  68.809  1.00  0.00    -0.296 C  
HETATM   10  C   UNL     1     -11.176  13.359  68.483  1.00  0.00    -0.316 A  
HETATM   11  C   UNL     1     -10.614  13.869  67.287  1.00  0.00    -0.276 A  
HETATM   12  C   UNL     1     -10.557  15.239  67.011  1.00  0.00    -0.306 A  
HETATM   13  C   UNL     1     -11.036  16.149  67.938  1.00  0.00    -0.318 A  
HETATM   14  C   UNL     1     -11.617  15.677  69.109  1.00  0.00    -0.393 A  
HETATM   15  C   UNL     1     -11.710  14.294  69.378  1.00  0.00    -0.316 A  
HETATM   16  S   UNL     1     -12.544  13.887  70.880  1.00  0.00    -0.354 SA 
HETATM   17  C   UNL     1     -12.498  12.124  70.934  1.00  0.00    -0.279 A  
HETATM   18  C   UNL     1     -13.240  11.534  71.976  1.00  0.00    -0.443 A  
HETATM   19  C   UNL     1     -13.226  10.161  72.188  1.00  0.00    -0.463 A  
HETATM   20  C   UNL     1     -12.427   9.363  71.387  1.00  0.00    -0.435 A  
HETATM   21  C   UNL     1     -11.688   9.940  70.351  1.00  0.00    -0.333 A  
HETATM   22  C   UNL     1     -11.763  11.322  70.054  1.00  0.00    -0.428 A  
ENDBRANCH   8   9
ENDBRANCH   6   8
TORSDOF 2
ENDMDL
MODEL       35
REMARK 921   NORMALIZED FREE ENERGY PREDICTED BY IDOCK:   -6.10 KCAL/MOL
REMARK 922        TOTAL FREE ENERGY PREDICTED BY IDOCK:   -7.21 KCAL/MOL
REMARK 923 INTER-LIGAND FREE ENERGY PREDICTED BY IDOCK:   -6.69 KCAL/MOL
REMARK 924 INTRA-LIGAND FREE ENERGY PREDICTED BY IDOCK:   -0.52 KCAL/MOL
REMARK 927      BINDING AFFINITY PREDICTED BY RF-SCORE:    0.00 PKD
ROOT
HETATM    1  C   UNL     1      -8.376  16.183  67.001  1.00  0.00    -0.215 C  
HETATM    2  N   UNL     1      -9.775  16.549  67.190  1.00  0.00    -0.240 NA 
HETATM    3  C   UNL     1     -10.418  17.024  65.962  1.00  0.00    -0.274 C  
HETATM    4  C   UNL     1     -10.711  15.909  64.958  1.00  0.00    -0.426 C  
HETATM    5  C   UNL     1     -11.517  14.781  65.596  1.00  0.00    -0.327 C  
HETATM    6  C   UNL     1     -10.868  14.275  66.904  1.00  0.00    -0.298 C  
HETATM    7  C   UNL     1     -10.548  15.473  67.821  1.00  0.00    -0.281 C  
ENDROOT
BRANCH   6   8
HETATM    8  C   UNL     1     -11.814  13.238  67.557  1.00  0.00    -0.403 C  
BRANCH   8   9
HETATM    9  C   UNL     1     -11.375  12.567  68.908  1.00  0.00    -0.346 C  
HETATM   10  C   UNL     1     -12.317  12.886  70.077  1.00  0.00    -0.199 A  
HETATM   11  C   UNL     1     -12.850  14.191  70.215  1.00  0.00    -0.183 A  
HETATM   12  C   UNL     1     -13.580  14.586  71.342  1.00  0.00    -0.452 A  
HETATM   13  C   UNL     1     -13.777  13.696  72.383  1.00  0.00    -0.697 A  
HETATM   14  C   UNL     1     -13.288  12.400  72.264  1.00  0.00    -0.427 A  
HETATM   15  C   UNL     1     -12.581  11.983  71.115  1.00  0.00    -0.271 A  
HETATM   16  S   UNL     1     -12.104  10.283  71.116  1.00  0.00    -0.400 SA 
HETATM   17  C   UNL     1     -11.257  10.072  69.583  1.00  0.00    -0.239 A  
HETATM   18  C   UNL     1     -10.900   8.747  69.270  1.00  0.00    -0.094 A  
HETATM   19  C   UNL     1     -10.158   8.445  68.134  1.00  0.00    -0.239 A  
HETATM   20  C   UNL     1      -9.719   9.477  67.322  1.00  0.00    -0.215 A  
HETATM   21  C   UNL     1     -10.068  10.795  67.626  1.00  0.00    -0.205 A  
HETATM   22  C   UNL     1     -10.905  11.117  68.721  1.00  0.00    -0.256 A  
ENDBRANCH   8   9
ENDBRANCH   6   8
TORSDOF 2
ENDMDL
MODEL       36
REMARK 921   NORMALIZED FREE ENERGY PREDICTED BY IDOCK:   -6.08 KCAL/MOL
REMARK 922        TOTAL FREE ENERGY PREDICTED BY IDOCK:   -7.19 KCAL/MOL
REMARK 923 INTER-LIGAND FREE ENERGY PREDICTED BY IDOCK:   -6.39 KCAL/MOL
REMARK 924 INTRA-LIGAND FREE ENERGY PREDICTED BY IDOCK:   -0.80 KCAL/MOL
REMARK 927      BINDING AFFINITY PREDICTED BY RF-SCORE:    0.00 PKD
ROOT
HETATM    1  C   UNL     1      -6.242  12.558  68.236  1.00  0.00    -0.065 C  
HETATM    2  N   UNL     1      -6.729  11.303  67.675  1.00  0.00    -0.069 NA 
HETATM    3  C   UNL     1      -6.559  10.162  68.579  1.00  0.00    -0.053 C  
HETATM    4  C   UNL     1      -7.538  10.166  69.754  1.00  0.00    -0.175 C  
HETATM    5  C   UNL     1      -8.982  10.275  69.276  1.00  0.00    -0.190 C  
HETATM    6  C   UNL     1      -9.183  11.460  68.305  1.00  0.00    -0.183 C  
HETATM    7  C   UNL     1      -8.112  11.410  67.197  1.00  0.00    -0.155 C  
ENDROOT
BRANCH   6   8
HETATM    8  C   UNL     1     -10.632  11.414  67.761  1.00  0.00    -0.231 C  
BRANCH   8   9
HETATM    9  C   UNL     1     -11.581  12.632  68.052  1.00  0.00    -0.394 C  
HETATM   10  C   UNL     1     -12.020  12.722  69.521  1.00  0.00    -0.338 A  
HETATM   11  C   UNL     1     -12.347  11.540  70.230  1.00  0.00    -0.355 A  
HETATM   12  C   UNL     1     -12.905  11.567  71.513  1.00  0.00    -0.485 A  
HETATM   13  C   UNL     1     -13.183  12.780  72.119  1.00  0.00    -0.546 A  
HETATM   14  C   UNL     1     -12.849  13.956  71.457  1.00  0.00    -0.441 A  
HETATM   15  C   UNL     1     -12.253  13.936  70.177  1.00  0.00    -0.358 A  
HETATM   16  S   UNL     1     -11.835  15.526  69.531  1.00  0.00    -0.362 SA 
HETATM   17  C   UNL     1     -11.124  15.177  67.955  1.00  0.00    -0.321 A  
HETATM   18  C   UNL     1     -10.564  16.284  67.288  1.00  0.00    -0.298 A  
HETATM   19  C   UNL     1     -10.044  16.169  66.005  1.00  0.00    -0.372 A  
HETATM   20  C   UNL     1     -10.125  14.952  65.350  1.00  0.00    -0.400 A  
HETATM   21  C   UNL     1     -10.679  13.849  66.004  1.00  0.00    -0.287 A  
HETATM   22  C   UNL     1     -11.125  13.916  67.346  1.00  0.00    -0.313 A  
ENDBRANCH   8   9
ENDBRANCH   6   8
TORSDOF 2
ENDMDL
MODEL       37
REMARK 921   NORMALIZED FREE ENERGY PREDICTED BY IDOCK:   -6.04 KCAL/MOL
REMARK 922        TOTAL FREE ENERGY PREDICTED BY IDOCK:   -7.14 KCAL/MOL
REMARK 923 INTER-LIGAND FREE ENERGY PREDICTED BY IDOCK:   -6.42 KCAL/MOL
REMARK 924 INTRA-LIGAND FREE ENERGY PREDICTED BY IDOCK:   -0.72 KCAL/MOL
REMARK 927      BINDING AFFINITY PREDICTED BY RF-SCORE:    0.00 PKD
ROOT
HETATM    1  C   UNL     1     -10.631  19.466  65.732  1.00  0.00    -0.400 C  
HETATM    2  N   UNL     1      -9.499  18.646  66.149  1.00  0.00    -0.484 NA 
HETATM    3  C   UNL     1      -8.942  19.049  67.443  1.00  0.00    -0.291 C  
HETATM    4  C   UNL     1      -9.824  18.664  68.631  1.00  0.00    -0.427 C  
HETATM    5  C   UNL     1     -10.160  17.176  68.619  1.00  0.00    -0.329 C  
HETATM    6  C   UNL     1     -10.732  16.724  67.258  1.00  0.00    -0.213 C  
HETATM    7  C   UNL     1      -9.813  17.213  66.120  1.00  0.00    -0.262 C  
ENDROOT
BRANCH   6   8
HETATM    8  C   UNL     1     -10.912  15.186  67.283  1.00  0.00    -0.327 C  
BRANCH   8   9
HETATM    9  C   UNL     1      -9.925  14.301  66.438  1.00  0.00    -0.302 C  
HETATM   10  C   UNL     1      -8.899  13.549  67.298  1.00  0.00    -0.225 A  
HETATM   11  C   UNL     1      -8.304  14.196  68.408  1.00  0.00    -0.161 A  
HETATM   12  C   UNL     1      -7.248  13.626  69.129  1.00  0.00     0.005 A  
HETATM   13  C   UNL     1      -6.733  12.400  68.744  1.00  0.00    -0.092 A  
HETATM   14  C   UNL     1      -7.315  11.730  67.674  1.00  0.00    -0.119 A  
HETATM   15  C   UNL     1      -8.403  12.283  66.963  1.00  0.00    -0.168 A  
HETATM   16  S   UNL     1      -9.051  11.253  65.685  1.00  0.00    -0.152 SA 
HETATM   17  C   UNL     1     -10.371  12.200  64.997  1.00  0.00    -0.287 A  
HETATM   18  C   UNL     1     -11.159  11.529  64.041  1.00  0.00    -0.441 A  
HETATM   19  C   UNL     1     -12.180  12.180  63.359  1.00  0.00    -0.635 A  
HETATM   20  C   UNL     1     -12.392  13.528  63.588  1.00  0.00    -0.377 A  
HETATM   21  C   UNL     1     -11.615  14.201  64.534  1.00  0.00    -0.400 A  
HETATM   22  C   UNL     1     -10.636  13.538  65.312  1.00  0.00    -0.335 A  
ENDBRANCH   8   9
ENDBRANCH   6   8
TORSDOF 2
ENDMDL
MODEL       38
REMARK 921   NORMALIZED FREE ENERGY PREDICTED BY IDOCK:   -6.01 KCAL/MOL
REMARK 922        TOTAL FREE ENERGY PREDICTED BY IDOCK:   -7.11 KCAL/MOL
REMARK 923 INTER-LIGAND FREE ENERGY PREDICTED BY IDOCK:   -6.36 KCAL/MOL
REMARK 924 INTRA-LIGAND FREE ENERGY PREDICTED BY IDOCK:   -0.76 KCAL/MOL
REMARK 927      BINDING AFFINITY PREDICTED BY RF-SCORE:    0.00 PKD
ROOT
HETATM    1  C   UNL     1      -7.804   4.641  67.281  1.00  0.00    -0.090 C  
HETATM    2  N   UNL     1      -8.369   5.362  66.144  1.00  0.00    -0.114 NA 
HETATM    3  C   UNL     1      -9.750   4.973  65.845  1.00  0.00    -0.166 C  
HETATM    4  C   UNL     1     -10.765   5.508  66.854  1.00  0.00    -0.310 C  
HETATM    5  C   UNL     1     -10.646   7.020  67.018  1.00  0.00    -0.412 C  
HETATM    6  C   UNL     1      -9.194   7.456  67.317  1.00  0.00    -0.150 C  
HETATM    7  C   UNL     1      -8.238   6.815  66.291  1.00  0.00    -0.120 C  
ENDROOT
BRANCH   6   8
HETATM    8  C   UNL     1      -9.135   9.004  67.328  1.00  0.00    -0.151 C  
BRANCH   8   9
HETATM    9  C   UNL     1     -10.482   9.807  67.229  1.00  0.00    -0.324 C  
HETATM   10  C   UNL     1     -10.974  10.335  68.584  1.00  0.00    -0.289 A  
HETATM   11  C   UNL     1     -10.858   9.524  69.739  1.00  0.00    -0.264 A  
HETATM   12  C   UNL     1     -11.431   9.879  70.964  1.00  0.00    -0.466 A  
HETATM   13  C   UNL     1     -12.166  11.048  71.069  1.00  0.00    -0.456 A  
HETATM   14  C   UNL     1     -12.275  11.877  69.958  1.00  0.00    -0.291 A  
HETATM   15  C   UNL     1     -11.670  11.542  68.727  1.00  0.00    -0.334 A  
HETATM   16  S   UNL     1     -11.857  12.753  67.457  1.00  0.00    -0.286 SA 
HETATM   17  C   UNL     1     -11.012  12.060  66.073  1.00  0.00    -0.304 A  
HETATM   18  C   UNL     1     -10.885  12.910  64.957  1.00  0.00    -0.323 A  
HETATM   19  C   UNL     1     -10.315  12.466  63.769  1.00  0.00    -0.454 A  
HETATM   20  C   UNL     1      -9.909  11.147  63.667  1.00  0.00    -0.387 A  
HETATM   21  C   UNL     1     -10.031  10.297  64.769  1.00  0.00    -0.392 A  
HETATM   22  C   UNL     1     -10.517  10.751  66.019  1.00  0.00    -0.273 A  
ENDBRANCH   8   9
ENDBRANCH   6   8
TORSDOF 2
ENDMDL
MODEL       39
REMARK 921   NORMALIZED FREE ENERGY PREDICTED BY IDOCK:   -6.01 KCAL/MOL
REMARK 922        TOTAL FREE ENERGY PREDICTED BY IDOCK:   -7.11 KCAL/MOL
REMARK 923 INTER-LIGAND FREE ENERGY PREDICTED BY IDOCK:   -6.37 KCAL/MOL
REMARK 924 INTRA-LIGAND FREE ENERGY PREDICTED BY IDOCK:   -0.74 KCAL/MOL
REMARK 927      BINDING AFFINITY PREDICTED BY RF-SCORE:    0.00 PKD
ROOT
HETATM    1  C   UNL     1     -12.026  15.050  72.031  1.00  0.00    -0.388 C  
HETATM    2  N   UNL     1     -12.240  15.443  70.642  1.00  0.00    -0.354 NA 
HETATM    3  C   UNL     1     -11.153  16.263  70.101  1.00  0.00    -0.341 C  
HETATM    4  C   UNL     1      -9.878  15.469  69.814  1.00  0.00    -0.268 C  
HETATM    5  C   UNL     1     -10.158  14.268  68.916  1.00  0.00    -0.179 C  
HETATM    6  C   UNL     1     -11.314  13.398  69.457  1.00  0.00    -0.248 C  
HETATM    7  C   UNL     1     -12.528  14.292  69.780  1.00  0.00    -0.216 C  
ENDROOT
BRANCH   6   8
HETATM    8  C   UNL     1     -11.626  12.290  68.422  1.00  0.00    -0.377 C  
BRANCH   8   9
HETATM    9  C   UNL     1     -10.522  11.916  67.368  1.00  0.00    -0.242 C  
HETATM   10  C   UNL     1      -9.891  10.537  67.614  1.00  0.00    -0.192 A  
HETATM   11  C   UNL     1      -9.605  10.122  68.937  1.00  0.00    -0.186 A  
HETATM   12  C   UNL     1      -8.886   8.954  69.216  1.00  0.00    -0.139 A  
HETATM   13  C   UNL     1      -8.404   8.176  68.177  1.00  0.00    -0.129 A  
HETATM   14  C   UNL     1      -8.692   8.546  66.868  1.00  0.00    -0.137 A  
HETATM   15  C   UNL     1      -9.447   9.704  66.580  1.00  0.00    -0.170 A  
HETATM   16  S   UNL     1      -9.771   9.968  64.865  1.00  0.00    -0.261 SA 
HETATM   17  C   UNL     1     -10.711  11.460  64.829  1.00  0.00    -0.298 A  
HETATM   18  C   UNL     1     -11.231  11.814  63.568  1.00  0.00    -0.494 A  
HETATM   19  C   UNL     1     -11.921  13.005  63.377  1.00  0.00    -0.592 A  
HETATM   20  C   UNL     1     -12.056  13.884  64.439  1.00  0.00    -0.477 A  
HETATM   21  C   UNL     1     -11.544  13.541  65.692  1.00  0.00    -0.343 A  
HETATM   22  C   UNL     1     -10.924  12.291  65.935  1.00  0.00    -0.338 A  
ENDBRANCH   8   9
ENDBRANCH   6   8
TORSDOF 2
ENDMDL
MODEL       40
REMARK 921   NORMALIZED FREE ENERGY PREDICTED BY IDOCK:   -6.01 KCAL/MOL
REMARK 922        TOTAL FREE ENERGY PREDICTED BY IDOCK:   -7.10 KCAL/MOL
REMARK 923 INTER-LIGAND FREE ENERGY PREDICTED BY IDOCK:   -6.27 KCAL/MOL
REMARK 924 INTRA-LIGAND FREE ENERGY PREDICTED BY IDOCK:   -0.83 KCAL/MOL
REMARK 927      BINDING AFFINITY PREDICTED BY RF-SCORE:    0.00 PKD
ROOT
HETATM    1  C   UNL     1     -12.633  14.186  65.362  1.00  0.00    -0.466 C  
HETATM    2  N   UNL     1     -11.284  13.998  65.887  1.00  0.00    -0.305 NA 
HETATM    3  C   UNL     1     -10.948  14.938  66.960  1.00  0.00    -0.327 C  
HETATM    4  C   UNL     1     -11.646  14.624  68.284  1.00  0.00    -0.353 C  
HETATM    5  C   UNL     1     -11.396  13.184  68.719  1.00  0.00    -0.333 C  
HETATM    6  C   UNL     1     -11.726  12.175  67.597  1.00  0.00    -0.386 C  
HETATM    7  C   UNL     1     -11.035  12.610  66.289  1.00  0.00    -0.283 C  
ENDROOT
BRANCH   6   8
HETATM    8  C   UNL     1     -11.313  10.758  68.068  1.00  0.00    -0.378 C  
BRANCH   8   9
HETATM    9  C   UNL     1     -10.574  10.612  69.447  1.00  0.00    -0.270 C  
HETATM   10  C   UNL     1     -11.374   9.806  70.480  1.00  0.00    -0.382 A  
HETATM   11  C   UNL     1     -12.775   9.986  70.581  1.00  0.00    -0.282 A  
HETATM   12  C   UNL     1     -13.533   9.407  71.604  1.00  0.00    -0.467 A  
HETATM   13  C   UNL     1     -12.908   8.648  72.580  1.00  0.00    -0.352 A  
HETATM   14  C   UNL     1     -11.538   8.433  72.492  1.00  0.00    -0.426 A  
HETATM   15  C   UNL     1     -10.772   8.986  71.442  1.00  0.00    -0.331 A  
HETATM   16  S   UNL     1      -9.063   8.541  71.459  1.00  0.00    -0.237 SA 
HETATM   17  C   UNL     1      -8.389   9.369  70.056  1.00  0.00    -0.180 A  
HETATM   18  C   UNL     1      -7.049   9.053  69.756  1.00  0.00    -0.055 A  
HETATM   19  C   UNL     1      -6.366   9.692  68.728  1.00  0.00    -0.046 A  
HETATM   20  C   UNL     1      -7.002  10.696  68.018  1.00  0.00    -0.073 A  
HETATM   21  C   UNL     1      -8.330  11.016  68.309  1.00  0.00    -0.133 A  
HETATM   22  C   UNL     1      -9.077  10.312  69.284  1.00  0.00    -0.206 A  
ENDBRANCH   8   9
ENDBRANCH   6   8
TORSDOF 2
ENDMDL
MODEL       41
REMARK 921   NORMALIZED FREE ENERGY PREDICTED BY IDOCK:   -5.99 KCAL/MOL
REMARK 922        TOTAL FREE ENERGY PREDICTED BY IDOCK:   -7.09 KCAL/MOL
REMARK 923 INTER-LIGAND FREE ENERGY PREDICTED BY IDOCK:   -6.50 KCAL/MOL
REMARK 924 INTRA-LIGAND FREE ENERGY PREDICTED BY IDOCK:   -0.59 KCAL/MOL
REMARK 927      BINDING AFFINITY PREDICTED BY RF-SCORE:    0.00 PKD
ROOT
HETATM    1  C   UNL     1      -6.897   9.306  65.990  1.00  0.00    -0.088 C  
HETATM    2  N   UNL     1      -7.599  10.584  66.046  1.00  0.00    -0.137 NA 
HETATM    3  C   UNL     1      -8.718  10.669  65.104  1.00  0.00    -0.186 C  
HETATM    4  C   UNL     1      -9.931   9.838  65.522  1.00  0.00    -0.329 C  
HETATM    5  C   UNL     1     -10.381  10.182  66.938  1.00  0.00    -0.298 C  
HETATM    6  C   UNL     1      -9.214  10.116  67.948  1.00  0.00    -0.144 C  
HETATM    7  C   UNL     1      -8.017  10.925  67.410  1.00  0.00    -0.113 C  
ENDROOT
BRANCH   6   8
HETATM    8  C   UNL     1      -9.722  10.613  69.325  1.00  0.00    -0.181 C  
BRANCH   8   9
HETATM    9  C   UNL     1     -11.182  10.236  69.766  1.00  0.00    -0.339 C  
HETATM   10  C   UNL     1     -11.270   8.876  70.473  1.00  0.00    -0.287 A  
HETATM   11  C   UNL     1     -10.500   7.786  69.998  1.00  0.00    -0.230 A  
HETATM   12  C   UNL     1     -10.657   6.487  70.493  1.00  0.00    -0.282 A  
HETATM   13  C   UNL     1     -11.611   6.229  71.463  1.00  0.00    -0.345 A  
HETATM   14  C   UNL     1     -12.363   7.284  71.967  1.00  0.00    -0.298 A  
HETATM   15  C   UNL     1     -12.186   8.604  71.496  1.00  0.00    -0.318 A  
HETATM   16  S   UNL     1     -13.179   9.818  72.307  1.00  0.00    -0.294 SA 
HETATM   17  C   UNL     1     -12.742  11.331  71.515  1.00  0.00    -0.376 A  
HETATM   18  C   UNL     1     -13.295  12.493  72.088  1.00  0.00    -0.540 A  
HETATM   19  C   UNL     1     -13.101  13.745  71.518  1.00  0.00    -0.435 A  
HETATM   20  C   UNL     1     -12.391  13.845  70.333  1.00  0.00    -0.433 A  
HETATM   21  C   UNL     1     -11.840  12.698  69.758  1.00  0.00    -0.379 A  
HETATM   22  C   UNL     1     -11.940  11.426  70.371  1.00  0.00    -0.465 A  
ENDBRANCH   8   9
ENDBRANCH   6   8
TORSDOF 2
ENDMDL
MODEL       42
REMARK 921   NORMALIZED FREE ENERGY PREDICTED BY IDOCK:   -5.97 KCAL/MOL
REMARK 922        TOTAL FREE ENERGY PREDICTED BY IDOCK:   -7.06 KCAL/MOL
REMARK 923 INTER-LIGAND FREE ENERGY PREDICTED BY IDOCK:   -6.42 KCAL/MOL
REMARK 924 INTRA-LIGAND FREE ENERGY PREDICTED BY IDOCK:   -0.64 KCAL/MOL
REMARK 927      BINDING AFFINITY PREDICTED BY RF-SCORE:    0.00 PKD
ROOT
HETATM    1  C   UNL     1     -13.409   9.568  71.489  1.00  0.00    -0.393 C  
HETATM    2  N   UNL     1     -11.984   9.677  71.783  1.00  0.00    -0.381 NA 
HETATM    3  C   UNL     1     -11.364   8.390  72.112  1.00  0.00    -0.366 C  
HETATM    4  C   UNL     1     -11.176   7.478  70.900  1.00  0.00    -0.286 C  
HETATM    5  C   UNL     1     -10.413   8.184  69.783  1.00  0.00    -0.227 C  
HETATM    6  C   UNL     1     -11.037   9.552  69.431  1.00  0.00    -0.136 C  
HETATM    7  C   UNL     1     -11.251  10.372  70.720  1.00  0.00    -0.212 C  
ENDROOT
BRANCH   6   8
HETATM    8  C   UNL     1     -10.128  10.260  68.397  1.00  0.00    -0.178 C  
BRANCH   8   9
HETATM    9  C   UNL     1     -10.622  10.364  66.909  1.00  0.00    -0.293 C  
HETATM   10  C   UNL     1     -11.017  11.790  66.499  1.00  0.00    -0.342 A  
HETATM   11  C   UNL     1     -11.721  12.614  67.411  1.00  0.00    -0.432 A  
HETATM   12  C   UNL     1     -12.248  13.856  67.043  1.00  0.00    -0.392 A  
HETATM   13  C   UNL     1     -12.113  14.305  65.741  1.00  0.00    -0.414 A  
HETATM   14  C   UNL     1     -11.404  13.529  64.831  1.00  0.00    -0.347 A  
HETATM   15  C   UNL     1     -10.839  12.290  65.204  1.00  0.00    -0.301 A  
HETATM   16  S   UNL     1      -9.915  11.486  63.932  1.00  0.00    -0.347 SA 
HETATM   17  C   UNL     1      -9.349   9.996  64.688  1.00  0.00    -0.279 A  
HETATM   18  C   UNL     1      -8.449   9.234  63.917  1.00  0.00    -0.198 A  
HETATM   19  C   UNL     1      -7.987   7.998  64.354  1.00  0.00    -0.145 A  
HETATM   20  C   UNL     1      -8.462   7.485  65.549  1.00  0.00    -0.129 A  
HETATM   21  C   UNL     1      -9.354   8.234  66.319  1.00  0.00    -0.267 A  
HETATM   22  C   UNL     1      -9.762   9.536  65.943  1.00  0.00    -0.352 A  
ENDBRANCH   8   9
ENDBRANCH   6   8
TORSDOF 2
ENDMDL
MODEL       43
REMARK 921   NORMALIZED FREE ENERGY PREDICTED BY IDOCK:   -5.95 KCAL/MOL
REMARK 922        TOTAL FREE ENERGY PREDICTED BY IDOCK:   -7.04 KCAL/MOL
REMARK 923 INTER-LIGAND FREE ENERGY PREDICTED BY IDOCK:   -6.38 KCAL/MOL
REMARK 924 INTRA-LIGAND FREE ENERGY PREDICTED BY IDOCK:   -0.66 KCAL/MOL
REMARK 927      BINDING AFFINITY PREDICTED BY RF-SCORE:    0.00 PKD
ROOT
HETATM    1  C   UNL     1      -8.735   7.320  69.664  1.00  0.00    -0.141 C  
HETATM    2  N   UNL     1     -10.192   7.250  69.708  1.00  0.00    -0.205 NA 
HETATM    3  C   UNL     1     -10.727   7.254  71.072  1.00  0.00    -0.231 C  
HETATM    4  C   UNL     1     -10.644   8.620  71.755  1.00  0.00    -0.395 C  
HETATM    5  C   UNL     1     -11.296   9.708  70.907  1.00  0.00    -0.431 C  
HETATM    6  C   UNL     1     -10.760   9.711  69.458  1.00  0.00    -0.252 C  
HETATM    7  C   UNL     1     -10.821   8.283  68.879  1.00  0.00     0.034 C  
ENDROOT
BRANCH   6   8
HETATM    8  C   UNL     1     -11.569  10.743  68.634  1.00  0.00    -0.342 C  
BRANCH   8   9
HETATM    9  C   UNL     1     -10.820  12.003  68.067  1.00  0.00    -0.254 C  
HETATM   10  C   UNL     1     -10.693  11.994  66.537  1.00  0.00    -0.293 A  
HETATM   11  C   UNL     1     -10.399  10.784  65.863  1.00  0.00    -0.302 A  
HETATM   12  C   UNL     1     -10.111  10.740  64.494  1.00  0.00    -0.415 A  
HETATM   13  C   UNL     1     -10.080  11.912  63.758  1.00  0.00    -0.423 A  
HETATM   14  C   UNL     1     -10.390  13.111  64.388  1.00  0.00    -0.390 A  
HETATM   15  C   UNL     1     -10.715  13.160  65.761  1.00  0.00    -0.279 A  
HETATM   16  S   UNL     1     -11.150  14.761  66.362  1.00  0.00    -0.340 SA 
HETATM   17  C   UNL     1     -11.496  14.500  68.072  1.00  0.00    -0.321 A  
HETATM   18  C   UNL     1     -12.019  15.614  68.758  1.00  0.00    -0.247 A  
HETATM   19  C   UNL     1     -12.260  15.574  70.126  1.00  0.00    -0.404 A  
HETATM   20  C   UNL     1     -11.932  14.432  70.836  1.00  0.00    -0.393 A  
HETATM   21  C   UNL     1     -11.413  13.323  70.164  1.00  0.00    -0.038 A  
HETATM   22  C   UNL     1     -11.251  13.305  68.758  1.00  0.00    -0.317 A  
ENDBRANCH   8   9
ENDBRANCH   6   8
TORSDOF 2
ENDMDL
MODEL       44
REMARK 921   NORMALIZED FREE ENERGY PREDICTED BY IDOCK:   -5.93 KCAL/MOL
REMARK 922        TOTAL FREE ENERGY PREDICTED BY IDOCK:   -7.02 KCAL/MOL
REMARK 923 INTER-LIGAND FREE ENERGY PREDICTED BY IDOCK:   -6.35 KCAL/MOL
REMARK 924 INTRA-LIGAND FREE ENERGY PREDICTED BY IDOCK:   -0.66 KCAL/MOL
REMARK 927      BINDING AFFINITY PREDICTED BY RF-SCORE:    0.00 PKD
ROOT
HETATM    1  C   UNL     1      -8.964   8.911  71.217  1.00  0.00    -0.243 C  
HETATM    2  N   UNL     1     -10.276   8.391  70.846  1.00  0.00    -0.190 NA 
HETATM    3  C   UNL     1     -11.375   9.030  71.574  1.00  0.00    -0.346 C  
HETATM    4  C   UNL     1     -11.666  10.457  71.108  1.00  0.00    -0.387 C  
HETATM    5  C   UNL     1     -11.899  10.515  69.601  1.00  0.00    -0.306 C  
HETATM    6  C   UNL     1     -10.761   9.831  68.812  1.00  0.00    -0.243 C  
HETATM    7  C   UNL     1     -10.496   8.429  69.396  1.00  0.00    -0.217 C  
ENDROOT
BRANCH   6   8
HETATM    8  C   UNL     1     -11.143   9.810  67.312  1.00  0.00    -0.002 C  
BRANCH   8   9
HETATM    9  C   UNL     1     -10.214  10.562  66.291  1.00  0.00    -0.296 C  
HETATM   10  C   UNL     1      -9.473   9.616  65.335  1.00  0.00    -0.343 A  
HETATM   11  C   UNL     1      -8.943   8.397  65.823  1.00  0.00    -0.207 A  
HETATM   12  C   UNL     1      -8.122   7.574  65.045  1.00  0.00    -0.127 A  
HETATM   13  C   UNL     1      -7.780   7.957  63.759  1.00  0.00    -0.135 A  
HETATM   14  C   UNL     1      -8.308   9.135  63.245  1.00  0.00    -0.193 A  
HETATM   15  C   UNL     1      -9.165   9.955  64.011  1.00  0.00    -0.253 A  
HETATM   16  S   UNL     1      -9.791  11.370  63.162  1.00  0.00    -0.371 SA 
HETATM   17  C   UNL     1     -10.808  12.175  64.357  1.00  0.00    -0.328 A  
HETATM   18  C   UNL     1     -11.553  13.269  63.876  1.00  0.00    -0.451 A  
HETATM   19  C   UNL     1     -12.333  14.045  64.725  1.00  0.00    -0.437 A  
HETATM   20  C   UNL     1     -12.335  13.766  66.081  1.00  0.00    -0.496 A  
HETATM   21  C   UNL     1     -11.598  12.684  66.567  1.00  0.00    -0.441 A  
HETATM   22  C   UNL     1     -10.876  11.819  65.709  1.00  0.00    -0.341 A  
ENDBRANCH   8   9
ENDBRANCH   6   8
TORSDOF 2
ENDMDL
MODEL       45
REMARK 921   NORMALIZED FREE ENERGY PREDICTED BY IDOCK:   -5.93 KCAL/MOL
REMARK 922        TOTAL FREE ENERGY PREDICTED BY IDOCK:   -7.01 KCAL/MOL
REMARK 923 INTER-LIGAND FREE ENERGY PREDICTED BY IDOCK:   -6.38 KCAL/MOL
REMARK 924 INTRA-LIGAND FREE ENERGY PREDICTED BY IDOCK:   -0.63 KCAL/MOL
REMARK 927      BINDING AFFINITY PREDICTED BY RF-SCORE:    0.00 PKD
ROOT
HETATM    1  C   UNL     1     -10.154  15.629  68.063  1.00  0.00    -0.224 C  
HETATM    2  N   UNL     1     -11.331  15.210  67.309  1.00  0.00    -0.330 NA 
HETATM    3  C   UNL     1     -11.140  15.279  65.858  1.00  0.00    -0.287 C  
HETATM    4  C   UNL     1     -10.236  14.175  65.310  1.00  0.00    -0.400 C  
HETATM    5  C   UNL     1     -10.725  12.793  65.733  1.00  0.00    -0.296 C  
HETATM    6  C   UNL     1     -10.951  12.701  67.258  1.00  0.00    -0.291 C  
HETATM    7  C   UNL     1     -11.813  13.890  67.727  1.00  0.00    -0.380 C  
ENDROOT
BRANCH   6   8
HETATM    8  C   UNL     1     -11.576  11.322  67.583  1.00  0.00    -0.290 C  
BRANCH   8   9
HETATM    9  C   UNL     1     -10.812  10.365  68.569  1.00  0.00    -0.278 C  
HETATM   10  C   UNL     1     -11.611  10.042  69.840  1.00  0.00    -0.237 A  
HETATM   11  C   UNL     1     -12.364  11.059  70.475  1.00  0.00    -0.462 A  
HETATM   12  C   UNL     1     -12.978  10.870  71.718  1.00  0.00    -0.557 A  
HETATM   13  C   UNL     1     -12.835   9.664  72.382  1.00  0.00    -0.315 A  
HETATM   14  C   UNL     1     -12.123   8.639  71.771  1.00  0.00    -0.403 A  
HETATM   15  C   UNL     1     -11.530   8.810  70.501  1.00  0.00    -0.196 A  
HETATM   16  S   UNL     1     -10.730   7.373  69.857  1.00  0.00    -0.239 SA 
HETATM   17  C   UNL     1     -10.102   7.893  68.294  1.00  0.00    -0.194 A  
HETATM   18  C   UNL     1      -9.541   6.874  67.501  1.00  0.00    -0.150 A  
HETATM   19  C   UNL     1      -8.935   7.154  66.282  1.00  0.00    -0.181 A  
HETATM   20  C   UNL     1      -8.837   8.470  65.864  1.00  0.00    -0.219 A  
HETATM   21  C   UNL     1      -9.390   9.488  66.645  1.00  0.00    -0.207 A  
HETATM   22  C   UNL     1     -10.099   9.218  67.841  1.00  0.00    -0.246 A  
ENDBRANCH   8   9
ENDBRANCH   6   8
TORSDOF 2
ENDMDL
MODEL       46
REMARK 921   NORMALIZED FREE ENERGY PREDICTED BY IDOCK:   -5.92 KCAL/MOL
REMARK 922        TOTAL FREE ENERGY PREDICTED BY IDOCK:   -7.00 KCAL/MOL
REMARK 923 INTER-LIGAND FREE ENERGY PREDICTED BY IDOCK:   -6.21 KCAL/MOL
REMARK 924 INTRA-LIGAND FREE ENERGY PREDICTED BY IDOCK:   -0.79 KCAL/MOL
REMARK 927      BINDING AFFINITY PREDICTED BY RF-SCORE:    0.00 PKD
ROOT
HETATM    1  C   UNL     1      -9.987  15.135  66.259  1.00  0.00    -0.288 C  
HETATM    2  N   UNL     1     -11.098  14.671  67.083  1.00  0.00    -0.316 NA 
HETATM    3  C   UNL     1     -12.221  14.153  66.297  1.00  0.00    -0.449 C  
HETATM    4  C   UNL     1     -11.946  12.786  65.671  1.00  0.00    -0.503 C  
HETATM    5  C   UNL     1     -11.497  11.772  66.718  1.00  0.00    -0.352 C  
HETATM    6  C   UNL     1     -10.324  12.303  67.572  1.00  0.00    -0.214 C  
HETATM    7  C   UNL     1     -10.666  13.710  68.103  1.00  0.00    -0.248 C  
ENDROOT
BRANCH   6   8
HETATM    8  C   UNL     1     -10.026  11.278  68.695  1.00  0.00    -0.210 C  
BRANCH   8   9
HETATM    9  C   UNL     1     -10.820   9.923  68.704  1.00  0.00    -0.244 C  
HETATM   10  C   UNL     1      -9.996   8.734  68.188  1.00  0.00    -0.206 A  
HETATM   11  C   UNL     1      -9.137   8.904  67.075  1.00  0.00    -0.161 A  
HETATM   12  C   UNL     1      -8.487   7.828  66.460  1.00  0.00    -0.132 A  
HETATM   13  C   UNL     1      -8.698   6.540  66.922  1.00  0.00    -0.115 A  
HETATM   14  C   UNL     1      -9.515   6.346  68.029  1.00  0.00    -0.116 A  
HETATM   15  C   UNL     1     -10.147   7.430  68.677  1.00  0.00    -0.179 A  
HETATM   16  S   UNL     1     -11.085   6.993  70.107  1.00  0.00    -0.285 SA 
HETATM   17  C   UNL     1     -11.737   8.528  70.680  1.00  0.00    -0.144 A  
HETATM   18  C   UNL     1     -12.411   8.473  71.915  1.00  0.00    -0.402 A  
HETATM   19  C   UNL     1     -13.045   9.590  72.446  1.00  0.00    -0.430 A  
HETATM   20  C   UNL     1     -13.055  10.768  71.720  1.00  0.00    -0.573 A  
HETATM   21  C   UNL     1     -12.389  10.832  70.493  1.00  0.00    -0.458 A  
HETATM   22  C   UNL     1     -11.654   9.737  69.979  1.00  0.00    -0.185 A  
ENDBRANCH   8   9
ENDBRANCH   6   8
TORSDOF 2
ENDMDL
MODEL       47
REMARK 921   NORMALIZED FREE ENERGY PREDICTED BY IDOCK:   -5.90 KCAL/MOL
REMARK 922        TOTAL FREE ENERGY PREDICTED BY IDOCK:   -6.99 KCAL/MOL
REMARK 923 INTER-LIGAND FREE ENERGY PREDICTED BY IDOCK:   -6.37 KCAL/MOL
REMARK 924 INTRA-LIGAND FREE ENERGY PREDICTED BY IDOCK:   -0.62 KCAL/MOL
REMARK 927      BINDING AFFINITY PREDICTED BY RF-SCORE:    0.00 PKD
ROOT
HETATM    1  C   UNL     1      -7.320   9.258  70.772  1.00  0.00    -0.123 C  
HETATM    2  N   UNL     1      -8.237   8.137  70.597  1.00  0.00    -0.110 NA 
HETATM    3  C   UNL     1      -8.543   7.442  71.850  1.00  0.00    -0.111 C  
HETATM    4  C   UNL     1      -9.477   8.229  72.770  1.00  0.00    -0.343 C  
HETATM    5  C   UNL     1     -10.755   8.642  72.047  1.00  0.00    -0.427 C  
HETATM    6  C   UNL     1     -10.458   9.362  70.713  1.00  0.00    -0.372 C  
HETATM    7  C   UNL     1      -9.459   8.528  69.885  1.00  0.00    -0.163 C  
ENDROOT
BRANCH   6   8
HETATM    8  C   UNL     1     -11.798   9.619  69.981  1.00  0.00    -0.009 C  
BRANCH   8   9
HETATM    9  C   UNL     1     -12.024  11.016  69.298  1.00  0.00    -0.410 C  
HETATM   10  C   UNL     1     -12.235  12.156  70.304  1.00  0.00    -0.344 A  
HETATM   11  C   UNL     1     -13.020  11.935  71.462  1.00  0.00    -0.427 A  
HETATM   12  C   UNL     1     -13.382  12.971  72.330  1.00  0.00    -0.606 A  
HETATM   13  C   UNL     1     -12.994  14.270  72.052  1.00  0.00    -0.437 A  
HETATM   14  C   UNL     1     -12.201  14.513  70.937  1.00  0.00    -0.409 A  
HETATM   15  C   UNL     1     -11.802  13.468  70.076  1.00  0.00    -0.301 A  
HETATM   16  S   UNL     1     -10.738  13.962  68.756  1.00  0.00    -0.250 SA 
HETATM   17  C   UNL     1     -10.422  12.466  67.875  1.00  0.00    -0.215 A  
HETATM   18  C   UNL     1      -9.464  12.564  66.848  1.00  0.00    -0.219 A  
HETATM   19  C   UNL     1      -9.177  11.485  66.020  1.00  0.00    -0.229 A  
HETATM   20  C   UNL     1      -9.885  10.306  66.178  1.00  0.00    -0.284 A  
HETATM   21  C   UNL     1     -10.837  10.201  67.195  1.00  0.00    -0.257 A  
HETATM   22  C   UNL     1     -11.076  11.252  68.113  1.00  0.00    -0.319 A  
ENDBRANCH   8   9
ENDBRANCH   6   8
TORSDOF 2
ENDMDL
MODEL       48
REMARK 921   NORMALIZED FREE ENERGY PREDICTED BY IDOCK:   -5.81 KCAL/MOL
REMARK 922        TOTAL FREE ENERGY PREDICTED BY IDOCK:   -6.89 KCAL/MOL
REMARK 923 INTER-LIGAND FREE ENERGY PREDICTED BY IDOCK:   -6.44 KCAL/MOL
REMARK 924 INTRA-LIGAND FREE ENERGY PREDICTED BY IDOCK:   -0.45 KCAL/MOL
REMARK 927      BINDING AFFINITY PREDICTED BY RF-SCORE:    0.00 PKD
ROOT
HETATM    1  C   UNL     1     -10.787  16.758  68.758  1.00  0.00    -0.318 C  
HETATM    2  N   UNL     1     -10.460  15.778  69.788  1.00  0.00    -0.296 NA 
HETATM    3  C   UNL     1     -11.310  15.886  70.978  1.00  0.00    -0.389 C  
HETATM    4  C   UNL     1     -12.732  15.371  70.758  1.00  0.00    -0.516 C  
HETATM    5  C   UNL     1     -12.732  13.946  70.213  1.00  0.00    -0.244 C  
HETATM    6  C   UNL     1     -11.828  13.803  68.969  1.00  0.00    -0.397 C  
HETATM    7  C   UNL     1     -10.441  14.408  69.263  1.00  0.00    -0.140 C  
ENDROOT
BRANCH   6   8
HETATM    8  C   UNL     1     -11.773  12.308  68.567  1.00  0.00    -0.381 C  
BRANCH   8   9
HETATM    9  C   UNL     1     -10.793  11.358  69.344  1.00  0.00    -0.214 C  
HETATM   10  C   UNL     1     -11.516  10.349  70.249  1.00  0.00    -0.406 A  
HETATM   11  C   UNL     1     -12.650  10.759  70.992  1.00  0.00    -0.520 A  
HETATM   12  C   UNL     1     -13.251   9.938  71.952  1.00  0.00    -0.558 A  
HETATM   13  C   UNL     1     -12.721   8.688  72.221  1.00  0.00    -0.450 A  
HETATM   14  C   UNL     1     -11.624   8.250  71.488  1.00  0.00    -0.326 A  
HETATM   15  C   UNL     1     -11.032   9.058  70.493  1.00  0.00    -0.252 A  
HETATM   16  S   UNL     1      -9.697   8.301  69.621  1.00  0.00    -0.175 SA 
HETATM   17  C   UNL     1      -9.179   9.534  68.471  1.00  0.00    -0.131 A  
HETATM   18  C   UNL     1      -8.209   9.119  67.539  1.00  0.00    -0.108 A  
HETATM   19  C   UNL     1      -7.651  10.008  66.629  1.00  0.00    -0.104 A  
HETATM   20  C   UNL     1      -8.022  11.341  66.674  1.00  0.00    -0.159 A  
HETATM   21  C   UNL     1      -8.984  11.761  67.595  1.00  0.00    -0.169 A  
HETATM   22  C   UNL     1      -9.638  10.856  68.465  1.00  0.00    -0.187 A  
ENDBRANCH   8   9
ENDBRANCH   6   8
TORSDOF 2
ENDMDL
MODEL       49
REMARK 921   NORMALIZED FREE ENERGY PREDICTED BY IDOCK:   -5.79 KCAL/MOL
REMARK 922        TOTAL FREE ENERGY PREDICTED BY IDOCK:   -6.86 KCAL/MOL
REMARK 923 INTER-LIGAND FREE ENERGY PREDICTED BY IDOCK:   -6.18 KCAL/MOL
REMARK 924 INTRA-LIGAND FREE ENERGY PREDICTED BY IDOCK:   -0.68 KCAL/MOL
REMARK 927      BINDING AFFINITY PREDICTED BY RF-SCORE:    0.00 PKD
ROOT
HETATM    1  C   UNL     1     -10.770  15.340  64.967  1.00  0.00    -0.439 C  
HETATM    2  N   UNL     1     -11.870  14.824  65.774  1.00  0.00    -0.263 NA 
HETATM    3  C   UNL     1     -12.639  13.776  65.097  1.00  0.00    -0.433 C  
HETATM    4  C   UNL     1     -11.903  12.439  65.013  1.00  0.00    -0.440 C  
HETATM    5  C   UNL     1     -11.434  11.972  66.387  1.00  0.00    -0.417 C  
HETATM    6  C   UNL     1     -10.636  13.067  67.129  1.00  0.00    -0.251 C  
HETATM    7  C   UNL     1     -11.425  14.391  67.103  1.00  0.00    -0.362 C  
ENDROOT
BRANCH   6   8
HETATM    8  C   UNL     1     -10.322  12.566  68.560  1.00  0.00    -0.233 C  
BRANCH   8   9
HETATM    9  C   UNL     1     -10.016  11.040  68.771  1.00  0.00    -0.215 C  
HETATM   10  C   UNL     1      -8.515  10.717  68.778  1.00  0.00    -0.148 A  
HETATM   11  C   UNL     1      -7.652  11.369  67.864  1.00  0.00    -0.108 A  
HETATM   12  C   UNL     1      -6.310  11.003  67.710  1.00  0.00    -0.058 A  
HETATM   13  C   UNL     1      -5.793   9.952  68.449  1.00  0.00    -0.042 A  
HETATM   14  C   UNL     1      -6.610   9.312  69.374  1.00  0.00    -0.044 A  
HETATM   15  C   UNL     1      -7.955   9.699  69.559  1.00  0.00    -0.125 A  
HETATM   16  S   UNL     1      -8.810   8.817  70.828  1.00  0.00    -0.211 SA 
HETATM   17  C   UNL     1     -10.431   9.512  70.817  1.00  0.00    -0.314 A  
HETATM   18  C   UNL     1     -11.280   9.077  71.854  1.00  0.00    -0.438 A  
HETATM   19  C   UNL     1     -12.608   9.479  71.920  1.00  0.00    -0.479 A  
HETATM   20  C   UNL     1     -13.120  10.284  70.916  1.00  0.00    -0.423 A  
HETATM   21  C   UNL     1     -12.286  10.719  69.883  1.00  0.00    -0.384 A  
HETATM   22  C   UNL     1     -10.906  10.404  69.848  1.00  0.00    -0.353 A  
ENDBRANCH   8   9
ENDBRANCH   6   8
TORSDOF 2
ENDMDL
MODEL       50
REMARK 921   NORMALIZED FREE ENERGY PREDICTED BY IDOCK:   -5.66 KCAL/MOL
REMARK 922        TOTAL FREE ENERGY PREDICTED BY IDOCK:   -6.72 KCAL/MOL
REMARK 923 INTER-LIGAND FREE ENERGY PREDICTED BY IDOCK:   -6.03 KCAL/MOL
REMARK 924 INTRA-LIGAND FREE ENERGY PREDICTED BY IDOCK:   -0.68 KCAL/MOL
REMARK 927      BINDING AFFINITY PREDICTED BY RF-SCORE:    0.00 PKD
ROOT
HETATM    1  C   UNL     1     -12.714  12.882  71.398  1.00  0.00    -0.270 C  
HETATM    2  N   UNL     1     -13.332  14.147  71.015  1.00  0.00    -0.279 NA 
HETATM    3  C   UNL     1     -13.326  15.141  72.091  1.00  0.00    -0.403 C  
HETATM    4  C   UNL     1     -11.947  15.746  72.353  1.00  0.00    -0.600 C  
HETATM    5  C   UNL     1     -11.337  16.317  71.078  1.00  0.00    -0.315 C  
HETATM    6  C   UNL     1     -11.348  15.293  69.922  1.00  0.00    -0.308 C  
HETATM    7  C   UNL     1     -12.760  14.689  69.778  1.00  0.00    -0.015 C  
ENDROOT
BRANCH   6   8
HETATM    8  C   UNL     1     -10.845  15.993  68.635  1.00  0.00    -0.301 C  
BRANCH   8   9
HETATM    9  C   UNL     1      -9.903  15.193  67.665  1.00  0.00    -0.219 C  
HETATM   10  C   UNL     1      -8.635  14.665  68.350  1.00  0.00    -0.169 A  
HETATM   11  C   UNL     1      -7.956  15.475  69.293  1.00  0.00    -0.238 A  
HETATM   12  C   UNL     1      -6.713  15.120  69.827  1.00  0.00    -0.180 A  
HETATM   13  C   UNL     1      -6.093  13.953  69.415  1.00  0.00    -0.104 A  
HETATM   14  C   UNL     1      -6.748  13.125  68.511  1.00  0.00    -0.092 A  
HETATM   15  C   UNL     1      -8.018  13.459  67.993  1.00  0.00    -0.148 A  
HETATM   16  S   UNL     1      -8.721  12.250  66.916  1.00  0.00    -0.176 SA 
HETATM   17  C   UNL     1     -10.273  12.942  66.444  1.00  0.00    -0.267 A  
HETATM   18  C   UNL     1     -11.107  12.093  65.692  1.00  0.00    -0.360 A  
HETATM   19  C   UNL     1     -12.323  12.536  65.184  1.00  0.00    -0.496 A  
HETATM   20  C   UNL     1     -12.695  13.854  65.380  1.00  0.00    -0.525 A  
HETATM   21  C   UNL     1     -11.873  14.704  66.124  1.00  0.00    -0.282 A  
HETATM   22  C   UNL     1     -10.679  14.250  66.735  1.00  0.00    -0.287 A  
ENDBRANCH   8   9
ENDBRANCH   6   8
TORSDOF 2
ENDMDL
MODEL       51
REMARK 921   NORMALIZED FREE ENERGY PREDICTED BY IDOCK:   -5.65 KCAL/MOL
REMARK 922        TOTAL FREE ENERGY PREDICTED BY IDOCK:   -6.70 KCAL/MOL
REMARK 923 INTER-LIGAND FREE ENERGY PREDICTED BY IDOCK:   -7.13 KCAL/MOL
REMARK 924 INTRA-LIGAND FREE ENERGY PREDICTED BY IDOCK:    0.43 KCAL/MOL
REMARK 927      BINDING AFFINITY PREDICTED BY RF-SCORE:    0.00 PKD
ROOT
HETATM    1  C   UNL     1     -10.721  16.407  67.921  1.00  0.00    -0.332 C  
HETATM    2  N   UNL     1     -10.280  15.724  69.132  1.00  0.00    -0.216 NA 
HETATM    3  C   UNL     1     -11.131  16.002  70.292  1.00  0.00    -0.374 C  
HETATM    4  C   UNL     1     -12.487  15.299  70.235  1.00  0.00    -0.405 C  
HETATM    5  C   UNL     1     -12.328  13.797  70.019  1.00  0.00    -0.364 C  
HETATM    6  C   UNL     1     -11.420  13.479  68.811  1.00  0.00    -0.349 C  
HETATM    7  C   UNL     1     -10.109  14.282  68.923  1.00  0.00    -0.175 C  
ENDROOT
BRANCH   6   8
HETATM    8  C   UNL     1     -11.198  11.947  68.749  1.00  0.00    -0.314 C  
BRANCH   8   9
HETATM    9  C   UNL     1     -11.398  11.215  67.373  1.00  0.00    -0.329 C  
HETATM   10  C   UNL     1     -11.524  12.181  66.186  1.00  0.00    -0.429 A  
HETATM   11  C   UNL     1     -12.269  13.377  66.329  1.00  0.00    -0.456 A  
HETATM   12  C   UNL     1     -12.555  14.214  65.245  1.00  0.00    -0.460 A  
HETATM   13  C   UNL     1     -12.130  13.867  63.974  1.00  0.00    -0.437 A  
HETATM   14  C   UNL     1     -11.374  12.712  63.808  1.00  0.00    -0.529 A  
HETATM   15  C   UNL     1     -11.051  11.881  64.903  1.00  0.00    -0.307 A  
HETATM   16  S   UNL     1     -10.024  10.501  64.505  1.00  0.00    -0.328 SA 
HETATM   17  C   UNL     1      -9.801   9.672  66.046  1.00  0.00    -0.274 A  
HETATM   18  C   UNL     1      -8.883   8.604  66.028  1.00  0.00    -0.213 A  
HETATM   19  C   UNL     1      -8.672   7.811  67.150  1.00  0.00    -0.125 A  
HETATM   20  C   UNL     1      -9.417   8.047  68.293  1.00  0.00    -0.147 A  
HETATM   21  C   UNL     1     -10.330   9.104  68.319  1.00  0.00    -0.256 A  
HETATM   22  C   UNL     1     -10.491   9.986  67.223  1.00  0.00    -0.313 A  
ENDBRANCH   8   9
ENDBRANCH   6   8
TORSDOF 2
ENDMDL
MODEL       52
REMARK 921   NORMALIZED FREE ENERGY PREDICTED BY IDOCK:   -5.64 KCAL/MOL
REMARK 922        TOTAL FREE ENERGY PREDICTED BY IDOCK:   -6.69 KCAL/MOL
REMARK 923 INTER-LIGAND FREE ENERGY PREDICTED BY IDOCK:   -6.08 KCAL/MOL
REMARK 924 INTRA-LIGAND FREE ENERGY PREDICTED BY IDOCK:   -0.61 KCAL/MOL
REMARK 927      BINDING AFFINITY PREDICTED BY RF-SCORE:    0.00 PKD
ROOT
HETATM    1  C   UNL     1     -10.743  19.681  66.579  1.00  0.00    -0.434 C  
HETATM    2  N   UNL     1      -9.457  19.247  67.115  1.00  0.00    -0.315 NA 
HETATM    3  C   UNL     1      -9.471  19.065  68.569  1.00  0.00    -0.383 C  
HETATM    4  C   UNL     1     -10.226  17.815  69.019  1.00  0.00    -0.290 C  
HETATM    5  C   UNL     1      -9.706  16.565  68.317  1.00  0.00    -0.231 C  
HETATM    6  C   UNL     1      -9.666  16.739  66.782  1.00  0.00    -0.273 C  
HETATM    7  C   UNL     1      -8.946  18.056  66.428  1.00  0.00    -0.230 C  
ENDROOT
BRANCH   6   8
HETATM    8  C   UNL     1      -8.999  15.487  66.160  1.00  0.00    -0.329 C  
BRANCH   8   9
HETATM    9  C   UNL     1      -9.578  14.071  66.519  1.00  0.00    -0.307 C  
HETATM   10  C   UNL     1     -10.453  13.475  65.407  1.00  0.00    -0.322 A  
HETATM   11  C   UNL     1     -11.344  14.309  64.690  1.00  0.00    -0.375 A  
HETATM   12  C   UNL     1     -12.280  13.800  63.783  1.00  0.00    -0.364 A  
HETATM   13  C   UNL     1     -12.374  12.434  63.583  1.00  0.00    -0.647 A  
HETATM   14  C   UNL     1     -11.494  11.592  64.253  1.00  0.00    -0.332 A  
HETATM   15  C   UNL     1     -10.524  12.101  65.144  1.00  0.00    -0.281 A  
HETATM   16  S   UNL     1      -9.451  10.885  65.844  1.00  0.00    -0.218 SA 
HETATM   17  C   UNL     1      -8.375  11.811  66.890  1.00  0.00    -0.170 A  
HETATM   18  C   UNL     1      -7.313  11.082  67.459  1.00  0.00    -0.101 A  
HETATM   19  C   UNL     1      -6.438  11.665  68.367  1.00  0.00    -0.052 A  
HETATM   20  C   UNL     1      -6.646  12.976  68.758  1.00  0.00    -0.096 A  
HETATM   21  C   UNL     1      -7.697  13.707  68.200  1.00  0.00    -0.138 A  
HETATM   22  C   UNL     1      -8.541  13.166  67.200  1.00  0.00    -0.194 A  
ENDBRANCH   8   9
ENDBRANCH   6   8
TORSDOF 2
ENDMDL
MODEL       53
REMARK 921   NORMALIZED FREE ENERGY PREDICTED BY IDOCK:   -5.63 KCAL/MOL
REMARK 922        TOTAL FREE ENERGY PREDICTED BY IDOCK:   -6.68 KCAL/MOL
REMARK 923 INTER-LIGAND FREE ENERGY PREDICTED BY IDOCK:   -5.91 KCAL/MOL
REMARK 924 INTRA-LIGAND FREE ENERGY PREDICTED BY IDOCK:   -0.77 KCAL/MOL
REMARK 927      BINDING AFFINITY PREDICTED BY RF-SCORE:    0.00 PKD
ROOT
HETATM    1  C   UNL     1     -11.837  11.802  63.724  1.00  0.00    -0.380 C  
HETATM    2  N   UNL     1     -11.261  13.107  64.032  1.00  0.00    -0.391 NA 
HETATM    3  C   UNL     1     -12.271  14.153  64.219  1.00  0.00    -0.420 C  
HETATM    4  C   UNL     1     -13.034  14.033  65.539  1.00  0.00    -0.353 C  
HETATM    5  C   UNL     1     -12.083  13.972  66.729  1.00  0.00    -0.480 C  
HETATM    6  C   UNL     1     -10.997  12.888  66.548  1.00  0.00    -0.300 C  
HETATM    7  C   UNL     1     -10.332  13.047  65.166  1.00  0.00    -0.304 C  
ENDROOT
BRANCH   6   8
HETATM    8  C   UNL     1      -9.996  12.987  67.726  1.00  0.00    -0.227 C  
BRANCH   8   9
HETATM    9  C   UNL     1      -9.720  11.701  68.585  1.00  0.00    -0.151 C  
HETATM   10  C   UNL     1     -10.912  11.289  69.461  1.00  0.00    -0.249 A  
HETATM   11  C   UNL     1     -11.677  12.283  70.119  1.00  0.00    -0.280 A  
HETATM   12  C   UNL     1     -12.668  11.967  71.055  1.00  0.00    -0.354 A  
HETATM   13  C   UNL     1     -12.909  10.644  71.384  1.00  0.00    -0.556 A  
HETATM   14  C   UNL     1     -12.192   9.646  70.734  1.00  0.00    -0.309 A  
HETATM   15  C   UNL     1     -11.214   9.956  69.763  1.00  0.00    -0.235 A  
HETATM   16  S   UNL     1     -10.463   8.554  68.996  1.00  0.00    -0.164 SA 
HETATM   17  C   UNL     1      -9.311   9.253  67.858  1.00  0.00    -0.129 A  
HETATM   18  C   UNL     1      -8.678   8.332  67.000  1.00  0.00    -0.132 A  
HETATM   19  C   UNL     1      -7.689   8.732  66.110  1.00  0.00    -0.101 A  
HETATM   20  C   UNL     1      -7.283  10.055  66.103  1.00  0.00    -0.109 A  
HETATM   21  C   UNL     1      -7.905  10.976  66.950  1.00  0.00    -0.140 A  
HETATM   22  C   UNL     1      -8.982  10.612  67.795  1.00  0.00    -0.140 A  
ENDBRANCH   8   9
ENDBRANCH   6   8
TORSDOF 2
ENDMDL
MODEL       54
REMARK 921   NORMALIZED FREE ENERGY PREDICTED BY IDOCK:   -5.59 KCAL/MOL
REMARK 922        TOTAL FREE ENERGY PREDICTED BY IDOCK:   -6.64 KCAL/MOL
REMARK 923 INTER-LIGAND FREE ENERGY PREDICTED BY IDOCK:   -5.89 KCAL/MOL
REMARK 924 INTRA-LIGAND FREE ENERGY PREDICTED BY IDOCK:   -0.75 KCAL/MOL
REMARK 927      BINDING AFFINITY PREDICTED BY RF-SCORE:    0.00 PKD
ROOT
HETATM    1  C   UNL     1      -6.647   6.204  68.527  1.00  0.00    -0.059 C  
HETATM    2  N   UNL     1      -6.675   7.245  67.505  1.00  0.00    -0.063 NA 
HETATM    3  C   UNL     1      -6.429   6.733  66.154  1.00  0.00    -0.050 C  
HETATM    4  C   UNL     1      -7.608   5.952  65.575  1.00  0.00    -0.084 C  
HETATM    5  C   UNL     1      -8.896   6.768  65.624  1.00  0.00    -0.043 C  
HETATM    6  C   UNL     1      -9.168   7.334  67.035  1.00  0.00    -0.170 C  
HETATM    7  C   UNL     1      -7.904   8.043  67.562  1.00  0.00    -0.118 C  
ENDROOT
BRANCH   6   8
HETATM    8  C   UNL     1     -10.408   8.260  66.966  1.00  0.00    -0.393 C  
BRANCH   8   9
HETATM    9  C   UNL     1     -10.234   9.776  67.341  1.00  0.00    -0.284 C  
HETATM   10  C   UNL     1     -10.481  10.725  66.159  1.00  0.00    -0.278 A  
HETATM   11  C   UNL     1     -10.007  10.380  64.870  1.00  0.00    -0.409 A  
HETATM   12  C   UNL     1     -10.057  11.270  63.792  1.00  0.00    -0.412 A  
HETATM   13  C   UNL     1     -10.558  12.548  63.974  1.00  0.00    -0.451 A  
HETATM   14  C   UNL     1     -11.055  12.905  65.222  1.00  0.00    -0.313 A  
HETATM   15  C   UNL     1     -11.040  12.000  66.307  1.00  0.00    -0.317 A  
HETATM   16  S   UNL     1     -11.780  12.610  67.789  1.00  0.00    -0.335 SA 
HETATM   17  C   UNL     1     -11.610  11.279  68.934  1.00  0.00    -0.319 A  
HETATM   18  C   UNL     1     -12.264  11.460  70.169  1.00  0.00    -0.401 A  
HETATM   19  C   UNL     1     -12.146  10.529  71.194  1.00  0.00    -0.473 A  
HETATM   20  C   UNL     1     -11.328   9.427  71.014  1.00  0.00    -0.407 A  
HETATM   21  C   UNL     1     -10.676   9.240  69.793  1.00  0.00    -0.245 A  
HETATM   22  C   UNL     1     -10.858  10.122  68.700  1.00  0.00    -0.272 A  
ENDBRANCH   8   9
ENDBRANCH   6   8
TORSDOF 2
ENDMDL
MODEL       55
REMARK 921   NORMALIZED FREE ENERGY PREDICTED BY IDOCK:   -5.58 KCAL/MOL
REMARK 922        TOTAL FREE ENERGY PREDICTED BY IDOCK:   -6.63 KCAL/MOL
REMARK 923 INTER-LIGAND FREE ENERGY PREDICTED BY IDOCK:   -5.90 KCAL/MOL
REMARK 924 INTRA-LIGAND FREE ENERGY PREDICTED BY IDOCK:   -0.73 KCAL/MOL
REMARK 927      BINDING AFFINITY PREDICTED BY RF-SCORE:    0.00 PKD
ROOT
HETATM    1  C   UNL     1     -13.129  15.698  71.061  1.00  0.00    -0.427 C  
HETATM    2  N   UNL     1     -12.118  14.752  71.519  1.00  0.00    -0.337 NA 
HETATM    3  C   UNL     1     -12.636  13.391  71.686  1.00  0.00    -0.187 C  
HETATM    4  C   UNL     1     -12.895  12.672  70.362  1.00  0.00     0.163 C  
HETATM    5  C   UNL     1     -11.657  12.681  69.471  1.00  0.00    -0.348 C  
HETATM    6  C   UNL     1     -11.081  14.104  69.295  1.00  0.00    -0.286 C  
HETATM    7  C   UNL     1     -10.918  14.771  70.675  1.00  0.00     0.009 C  
ENDROOT
BRANCH   6   8
HETATM    8  C   UNL     1      -9.755  14.006  68.500  1.00  0.00    -0.215 C  
BRANCH   8   9
HETATM    9  C   UNL     1      -9.708  14.594  67.043  1.00  0.00    -0.247 C  
HETATM   10  C   UNL     1     -10.609  13.839  66.055  1.00  0.00    -0.290 A  
HETATM   11  C   UNL     1     -10.689  12.426  66.116  1.00  0.00    -0.292 A  
HETATM   12  C   UNL     1     -11.359  11.672  65.147  1.00  0.00    -0.223 A  
HETATM   13  C   UNL     1     -11.950  12.306  64.067  1.00  0.00    -0.551 A  
HETATM   14  C   UNL     1     -11.911  13.694  63.996  1.00  0.00    -0.444 A  
HETATM   15  C   UNL     1     -11.265  14.464  64.988  1.00  0.00    -0.375 A  
HETATM   16  S   UNL     1     -11.384  16.211  64.762  1.00  0.00    -0.119 SA 
HETATM   17  C   UNL     1     -10.499  16.883  66.132  1.00  0.00    -0.272 A  
HETATM   18  C   UNL     1     -10.572  18.283  66.268  1.00  0.00    -0.320 A  
HETATM   19  C   UNL     1      -9.857  18.953  67.253  1.00  0.00    -0.368 A  
HETATM   20  C   UNL     1      -9.017  18.234  68.085  1.00  0.00    -0.314 A  
HETATM   21  C   UNL     1      -8.938  16.845  67.957  1.00  0.00    -0.224 A  
HETATM   22  C   UNL     1      -9.731  16.129  67.027  1.00  0.00    -0.236 A  
ENDBRANCH   8   9
ENDBRANCH   6   8
TORSDOF 2
ENDMDL
MODEL       56
REMARK 921   NORMALIZED FREE ENERGY PREDICTED BY IDOCK:   -5.58 KCAL/MOL
REMARK 922        TOTAL FREE ENERGY PREDICTED BY IDOCK:   -6.63 KCAL/MOL
REMARK 923 INTER-LIGAND FREE ENERGY PREDICTED BY IDOCK:   -5.92 KCAL/MOL
REMARK 924 INTRA-LIGAND FREE ENERGY PREDICTED BY IDOCK:   -0.71 KCAL/MOL
REMARK 927      BINDING AFFINITY PREDICTED BY RF-SCORE:    0.00 PKD
ROOT
HETATM    1  C   UNL     1     -13.652  15.314  70.944  1.00  0.00    -0.340 C  
HETATM    2  N   UNL     1     -12.328  14.786  71.255  1.00  0.00    -0.305 NA 
HETATM    3  C   UNL     1     -12.255  13.325  71.168  1.00  0.00    -0.113 C  
HETATM    4  C   UNL     1     -12.270  12.799  69.732  1.00  0.00    -0.213 C  
HETATM    5  C   UNL     1     -11.180  13.453  68.888  1.00  0.00    -0.320 C  
HETATM    6  C   UNL     1     -11.225  14.994  68.978  1.00  0.00    -0.279 C  
HETATM    7  C   UNL     1     -11.276  15.426  70.458  1.00  0.00    -0.333 C  
ENDROOT
BRANCH   6   8
HETATM    8  C   UNL     1     -10.008  15.570  68.212  1.00  0.00    -0.213 C  
BRANCH   8   9
HETATM    9  C   UNL     1      -9.197  16.746  68.868  1.00  0.00    -0.234 C  
HETATM   10  C   UNL     1      -7.759  16.356  69.240  1.00  0.00    -0.171 A  
HETATM   11  C   UNL     1      -7.499  15.080  69.797  1.00  0.00    -0.102 A  
HETATM   12  C   UNL     1      -6.244  14.728  70.305  1.00  0.00    -0.167 A  
HETATM   13  C   UNL     1      -5.212  15.651  70.298  1.00  0.00    -0.135 A  
HETATM   14  C   UNL     1      -5.432  16.902  69.734  1.00  0.00    -0.184 A  
HETATM   15  C   UNL     1      -6.686  17.254  69.188  1.00  0.00    -0.243 A  
HETATM   16  S   UNL     1      -6.750  18.857  68.452  1.00  0.00    -0.256 SA 
HETATM   17  C   UNL     1      -8.410  19.000  67.873  1.00  0.00    -0.288 A  
HETATM   18  C   UNL     1      -8.682  20.147  67.103  1.00  0.00    -0.427 A  
HETATM   19  C   UNL     1      -9.966  20.429  66.652  1.00  0.00    -0.492 A  
HETATM   20  C   UNL     1     -11.006  19.589  67.011  1.00  0.00    -0.443 A  
HETATM   21  C   UNL     1     -10.745  18.449  67.774  1.00  0.00    -0.371 A  
HETATM   22  C   UNL     1      -9.432  18.089  68.162  1.00  0.00    -0.292 A  
ENDBRANCH   8   9
ENDBRANCH   6   8
TORSDOF 2
ENDMDL
MODEL       57
REMARK 921   NORMALIZED FREE ENERGY PREDICTED BY IDOCK:   -5.57 KCAL/MOL
REMARK 922        TOTAL FREE ENERGY PREDICTED BY IDOCK:   -6.62 KCAL/MOL
REMARK 923 INTER-LIGAND FREE ENERGY PREDICTED BY IDOCK:   -6.41 KCAL/MOL
REMARK 924 INTRA-LIGAND FREE ENERGY PREDICTED BY IDOCK:   -0.21 KCAL/MOL
REMARK 927      BINDING AFFINITY PREDICTED BY RF-SCORE:    0.00 PKD
ROOT
HETATM    1  C   UNL     1      -9.524  10.972  64.478  1.00  0.00    -0.233 C  
HETATM    2  N   UNL     1     -10.102  12.032  63.658  1.00  0.00    -0.410 NA 
HETATM    3  C   UNL     1     -11.334  11.625  62.977  1.00  0.00     0.130 C  
HETATM    4  C   UNL     1     -12.538  11.516  63.913  1.00  0.00     0.022 C  
HETATM    5  C   UNL     1     -12.749  12.803  64.705  1.00  0.00    -0.439 C  
HETATM    6  C   UNL     1     -11.457  13.261  65.417  1.00  0.00    -0.328 C  
HETATM    7  C   UNL     1     -10.288  13.276  64.412  1.00  0.00    -0.351 C  
ENDROOT
BRANCH   6   8
HETATM    8  C   UNL     1     -11.718  14.639  66.076  1.00  0.00    -0.306 C  
BRANCH   8   9
HETATM    9  C   UNL     1     -10.896  15.024  67.359  1.00  0.00    -0.305 C  
HETATM   10  C   UNL     1     -10.654  16.535  67.492  1.00  0.00    -0.313 A  
HETATM   11  C   UNL     1     -10.341  17.301  66.342  1.00  0.00    -0.316 A  
HETATM   12  C   UNL     1      -9.952  18.642  66.420  1.00  0.00    -0.415 A  
HETATM   13  C   UNL     1      -9.835  19.256  67.656  1.00  0.00    -0.429 A  
HETATM   14  C   UNL     1     -10.160  18.536  68.799  1.00  0.00    -0.394 A  
HETATM   15  C   UNL     1     -10.587  17.192  68.726  1.00  0.00    -0.336 A  
HETATM   16  S   UNL     1     -11.025  16.470  70.277  1.00  0.00    -0.003 SA 
HETATM   17  C   UNL     1     -11.506  14.823  69.865  1.00  0.00    -0.281 A  
HETATM   18  C   UNL     1     -12.050  14.072  70.924  1.00  0.00    -0.404 A  
HETATM   19  C   UNL     1     -12.394  12.735  70.762  1.00  0.00    -0.375 A  
HETATM   20  C   UNL     1     -12.150  12.118  69.547  1.00  0.00    -0.263 A  
HETATM   21  C   UNL     1     -11.611  12.856  68.491  1.00  0.00    -0.358 A  
HETATM   22  C   UNL     1     -11.344  14.242  68.602  1.00  0.00    -0.302 A  
ENDBRANCH   8   9
ENDBRANCH   6   8
TORSDOF 2
ENDMDL
MODEL       58
REMARK 921   NORMALIZED FREE ENERGY PREDICTED BY IDOCK:   -5.54 KCAL/MOL
REMARK 922        TOTAL FREE ENERGY PREDICTED BY IDOCK:   -6.58 KCAL/MOL
REMARK 923 INTER-LIGAND FREE ENERGY PREDICTED BY IDOCK:   -6.37 KCAL/MOL
REMARK 924 INTRA-LIGAND FREE ENERGY PREDICTED BY IDOCK:   -0.21 KCAL/MOL
REMARK 927      BINDING AFFINITY PREDICTED BY RF-SCORE:    0.00 PKD
ROOT
HETATM    1  C   UNL     1      -5.532  16.796  67.196  1.00  0.00    -0.151 C  
HETATM    2  N   UNL     1      -6.077  15.443  67.231  1.00  0.00    -0.313 NA 
HETATM    3  C   UNL     1      -5.324  14.542  68.107  1.00  0.00    -0.120 C  
HETATM    4  C   UNL     1      -5.550  14.810  69.595  1.00  0.00    -0.096 C  
HETATM    5  C   UNL     1      -7.035  14.799  69.944  1.00  0.00    -0.128 C  
HETATM    6  C   UNL     1      -7.853  15.730  69.021  1.00  0.00    -0.206 C  
HETATM    7  C   UNL     1      -7.508  15.431  67.548  1.00  0.00    -0.189 C  
ENDROOT
BRANCH   6   8
HETATM    8  C   UNL     1      -9.356  15.553  69.349  1.00  0.00    -0.279 C  
BRANCH   8   9
HETATM    9  C   UNL     1     -10.414  15.958  68.259  1.00  0.00    -0.257 C  
HETATM   10  C   UNL     1     -10.216  17.383  67.722  1.00  0.00    -0.345 A  
HETATM   11  C   UNL     1      -9.860  18.426  68.611  1.00  0.00    -0.403 A  
HETATM   12  C   UNL     1      -9.825  19.767  68.215  1.00  0.00    -0.537 A  
HETATM   13  C   UNL     1     -10.171  20.113  66.920  1.00  0.00    -0.566 A  
HETATM   14  C   UNL     1     -10.499  19.108  66.018  1.00  0.00    -0.546 A  
HETATM   15  C   UNL     1     -10.503  17.749  66.401  1.00  0.00    -0.297 A  
HETATM   16  S   UNL     1     -10.874  16.615  65.100  1.00  0.00    -0.049 SA 
HETATM   17  C   UNL     1     -10.805  15.032  65.875  1.00  0.00    -0.337 A  
HETATM   18  C   UNL     1     -10.919  13.930  65.006  1.00  0.00    -0.371 A  
HETATM   19  C   UNL     1     -10.963  12.627  65.488  1.00  0.00    -0.313 A  
HETATM   20  C   UNL     1     -10.945  12.414  66.856  1.00  0.00    -0.307 A  
HETATM   21  C   UNL     1     -10.832  13.501  67.726  1.00  0.00    -0.267 A  
HETATM   22  C   UNL     1     -10.686  14.829  67.255  1.00  0.00    -0.294 A  
ENDBRANCH   8   9
ENDBRANCH   6   8
TORSDOF 2
ENDMDL
MODEL       59
REMARK 921   NORMALIZED FREE ENERGY PREDICTED BY IDOCK:   -5.49 KCAL/MOL
REMARK 922        TOTAL FREE ENERGY PREDICTED BY IDOCK:   -6.53 KCAL/MOL
REMARK 923 INTER-LIGAND FREE ENERGY PREDICTED BY IDOCK:   -6.17 KCAL/MOL
REMARK 924 INTRA-LIGAND FREE ENERGY PREDICTED BY IDOCK:   -0.35 KCAL/MOL
REMARK 927      BINDING AFFINITY PREDICTED BY RF-SCORE:    0.00 PKD
ROOT
HETATM    1  C   UNL     1     -10.051  12.264  63.182  1.00  0.00     0.052 C  
HETATM    2  N   UNL     1     -10.606  11.055  63.781  1.00  0.00    -0.352 NA 
HETATM    3  C   UNL     1      -9.581  10.081  64.168  1.00  0.00    -0.208 C  
HETATM    4  C   UNL     1      -8.792  10.490  65.411  1.00  0.00    -0.203 C  
HETATM    5  C   UNL     1      -9.718  10.803  66.582  1.00  0.00    -0.227 C  
HETATM    6  C   UNL     1     -10.818  11.815  66.194  1.00  0.00    -0.336 C  
HETATM    7  C   UNL     1     -11.511  11.355  64.896  1.00  0.00     0.042 C  
ENDROOT
BRANCH   6   8
HETATM    8  C   UNL     1     -11.792  11.970  67.388  1.00  0.00    -0.268 C  
BRANCH   8   9
HETATM    9  C   UNL     1     -11.272  12.671  68.695  1.00  0.00    -0.323 C  
HETATM   10  C   UNL     1     -11.152  14.196  68.557  1.00  0.00    -0.276 A  
HETATM   11  C   UNL     1     -10.659  14.756  67.354  1.00  0.00    -0.268 A  
HETATM   12  C   UNL     1     -10.374  16.120  67.225  1.00  0.00    -0.287 A  
HETATM   13  C   UNL     1     -10.546  16.966  68.308  1.00  0.00    -0.363 A  
HETATM   14  C   UNL     1     -11.053  16.448  69.494  1.00  0.00    -0.293 A  
HETATM   15  C   UNL     1     -11.376  15.079  69.620  1.00  0.00    -0.286 A  
HETATM   16  S   UNL     1     -12.074  14.625  71.177  1.00  0.00    -0.355 SA 
HETATM   17  C   UNL     1     -12.363  12.891  71.030  1.00  0.00    -0.225 A  
HETATM   18  C   UNL     1     -13.064  12.304  72.101  1.00  0.00    -0.406 A  
HETATM   19  C   UNL     1     -13.289  10.934  72.156  1.00  0.00    -0.294 A  
HETATM   20  C   UNL     1     -12.768  10.124  71.161  1.00  0.00    -0.494 A  
HETATM   21  C   UNL     1     -12.071  10.698  70.095  1.00  0.00    -0.414 A  
HETATM   22  C   UNL     1     -11.914  12.099  69.966  1.00  0.00    -0.391 A  
ENDBRANCH   8   9
ENDBRANCH   6   8
TORSDOF 2
ENDMDL
MODEL       60
REMARK 921   NORMALIZED FREE ENERGY PREDICTED BY IDOCK:   -5.48 KCAL/MOL
REMARK 922        TOTAL FREE ENERGY PREDICTED BY IDOCK:   -6.52 KCAL/MOL
REMARK 923 INTER-LIGAND FREE ENERGY PREDICTED BY IDOCK:   -5.88 KCAL/MOL
REMARK 924 INTRA-LIGAND FREE ENERGY PREDICTED BY IDOCK:   -0.64 KCAL/MOL
REMARK 927      BINDING AFFINITY PREDICTED BY RF-SCORE:    0.00 PKD
ROOT
HETATM    1  C   UNL     1     -11.603  15.996  69.211  1.00  0.00    -0.331 C  
HETATM    2  N   UNL     1     -10.921  15.045  70.083  1.00  0.00    -0.242 NA 
HETATM    3  C   UNL     1     -11.419  15.067  71.461  1.00  0.00    -0.320 C  
HETATM    4  C   UNL     1     -12.796  14.423  71.621  1.00  0.00    -0.416 C  
HETATM    5  C   UNL     1     -12.820  13.008  71.053  1.00  0.00    -0.281 C  
HETATM    6  C   UNL     1     -12.281  12.955  69.606  1.00  0.00    -0.203 C  
HETATM    7  C   UNL     1     -10.926  13.686  69.531  1.00  0.00    -0.001 C  
ENDROOT
BRANCH   6   8
HETATM    8  C   UNL     1     -12.207  11.474  69.159  1.00  0.00    -0.221 C  
BRANCH   8   9
HETATM    9  C   UNL     1     -10.793  10.839  68.900  1.00  0.00    -0.269 C  
HETATM   10  C   UNL     1     -10.487   9.646  69.817  1.00  0.00    -0.263 A  
HETATM   11  C   UNL     1     -10.870   9.691  71.180  1.00  0.00    -0.404 A  
HETATM   12  C   UNL     1     -10.479   8.712  72.099  1.00  0.00    -0.411 A  
HETATM   13  C   UNL     1      -9.666   7.668  71.691  1.00  0.00    -0.191 A  
HETATM   14  C   UNL     1      -9.296   7.584  70.354  1.00  0.00    -0.161 A  
HETATM   15  C   UNL     1      -9.716   8.550  69.413  1.00  0.00    -0.177 A  
HETATM   16  S   UNL     1      -9.206   8.234  67.752  1.00  0.00    -0.134 SA 
HETATM   17  C   UNL     1      -9.870   9.586  66.834  1.00  0.00    -0.204 A  
HETATM   18  C   UNL     1      -9.728   9.492  65.436  1.00  0.00    -0.314 A  
HETATM   19  C   UNL     1     -10.131  10.523  64.596  1.00  0.00    -0.408 A  
HETATM   20  C   UNL     1     -10.635  11.687  65.150  1.00  0.00    -0.343 A  
HETATM   21  C   UNL     1     -10.779  11.789  66.535  1.00  0.00    -0.304 A  
HETATM   22  C   UNL     1     -10.468  10.715  67.405  1.00  0.00    -0.280 A  
ENDBRANCH   8   9
ENDBRANCH   6   8
TORSDOF 2
ENDMDL
MODEL       61
REMARK 921   NORMALIZED FREE ENERGY PREDICTED BY IDOCK:   -5.47 KCAL/MOL
REMARK 922        TOTAL FREE ENERGY PREDICTED BY IDOCK:   -6.51 KCAL/MOL
REMARK 923 INTER-LIGAND FREE ENERGY PREDICTED BY IDOCK:   -6.66 KCAL/MOL
REMARK 924 INTRA-LIGAND FREE ENERGY PREDICTED BY IDOCK:    0.15 KCAL/MOL
REMARK 927      BINDING AFFINITY PREDICTED BY RF-SCORE:    0.00 PKD
ROOT
HETATM    1  C   UNL     1     -11.987  14.601  73.732  1.00  0.00    -0.021 C  
HETATM    2  N   UNL     1     -13.300  14.495  73.103  1.00  0.00    -0.602 NA 
HETATM    3  C   UNL     1     -13.559  15.558  72.129  1.00  0.00    -0.497 C  
HETATM    4  C   UNL     1     -12.779  15.392  70.825  1.00  0.00    -0.516 C  
HETATM    5  C   UNL     1     -13.009  14.016  70.208  1.00  0.00    -0.031 C  
HETATM    6  C   UNL     1     -12.758  12.878  71.222  1.00  0.00    -0.371 C  
HETATM    7  C   UNL     1     -13.530  13.166  72.525  1.00  0.00    -0.475 C  
ENDROOT
BRANCH   6   8
HETATM    8  C   UNL     1     -13.147  11.532  70.562  1.00  0.00     0.216 C  
BRANCH   8   9
HETATM    9  C   UNL     1     -12.025  10.691  69.855  1.00  0.00    -0.385 C  
HETATM   10  C   UNL     1     -11.167  11.518  68.886  1.00  0.00    -0.308 A  
HETATM   11  C   UNL     1     -11.780  12.492  68.060  1.00  0.00    -0.410 A  
HETATM   12  C   UNL     1     -11.084  13.160  67.047  1.00  0.00    -0.305 A  
HETATM   13  C   UNL     1      -9.754  12.856  66.808  1.00  0.00    -0.246 A  
HETATM   14  C   UNL     1      -9.120  11.924  67.621  1.00  0.00    -0.179 A  
HETATM   15  C   UNL     1      -9.806  11.271  68.667  1.00  0.00    -0.202 A  
HETATM   16  S   UNL     1      -8.814  10.176  69.634  1.00  0.00    -0.114 SA 
HETATM   17  C   UNL     1      -9.932   9.527  70.833  1.00  0.00    -0.238 A  
HETATM   18  C   UNL     1      -9.345   8.729  71.834  1.00  0.00    -0.343 A  
HETATM   19  C   UNL     1     -10.117   8.087  72.795  1.00  0.00    -0.378 A  
HETATM   20  C   UNL     1     -11.496   8.194  72.734  1.00  0.00    -0.397 A  
HETATM   21  C   UNL     1     -12.087   8.983  71.745  1.00  0.00    -0.438 A  
HETATM   22  C   UNL     1     -11.317   9.726  70.816  1.00  0.00    -0.416 A  
ENDBRANCH   8   9
ENDBRANCH   6   8
TORSDOF 2
ENDMDL
MODEL       62
REMARK 921   NORMALIZED FREE ENERGY PREDICTED BY IDOCK:   -5.47 KCAL/MOL
REMARK 922        TOTAL FREE ENERGY PREDICTED BY IDOCK:   -6.51 KCAL/MOL
REMARK 923 INTER-LIGAND FREE ENERGY PREDICTED BY IDOCK:   -6.31 KCAL/MOL
REMARK 924 INTRA-LIGAND FREE ENERGY PREDICTED BY IDOCK:   -0.19 KCAL/MOL
REMARK 927      BINDING AFFINITY PREDICTED BY RF-SCORE:    0.00 PKD
ROOT
HETATM    1  C   UNL     1     -12.061  14.793  71.607  1.00  0.00    -0.350 C  
HETATM    2  N   UNL     1     -11.977  15.660  70.437  1.00  0.00    -0.356 NA 
HETATM    3  C   UNL     1     -10.632  16.196  70.213  1.00  0.00    -0.148 C  
HETATM    4  C   UNL     1      -9.644  15.159  69.677  1.00  0.00    -0.126 C  
HETATM    5  C   UNL     1     -10.177  14.478  68.421  1.00  0.00    -0.239 C  
HETATM    6  C   UNL     1     -11.603  13.919  68.627  1.00  0.00    -0.363 C  
HETATM    7  C   UNL     1     -12.506  15.013  69.231  1.00  0.00     0.018 C  
ENDROOT
BRANCH   6   8
HETATM    8  C   UNL     1     -12.121  13.374  67.273  1.00  0.00    -0.352 C  
BRANCH   8   9
HETATM    9  C   UNL     1     -11.906  11.852  66.946  1.00  0.00    -0.177 C  
HETATM   10  C   UNL     1     -11.051  11.616  65.692  1.00  0.00    -0.308 A  
HETATM   11  C   UNL     1     -11.228  12.442  64.555  1.00  0.00    -0.371 A  
HETATM   12  C   UNL     1     -10.599  12.178  63.334  1.00  0.00    -0.454 A  
HETATM   13  C   UNL     1      -9.793  11.061  63.200  1.00  0.00    -0.398 A  
HETATM   14  C   UNL     1      -9.580  10.247  64.306  1.00  0.00    -0.375 A  
HETATM   15  C   UNL     1     -10.184  10.526  65.552  1.00  0.00    -0.256 A  
HETATM   16  S   UNL     1      -9.737   9.421  66.855  1.00  0.00    -0.201 SA 
HETATM   17  C   UNL     1     -10.632  10.018  68.252  1.00  0.00    -0.226 A  
HETATM   18  C   UNL     1     -10.329   9.389  69.475  1.00  0.00    -0.223 A  
HETATM   19  C   UNL     1     -11.017   9.703  70.641  1.00  0.00    -0.386 A  
HETATM   20  C   UNL     1     -12.056  10.616  70.587  1.00  0.00    -0.461 A  
HETATM   21  C   UNL     1     -12.363  11.245  69.378  1.00  0.00    -0.216 A  
HETATM   22  C   UNL     1     -11.613  11.016  68.199  1.00  0.00    -0.345 A  
ENDBRANCH   8   9
ENDBRANCH   6   8
TORSDOF 2
ENDMDL
MODEL       63
REMARK 921   NORMALIZED FREE ENERGY PREDICTED BY IDOCK:   -5.47 KCAL/MOL
REMARK 922        TOTAL FREE ENERGY PREDICTED BY IDOCK:   -6.50 KCAL/MOL
REMARK 923 INTER-LIGAND FREE ENERGY PREDICTED BY IDOCK:   -5.79 KCAL/MOL
REMARK 924 INTRA-LIGAND FREE ENERGY PREDICTED BY IDOCK:   -0.72 KCAL/MOL
REMARK 927      BINDING AFFINITY PREDICTED BY RF-SCORE:    0.00 PKD
ROOT
HETATM    1  C   UNL     1      -9.414  15.190  69.507  1.00  0.00    -0.145 C  
HETATM    2  N   UNL     1     -10.380  15.531  68.468  1.00  0.00    -0.222 NA 
HETATM    3  C   UNL     1      -9.762  16.125  67.280  1.00  0.00    -0.233 C  
HETATM    4  C   UNL     1      -9.000  15.115  66.421  1.00  0.00    -0.314 C  
HETATM    5  C   UNL     1      -9.880  13.927  66.045  1.00  0.00    -0.306 C  
HETATM    6  C   UNL     1     -10.557  13.294  67.281  1.00  0.00    -0.250 C  
HETATM    7  C   UNL     1     -11.239  14.395  68.118  1.00  0.00    -0.281 C  
ENDROOT
BRANCH   6   8
HETATM    8  C   UNL     1     -11.535  12.194  66.800  1.00  0.00    -0.418 C  
BRANCH   8   9
HETATM    9  C   UNL     1     -11.140  10.689  67.023  1.00  0.00    -0.217 C  
HETATM   10  C   UNL     1      -9.959  10.237  66.151  1.00  0.00    -0.300 A  
HETATM   11  C   UNL     1      -9.870  10.675  64.807  1.00  0.00    -0.372 A  
HETATM   12  C   UNL     1      -8.913  10.173  63.919  1.00  0.00    -0.270 A  
HETATM   13  C   UNL     1      -8.030   9.192  64.338  1.00  0.00    -0.137 A  
HETATM   14  C   UNL     1      -8.078   8.762  65.658  1.00  0.00    -0.108 A  
HETATM   15  C   UNL     1      -9.018   9.290  66.571  1.00  0.00    -0.149 A  
HETATM   16  S   UNL     1      -8.876   8.673  68.219  1.00  0.00    -0.142 SA 
HETATM   17  C   UNL     1     -10.158   9.503  69.101  1.00  0.00    -0.195 A  
HETATM   18  C   UNL     1     -10.163   9.294  70.494  1.00  0.00    -0.309 A  
HETATM   19  C   UNL     1     -11.165   9.819  71.302  1.00  0.00    -0.417 A  
HETATM   20  C   UNL     1     -12.205  10.520  70.717  1.00  0.00    -0.468 A  
HETATM   21  C   UNL     1     -12.208  10.732  69.336  1.00  0.00    -0.242 A  
HETATM   22  C   UNL     1     -11.149  10.291  68.505  1.00  0.00    -0.294 A  
ENDBRANCH   8   9
ENDBRANCH   6   8
TORSDOF 2
ENDMDL
MODEL       64
REMARK 921   NORMALIZED FREE ENERGY PREDICTED BY IDOCK:   -5.46 KCAL/MOL
REMARK 922        TOTAL FREE ENERGY PREDICTED BY IDOCK:   -6.49 KCAL/MOL
REMARK 923 INTER-LIGAND FREE ENERGY PREDICTED BY IDOCK:   -5.74 KCAL/MOL
REMARK 924 INTRA-LIGAND FREE ENERGY PREDICTED BY IDOCK:   -0.75 KCAL/MOL
REMARK 927      BINDING AFFINITY PREDICTED BY RF-SCORE:    0.00 PKD
ROOT
HETATM    1  C   UNL     1     -12.926  10.838  71.213  1.00  0.00    -0.402 C  
HETATM    2  N   UNL     1     -12.779   9.892  72.314  1.00  0.00    -0.280 NA 
HETATM    3  C   UNL     1     -13.979   9.084  72.543  1.00  0.00    -0.401 C  
HETATM    4  C   UNL     1     -14.203   8.010  71.479  1.00  0.00    -0.513 C  
HETATM    5  C   UNL     1     -12.971   7.125  71.312  1.00  0.00    -0.378 C  
HETATM    6  C   UNL     1     -11.688   7.955  71.087  1.00  0.00    -0.306 C  
HETATM    7  C   UNL     1     -11.585   9.052  72.166  1.00  0.00    -0.278 C  
ENDROOT
BRANCH   6   8
HETATM    8  C   UNL     1     -10.474   6.995  71.069  1.00  0.00    -0.231 C  
BRANCH   8   9
HETATM    9  C   UNL     1     -10.712   5.491  70.680  1.00  0.00    -0.303 C  
HETATM   10  C   UNL     1     -10.215   5.144  69.269  1.00  0.00    -0.276 A  
HETATM   11  C   UNL     1     -10.411   6.064  68.210  1.00  0.00    -0.289 A  
HETATM   12  C   UNL     1     -10.130   5.741  66.877  1.00  0.00    -0.231 A  
HETATM   13  C   UNL     1      -9.669   4.476  66.557  1.00  0.00    -0.220 A  
HETATM   14  C   UNL     1      -9.443   3.562  67.579  1.00  0.00    -0.233 A  
HETATM   15  C   UNL     1      -9.691   3.891  68.930  1.00  0.00    -0.051 A  
HETATM   16  S   UNL     1      -9.274   2.627  70.089  1.00  0.00    -0.128 SA 
HETATM   17  C   UNL     1      -9.690   3.323  71.655  1.00  0.00    -0.164 A  
HETATM   18  C   UNL     1      -9.309   2.559  72.774  1.00  0.00    -0.132 A  
HETATM   19  C   UNL     1      -9.646   2.947  74.066  1.00  0.00    -0.120 A  
HETATM   20  C   UNL     1     -10.415   4.083  74.249  1.00  0.00    -0.283 A  
HETATM   21  C   UNL     1     -10.798   4.847  73.144  1.00  0.00    -0.348 A  
HETATM   22  C   UNL     1     -10.384   4.526  71.829  1.00  0.00    -0.175 A  
ENDBRANCH   8   9
ENDBRANCH   6   8
TORSDOF 2
ENDMDL
MODEL       65
REMARK 921   NORMALIZED FREE ENERGY PREDICTED BY IDOCK:   -5.45 KCAL/MOL
REMARK 922        TOTAL FREE ENERGY PREDICTED BY IDOCK:   -6.48 KCAL/MOL
REMARK 923 INTER-LIGAND FREE ENERGY PREDICTED BY IDOCK:   -6.21 KCAL/MOL
REMARK 924 INTRA-LIGAND FREE ENERGY PREDICTED BY IDOCK:   -0.28 KCAL/MOL
REMARK 927      BINDING AFFINITY PREDICTED BY RF-SCORE:    0.00 PKD
ROOT
HETATM    1  C   UNL     1      -9.333  18.502  68.675  1.00  0.00    -0.326 C  
HETATM    2  N   UNL     1      -8.560  17.830  67.636  1.00  0.00    -0.228 NA 
HETATM    3  C   UNL     1      -7.372  17.145  68.154  1.00  0.00    -0.202 C  
HETATM    4  C   UNL     1      -7.695  15.864  68.922  1.00  0.00    -0.194 C  
HETATM    5  C   UNL     1      -8.555  14.916  68.091  1.00  0.00    -0.159 C  
HETATM    6  C   UNL     1      -9.805  15.621  67.519  1.00  0.00    -0.228 C  
HETATM    7  C   UNL     1      -9.388  16.933  66.824  1.00  0.00    -0.251 C  
ENDROOT
BRANCH   6   8
HETATM    8  C   UNL     1     -10.543  14.635  66.579  1.00  0.00    -0.300 C  
BRANCH   8   9
HETATM    9  C   UNL     1     -11.407  13.491  67.222  1.00  0.00    -0.339 C  
HETATM   10  C   UNL     1     -10.848  12.086  66.957  1.00  0.00    -0.297 A  
HETATM   11  C   UNL     1     -10.310  11.772  65.685  1.00  0.00    -0.293 A  
HETATM   12  C   UNL     1      -9.936  10.472  65.331  1.00  0.00    -0.353 A  
HETATM   13  C   UNL     1     -10.113   9.434  66.230  1.00  0.00    -0.328 A  
HETATM   14  C   UNL     1     -10.613   9.717  67.495  1.00  0.00    -0.335 A  
HETATM   15  C   UNL     1     -10.961  11.033  67.872  1.00  0.00    -0.264 A  
HETATM   16  S   UNL     1     -11.510  11.204  69.541  1.00  0.00    -0.334 SA 
HETATM   17  C   UNL     1     -11.862  12.925  69.705  1.00  0.00    -0.320 A  
HETATM   18  C   UNL     1     -12.181  13.353  71.008  1.00  0.00    -0.312 A  
HETATM   19  C   UNL     1     -12.559  14.665  71.267  1.00  0.00    -0.403 A  
HETATM   20  C   UNL     1     -12.674  15.555  70.213  1.00  0.00    -0.310 A  
HETATM   21  C   UNL     1     -12.360  15.138  68.917  1.00  0.00    -0.021 A  
HETATM   22  C   UNL     1     -11.878  13.836  68.642  1.00  0.00    -0.409 A  
ENDBRANCH   8   9
ENDBRANCH   6   8
TORSDOF 2
ENDMDL
MODEL       66
REMARK 921   NORMALIZED FREE ENERGY PREDICTED BY IDOCK:   -5.41 KCAL/MOL
REMARK 922        TOTAL FREE ENERGY PREDICTED BY IDOCK:   -6.44 KCAL/MOL
REMARK 923 INTER-LIGAND FREE ENERGY PREDICTED BY IDOCK:   -5.66 KCAL/MOL
REMARK 924 INTRA-LIGAND FREE ENERGY PREDICTED BY IDOCK:   -0.77 KCAL/MOL
REMARK 927      BINDING AFFINITY PREDICTED BY RF-SCORE:    0.00 PKD
ROOT
HETATM    1  C   UNL     1      -7.663   3.694  66.582  1.00  0.00    -0.081 C  
HETATM    2  N   UNL     1      -8.171   4.672  65.625  1.00  0.00    -0.113 NA 
HETATM    3  C   UNL     1      -9.548   4.402  65.201  1.00  0.00    -0.178 C  
HETATM    4  C   UNL     1     -10.588   4.720  66.275  1.00  0.00    -0.246 C  
HETATM    5  C   UNL     1     -10.443   6.150  66.786  1.00  0.00    -0.316 C  
HETATM    6  C   UNL     1      -8.995   6.464  67.223  1.00  0.00    -0.107 C  
HETATM    7  C   UNL     1      -8.016   6.049  66.107  1.00  0.00    -0.107 C  
ENDROOT
BRANCH   6   8
HETATM    8  C   UNL     1      -8.904   7.966  67.592  1.00  0.00    -0.128 C  
BRANCH   8   9
HETATM    9  C   UNL     1     -10.239   8.771  67.792  1.00  0.00    -0.285 C  
HETATM   10  C   UNL     1     -10.607   8.977  69.268  1.00  0.00    -0.226 A  
HETATM   11  C   UNL     1     -10.413   7.923  70.194  1.00  0.00    -0.231 A  
HETATM   12  C   UNL     1     -10.876   7.990  71.512  1.00  0.00    -0.278 A  
HETATM   13  C   UNL     1     -11.576   9.105  71.941  1.00  0.00    -0.430 A  
HETATM   14  C   UNL     1     -11.759  10.166  71.062  1.00  0.00    -0.470 A  
HETATM   15  C   UNL     1     -11.264  10.119  69.740  1.00  0.00    -0.272 A  
HETATM   16  S   UNL     1     -11.531  11.589  68.798  1.00  0.00    -0.318 SA 
HETATM   17  C   UNL     1     -10.816  11.229  67.227  1.00  0.00    -0.267 A  
HETATM   18  C   UNL     1     -10.764  12.311  66.326  1.00  0.00    -0.293 A  
HETATM   19  C   UNL     1     -10.302  12.150  65.026  1.00  0.00    -0.320 A  
HETATM   20  C   UNL     1      -9.933  10.888  64.593  1.00  0.00    -0.369 A  
HETATM   21  C   UNL     1      -9.981   9.809  65.479  1.00  0.00    -0.329 A  
HETATM   22  C   UNL     1     -10.354   9.967  66.836  1.00  0.00    -0.300 A  
ENDBRANCH   8   9
ENDBRANCH   6   8
TORSDOF 2
ENDMDL
MODEL       67
REMARK 921   NORMALIZED FREE ENERGY PREDICTED BY IDOCK:   -5.41 KCAL/MOL
REMARK 922        TOTAL FREE ENERGY PREDICTED BY IDOCK:   -6.44 KCAL/MOL
REMARK 923 INTER-LIGAND FREE ENERGY PREDICTED BY IDOCK:   -5.76 KCAL/MOL
REMARK 924 INTRA-LIGAND FREE ENERGY PREDICTED BY IDOCK:   -0.68 KCAL/MOL
REMARK 927      BINDING AFFINITY PREDICTED BY RF-SCORE:    0.00 PKD
ROOT
HETATM    1  C   UNL     1     -11.542  15.161  72.182  1.00  0.00    -0.400 C  
HETATM    2  N   UNL     1     -11.915  15.602  70.842  1.00  0.00    -0.362 NA 
HETATM    3  C   UNL     1     -10.846  16.335  70.159  1.00  0.00    -0.298 C  
HETATM    4  C   UNL     1      -9.700  15.440  69.685  1.00  0.00    -0.251 C  
HETATM    5  C   UNL     1     -10.211  14.289  68.825  1.00  0.00    -0.226 C  
HETATM    6  C   UNL     1     -11.352  13.512  69.517  1.00  0.00    -0.265 C  
HETATM    7  C   UNL     1     -12.424  14.501  70.018  1.00  0.00    -0.298 C  
ENDROOT
BRANCH   6   8
HETATM    8  C   UNL     1     -11.905  12.458  68.525  1.00  0.00    -0.352 C  
BRANCH   8   9
HETATM    9  C   UNL     1     -11.385  10.979  68.635  1.00  0.00    -0.346 C  
HETATM   10  C   UNL     1      -9.966  10.793  68.077  1.00  0.00    -0.183 A  
HETATM   11  C   UNL     1      -9.584  11.464  66.889  1.00  0.00    -0.203 A  
HETATM   12  C   UNL     1      -8.369  11.211  66.245  1.00  0.00    -0.163 A  
HETATM   13  C   UNL     1      -7.505  10.256  66.752  1.00  0.00    -0.107 A  
HETATM   14  C   UNL     1      -7.841   9.601  67.931  1.00  0.00    -0.087 A  
HETATM   15  C   UNL     1      -9.051   9.876  68.606  1.00  0.00    -0.132 A  
HETATM   16  S   UNL     1      -9.267   8.997  70.122  1.00  0.00    -0.209 SA 
HETATM   17  C   UNL     1     -10.837   9.543  70.715  1.00  0.00    -0.318 A  
HETATM   18  C   UNL     1     -11.181   9.096  72.006  1.00  0.00    -0.310 A  
HETATM   19  C   UNL     1     -12.422   9.381  72.564  1.00  0.00    -0.140 A  
HETATM   20  C   UNL     1     -13.355  10.076  71.814  1.00  0.00    -0.492 A  
HETATM   21  C   UNL     1     -13.021  10.523  70.534  1.00  0.00    -0.289 A  
HETATM   22  C   UNL     1     -11.732  10.331  69.982  1.00  0.00    -0.330 A  
ENDBRANCH   8   9
ENDBRANCH   6   8
TORSDOF 2
ENDMDL
MODEL       68
REMARK 921   NORMALIZED FREE ENERGY PREDICTED BY IDOCK:   -5.41 KCAL/MOL
REMARK 922        TOTAL FREE ENERGY PREDICTED BY IDOCK:   -6.43 KCAL/MOL
REMARK 923 INTER-LIGAND FREE ENERGY PREDICTED BY IDOCK:   -5.86 KCAL/MOL
REMARK 924 INTRA-LIGAND FREE ENERGY PREDICTED BY IDOCK:   -0.57 KCAL/MOL
REMARK 927      BINDING AFFINITY PREDICTED BY RF-SCORE:    0.00 PKD
ROOT
HETATM    1  C   UNL     1     -10.813  14.453  65.178  1.00  0.00    -0.386 C  
HETATM    2  N   UNL     1     -11.773  13.408  64.840  1.00  0.00    -0.337 NA 
HETATM    3  C   UNL     1     -11.599  12.882  63.484  1.00  0.00    -0.468 C  
HETATM    4  C   UNL     1     -10.372  11.983  63.333  1.00  0.00    -0.468 C  
HETATM    5  C   UNL     1     -10.376  10.856  64.361  1.00  0.00    -0.430 C  
HETATM    6  C   UNL     1     -10.576  11.384  65.798  1.00  0.00    -0.315 C  
HETATM    7  C   UNL     1     -11.792  12.332  65.837  1.00  0.00    -0.354 C  
ENDROOT
BRANCH   6   8
HETATM    8  C   UNL     1     -10.709  10.175  66.756  1.00  0.00    -0.191 C  
BRANCH   8   9
HETATM    9  C   UNL     1      -9.923  10.205  68.116  1.00  0.00    -0.170 C  
HETATM   10  C   UNL     1     -10.824   9.998  69.342  1.00  0.00    -0.270 A  
HETATM   11  C   UNL     1     -12.100  10.611  69.388  1.00  0.00    -0.250 A  
HETATM   12  C   UNL     1     -12.897  10.596  70.538  1.00  0.00    -0.356 A  
HETATM   13  C   UNL     1     -12.431   9.989  71.692  1.00  0.00    -0.513 A  
HETATM   14  C   UNL     1     -11.194   9.357  71.668  1.00  0.00    -0.431 A  
HETATM   15  C   UNL     1     -10.399   9.338  70.501  1.00  0.00    -0.254 A  
HETATM   16  S   UNL     1      -8.894   8.425  70.645  1.00  0.00    -0.157 SA 
HETATM   17  C   UNL     1      -8.139   8.586  69.059  1.00  0.00    -0.115 A  
HETATM   18  C   UNL     1      -6.979   7.812  68.863  1.00  0.00    -0.066 A  
HETATM   19  C   UNL     1      -6.237   7.903  67.692  1.00  0.00    -0.051 A  
HETATM   20  C   UNL     1      -6.619   8.811  66.720  1.00  0.00    -0.061 A  
HETATM   21  C   UNL     1      -7.769   9.583  66.906  1.00  0.00    -0.098 A  
HETATM   22  C   UNL     1      -8.596   9.437  68.046  1.00  0.00    -0.120 A  
ENDBRANCH   8   9
ENDBRANCH   6   8
TORSDOF 2
ENDMDL
MODEL       69
REMARK 921   NORMALIZED FREE ENERGY PREDICTED BY IDOCK:   -5.40 KCAL/MOL
REMARK 922        TOTAL FREE ENERGY PREDICTED BY IDOCK:   -6.42 KCAL/MOL
REMARK 923 INTER-LIGAND FREE ENERGY PREDICTED BY IDOCK:   -5.91 KCAL/MOL
REMARK 924 INTRA-LIGAND FREE ENERGY PREDICTED BY IDOCK:   -0.51 KCAL/MOL
REMARK 927      BINDING AFFINITY PREDICTED BY RF-SCORE:    0.00 PKD
ROOT
HETATM    1  C   UNL     1      -9.232   4.358  68.696  1.00  0.00    -0.135 C  
HETATM    2  N   UNL     1      -8.933   5.136  67.499  1.00  0.00    -0.109 NA 
HETATM    3  C   UNL     1     -10.090   5.304  66.616  1.00  0.00    -0.228 C  
HETATM    4  C   UNL     1     -11.128   6.289  67.153  1.00  0.00    -0.389 C  
HETATM    5  C   UNL     1     -10.497   7.636  67.490  1.00  0.00    -0.336 C  
HETATM    6  C   UNL     1      -9.262   7.484  68.406  1.00  0.00    -0.139 C  
HETATM    7  C   UNL     1      -8.308   6.425  67.818  1.00  0.00    -0.118 C  
ENDROOT
BRANCH   6   8
HETATM    8  C   UNL     1      -8.602   8.874  68.582  1.00  0.00    -0.133 C  
BRANCH   8   9
HETATM    9  C   UNL     1      -9.387   9.982  69.374  1.00  0.00    -0.237 C  
HETATM   10  C   UNL     1     -10.142  10.959  68.461  1.00  0.00    -0.193 A  
HETATM   11  C   UNL     1      -9.539  11.410  67.262  1.00  0.00    -0.187 A  
HETATM   12  C   UNL     1     -10.103  12.419  66.473  1.00  0.00    -0.246 A  
HETATM   13  C   UNL     1     -11.278  13.031  66.874  1.00  0.00    -0.331 A  
HETATM   14  C   UNL     1     -11.906  12.591  68.033  1.00  0.00    -0.382 A  
HETATM   15  C   UNL     1     -11.361  11.549  68.816  1.00  0.00    -0.265 A  
HETATM   16  S   UNL     1     -12.339  11.081  70.209  1.00  0.00    -0.317 SA 
HETATM   17  C   UNL     1     -11.413   9.787  70.970  1.00  0.00    -0.383 A  
HETATM   18  C   UNL     1     -12.059   9.130  72.035  1.00  0.00    -0.431 A  
HETATM   19  C   UNL     1     -11.416   8.147  72.777  1.00  0.00    -0.397 A  
HETATM   20  C   UNL     1     -10.095   7.844  72.494  1.00  0.00    -0.325 A  
HETATM   21  C   UNL     1      -9.446   8.491  71.439  1.00  0.00    -0.279 A  
HETATM   22  C   UNL     1     -10.111   9.424  70.606  1.00  0.00    -0.356 A  
ENDBRANCH   8   9
ENDBRANCH   6   8
TORSDOF 2
ENDMDL
MODEL       70
REMARK 921   NORMALIZED FREE ENERGY PREDICTED BY IDOCK:   -5.37 KCAL/MOL
REMARK 922        TOTAL FREE ENERGY PREDICTED BY IDOCK:   -6.39 KCAL/MOL
REMARK 923 INTER-LIGAND FREE ENERGY PREDICTED BY IDOCK:   -5.63 KCAL/MOL
REMARK 924 INTRA-LIGAND FREE ENERGY PREDICTED BY IDOCK:   -0.76 KCAL/MOL
REMARK 927      BINDING AFFINITY PREDICTED BY RF-SCORE:    0.00 PKD
ROOT
HETATM    1  C   UNL     1      -9.810  10.300  64.727  1.00  0.00    -0.334 C  
HETATM    2  N   UNL     1      -9.520  11.507  65.495  1.00  0.00    -0.225 NA 
HETATM    3  C   UNL     1     -10.645  12.446  65.538  1.00  0.00    -0.275 C  
HETATM    4  C   UNL     1     -11.786  11.987  66.447  1.00  0.00    -0.326 C  
HETATM    5  C   UNL     1     -11.286  11.666  67.852  1.00  0.00    -0.334 C  
HETATM    6  C   UNL     1     -10.088  10.691  67.830  1.00  0.00    -0.194 C  
HETATM    7  C   UNL     1      -9.022  11.201  66.840  1.00  0.00    -0.161 C  
ENDROOT
BRANCH   6   8
HETATM    8  C   UNL     1      -9.555  10.529  69.276  1.00  0.00    -0.199 C  
BRANCH   8   9
HETATM    9  C   UNL     1      -9.809   9.170  70.021  1.00  0.00    -0.217 C  
HETATM   10  C   UNL     1     -11.232   9.044  70.585  1.00  0.00    -0.318 A  
HETATM   11  C   UNL     1     -11.853  10.167  71.184  1.00  0.00    -0.472 A  
HETATM   12  C   UNL     1     -13.076  10.076  71.857  1.00  0.00    -0.563 A  
HETATM   13  C   UNL     1     -13.707   8.850  71.978  1.00  0.00    -0.509 A  
HETATM   14  C   UNL     1     -13.134   7.735  71.377  1.00  0.00    -0.310 A  
HETATM   15  C   UNL     1     -11.917   7.825  70.666  1.00  0.00    -0.070 A  
HETATM   16  S   UNL     1     -11.386   6.319  69.913  1.00  0.00    -0.374 SA 
HETATM   17  C   UNL     1      -9.871   6.747  69.118  1.00  0.00    -0.157 A  
HETATM   18  C   UNL     1      -9.312   5.740  68.307  1.00  0.00    -0.123 A  
HETATM   19  C   UNL     1      -8.080   5.910  67.687  1.00  0.00    -0.102 A  
HETATM   20  C   UNL     1      -7.366   7.074  67.913  1.00  0.00    -0.097 A  
HETATM   21  C   UNL     1      -7.913   8.078  68.716  1.00  0.00    -0.119 A  
HETATM   22  C   UNL     1      -9.208   7.969  69.278  1.00  0.00    -0.152 A  
ENDBRANCH   8   9
ENDBRANCH   6   8
TORSDOF 2
ENDMDL
MODEL       71
REMARK 921   NORMALIZED FREE ENERGY PREDICTED BY IDOCK:   -5.35 KCAL/MOL
REMARK 922        TOTAL FREE ENERGY PREDICTED BY IDOCK:   -6.38 KCAL/MOL
REMARK 923 INTER-LIGAND FREE ENERGY PREDICTED BY IDOCK:   -5.62 KCAL/MOL
REMARK 924 INTRA-LIGAND FREE ENERGY PREDICTED BY IDOCK:   -0.76 KCAL/MOL
REMARK 927      BINDING AFFINITY PREDICTED BY RF-SCORE:    0.00 PKD
ROOT
HETATM    1  C   UNL     1     -12.116  15.117  64.017  1.00  0.00    -0.049 C  
HETATM    2  N   UNL     1     -12.778  13.830  64.200  1.00  0.00    -0.644 NA 
HETATM    3  C   UNL     1     -12.373  12.828  63.210  1.00  0.00    -0.341 C  
HETATM    4  C   UNL     1     -10.963  12.282  63.438  1.00  0.00    -0.467 C  
HETATM    5  C   UNL     1     -10.794  11.749  64.857  1.00  0.00    -0.353 C  
HETATM    6  C   UNL     1     -11.233  12.781  65.919  1.00  0.00    -0.334 C  
HETATM    7  C   UNL     1     -12.633  13.323  65.569  1.00  0.00    -0.446 C  
ENDROOT
BRANCH   6   8
HETATM    8  C   UNL     1     -11.164  12.114  67.315  1.00  0.00    -0.366 C  
BRANCH   8   9
HETATM    9  C   UNL     1     -10.037  12.571  68.311  1.00  0.00    -0.228 C  
HETATM   10  C   UNL     1      -8.670  11.940  68.010  1.00  0.00    -0.173 A  
HETATM   11  C   UNL     1      -8.594  10.580  67.621  1.00  0.00    -0.118 A  
HETATM   12  C   UNL     1      -7.375   9.906  67.491  1.00  0.00    -0.090 A  
HETATM   13  C   UNL     1      -6.190  10.563  67.774  1.00  0.00    -0.055 A  
HETATM   14  C   UNL     1      -6.232  11.905  68.133  1.00  0.00    -0.051 A  
HETATM   15  C   UNL     1      -7.457  12.602  68.232  1.00  0.00    -0.123 A  
HETATM   16  S   UNL     1      -7.302  14.315  68.628  1.00  0.00    -0.130 SA 
HETATM   17  C   UNL     1      -8.967  14.897  68.680  1.00  0.00    -0.184 A  
HETATM   18  C   UNL     1      -9.114  16.289  68.832  1.00  0.00    -0.250 A  
HETATM   19  C   UNL     1     -10.366  16.875  68.970  1.00  0.00    -0.333 A  
HETATM   20  C   UNL     1     -11.489  16.066  69.009  1.00  0.00    -0.360 A  
HETATM   21  C   UNL     1     -11.352  14.684  68.859  1.00  0.00    -0.305 A  
HETATM   22  C   UNL     1     -10.097  14.074  68.618  1.00  0.00    -0.217 A  
ENDBRANCH   8   9
ENDBRANCH   6   8
TORSDOF 2
ENDMDL
MODEL       72
REMARK 921   NORMALIZED FREE ENERGY PREDICTED BY IDOCK:   -5.35 KCAL/MOL
REMARK 922        TOTAL FREE ENERGY PREDICTED BY IDOCK:   -6.37 KCAL/MOL
REMARK 923 INTER-LIGAND FREE ENERGY PREDICTED BY IDOCK:   -5.63 KCAL/MOL
REMARK 924 INTRA-LIGAND FREE ENERGY PREDICTED BY IDOCK:   -0.73 KCAL/MOL
REMARK 927      BINDING AFFINITY PREDICTED BY RF-SCORE:    0.00 PKD
ROOT
HETATM    1  C   UNL     1      -6.361  13.598  68.191  1.00  0.00    -0.123 C  
HETATM    2  N   UNL     1      -6.357  12.247  67.638  1.00  0.00    -0.105 NA 
HETATM    3  C   UNL     1      -5.756  11.259  68.538  1.00  0.00    -0.042 C  
HETATM    4  C   UNL     1      -6.642  10.906  69.733  1.00  0.00    -0.140 C  
HETATM    5  C   UNL     1      -8.033  10.466  69.286  1.00  0.00    -0.157 C  
HETATM    6  C   UNL     1      -8.680  11.485  68.322  1.00  0.00    -0.162 C  
HETATM    7  C   UNL     1      -7.689  11.829  67.191  1.00  0.00    -0.162 C  
ENDROOT
BRANCH   6   8
HETATM    8  C   UNL     1     -10.018  10.899  67.809  1.00  0.00    -0.198 C  
BRANCH   8   9
HETATM    9  C   UNL     1     -11.361  11.511  68.349  1.00  0.00    -0.342 C  
HETATM   10  C   UNL     1     -11.785  10.936  69.709  1.00  0.00    -0.413 A  
HETATM   11  C   UNL     1     -11.622   9.554  69.969  1.00  0.00    -0.091 A  
HETATM   12  C   UNL     1     -12.135   8.944  71.119  1.00  0.00    -0.326 A  
HETATM   13  C   UNL     1     -12.853   9.693  72.036  1.00  0.00    -0.497 A  
HETATM   14  C   UNL     1     -13.005  11.057  71.819  1.00  0.00    -0.544 A  
HETATM   15  C   UNL     1     -12.461  11.687  70.678  1.00  0.00    -0.295 A  
HETATM   16  S   UNL     1     -12.696  13.435  70.615  1.00  0.00    -0.113 SA 
HETATM   17  C   UNL     1     -11.922  13.920  69.106  1.00  0.00    -0.363 A  
HETATM   18  C   UNL     1     -11.839  15.309  68.891  1.00  0.00    -0.344 A  
HETATM   19  C   UNL     1     -11.329  15.830  67.708  1.00  0.00    -0.240 A  
HETATM   20  C   UNL     1     -10.941  14.963  66.701  1.00  0.00    -0.325 A  
HETATM   21  C   UNL     1     -11.020  13.583  66.906  1.00  0.00    -0.296 A  
HETATM   22  C   UNL     1     -11.443  13.029  68.139  1.00  0.00    -0.356 A  
ENDBRANCH   8   9
ENDBRANCH   6   8
TORSDOF 2
ENDMDL
MODEL       73
REMARK 921   NORMALIZED FREE ENERGY PREDICTED BY IDOCK:   -5.34 KCAL/MOL
REMARK 922        TOTAL FREE ENERGY PREDICTED BY IDOCK:   -6.36 KCAL/MOL
REMARK 923 INTER-LIGAND FREE ENERGY PREDICTED BY IDOCK:   -5.79 KCAL/MOL
REMARK 924 INTRA-LIGAND FREE ENERGY PREDICTED BY IDOCK:   -0.57 KCAL/MOL
REMARK 927      BINDING AFFINITY PREDICTED BY RF-SCORE:    0.00 PKD
ROOT
HETATM    1  C   UNL     1     -10.889   9.613  71.133  1.00  0.00    -0.334 C  
HETATM    2  N   UNL     1     -12.241   9.853  70.639  1.00  0.00    -0.265 NA 
HETATM    3  C   UNL     1     -13.172  10.273  71.690  1.00  0.00    -0.408 C  
HETATM    4  C   UNL     1     -12.950  11.710  72.162  1.00  0.00    -0.211 C  
HETATM    5  C   UNL     1     -12.967  12.690  70.993  1.00  0.00    -0.156 C  
HETATM    6  C   UNL     1     -12.005  12.259  69.863  1.00  0.00    -0.377 C  
HETATM    7  C   UNL     1     -12.258  10.781  69.503  1.00  0.00    -0.221 C  
ENDROOT
BRANCH   6   8
HETATM    8  C   UNL     1     -12.187  13.223  68.665  1.00  0.00    -0.115 C  
BRANCH   8   9
HETATM    9  C   UNL     1     -10.911  13.677  67.867  1.00  0.00    -0.277 C  
HETATM   10  C   UNL     1     -10.835  13.080  66.455  1.00  0.00    -0.294 A  
HETATM   11  C   UNL     1     -11.213  11.732  66.240  1.00  0.00    -0.370 A  
HETATM   12  C   UNL     1     -11.013  11.084  65.016  1.00  0.00    -0.117 A  
HETATM   13  C   UNL     1     -10.402  11.757  63.972  1.00  0.00    -0.401 A  
HETATM   14  C   UNL     1     -10.045  13.089  64.145  1.00  0.00    -0.146 A  
HETATM   15  C   UNL     1     -10.274  13.759  65.367  1.00  0.00    -0.326 A  
HETATM   16  S   UNL     1      -9.819  15.465  65.371  1.00  0.00    -0.202 SA 
HETATM   17  C   UNL     1     -10.218  16.013  66.999  1.00  0.00    -0.282 A  
HETATM   18  C   UNL     1     -10.087  17.398  67.218  1.00  0.00    -0.310 A  
HETATM   19  C   UNL     1     -10.289  17.956  68.474  1.00  0.00    -0.365 A  
HETATM   20  C   UNL     1     -10.576  17.125  69.543  1.00  0.00    -0.083 A  
HETATM   21  C   UNL     1     -10.708  15.749  69.336  1.00  0.00    -0.266 A  
HETATM   22  C   UNL     1     -10.604  15.170  68.048  1.00  0.00    -0.258 A  
ENDBRANCH   8   9
ENDBRANCH   6   8
TORSDOF 2
ENDMDL
MODEL       74
REMARK 921   NORMALIZED FREE ENERGY PREDICTED BY IDOCK:   -5.33 KCAL/MOL
REMARK 922        TOTAL FREE ENERGY PREDICTED BY IDOCK:   -6.35 KCAL/MOL
REMARK 923 INTER-LIGAND FREE ENERGY PREDICTED BY IDOCK:   -6.20 KCAL/MOL
REMARK 924 INTRA-LIGAND FREE ENERGY PREDICTED BY IDOCK:   -0.15 KCAL/MOL
REMARK 927      BINDING AFFINITY PREDICTED BY RF-SCORE:    0.00 PKD
ROOT
HETATM    1  C   UNL     1     -10.479  10.858  64.569  1.00  0.00    -0.323 C  
HETATM    2  N   UNL     1     -10.838  11.978  63.706  1.00  0.00    -0.377 NA 
HETATM    3  C   UNL     1     -12.285  12.159  63.569  1.00  0.00    -0.567 C  
HETATM    4  C   UNL     1     -12.946  12.743  64.818  1.00  0.00    -0.228 C  
HETATM    5  C   UNL     1     -12.271  14.040  65.252  1.00  0.00    -0.451 C  
HETATM    6  C   UNL     1     -10.740  13.879  65.386  1.00  0.00    -0.330 C  
HETATM    7  C   UNL     1     -10.175  13.223  64.110  1.00  0.00    -0.061 C  
ENDROOT
BRANCH   6   8
HETATM    8  C   UNL     1     -10.121  15.265  65.689  1.00  0.00    -0.401 C  
BRANCH   8   9
HETATM    9  C   UNL     1      -9.707  15.594  67.169  1.00  0.00    -0.226 C  
HETATM   10  C   UNL     1      -8.517  14.760  67.665  1.00  0.00    -0.185 A  
HETATM   11  C   UNL     1      -8.428  13.389  67.322  1.00  0.00    -0.205 A  
HETATM   12  C   UNL     1      -7.462  12.540  67.873  1.00  0.00    -0.120 A  
HETATM   13  C   UNL     1      -6.568  13.029  68.810  1.00  0.00    -0.096 A  
HETATM   14  C   UNL     1      -6.615  14.377  69.147  1.00  0.00    -0.112 A  
HETATM   15  C   UNL     1      -7.565  15.248  68.569  1.00  0.00    -0.119 A  
HETATM   16  S   UNL     1      -7.421  16.935  69.066  1.00  0.00    -0.182 SA 
HETATM   17  C   UNL     1      -8.717  17.754  68.194  1.00  0.00    -0.266 A  
HETATM   18  C   UNL     1      -8.725  19.158  68.304  1.00  0.00    -0.375 A  
HETATM   19  C   UNL     1      -9.736  19.924  67.737  1.00  0.00    -0.516 A  
HETATM   20  C   UNL     1     -10.783  19.288  67.093  1.00  0.00    -0.584 A  
HETATM   21  C   UNL     1     -10.784  17.896  66.979  1.00  0.00    -0.219 A  
HETATM   22  C   UNL     1      -9.716  17.101  67.462  1.00  0.00    -0.256 A  
ENDBRANCH   8   9
ENDBRANCH   6   8
TORSDOF 2
ENDMDL
MODEL       75
REMARK 921   NORMALIZED FREE ENERGY PREDICTED BY IDOCK:   -5.29 KCAL/MOL
REMARK 922        TOTAL FREE ENERGY PREDICTED BY IDOCK:   -6.30 KCAL/MOL
REMARK 923 INTER-LIGAND FREE ENERGY PREDICTED BY IDOCK:   -5.65 KCAL/MOL
REMARK 924 INTRA-LIGAND FREE ENERGY PREDICTED BY IDOCK:   -0.65 KCAL/MOL
REMARK 927      BINDING AFFINITY PREDICTED BY RF-SCORE:    0.00 PKD
ROOT
HETATM    1  C   UNL     1      -6.996   9.798  64.809  1.00  0.00    -0.122 C  
HETATM    2  N   UNL     1      -8.071   8.834  64.597  1.00  0.00    -0.149 NA 
HETATM    3  C   UNL     1      -7.662   7.450  64.854  1.00  0.00    -0.113 C  
HETATM    4  C   UNL     1      -7.494   7.131  66.340  1.00  0.00    -0.087 C  
HETATM    5  C   UNL     1      -8.747   7.488  67.133  1.00  0.00    -0.121 C  
HETATM    6  C   UNL     1      -9.208   8.937  66.864  1.00  0.00    -0.185 C  
HETATM    7  C   UNL     1      -9.283   9.184  65.344  1.00  0.00    -0.202 C  
ENDROOT
BRANCH   6   8
HETATM    8  C   UNL     1     -10.556   9.170  67.592  1.00  0.00    -0.307 C  
BRANCH   8   9
HETATM    9  C   UNL     1     -10.561  10.039  68.901  1.00  0.00    -0.239 C  
HETATM   10  C   UNL     1     -11.107  11.457  68.686  1.00  0.00    -0.290 A  
HETATM   11  C   UNL     1     -10.769  12.170  67.510  1.00  0.00    -0.265 A  
HETATM   12  C   UNL     1     -11.099  13.518  67.330  1.00  0.00    -0.300 A  
HETATM   13  C   UNL     1     -11.757  14.207  68.335  1.00  0.00    -0.380 A  
HETATM   14  C   UNL     1     -12.125  13.526  69.489  1.00  0.00    -0.352 A  
HETATM   15  C   UNL     1     -11.825  12.157  69.664  1.00  0.00    -0.322 A  
HETATM   16  S   UNL     1     -12.437  11.450  71.162  1.00  0.00    -0.306 SA 
HETATM   17  C   UNL     1     -11.914   9.767  71.089  1.00  0.00    -0.376 A  
HETATM   18  C   UNL     1     -12.411   8.938  72.113  1.00  0.00    -0.449 A  
HETATM   19  C   UNL     1     -12.015   7.610  72.226  1.00  0.00    -0.329 A  
HETATM   20  C   UNL     1     -11.074   7.110  71.343  1.00  0.00    -0.267 A  
HETATM   21  C   UNL     1     -10.575   7.926  70.325  1.00  0.00    -0.231 A  
HETATM   22  C   UNL     1     -11.037   9.250  70.129  1.00  0.00    -0.260 A  
ENDBRANCH   8   9
ENDBRANCH   6   8
TORSDOF 2
ENDMDL
MODEL       76
REMARK 921   NORMALIZED FREE ENERGY PREDICTED BY IDOCK:   -5.29 KCAL/MOL
REMARK 922        TOTAL FREE ENERGY PREDICTED BY IDOCK:   -6.30 KCAL/MOL
REMARK 923 INTER-LIGAND FREE ENERGY PREDICTED BY IDOCK:   -5.54 KCAL/MOL
REMARK 924 INTRA-LIGAND FREE ENERGY PREDICTED BY IDOCK:   -0.76 KCAL/MOL
REMARK 927      BINDING AFFINITY PREDICTED BY RF-SCORE:    0.00 PKD
ROOT
HETATM    1  C   UNL     1      -7.663   3.565  68.643  1.00  0.00    -0.055 C  
HETATM    2  N   UNL     1      -7.599   4.709  67.740  1.00  0.00    -0.078 NA 
HETATM    3  C   UNL     1      -7.688   4.333  66.326  1.00  0.00    -0.094 C  
HETATM    4  C   UNL     1      -9.092   3.908  65.896  1.00  0.00    -0.146 C  
HETATM    5  C   UNL     1     -10.128   4.971  66.246  1.00  0.00    -0.275 C  
HETATM    6  C   UNL     1     -10.042   5.398  67.728  1.00  0.00    -0.215 C  
HETATM    7  C   UNL     1      -8.582   5.742  68.084  1.00  0.00    -0.108 C  
ENDROOT
BRANCH   6   8
HETATM    8  C   UNL     1     -11.024   6.573  67.962  1.00  0.00    -0.368 C  
BRANCH   8   9
HETATM    9  C   UNL     1     -10.467   7.905  68.581  1.00  0.00    -0.196 C  
HETATM   10  C   UNL     1     -10.415   9.065  67.576  1.00  0.00    -0.338 A  
HETATM   11  C   UNL     1     -10.007   8.821  66.242  1.00  0.00    -0.315 A  
HETATM   12  C   UNL     1      -9.783   9.855  65.327  1.00  0.00    -0.383 A  
HETATM   13  C   UNL     1      -9.934  11.173  65.725  1.00  0.00    -0.292 A  
HETATM   14  C   UNL     1     -10.359  11.441  67.021  1.00  0.00    -0.258 A  
HETATM   15  C   UNL     1     -10.620  10.401  67.940  1.00  0.00    -0.232 A  
HETATM   16  S   UNL     1     -11.220  10.936  69.512  1.00  0.00    -0.298 SA 
HETATM   17  C   UNL     1     -11.446   9.440  70.418  1.00  0.00    -0.223 A  
HETATM   18  C   UNL     1     -12.068   9.585  71.673  1.00  0.00    -0.474 A  
HETATM   19  C   UNL     1     -12.235   8.502  72.529  1.00  0.00    -0.383 A  
HETATM   20  C   UNL     1     -11.733   7.266  72.158  1.00  0.00    -0.323 A  
HETATM   21  C   UNL     1     -11.115   7.114  70.915  1.00  0.00    -0.290 A  
HETATM   22  C   UNL     1     -11.021   8.179  69.986  1.00  0.00    -0.199 A  
ENDBRANCH   8   9
ENDBRANCH   6   8
TORSDOF 2
ENDMDL
MODEL       77
REMARK 921   NORMALIZED FREE ENERGY PREDICTED BY IDOCK:   -5.28 KCAL/MOL
REMARK 922        TOTAL FREE ENERGY PREDICTED BY IDOCK:   -6.30 KCAL/MOL
REMARK 923 INTER-LIGAND FREE ENERGY PREDICTED BY IDOCK:   -5.56 KCAL/MOL
REMARK 924 INTRA-LIGAND FREE ENERGY PREDICTED BY IDOCK:   -0.74 KCAL/MOL
REMARK 927      BINDING AFFINITY PREDICTED BY RF-SCORE:    0.00 PKD
ROOT
HETATM    1  C   UNL     1      -9.684   9.047  71.632  1.00  0.00    -0.276 C  
HETATM    2  N   UNL     1     -10.884   8.571  70.953  1.00  0.00    -0.225 NA 
HETATM    3  C   UNL     1     -12.101   8.737  71.752  1.00  0.00    -0.350 C  
HETATM    4  C   UNL     1     -12.574  10.187  71.847  1.00  0.00    -0.437 C  
HETATM    5  C   UNL     1     -12.737  10.813  70.465  1.00  0.00    -0.388 C  
HETATM    6  C   UNL     1     -11.472  10.635  69.597  1.00  0.00    -0.361 C  
HETATM    7  C   UNL     1     -11.033   9.157  69.617  1.00  0.00    -0.153 C  
ENDROOT
BRANCH   6   8
HETATM    8  C   UNL     1     -11.769  11.168  68.174  1.00  0.00    -0.304 C  
BRANCH   8   9
HETATM    9  C   UNL     1     -10.709  12.103  67.486  1.00  0.00    -0.265 C  
HETATM   10  C   UNL     1     -10.441  13.395  68.271  1.00  0.00    -0.256 A  
HETATM   11  C   UNL     1     -11.518  14.080  68.886  1.00  0.00    -0.331 A  
HETATM   12  C   UNL     1     -11.365  15.341  69.474  1.00  0.00    -0.299 A  
HETATM   13  C   UNL     1     -10.133  15.972  69.442  1.00  0.00    -0.271 A  
HETATM   14  C   UNL     1      -9.053  15.312  68.868  1.00  0.00    -0.209 A  
HETATM   15  C   UNL     1      -9.191  14.025  68.304  1.00  0.00    -0.200 A  
HETATM   16  S   UNL     1      -7.693  13.321  67.690  1.00  0.00    -0.181 SA 
HETATM   17  C   UNL     1      -8.182  11.747  67.062  1.00  0.00    -0.172 A  
HETATM   18  C   UNL     1      -7.129  10.911  66.644  1.00  0.00    -0.135 A  
HETATM   19  C   UNL     1      -7.373   9.678  66.053  1.00  0.00    -0.099 A  
HETATM   20  C   UNL     1      -8.681   9.286  65.825  1.00  0.00    -0.182 A  
HETATM   21  C   UNL     1      -9.733  10.109  66.237  1.00  0.00    -0.274 A  
HETATM   22  C   UNL     1      -9.510  11.324  66.929  1.00  0.00    -0.193 A  
ENDBRANCH   8   9
ENDBRANCH   6   8
TORSDOF 2
ENDMDL
MODEL       78
REMARK 921   NORMALIZED FREE ENERGY PREDICTED BY IDOCK:   -5.24 KCAL/MOL
REMARK 922        TOTAL FREE ENERGY PREDICTED BY IDOCK:   -6.25 KCAL/MOL
REMARK 923 INTER-LIGAND FREE ENERGY PREDICTED BY IDOCK:   -5.76 KCAL/MOL
REMARK 924 INTRA-LIGAND FREE ENERGY PREDICTED BY IDOCK:   -0.49 KCAL/MOL
REMARK 927      BINDING AFFINITY PREDICTED BY RF-SCORE:    0.00 PKD
ROOT
HETATM    1  C   UNL     1      -9.512   9.083  71.141  1.00  0.00    -0.278 C  
HETATM    2  N   UNL     1     -10.628   8.750  70.263  1.00  0.00    -0.210 NA 
HETATM    3  C   UNL     1     -11.857   9.478  70.593  1.00  0.00    -0.233 C  
HETATM    4  C   UNL     1     -11.817  10.953  70.195  1.00  0.00    -0.438 C  
HETATM    5  C   UNL     1     -11.458  11.125  68.723  1.00  0.00    -0.366 C  
HETATM    6  C   UNL     1     -10.174  10.352  68.346  1.00  0.00    -0.186 C  
HETATM    7  C   UNL     1     -10.280   8.897  68.845  1.00  0.00    -0.206 C  
ENDROOT
BRANCH   6   8
HETATM    8  C   UNL     1      -9.961  10.462  66.816  1.00  0.00    -0.256 C  
BRANCH   8   9
HETATM    9  C   UNL     1      -9.342  11.786  66.239  1.00  0.00    -0.235 C  
HETATM   10  C   UNL     1     -10.385  12.715  65.601  1.00  0.00    -0.293 A  
HETATM   11  C   UNL     1     -11.431  12.167  64.820  1.00  0.00    -0.377 A  
HETATM   12  C   UNL     1     -12.313  12.965  64.083  1.00  0.00    -0.450 A  
HETATM   13  C   UNL     1     -12.159  14.341  64.081  1.00  0.00    -0.423 A  
HETATM   14  C   UNL     1     -11.158  14.909  64.859  1.00  0.00    -0.424 A  
HETATM   15  C   UNL     1     -10.286  14.112  65.633  1.00  0.00    -0.339 A  
HETATM   16  S   UNL     1      -9.127  15.017  66.610  1.00  0.00    -0.285 SA 
HETATM   17  C   UNL     1      -8.200  13.769  67.444  1.00  0.00    -0.184 A  
HETATM   18  C   UNL     1      -7.295  14.240  68.415  1.00  0.00    -0.119 A  
HETATM   19  C   UNL     1      -6.441  13.375  69.090  1.00  0.00    -0.105 A  
HETATM   20  C   UNL     1      -6.448  12.030  68.763  1.00  0.00    -0.077 A  
HETATM   21  C   UNL     1      -7.342  11.555  67.801  1.00  0.00    -0.096 A  
HETATM   22  C   UNL     1      -8.288  12.399  67.172  1.00  0.00    -0.181 A  
ENDBRANCH   8   9
ENDBRANCH   6   8
TORSDOF 2
ENDMDL
MODEL       79
REMARK 921   NORMALIZED FREE ENERGY PREDICTED BY IDOCK:   -5.22 KCAL/MOL
REMARK 922        TOTAL FREE ENERGY PREDICTED BY IDOCK:   -6.23 KCAL/MOL
REMARK 923 INTER-LIGAND FREE ENERGY PREDICTED BY IDOCK:   -5.62 KCAL/MOL
REMARK 924 INTRA-LIGAND FREE ENERGY PREDICTED BY IDOCK:   -0.61 KCAL/MOL
REMARK 927      BINDING AFFINITY PREDICTED BY RF-SCORE:    0.00 PKD
ROOT
HETATM    1  C   UNL     1     -12.281  14.808  64.209  1.00  0.00    -0.379 C  
HETATM    2  N   UNL     1     -12.710  13.430  64.424  1.00  0.00    -0.662 NA 
HETATM    3  C   UNL     1     -12.246  12.512  63.380  1.00  0.00    -0.517 C  
HETATM    4  C   UNL     1     -10.752  12.197  63.468  1.00  0.00    -0.509 C  
HETATM    5  C   UNL     1     -10.370  11.688  64.855  1.00  0.00    -0.331 C  
HETATM    6  C   UNL     1     -10.866  12.630  65.974  1.00  0.00    -0.306 C  
HETATM    7  C   UNL     1     -12.361  12.944  65.763  1.00  0.00    -0.375 C  
ENDROOT
BRANCH   6   8
HETATM    8  C   UNL     1     -10.563  11.974  67.344  1.00  0.00    -0.253 C  
BRANCH   8   9
HETATM    9  C   UNL     1      -9.190  11.235  67.534  1.00  0.00    -0.159 C  
HETATM   10  C   UNL     1      -8.204  12.006  68.424  1.00  0.00    -0.151 A  
HETATM   11  C   UNL     1      -8.102  13.414  68.303  1.00  0.00    -0.152 A  
HETATM   12  C   UNL     1      -7.115  14.152  68.964  1.00  0.00    -0.111 A  
HETATM   13  C   UNL     1      -6.177  13.502  69.748  1.00  0.00    -0.116 A  
HETATM   14  C   UNL     1      -6.269  12.125  69.906  1.00  0.00    -0.120 A  
HETATM   15  C   UNL     1      -7.284  11.377  69.270  1.00  0.00    -0.075 A  
HETATM   16  S   UNL     1      -7.280   9.652  69.649  1.00  0.00    -0.098 SA 
HETATM   17  C   UNL     1      -8.635   9.005  68.723  1.00  0.00    -0.132 A  
HETATM   18  C   UNL     1      -8.944   7.654  68.972  1.00  0.00    -0.137 A  
HETATM   19  C   UNL     1      -9.932   6.992  68.254  1.00  0.00    -0.165 A  
HETATM   20  C   UNL     1     -10.592   7.664  67.239  1.00  0.00    -0.388 A  
HETATM   21  C   UNL     1     -10.292   9.004  66.985  1.00  0.00    -0.339 A  
HETATM   22  C   UNL     1      -9.360   9.727  67.768  1.00  0.00    -0.148 A  
ENDBRANCH   8   9
ENDBRANCH   6   8
TORSDOF 2
ENDMDL
MODEL       80
REMARK 921   NORMALIZED FREE ENERGY PREDICTED BY IDOCK:   -5.22 KCAL/MOL
REMARK 922        TOTAL FREE ENERGY PREDICTED BY IDOCK:   -6.22 KCAL/MOL
REMARK 923 INTER-LIGAND FREE ENERGY PREDICTED BY IDOCK:   -5.81 KCAL/MOL
REMARK 924 INTRA-LIGAND FREE ENERGY PREDICTED BY IDOCK:   -0.41 KCAL/MOL
REMARK 927      BINDING AFFINITY PREDICTED BY RF-SCORE:    0.00 PKD
ROOT
HETATM    1  C   UNL     1      -8.374   5.261  74.030  1.00  0.00    -0.113 C  
HETATM    2  N   UNL     1      -9.077   6.422  74.563  1.00  0.00    -0.162 NA 
HETATM    3  C   UNL     1      -8.297   7.660  74.474  1.00  0.00    -0.200 C  
HETATM    4  C   UNL     1      -8.195   8.213  73.053  1.00  0.00    -0.248 C  
HETATM    5  C   UNL     1      -9.573   8.388  72.421  1.00  0.00    -0.373 C  
HETATM    6  C   UNL     1     -10.421   7.101  72.520  1.00  0.00    -0.254 C  
HETATM    7  C   UNL     1     -10.410   6.582  73.972  1.00  0.00    -0.340 C  
ENDROOT
BRANCH   6   8
HETATM    8  C   UNL     1     -11.844   7.404  71.987  1.00  0.00    -0.335 C  
BRANCH   8   9
HETATM    9  C   UNL     1     -11.987   8.114  70.593  1.00  0.00    -0.036 C  
HETATM   10  C   UNL     1     -12.075   9.644  70.698  1.00  0.00    -0.269 A  
HETATM   11  C   UNL     1     -12.833  10.234  71.739  1.00  0.00    -0.565 A  
HETATM   12  C   UNL     1     -13.085  11.609  71.794  1.00  0.00    -0.487 A  
HETATM   13  C   UNL     1     -12.610  12.438  70.792  1.00  0.00    -0.298 A  
HETATM   14  C   UNL     1     -11.841  11.890  69.772  1.00  0.00    -0.411 A  
HETATM   15  C   UNL     1     -11.553  10.508  69.728  1.00  0.00    -0.294 A  
HETATM   16  S   UNL     1     -10.502  10.013  68.399  1.00  0.00    -0.217 SA 
HETATM   17  C   UNL     1     -10.332   8.270  68.611  1.00  0.00    -0.200 A  
HETATM   18  C   UNL     1      -9.406   7.646  67.752  1.00  0.00    -0.153 A  
HETATM   19  C   UNL     1      -9.231   6.268  67.753  1.00  0.00    -0.115 A  
HETATM   20  C   UNL     1     -10.020   5.489  68.581  1.00  0.00    -0.222 A  
HETATM   21  C   UNL     1     -10.941   6.099  69.437  1.00  0.00    -0.454 A  
HETATM   22  C   UNL     1     -11.067   7.506  69.525  1.00  0.00    -0.063 A  
ENDBRANCH   8   9
ENDBRANCH   6   8
TORSDOF 2
ENDMDL
MODEL       81
REMARK 921   NORMALIZED FREE ENERGY PREDICTED BY IDOCK:   -5.21 KCAL/MOL
REMARK 922        TOTAL FREE ENERGY PREDICTED BY IDOCK:   -6.22 KCAL/MOL
REMARK 923 INTER-LIGAND FREE ENERGY PREDICTED BY IDOCK:   -5.96 KCAL/MOL
REMARK 924 INTRA-LIGAND FREE ENERGY PREDICTED BY IDOCK:   -0.26 KCAL/MOL
REMARK 927      BINDING AFFINITY PREDICTED BY RF-SCORE:    0.00 PKD
ROOT
HETATM    1  C   UNL     1      -8.232   6.268  68.886  1.00  0.00    -0.113 C  
HETATM    2  N   UNL     1      -7.802   7.211  67.858  1.00  0.00    -0.112 NA 
HETATM    3  C   UNL     1      -8.422   6.962  66.553  1.00  0.00    -0.125 C  
HETATM    4  C   UNL     1      -9.895   7.368  66.493  1.00  0.00    -0.209 C  
HETATM    5  C   UNL     1     -10.093   8.817  66.926  1.00  0.00    -0.348 C  
HETATM    6  C   UNL     1      -9.432   9.108  68.291  1.00  0.00    -0.152 C  
HETATM    7  C   UNL     1      -7.974   8.605  68.279  1.00  0.00    -0.110 C  
ENDROOT
BRANCH   6   8
HETATM    8  C   UNL     1      -9.556  10.623  68.588  1.00  0.00    -0.179 C  
BRANCH   8   9
HETATM    9  C   UNL     1     -10.989  11.229  68.809  1.00  0.00    -0.270 C  
HETATM   10  C   UNL     1     -11.658  10.745  70.103  1.00  0.00    -0.424 A  
HETATM   11  C   UNL     1     -11.525   9.392  70.500  1.00  0.00    -0.317 A  
HETATM   12  C   UNL     1     -12.241   8.854  71.575  1.00  0.00    -0.388 A  
HETATM   13  C   UNL     1     -13.137   9.645  72.273  1.00  0.00    -0.468 A  
HETATM   14  C   UNL     1     -13.268  10.984  71.922  1.00  0.00    -0.503 A  
HETATM   15  C   UNL     1     -12.524  11.544  70.861  1.00  0.00    -0.366 A  
HETATM   16  S   UNL     1     -12.773  13.274  70.614  1.00  0.00    -0.088 SA 
HETATM   17  C   UNL     1     -11.729  13.669  69.248  1.00  0.00    -0.325 A  
HETATM   18  C   UNL     1     -11.630  15.040  68.942  1.00  0.00    -0.349 A  
HETATM   19  C   UNL     1     -10.909  15.487  67.842  1.00  0.00    -0.307 A  
HETATM   20  C   UNL     1     -10.317  14.560  67.002  1.00  0.00    -0.263 A  
HETATM   21  C   UNL     1     -10.410  13.198  67.298  1.00  0.00    -0.243 A  
HETATM   22  C   UNL     1     -11.055  12.724  68.466  1.00  0.00    -0.300 A  
ENDBRANCH   8   9
ENDBRANCH   6   8
TORSDOF 2
ENDMDL
MODEL       82
REMARK 921   NORMALIZED FREE ENERGY PREDICTED BY IDOCK:   -5.19 KCAL/MOL
REMARK 922        TOTAL FREE ENERGY PREDICTED BY IDOCK:   -6.20 KCAL/MOL
REMARK 923 INTER-LIGAND FREE ENERGY PREDICTED BY IDOCK:   -5.54 KCAL/MOL
REMARK 924 INTRA-LIGAND FREE ENERGY PREDICTED BY IDOCK:   -0.65 KCAL/MOL
REMARK 927      BINDING AFFINITY PREDICTED BY RF-SCORE:    0.00 PKD
ROOT
HETATM    1  C   UNL     1     -12.129  13.608  65.772  1.00  0.00    -0.428 C  
HETATM    2  N   UNL     1     -10.945  13.972  66.544  1.00  0.00    -0.303 NA 
HETATM    3  C   UNL     1     -11.237  14.888  67.649  1.00  0.00    -0.323 C  
HETATM    4  C   UNL     1     -11.955  14.219  68.822  1.00  0.00    -0.346 C  
HETATM    5  C   UNL     1     -11.194  12.992  69.314  1.00  0.00    -0.259 C  
HETATM    6  C   UNL     1     -10.858  12.018  68.163  1.00  0.00    -0.257 C  
HETATM    7  C   UNL     1     -10.201  12.794  67.003  1.00  0.00    -0.241 C  
ENDROOT
BRANCH   6   8
HETATM    8  C   UNL     1      -9.969  10.879  68.721  1.00  0.00    -0.203 C  
BRANCH   8   9
HETATM    9  C   UNL     1     -10.466   9.396  68.568  1.00  0.00    -0.239 C  
HETATM   10  C   UNL     1      -9.563   8.544  67.665  1.00  0.00    -0.187 A  
HETATM   11  C   UNL     1      -9.019   9.106  66.484  1.00  0.00    -0.178 A  
HETATM   12  C   UNL     1      -8.326   8.340  65.541  1.00  0.00    -0.163 A  
HETATM   13  C   UNL     1      -8.178   6.977  65.734  1.00  0.00    -0.132 A  
HETATM   14  C   UNL     1      -8.679   6.403  66.897  1.00  0.00    -0.115 A  
HETATM   15  C   UNL     1      -9.349   7.176  67.870  1.00  0.00    -0.128 A  
HETATM   16  S   UNL     1      -9.848   6.283  69.309  1.00  0.00    -0.145 SA 
HETATM   17  C   UNL     1     -10.641   7.496  70.315  1.00  0.00    -0.229 A  
HETATM   18  C   UNL     1     -11.003   7.065  71.606  1.00  0.00    -0.258 A  
HETATM   19  C   UNL     1     -11.707   7.890  72.474  1.00  0.00    -0.423 A  
HETATM   20  C   UNL     1     -12.103   9.144  72.041  1.00  0.00    -0.431 A  
HETATM   21  C   UNL     1     -11.748   9.580  70.763  1.00  0.00    -0.370 A  
HETATM   22  C   UNL     1     -10.947   8.796  69.897  1.00  0.00    -0.184 A  
ENDBRANCH   8   9
ENDBRANCH   6   8
TORSDOF 2
ENDMDL
MODEL       83
REMARK 921   NORMALIZED FREE ENERGY PREDICTED BY IDOCK:   -5.17 KCAL/MOL
REMARK 922        TOTAL FREE ENERGY PREDICTED BY IDOCK:   -6.17 KCAL/MOL
REMARK 923 INTER-LIGAND FREE ENERGY PREDICTED BY IDOCK:   -5.46 KCAL/MOL
REMARK 924 INTRA-LIGAND FREE ENERGY PREDICTED BY IDOCK:   -0.72 KCAL/MOL
REMARK 927      BINDING AFFINITY PREDICTED BY RF-SCORE:    0.00 PKD
ROOT
HETATM    1  C   UNL     1      -6.952  14.662  69.141  1.00  0.00    -0.134 C  
HETATM    2  N   UNL     1      -6.701  13.686  68.085  1.00  0.00    -0.105 NA 
HETATM    3  C   UNL     1      -5.751  12.642  68.480  1.00  0.00    -0.056 C  
HETATM    4  C   UNL     1      -6.337  11.625  69.459  1.00  0.00    -0.122 C  
HETATM    5  C   UNL     1      -7.629  11.015  68.924  1.00  0.00    -0.134 C  
HETATM    6  C   UNL     1      -8.640  12.097  68.484  1.00  0.00    -0.079 C  
HETATM    7  C   UNL     1      -7.943  13.112  67.556  1.00  0.00    -0.179 C  
ENDROOT
BRANCH   6   8
HETATM    8  C   UNL     1      -9.857  11.399  67.826  1.00  0.00    -0.186 C  
BRANCH   8   9
HETATM    9  C   UNL     1     -11.204  11.323  68.632  1.00  0.00    -0.310 C  
HETATM   10  C   UNL     1     -11.257  10.144  69.614  1.00  0.00    -0.310 A  
HETATM   11  C   UNL     1     -10.730   8.886  69.232  1.00  0.00    -0.177 A  
HETATM   12  C   UNL     1     -10.894   7.738  70.013  1.00  0.00    -0.243 A  
HETATM   13  C   UNL     1     -11.616   7.803  71.193  1.00  0.00    -0.301 A  
HETATM   14  C   UNL     1     -12.122   9.029  71.606  1.00  0.00    -0.422 A  
HETATM   15  C   UNL     1     -11.931  10.200  70.840  1.00  0.00    -0.365 A  
HETATM   16  S   UNL     1     -12.584  11.672  71.563  1.00  0.00    -0.159 SA 
HETATM   17  C   UNL     1     -12.197  12.935  70.394  1.00  0.00    -0.304 A  
HETATM   18  C   UNL     1     -12.484  14.250  70.811  1.00  0.00    -0.428 A  
HETATM   19  C   UNL     1     -12.307  15.334  69.960  1.00  0.00    -0.366 A  
HETATM   20  C   UNL     1     -11.887  15.110  68.660  1.00  0.00    -0.329 A  
HETATM   21  C   UNL     1     -11.600  13.810  68.239  1.00  0.00    -0.373 A  
HETATM   22  C   UNL     1     -11.679  12.701  69.116  1.00  0.00    -0.375 A  
ENDBRANCH   8   9
ENDBRANCH   6   8
TORSDOF 2
ENDMDL
MODEL       84
REMARK 921   NORMALIZED FREE ENERGY PREDICTED BY IDOCK:   -5.16 KCAL/MOL
REMARK 922        TOTAL FREE ENERGY PREDICTED BY IDOCK:   -6.15 KCAL/MOL
REMARK 923 INTER-LIGAND FREE ENERGY PREDICTED BY IDOCK:   -5.66 KCAL/MOL
REMARK 924 INTRA-LIGAND FREE ENERGY PREDICTED BY IDOCK:   -0.49 KCAL/MOL
REMARK 927      BINDING AFFINITY PREDICTED BY RF-SCORE:    0.00 PKD
ROOT
HETATM    1  C   UNL     1     -11.474  15.597  64.330  1.00  0.00    -0.262 C  
HETATM    2  N   UNL     1     -12.500  14.565  64.437  1.00  0.00    -0.673 NA 
HETATM    3  C   UNL     1     -12.369  13.515  63.424  1.00  0.00    -0.194 C  
HETATM    4  C   UNL     1     -11.201  12.563  63.681  1.00  0.00    -0.545 C  
HETATM    5  C   UNL     1     -11.268  11.965  65.083  1.00  0.00    -0.346 C  
HETATM    6  C   UNL     1     -11.425  13.052  66.169  1.00  0.00    -0.381 C  
HETATM    7  C   UNL     1     -12.579  14.001  65.789  1.00  0.00    -0.479 C  
ENDROOT
BRANCH   6   8
HETATM    8  C   UNL     1     -11.626  12.358  67.539  1.00  0.00    -0.431 C  
BRANCH   8   9
HETATM    9  C   UNL     1     -10.381  12.186  68.483  1.00  0.00    -0.233 C  
HETATM   10  C   UNL     1      -9.775  10.776  68.436  1.00  0.00    -0.179 A  
HETATM   11  C   UNL     1     -10.628   9.647  68.377  1.00  0.00    -0.264 A  
HETATM   12  C   UNL     1     -10.146   8.339  68.496  1.00  0.00    -0.217 A  
HETATM   13  C   UNL     1      -8.796   8.117  68.707  1.00  0.00    -0.138 A  
HETATM   14  C   UNL     1      -7.932   9.206  68.743  1.00  0.00    -0.100 A  
HETATM   15  C   UNL     1      -8.406  10.527  68.589  1.00  0.00    -0.132 A  
HETATM   16  S   UNL     1      -7.151  11.768  68.592  1.00  0.00    -0.107 SA 
HETATM   17  C   UNL     1      -8.038  13.279  68.386  1.00  0.00    -0.134 A  
HETATM   18  C   UNL     1      -7.241  14.425  68.203  1.00  0.00    -0.129 A  
HETATM   19  C   UNL     1      -7.805  15.692  68.110  1.00  0.00    -0.129 A  
HETATM   20  C   UNL     1      -9.175  15.833  68.251  1.00  0.00    -0.188 A  
HETATM   21  C   UNL     1      -9.973  14.701  68.433  1.00  0.00    -0.227 A  
HETATM   22  C   UNL     1      -9.432  13.392  68.432  1.00  0.00    -0.176 A  
ENDBRANCH   8   9
ENDBRANCH   6   8
TORSDOF 2
ENDMDL
MODEL       85
REMARK 921   NORMALIZED FREE ENERGY PREDICTED BY IDOCK:   -5.10 KCAL/MOL
REMARK 922        TOTAL FREE ENERGY PREDICTED BY IDOCK:   -6.09 KCAL/MOL
REMARK 923 INTER-LIGAND FREE ENERGY PREDICTED BY IDOCK:   -6.57 KCAL/MOL
REMARK 924 INTRA-LIGAND FREE ENERGY PREDICTED BY IDOCK:    0.48 KCAL/MOL
REMARK 927      BINDING AFFINITY PREDICTED BY RF-SCORE:    0.00 PKD
ROOT
HETATM    1  C   UNL     1     -12.659  11.909  63.585  1.00  0.00    -0.439 C  
HETATM    2  N   UNL     1     -11.683  12.962  63.847  1.00  0.00    -0.424 NA 
HETATM    3  C   UNL     1     -12.300  14.260  64.136  1.00  0.00    -0.327 C  
HETATM    4  C   UNL     1     -12.944  14.333  65.521  1.00  0.00    -0.236 C  
HETATM    5  C   UNL     1     -11.957  13.940  66.616  1.00  0.00    -0.474 C  
HETATM    6  C   UNL     1     -11.280  12.582  66.324  1.00  0.00    -0.359 C  
HETATM    7  C   UNL     1     -10.722  12.580  64.887  1.00  0.00    -0.295 C  
ENDROOT
BRANCH   6   8
HETATM    8  C   UNL     1     -10.198  12.327  67.403  1.00  0.00    -0.213 C  
BRANCH   8   9
HETATM    9  C   UNL     1     -10.132  13.292  68.642  1.00  0.00    -0.151 C  
HETATM   10  C   UNL     1      -9.915  14.762  68.254  1.00  0.00    -0.222 A  
HETATM   11  C   UNL     1      -9.019  15.088  67.207  1.00  0.00    -0.212 A  
HETATM   12  C   UNL     1      -8.656  16.407  66.916  1.00  0.00    -0.245 A  
HETATM   13  C   UNL     1      -9.158  17.445  67.682  1.00  0.00    -0.234 A  
HETATM   14  C   UNL     1     -10.060  17.157  68.700  1.00  0.00    -0.329 A  
HETATM   15  C   UNL     1     -10.458  15.831  68.977  1.00  0.00    -0.225 A  
HETATM   16  S   UNL     1     -11.664  15.673  70.256  1.00  0.00    -0.381 SA 
HETATM   17  C   UNL     1     -11.950  13.935  70.366  1.00  0.00    -0.323 A  
HETATM   18  C   UNL     1     -12.998  13.550  71.225  1.00  0.00    -0.384 A  
HETATM   19  C   UNL     1     -13.279  12.212  71.470  1.00  0.00    -0.270 A  
HETATM   20  C   UNL     1     -12.478  11.239  70.897  1.00  0.00    -0.493 A  
HETATM   21  C   UNL     1     -11.437  11.611  70.044  1.00  0.00    -0.266 A  
HETATM   22  C   UNL     1     -11.193  12.963  69.701  1.00  0.00    -0.072 A  
ENDBRANCH   8   9
ENDBRANCH   6   8
TORSDOF 2
ENDMDL
MODEL       86
REMARK 921   NORMALIZED FREE ENERGY PREDICTED BY IDOCK:   -5.08 KCAL/MOL
REMARK 922        TOTAL FREE ENERGY PREDICTED BY IDOCK:   -6.07 KCAL/MOL
REMARK 923 INTER-LIGAND FREE ENERGY PREDICTED BY IDOCK:   -5.34 KCAL/MOL
REMARK 924 INTRA-LIGAND FREE ENERGY PREDICTED BY IDOCK:   -0.73 KCAL/MOL
REMARK 927      BINDING AFFINITY PREDICTED BY RF-SCORE:    0.00 PKD
ROOT
HETATM    1  C   UNL     1     -10.408  12.009  65.530  1.00  0.00    -0.263 C  
HETATM    2  N   UNL     1     -10.139  10.576  65.582  1.00  0.00    -0.264 NA 
HETATM    3  C   UNL     1      -8.860  10.207  64.969  1.00  0.00    -0.181 C  
HETATM    4  C   UNL     1      -7.646  10.596  65.812  1.00  0.00    -0.120 C  
HETATM    5  C   UNL     1      -7.752  10.045  67.231  1.00  0.00    -0.095 C  
HETATM    6  C   UNL     1      -9.101  10.406  67.892  1.00  0.00    -0.132 C  
HETATM    7  C   UNL     1     -10.259  10.039  66.942  1.00  0.00    -0.238 C  
ENDROOT
BRANCH   6   8
HETATM    8  C   UNL     1      -9.185   9.694  69.265  1.00  0.00    -0.186 C  
BRANCH   8   9
HETATM    9  C   UNL     1     -10.296   8.604  69.479  1.00  0.00    -0.214 C  
HETATM   10  C   UNL     1      -9.728   7.197  69.716  1.00  0.00    -0.165 A  
HETATM   11  C   UNL     1      -8.608   6.756  68.969  1.00  0.00    -0.131 A  
HETATM   12  C   UNL     1      -8.146   5.437  69.021  1.00  0.00    -0.094 A  
HETATM   13  C   UNL     1      -8.807   4.505  69.803  1.00  0.00    -0.129 A  
HETATM   14  C   UNL     1      -9.893   4.915  70.567  1.00  0.00    -0.297 A  
HETATM   15  C   UNL     1     -10.344   6.253  70.546  1.00  0.00    -0.204 A  
HETATM   16  S   UNL     1     -11.689   6.598  71.637  1.00  0.00    -0.329 SA 
HETATM   17  C   UNL     1     -12.017   8.313  71.388  1.00  0.00    -0.299 A  
HETATM   18  C   UNL     1     -12.964   8.879  72.264  1.00  0.00    -0.479 A  
HETATM   19  C   UNL     1     -13.379  10.198  72.129  1.00  0.00    -0.431 A  
HETATM   20  C   UNL     1     -12.887  10.955  71.080  1.00  0.00    -0.472 A  
HETATM   21  C   UNL     1     -11.948  10.402  70.206  1.00  0.00    -0.387 A  
HETATM   22  C   UNL     1     -11.436   9.094  70.382  1.00  0.00    -0.228 A  
ENDBRANCH   8   9
ENDBRANCH   6   8
TORSDOF 2
ENDMDL
MODEL       87
REMARK 921   NORMALIZED FREE ENERGY PREDICTED BY IDOCK:   -5.07 KCAL/MOL
REMARK 922        TOTAL FREE ENERGY PREDICTED BY IDOCK:   -6.05 KCAL/MOL
REMARK 923 INTER-LIGAND FREE ENERGY PREDICTED BY IDOCK:   -5.40 KCAL/MOL
REMARK 924 INTRA-LIGAND FREE ENERGY PREDICTED BY IDOCK:   -0.65 KCAL/MOL
REMARK 927      BINDING AFFINITY PREDICTED BY RF-SCORE:    0.00 PKD
ROOT
HETATM    1  C   UNL     1     -12.606  12.002  63.253  1.00  0.00    -0.385 C  
HETATM    2  N   UNL     1     -11.513  12.829  63.753  1.00  0.00    -0.438 NA 
HETATM    3  C   UNL     1     -11.947  13.823  64.739  1.00  0.00    -0.404 C  
HETATM    4  C   UNL     1     -12.285  13.220  66.102  1.00  0.00    -0.466 C  
HETATM    5  C   UNL     1     -11.132  12.380  66.642  1.00  0.00    -0.336 C  
HETATM    6  C   UNL     1     -10.645  11.336  65.613  1.00  0.00    -0.303 C  
HETATM    7  C   UNL     1     -10.395  12.024  64.256  1.00  0.00    -0.322 C  
ENDROOT
BRANCH   6   8
HETATM    8  C   UNL     1      -9.391  10.627  66.183  1.00  0.00    -0.207 C  
BRANCH   8   9
HETATM    9  C   UNL     1      -9.370  10.251  67.708  1.00  0.00    -0.156 C  
HETATM   10  C   UNL     1      -9.588   8.753  67.966  1.00  0.00    -0.160 A  
HETATM   11  C   UNL     1     -10.539   8.039  67.198  1.00  0.00    -0.367 A  
HETATM   12  C   UNL     1     -10.899   6.719  67.492  1.00  0.00    -0.388 A  
HETATM   13  C   UNL     1     -10.338   6.078  68.583  1.00  0.00    -0.264 A  
HETATM   14  C   UNL     1      -9.382   6.745  69.339  1.00  0.00    -0.148 A  
HETATM   15  C   UNL     1      -8.988   8.065  69.028  1.00  0.00    -0.145 A  
HETATM   16  S   UNL     1      -7.710   8.718  70.057  1.00  0.00    -0.088 SA 
HETATM   17  C   UNL     1      -7.444  10.346  69.433  1.00  0.00    -0.135 A  
HETATM   18  C   UNL     1      -6.353  11.036  69.996  1.00  0.00    -0.146 A  
HETATM   19  C   UNL     1      -6.077  12.356  69.658  1.00  0.00    -0.135 A  
HETATM   20  C   UNL     1      -6.924  13.020  68.787  1.00  0.00    -0.103 A  
HETATM   21  C   UNL     1      -8.009  12.343  68.224  1.00  0.00    -0.160 A  
HETATM   22  C   UNL     1      -8.253  10.971  68.477  1.00  0.00    -0.146 A  
ENDBRANCH   8   9
ENDBRANCH   6   8
TORSDOF 2
ENDMDL
MODEL       88
REMARK 921   NORMALIZED FREE ENERGY PREDICTED BY IDOCK:   -5.04 KCAL/MOL
REMARK 922        TOTAL FREE ENERGY PREDICTED BY IDOCK:   -6.03 KCAL/MOL
REMARK 923 INTER-LIGAND FREE ENERGY PREDICTED BY IDOCK:   -5.46 KCAL/MOL
REMARK 924 INTRA-LIGAND FREE ENERGY PREDICTED BY IDOCK:   -0.56 KCAL/MOL
REMARK 927      BINDING AFFINITY PREDICTED BY RF-SCORE:    0.00 PKD
ROOT
HETATM    1  C   UNL     1      -9.166   5.673  70.785  1.00  0.00    -0.151 C  
HETATM    2  N   UNL     1     -10.414   6.346  71.131  1.00  0.00    -0.216 NA 
HETATM    3  C   UNL     1     -10.301   7.190  72.324  1.00  0.00    -0.201 C  
HETATM    4  C   UNL     1      -9.520   8.482  72.083  1.00  0.00    -0.375 C  
HETATM    5  C   UNL     1     -10.091   9.269  70.908  1.00  0.00    -0.373 C  
HETATM    6  C   UNL     1     -10.237   8.394  69.642  1.00  0.00    -0.209 C  
HETATM    7  C   UNL     1     -10.975   7.088  69.997  1.00  0.00    -0.270 C  
ENDROOT
BRANCH   6   8
HETATM    8  C   UNL     1     -10.950   9.225  68.547  1.00  0.00    -0.036 C  
BRANCH   8   9
HETATM    9  C   UNL     1     -10.138  10.352  67.812  1.00  0.00    -0.212 C  
HETATM   10  C   UNL     1      -9.688   9.952  66.399  1.00  0.00    -0.270 A  
HETATM   11  C   UNL     1      -9.220   8.637  66.156  1.00  0.00    -0.271 A  
HETATM   12  C   UNL     1      -8.646   8.260  64.937  1.00  0.00    -0.075 A  
HETATM   13  C   UNL     1      -8.496   9.195  63.927  1.00  0.00    -0.189 A  
HETATM   14  C   UNL     1      -8.970  10.486  64.128  1.00  0.00    -0.237 A  
HETATM   15  C   UNL     1      -9.582  10.865  65.343  1.00  0.00    -0.225 A  
HETATM   16  S   UNL     1     -10.184  12.524  65.383  1.00  0.00    -0.274 SA 
HETATM   17  C   UNL     1     -10.877  12.692  66.996  1.00  0.00    -0.253 A  
HETATM   18  C   UNL     1     -11.569  13.896  67.232  1.00  0.00    -0.393 A  
HETATM   19  C   UNL     1     -12.094  14.198  68.483  1.00  0.00    -0.312 A  
HETATM   20  C   UNL     1     -11.888  13.316  69.530  1.00  0.00    -0.388 A  
HETATM   21  C   UNL     1     -11.204  12.120  69.305  1.00  0.00    -0.288 A  
HETATM   22  C   UNL     1     -10.746  11.746  68.019  1.00  0.00    -0.244 A  
ENDBRANCH   8   9
ENDBRANCH   6   8
TORSDOF 2
ENDMDL
MODEL       89
REMARK 921   NORMALIZED FREE ENERGY PREDICTED BY IDOCK:   -5.03 KCAL/MOL
REMARK 922        TOTAL FREE ENERGY PREDICTED BY IDOCK:   -6.01 KCAL/MOL
REMARK 923 INTER-LIGAND FREE ENERGY PREDICTED BY IDOCK:   -5.38 KCAL/MOL
REMARK 924 INTRA-LIGAND FREE ENERGY PREDICTED BY IDOCK:   -0.63 KCAL/MOL
REMARK 927      BINDING AFFINITY PREDICTED BY RF-SCORE:    0.00 PKD
ROOT
HETATM    1  C   UNL     1      -8.024   4.233  71.451  1.00  0.00    -0.081 C  
HETATM    2  N   UNL     1      -9.402   3.886  71.120  1.00  0.00    -0.133 NA 
HETATM    3  C   UNL     1     -10.244   3.682  72.302  1.00  0.00    -0.118 C  
HETATM    4  C   UNL     1     -10.607   4.981  73.022  1.00  0.00    -0.278 C  
HETATM    5  C   UNL     1     -11.238   5.990  72.068  1.00  0.00    -0.341 C  
HETATM    6  C   UNL     1     -10.377   6.208  70.804  1.00  0.00    -0.266 C  
HETATM    7  C   UNL     1     -10.005   4.844  70.188  1.00  0.00    -0.255 C  
ENDROOT
BRANCH   6   8
HETATM    8  C   UNL     1     -11.151   7.131  69.831  1.00  0.00    -0.264 C  
BRANCH   8   9
HETATM    9  C   UNL     1     -10.575   8.563  69.536  1.00  0.00    -0.215 C  
HETATM   10  C   UNL     1     -10.135   8.750  68.076  1.00  0.00    -0.241 A  
HETATM   11  C   UNL     1      -9.469   7.698  67.402  1.00  0.00    -0.175 A  
HETATM   12  C   UNL     1      -8.902   7.863  66.134  1.00  0.00    -0.197 A  
HETATM   13  C   UNL     1      -8.959   9.096  65.508  1.00  0.00    -0.252 A  
HETATM   14  C   UNL     1      -9.630  10.140  66.134  1.00  0.00    -0.256 A  
HETATM   15  C   UNL     1     -10.235   9.972  67.399  1.00  0.00    -0.219 A  
HETATM   16  S   UNL     1     -11.102  11.388  67.999  1.00  0.00    -0.282 SA 
HETATM   17  C   UNL     1     -11.733  10.876  69.564  1.00  0.00    -0.328 A  
HETATM   18  C   UNL     1     -12.602  11.790  70.191  1.00  0.00    -0.068 A  
HETATM   19  C   UNL     1     -13.107  11.553  71.464  1.00  0.00    -0.429 A  
HETATM   20  C   UNL     1     -12.706  10.418  72.148  1.00  0.00    -0.230 A  
HETATM   21  C   UNL     1     -11.844   9.506  71.534  1.00  0.00    -0.478 A  
HETATM   22  C   UNL     1     -11.395   9.677  70.202  1.00  0.00    -0.275 A  
ENDBRANCH   8   9
ENDBRANCH   6   8
TORSDOF 2
ENDMDL
MODEL       90
REMARK 921   NORMALIZED FREE ENERGY PREDICTED BY IDOCK:   -5.01 KCAL/MOL
REMARK 922        TOTAL FREE ENERGY PREDICTED BY IDOCK:   -5.99 KCAL/MOL
REMARK 923 INTER-LIGAND FREE ENERGY PREDICTED BY IDOCK:   -6.77 KCAL/MOL
REMARK 924 INTRA-LIGAND FREE ENERGY PREDICTED BY IDOCK:    0.78 KCAL/MOL
REMARK 927      BINDING AFFINITY PREDICTED BY RF-SCORE:    0.00 PKD
ROOT
HETATM    1  C   UNL     1     -10.447  19.735  68.076  1.00  0.00    -0.386 C  
HETATM    2  N   UNL     1     -10.033  19.623  66.681  1.00  0.00    -0.386 NA 
HETATM    3  C   UNL     1      -8.658  20.075  66.450  1.00  0.00    -0.298 C  
HETATM    4  C   UNL     1      -7.602  19.104  66.976  1.00  0.00    -0.242 C  
HETATM    5  C   UNL     1      -7.814  17.697  66.428  1.00  0.00    -0.318 C  
HETATM    6  C   UNL     1      -9.262  17.205  66.643  1.00  0.00    -0.280 C  
HETATM    7  C   UNL     1     -10.254  18.276  66.145  1.00  0.00    -0.381 C  
ENDROOT
BRANCH   6   8
HETATM    8  C   UNL     1      -9.430  15.837  65.937  1.00  0.00    -0.377 C  
BRANCH   8   9
HETATM    9  C   UNL     1     -10.622  14.909  66.371  1.00  0.00    -0.307 C  
HETATM   10  C   UNL     1     -10.564  13.511  65.740  1.00  0.00    -0.283 A  
HETATM   11  C   UNL     1     -10.170  13.367  64.387  1.00  0.00    -0.262 A  
HETATM   12  C   UNL     1     -10.252  12.145  63.710  1.00  0.00    -0.449 A  
HETATM   13  C   UNL     1     -10.759  11.031  64.357  1.00  0.00    -0.340 A  
HETATM   14  C   UNL     1     -11.128  11.137  65.693  1.00  0.00    -0.078 A  
HETATM   15  C   UNL     1     -11.016  12.358  66.393  1.00  0.00    -0.276 A  
HETATM   16  S   UNL     1     -11.465  12.277  68.098  1.00  0.00    -0.337 SA 
HETATM   17  C   UNL     1     -11.223  13.922  68.686  1.00  0.00    -0.270 A  
HETATM   18  C   UNL     1     -11.372  14.094  70.076  1.00  0.00    -0.195 A  
HETATM   19  C   UNL     1     -11.291  15.350  70.664  1.00  0.00    -0.360 A  
HETATM   20  C   UNL     1     -11.110  16.461  69.859  1.00  0.00    -0.313 A  
HETATM   21  C   UNL     1     -10.961  16.301  68.479  1.00  0.00    -0.345 A  
HETATM   22  C   UNL     1     -10.942  15.023  67.869  1.00  0.00    -0.291 A  
ENDBRANCH   8   9
ENDBRANCH   6   8
TORSDOF 2
ENDMDL
MODEL       91
REMARK 921   NORMALIZED FREE ENERGY PREDICTED BY IDOCK:   -5.01 KCAL/MOL
REMARK 922        TOTAL FREE ENERGY PREDICTED BY IDOCK:   -5.99 KCAL/MOL
REMARK 923 INTER-LIGAND FREE ENERGY PREDICTED BY IDOCK:   -6.34 KCAL/MOL
REMARK 924 INTRA-LIGAND FREE ENERGY PREDICTED BY IDOCK:    0.35 KCAL/MOL
REMARK 927      BINDING AFFINITY PREDICTED BY RF-SCORE:    0.00 PKD
ROOT
HETATM    1  C   UNL     1     -11.056  15.171  64.639  1.00  0.00    -0.324 C  
HETATM    2  N   UNL     1     -12.238  14.325  64.761  1.00  0.00    -0.439 NA 
HETATM    3  C   UNL     1     -12.187  13.137  63.904  1.00  0.00    -0.433 C  
HETATM    4  C   UNL     1     -11.213  12.069  64.401  1.00  0.00    -0.406 C  
HETATM    5  C   UNL     1     -11.496  11.687  65.851  1.00  0.00    -0.189 C  
HETATM    6  C   UNL     1     -11.573  12.925  66.771  1.00  0.00    -0.416 C  
HETATM    7  C   UNL     1     -12.524  13.971  66.155  1.00  0.00    -0.430 C  
ENDROOT
BRANCH   6   8
HETATM    8  C   UNL     1     -12.001  12.463  68.186  1.00  0.00    -0.272 C  
BRANCH   8   9
HETATM    9  C   UNL     1     -10.890  11.980  69.186  1.00  0.00    -0.175 C  
HETATM   10  C   UNL     1     -11.305  10.749  70.005  1.00  0.00    -0.397 A  
HETATM   11  C   UNL     1     -12.627  10.650  70.504  1.00  0.00    -0.433 A  
HETATM   12  C   UNL     1     -13.019   9.639  71.388  1.00  0.00    -0.474 A  
HETATM   13  C   UNL     1     -12.093   8.708  71.825  1.00  0.00    -0.403 A  
HETATM   14  C   UNL     1     -10.795   8.765  71.332  1.00  0.00    -0.359 A  
HETATM   15  C   UNL     1     -10.400   9.761  70.413  1.00  0.00    -0.293 A  
HETATM   16  S   UNL     1      -8.733   9.627  69.846  1.00  0.00    -0.229 SA 
HETATM   17  C   UNL     1      -8.545  10.983  68.735  1.00  0.00    -0.144 A  
HETATM   18  C   UNL     1      -7.331  11.014  68.022  1.00  0.00    -0.088 A  
HETATM   19  C   UNL     1      -7.015  12.069  67.175  1.00  0.00    -0.134 A  
HETATM   20  C   UNL     1      -7.892  13.135  67.069  1.00  0.00     0.034 A  
HETATM   21  C   UNL     1      -9.098  13.113  67.772  1.00  0.00    -0.200 A  
HETATM   22  C   UNL     1      -9.487  12.005  68.564  1.00  0.00    -0.136 A  
ENDBRANCH   8   9
ENDBRANCH   6   8
TORSDOF 2
ENDMDL
MODEL       92
REMARK 921   NORMALIZED FREE ENERGY PREDICTED BY IDOCK:   -5.00 KCAL/MOL
REMARK 922        TOTAL FREE ENERGY PREDICTED BY IDOCK:   -5.98 KCAL/MOL
REMARK 923 INTER-LIGAND FREE ENERGY PREDICTED BY IDOCK:   -6.03 KCAL/MOL
REMARK 924 INTRA-LIGAND FREE ENERGY PREDICTED BY IDOCK:    0.05 KCAL/MOL
REMARK 927      BINDING AFFINITY PREDICTED BY RF-SCORE:    0.00 PKD
ROOT
HETATM    1  C   UNL     1      -9.168  10.534  62.608  1.00  0.00    -0.309 C  
HETATM    2  N   UNL     1      -8.857   9.414  63.489  1.00  0.00    -0.208 NA 
HETATM    3  C   UNL     1      -7.437   9.053  63.483  1.00  0.00    -0.103 C  
HETATM    4  C   UNL     1      -6.552  10.052  64.227  1.00  0.00    -0.130 C  
HETATM    5  C   UNL     1      -7.050  10.287  65.650  1.00  0.00    -0.137 C  
HETATM    6  C   UNL     1      -8.551  10.652  65.684  1.00  0.00    -0.187 C  
HETATM    7  C   UNL     1      -9.352   9.630  64.853  1.00  0.00    -0.242 C  
ENDROOT
BRANCH   6   8
HETATM    8  C   UNL     1      -9.006  10.734  67.162  1.00  0.00    -0.145 C  
BRANCH   8   9
HETATM    9  C   UNL     1     -10.419  11.344  67.478  1.00  0.00    -0.233 C  
HETATM   10  C   UNL     1     -10.920  11.013  68.892  1.00  0.00    -0.277 A  
HETATM   11  C   UNL     1     -10.704   9.721  69.429  1.00  0.00    -0.250 A  
HETATM   12  C   UNL     1     -11.274   9.308  70.638  1.00  0.00    -0.333 A  
HETATM   13  C   UNL     1     -12.103  10.168  71.339  1.00  0.00    -0.475 A  
HETATM   14  C   UNL     1     -12.311  11.452  70.849  1.00  0.00    -0.483 A  
HETATM   15  C   UNL     1     -11.712  11.887  69.647  1.00  0.00    -0.343 A  
HETATM   16  S   UNL     1     -12.035  13.571  69.226  1.00  0.00    -0.306 SA 
HETATM   17  C   UNL     1     -11.169  13.810  67.708  1.00  0.00    -0.288 A  
HETATM   18  C   UNL     1     -11.144  15.134  67.230  1.00  0.00    -0.332 A  
HETATM   19  C   UNL     1     -10.569  15.453  66.006  1.00  0.00    -0.330 A  
HETATM   20  C   UNL     1     -10.055  14.437  65.218  1.00  0.00    -0.387 A  
HETATM   21  C   UNL     1     -10.075  13.120  65.684  1.00  0.00    -0.279 A  
HETATM   22  C   UNL     1     -10.566  12.785  66.969  1.00  0.00    -0.253 A  
ENDBRANCH   8   9
ENDBRANCH   6   8
TORSDOF 2
ENDMDL
MODEL       93
REMARK 921   NORMALIZED FREE ENERGY PREDICTED BY IDOCK:   -5.00 KCAL/MOL
REMARK 922        TOTAL FREE ENERGY PREDICTED BY IDOCK:   -5.98 KCAL/MOL
REMARK 923 INTER-LIGAND FREE ENERGY PREDICTED BY IDOCK:   -5.20 KCAL/MOL
REMARK 924 INTRA-LIGAND FREE ENERGY PREDICTED BY IDOCK:   -0.77 KCAL/MOL
REMARK 927      BINDING AFFINITY PREDICTED BY RF-SCORE:    0.00 PKD
ROOT
HETATM    1  C   UNL     1      -6.615   6.467  72.271  1.00  0.00    -0.059 C  
HETATM    2  N   UNL     1      -7.552   5.615  72.996  1.00  0.00    -0.099 NA 
HETATM    3  C   UNL     1      -7.747   6.027  74.389  1.00  0.00    -0.096 C  
HETATM    4  C   UNL     1      -8.587   7.296  74.536  1.00  0.00    -0.230 C  
HETATM    5  C   UNL     1      -9.923   7.168  73.811  1.00  0.00    -0.373 C  
HETATM    6  C   UNL     1      -9.744   6.717  72.344  1.00  0.00    -0.162 C  
HETATM    7  C   UNL     1      -8.831   5.475  72.292  1.00  0.00    -0.132 C  
ENDROOT
BRANCH   6   8
HETATM    8  C   UNL     1     -11.144   6.476  71.727  1.00  0.00    -0.299 C  
BRANCH   8   9
HETATM    9  C   UNL     1     -11.557   7.305  70.457  1.00  0.00    -0.292 C  
HETATM   10  C   UNL     1     -11.869   8.776  70.768  1.00  0.00    -0.209 A  
HETATM   11  C   UNL     1     -12.584   9.108  71.945  1.00  0.00    -0.463 A  
HETATM   12  C   UNL     1     -13.039  10.406  72.202  1.00  0.00    -0.427 A  
HETATM   13  C   UNL     1     -12.818  11.411  71.276  1.00  0.00    -0.481 A  
HETATM   14  C   UNL     1     -12.096  11.119  70.124  1.00  0.00    -0.443 A  
HETATM   15  C   UNL     1     -11.603   9.820  69.874  1.00  0.00    -0.079 A  
HETATM   16  S   UNL     1     -10.649   9.662  68.397  1.00  0.00    -0.211 SA 
HETATM   17  C   UNL     1     -10.186   7.960  68.363  1.00  0.00    -0.202 A  
HETATM   18  C   UNL     1      -9.280   7.602  67.346  1.00  0.00    -0.150 A  
HETATM   19  C   UNL     1      -8.894   6.282  67.151  1.00  0.00    -0.109 A  
HETATM   20  C   UNL     1      -9.451   5.292  67.942  1.00  0.00    -0.146 A  
HETATM   21  C   UNL     1     -10.350   5.638  68.954  1.00  0.00    -0.295 A  
HETATM   22  C   UNL     1     -10.683   6.985  69.236  1.00  0.00    -0.245 A  
ENDBRANCH   8   9
ENDBRANCH   6   8
TORSDOF 2
ENDMDL
MODEL       94
REMARK 921   NORMALIZED FREE ENERGY PREDICTED BY IDOCK:   -4.99 KCAL/MOL
REMARK 922        TOTAL FREE ENERGY PREDICTED BY IDOCK:   -5.97 KCAL/MOL
REMARK 923 INTER-LIGAND FREE ENERGY PREDICTED BY IDOCK:   -5.44 KCAL/MOL
REMARK 924 INTRA-LIGAND FREE ENERGY PREDICTED BY IDOCK:   -0.53 KCAL/MOL
REMARK 927      BINDING AFFINITY PREDICTED BY RF-SCORE:    0.00 PKD
ROOT
HETATM    1  C   UNL     1     -13.257  13.260  71.619  1.00  0.00    -0.359 C  
HETATM    2  N   UNL     1     -13.298  14.351  70.651  1.00  0.00    -0.180 NA 
HETATM    3  C   UNL     1     -12.852  15.632  71.206  1.00  0.00    -0.487 C  
HETATM    4  C   UNL     1     -11.340  15.708  71.423  1.00  0.00    -0.448 C  
HETATM    5  C   UNL     1     -10.576  15.369  70.147  1.00  0.00    -0.314 C  
HETATM    6  C   UNL     1     -11.041  14.031  69.532  1.00  0.00    -0.200 C  
HETATM    7  C   UNL     1     -12.579  14.021  69.415  1.00  0.00     0.120 C  
ENDROOT
BRANCH   6   8
HETATM    8  C   UNL     1     -10.321  13.833  68.175  1.00  0.00    -0.252 C  
BRANCH   8   9
HETATM    9  C   UNL     1     -10.397  12.424  67.484  1.00  0.00    -0.223 C  
HETATM   10  C   UNL     1     -10.966  12.478  66.058  1.00  0.00    -0.318 A  
HETATM   11  C   UNL     1     -12.057  13.334  65.769  1.00  0.00    -0.491 A  
HETATM   12  C   UNL     1     -12.722  13.309  64.538  1.00  0.00    -0.229 A  
HETATM   13  C   UNL     1     -12.334  12.406  63.563  1.00  0.00    -0.648 A  
HETATM   14  C   UNL     1     -11.250  11.572  63.810  1.00  0.00    -0.456 A  
HETATM   15  C   UNL     1     -10.552  11.615  65.037  1.00  0.00    -0.289 A  
HETATM   16  S   UNL     1      -9.161  10.533  65.135  1.00  0.00    -0.210 SA 
HETATM   17  C   UNL     1      -8.513  10.811  66.752  1.00  0.00    -0.134 A  
HETATM   18  C   UNL     1      -7.291  10.167  67.030  1.00  0.00    -0.091 A  
HETATM   19  C   UNL     1      -6.708  10.231  68.290  1.00  0.00    -0.057 A  
HETATM   20  C   UNL     1      -7.369  10.901  69.305  1.00  0.00    -0.125 A  
HETATM   21  C   UNL     1      -8.581  11.543  69.038  1.00  0.00     0.120 A  
HETATM   22  C   UNL     1      -9.145  11.574  67.740  1.00  0.00    -0.165 A  
ENDBRANCH   8   9
ENDBRANCH   6   8
TORSDOF 2
ENDMDL
MODEL       95
REMARK 921   NORMALIZED FREE ENERGY PREDICTED BY IDOCK:   -4.98 KCAL/MOL
REMARK 922        TOTAL FREE ENERGY PREDICTED BY IDOCK:   -5.96 KCAL/MOL
REMARK 923 INTER-LIGAND FREE ENERGY PREDICTED BY IDOCK:   -5.56 KCAL/MOL
REMARK 924 INTRA-LIGAND FREE ENERGY PREDICTED BY IDOCK:   -0.41 KCAL/MOL
REMARK 927      BINDING AFFINITY PREDICTED BY RF-SCORE:    0.00 PKD
ROOT
HETATM    1  C   UNL     1     -11.199   7.904  70.325  1.00  0.00    -0.200 C  
HETATM    2  N   UNL     1      -9.960   7.631  69.604  1.00  0.00    -0.182 NA 
HETATM    3  C   UNL     1     -10.061   6.484  68.698  1.00  0.00    -0.161 C  
HETATM    4  C   UNL     1     -10.880   6.772  67.440  1.00  0.00    -0.417 C  
HETATM    5  C   UNL     1     -10.361   8.005  66.707  1.00  0.00    -0.360 C  
HETATM    6  C   UNL     1     -10.229   9.224  67.646  1.00  0.00    -0.285 C  
HETATM    7  C   UNL     1      -9.448   8.820  68.913  1.00  0.00    -0.145 C  
ENDROOT
BRANCH   6   8
HETATM    8  C   UNL     1      -9.567  10.384  66.862  1.00  0.00    -0.207 C  
BRANCH   8   9
HETATM    9  C   UNL     1      -9.662  11.838  67.450  1.00  0.00    -0.186 C  
HETATM   10  C   UNL     1      -8.324  12.363  67.990  1.00  0.00    -0.170 A  
HETATM   11  C   UNL     1      -7.467  11.494  68.708  1.00  0.00    -0.119 A  
HETATM   12  C   UNL     1      -6.317  11.949  69.362  1.00  0.00    -0.115 A  
HETATM   13  C   UNL     1      -6.000  13.296  69.343  1.00  0.00    -0.100 A  
HETATM   14  C   UNL     1      -6.809  14.168  68.623  1.00  0.00    -0.101 A  
HETATM   15  C   UNL     1      -7.952  13.711  67.932  1.00  0.00    -0.161 A  
HETATM   16  S   UNL     1      -8.810  14.954  67.017  1.00  0.00    -0.245 SA 
HETATM   17  C   UNL     1     -10.161  14.091  66.281  1.00  0.00    -0.300 A  
HETATM   18  C   UNL     1     -10.925  14.839  65.365  1.00  0.00    -0.365 A  
HETATM   19  C   UNL     1     -12.066  14.312  64.772  1.00  0.00    -0.457 A  
HETATM   20  C   UNL     1     -12.486  13.042  65.130  1.00  0.00    -0.552 A  
HETATM   21  C   UNL     1     -11.734  12.293  66.038  1.00  0.00    -0.451 A  
HETATM   22  C   UNL     1     -10.516  12.771  66.579  1.00  0.00    -0.276 A  
ENDBRANCH   8   9
ENDBRANCH   6   8
TORSDOF 2
ENDMDL
MODEL       96
REMARK 921   NORMALIZED FREE ENERGY PREDICTED BY IDOCK:   -4.96 KCAL/MOL
REMARK 922        TOTAL FREE ENERGY PREDICTED BY IDOCK:   -5.93 KCAL/MOL
REMARK 923 INTER-LIGAND FREE ENERGY PREDICTED BY IDOCK:   -5.33 KCAL/MOL
REMARK 924 INTRA-LIGAND FREE ENERGY PREDICTED BY IDOCK:   -0.60 KCAL/MOL
REMARK 927      BINDING AFFINITY PREDICTED BY RF-SCORE:    0.00 PKD
ROOT
HETATM    1  C   UNL     1     -11.628   7.285  70.955  1.00  0.00    -0.299 C  
HETATM    2  N   UNL     1     -10.235   7.701  71.077  1.00  0.00    -0.194 NA 
HETATM    3  C   UNL     1      -9.288   6.591  70.933  1.00  0.00    -0.161 C  
HETATM    4  C   UNL     1      -9.149   6.093  69.495  1.00  0.00    -0.140 C  
HETATM    5  C   UNL     1      -8.806   7.232  68.540  1.00  0.00    -0.129 C  
HETATM    6  C   UNL     1      -9.780   8.422  68.686  1.00  0.00    -0.171 C  
HETATM    7  C   UNL     1      -9.907   8.809  70.174  1.00  0.00    -0.176 C  
ENDROOT
BRANCH   6   8
HETATM    8  C   UNL     1      -9.280   9.583  67.791  1.00  0.00    -0.136 C  
BRANCH   8   9
HETATM    9  C   UNL     1     -10.109   9.950  66.507  1.00  0.00    -0.298 C  
HETATM   10  C   UNL     1     -10.732  11.352  66.567  1.00  0.00    -0.325 A  
HETATM   11  C   UNL     1     -11.292  11.820  67.781  1.00  0.00    -0.358 A  
HETATM   12  C   UNL     1     -12.016  13.015  67.859  1.00  0.00    -0.338 A  
HETATM   13  C   UNL     1     -12.227  13.769  66.718  1.00  0.00    -0.440 A  
HETATM   14  C   UNL     1     -11.667  13.348  65.518  1.00  0.00    -0.366 A  
HETATM   15  C   UNL     1     -10.906  12.161  65.438  1.00  0.00    -0.294 A  
HETATM   16  S   UNL     1     -10.217  11.830  63.846  1.00  0.00    -0.413 SA 
HETATM   17  C   UNL     1      -9.342  10.313  64.063  1.00  0.00    -0.289 A  
HETATM   18  C   UNL     1      -8.567   9.903  62.961  1.00  0.00    -0.197 A  
HETATM   19  C   UNL     1      -7.892   8.688  62.962  1.00  0.00    -0.145 A  
HETATM   20  C   UNL     1      -8.026   7.843  64.051  1.00  0.00    -0.124 A  
HETATM   21  C   UNL     1      -8.793   8.242  65.148  1.00  0.00    -0.024 A  
HETATM   22  C   UNL     1      -9.409   9.516  65.211  1.00  0.00    -0.317 A  
ENDBRANCH   8   9
ENDBRANCH   6   8
TORSDOF 2
ENDMDL
MODEL       97
REMARK 921   NORMALIZED FREE ENERGY PREDICTED BY IDOCK:   -4.95 KCAL/MOL
REMARK 922        TOTAL FREE ENERGY PREDICTED BY IDOCK:   -5.93 KCAL/MOL
REMARK 923 INTER-LIGAND FREE ENERGY PREDICTED BY IDOCK:   -5.27 KCAL/MOL
REMARK 924 INTRA-LIGAND FREE ENERGY PREDICTED BY IDOCK:   -0.66 KCAL/MOL
REMARK 927      BINDING AFFINITY PREDICTED BY RF-SCORE:    0.00 PKD
ROOT
HETATM    1  C   UNL     1     -13.535   9.448  71.371  1.00  0.00    -0.332 C  
HETATM    2  N   UNL     1     -12.357   8.849  71.991  1.00  0.00    -0.369 NA 
HETATM    3  C   UNL     1     -12.287   7.397  71.810  1.00  0.00    -0.333 C  
HETATM    4  C   UNL     1     -11.910   6.978  70.388  1.00  0.00    -0.295 C  
HETATM    5  C   UNL     1     -10.619   7.650  69.932  1.00  0.00    -0.237 C  
HETATM    6  C   UNL     1     -10.662   9.181  70.130  1.00  0.00    -0.263 C  
HETATM    7  C   UNL     1     -11.115   9.505  71.568  1.00  0.00    -0.336 C  
ENDROOT
BRANCH   6   8
HETATM    8  C   UNL     1      -9.272   9.765  69.778  1.00  0.00    -0.248 C  
BRANCH   8   9
HETATM    9  C   UNL     1      -9.013  10.249  68.306  1.00  0.00    -0.132 C  
HETATM   10  C   UNL     1      -8.645   9.106  67.348  1.00  0.00    -0.115 A  
HETATM   11  C   UNL     1      -7.783   8.071  67.787  1.00  0.00    -0.110 A  
HETATM   12  C   UNL     1      -7.284   7.095  66.918  1.00  0.00    -0.087 A  
HETATM   13  C   UNL     1      -7.607   7.138  65.573  1.00  0.00    -0.098 A  
HETATM   14  C   UNL     1      -8.472   8.127  65.119  1.00  0.00    -0.134 A  
HETATM   15  C   UNL     1      -9.008   9.095  65.996  1.00  0.00    -0.181 A  
HETATM   16  S   UNL     1     -10.143  10.223  65.249  1.00  0.00    -0.234 SA 
HETATM   17  C   UNL     1     -10.628  11.285  66.571  1.00  0.00    -0.266 A  
HETATM   18  C   UNL     1     -11.659  12.195  66.265  1.00  0.00    -0.424 A  
HETATM   19  C   UNL     1     -12.083  13.145  67.186  1.00  0.00    -0.343 A  
HETATM   20  C   UNL     1     -11.443  13.230  68.411  1.00  0.00    -0.349 A  
HETATM   21  C   UNL     1     -10.419  12.332  68.722  1.00  0.00    -0.187 A  
HETATM   22  C   UNL     1     -10.037  11.293  67.840  1.00  0.00    -0.195 A  
ENDBRANCH   8   9
ENDBRANCH   6   8
TORSDOF 2
ENDMDL
MODEL       98
REMARK 921   NORMALIZED FREE ENERGY PREDICTED BY IDOCK:   -4.95 KCAL/MOL
REMARK 922        TOTAL FREE ENERGY PREDICTED BY IDOCK:   -5.93 KCAL/MOL
REMARK 923 INTER-LIGAND FREE ENERGY PREDICTED BY IDOCK:   -5.40 KCAL/MOL
REMARK 924 INTRA-LIGAND FREE ENERGY PREDICTED BY IDOCK:   -0.52 KCAL/MOL
REMARK 927      BINDING AFFINITY PREDICTED BY RF-SCORE:    0.00 PKD
ROOT
HETATM    1  C   UNL     1     -11.281  14.589  64.412  1.00  0.00    -0.195 C  
HETATM    2  N   UNL     1     -12.118  13.398  64.303  1.00  0.00    -0.448 NA 
HETATM    3  C   UNL     1     -11.717  12.511  63.208  1.00  0.00    -0.398 C  
HETATM    4  C   UNL     1     -10.429  11.737  63.492  1.00  0.00    -0.500 C  
HETATM    5  C   UNL     1     -10.515  10.975  64.811  1.00  0.00    -0.384 C  
HETATM    6  C   UNL     1     -10.953  11.887  65.978  1.00  0.00    -0.355 C  
HETATM    7  C   UNL     1     -12.217  12.674  65.575  1.00  0.00    -0.440 C  
ENDROOT
BRANCH   6   8
HETATM    8  C   UNL     1     -11.151  11.013  67.241  1.00  0.00    -0.359 C  
BRANCH   8   9
HETATM    9  C   UNL     1      -9.888  10.350  67.900  1.00  0.00    -0.176 C  
HETATM   10  C   UNL     1      -9.662   8.899  67.452  1.00  0.00    -0.227 A  
HETATM   11  C   UNL     1     -10.769   8.030  67.300  1.00  0.00    -0.280 A  
HETATM   12  C   UNL     1     -10.617   6.661  67.053  1.00  0.00    -0.404 A  
HETATM   13  C   UNL     1      -9.350   6.110  66.979  1.00  0.00    -0.132 A  
HETATM   14  C   UNL     1      -8.244   6.944  67.098  1.00  0.00    -0.118 A  
HETATM   15  C   UNL     1      -8.389   8.332  67.312  1.00  0.00    -0.124 A  
HETATM   16  S   UNL     1      -6.873   9.235  67.364  1.00  0.00    -0.077 SA 
HETATM   17  C   UNL     1      -7.374  10.904  67.639  1.00  0.00    -0.094 A  
HETATM   18  C   UNL     1      -6.344  11.861  67.571  1.00  0.00    -0.105 A  
HETATM   19  C   UNL     1      -6.581  13.202  67.848  1.00  0.00    -0.137 A  
HETATM   20  C   UNL     1      -7.847  13.594  68.248  1.00  0.00    -0.141 A  
HETATM   21  C   UNL     1      -8.875  12.651  68.318  1.00  0.00    -0.172 A  
HETATM   22  C   UNL     1      -8.682  11.299  67.946  1.00  0.00    -0.138 A  
ENDBRANCH   8   9
ENDBRANCH   6   8
TORSDOF 2
ENDMDL
MODEL       99
REMARK 921   NORMALIZED FREE ENERGY PREDICTED BY IDOCK:   -4.94 KCAL/MOL
REMARK 922        TOTAL FREE ENERGY PREDICTED BY IDOCK:   -5.92 KCAL/MOL
REMARK 923 INTER-LIGAND FREE ENERGY PREDICTED BY IDOCK:   -5.46 KCAL/MOL
REMARK 924 INTRA-LIGAND FREE ENERGY PREDICTED BY IDOCK:   -0.46 KCAL/MOL
REMARK 927      BINDING AFFINITY PREDICTED BY RF-SCORE:    0.00 PKD
ROOT
HETATM    1  C   UNL     1      -8.488  14.353  67.533  1.00  0.00    -0.192 C  
HETATM    2  N   UNL     1      -8.458  13.038  66.902  1.00  0.00    -0.135 NA 
HETATM    3  C   UNL     1      -7.214  12.306  67.154  1.00  0.00    -0.100 C  
HETATM    4  C   UNL     1      -7.102  11.767  68.581  1.00  0.00    -0.101 C  
HETATM    5  C   UNL     1      -8.318  10.925  68.955  1.00  0.00    -0.118 C  
HETATM    6  C   UNL     1      -9.644  11.669  68.681  1.00  0.00    -0.139 C  
HETATM    7  C   UNL     1      -9.635  12.232  67.246  1.00  0.00    -0.187 C  
ENDROOT
BRANCH   6   8
HETATM    8  C   UNL     1     -10.820  10.699  68.953  1.00  0.00    -0.272 C  
BRANCH   8   9
HETATM    9  C   UNL     1     -11.280  10.476  70.439  1.00  0.00    -0.378 C  
HETATM   10  C   UNL     1     -12.251  11.554  70.941  1.00  0.00    -0.425 A  
HETATM   11  C   UNL     1     -12.039  12.910  70.589  1.00  0.00    -0.321 A  
HETATM   12  C   UNL     1     -12.788  13.953  71.144  1.00  0.00    -0.423 A  
HETATM   13  C   UNL     1     -13.758  13.677  72.093  1.00  0.00    -0.649 A  
HETATM   14  C   UNL     1     -14.006  12.354  72.438  1.00  0.00     0.081 A  
HETATM   15  C   UNL     1     -13.278  11.293  71.857  1.00  0.00    -0.386 A  
HETATM   16  S   UNL     1     -13.785   9.680  72.367  1.00  0.00    -0.117 SA 
HETATM   17  C   UNL     1     -12.710   8.592  71.488  1.00  0.00    -0.316 A  
HETATM   18  C   UNL     1     -13.011   7.222  71.608  1.00  0.00    -0.417 A  
HETATM   19  C   UNL     1     -12.200   6.249  71.036  1.00  0.00     0.063 A  
HETATM   20  C   UNL     1     -11.046   6.635  70.378  1.00  0.00    -0.374 A  
HETATM   21  C   UNL     1     -10.739   7.993  70.254  1.00  0.00    -0.239 A  
HETATM   22  C   UNL     1     -11.600   9.005  70.742  1.00  0.00    -0.313 A  
ENDBRANCH   8   9
ENDBRANCH   6   8
TORSDOF 2
ENDMDL
MODEL      100
REMARK 921   NORMALIZED FREE ENERGY PREDICTED BY IDOCK:   -4.94 KCAL/MOL
REMARK 922        TOTAL FREE ENERGY PREDICTED BY IDOCK:   -5.91 KCAL/MOL
REMARK 923 INTER-LIGAND FREE ENERGY PREDICTED BY IDOCK:   -5.50 KCAL/MOL
REMARK 924 INTRA-LIGAND FREE ENERGY PREDICTED BY IDOCK:   -0.41 KCAL/MOL
REMARK 927      BINDING AFFINITY PREDICTED BY RF-SCORE:    0.00 PKD
ROOT
HETATM    1  C   UNL     1     -10.824  11.356  68.182  1.00  0.00    -0.213 C  
HETATM    2  N   UNL     1     -11.703  12.382  67.631  1.00  0.00    -0.386 NA 
HETATM    3  C   UNL     1     -12.352  13.198  68.660  1.00  0.00     0.149 C  
HETATM    4  C   UNL     1     -11.406  14.190  69.337  1.00  0.00    -0.318 C  
HETATM    5  C   UNL     1     -10.691  15.066  68.314  1.00  0.00    -0.253 C  
HETATM    6  C   UNL     1     -10.013  14.228  67.208  1.00  0.00    -0.252 C  
HETATM    7  C   UNL     1     -11.023  13.215  66.633  1.00  0.00    -0.283 C  
ENDROOT
BRANCH   6   8
HETATM    8  C   UNL     1      -9.436  15.192  66.141  1.00  0.00    -0.354 C  
BRANCH   8   9
HETATM    9  C   UNL     1      -8.429  16.306  66.603  1.00  0.00    -0.306 C  
HETATM   10  C   UNL     1      -9.093  17.676  66.807  1.00  0.00    -0.273 A  
HETATM   11  C   UNL     1     -10.082  18.120  65.897  1.00  0.00    -0.173 A  
HETATM   12  C   UNL     1     -10.605  19.417  65.933  1.00  0.00    -0.551 A  
HETATM   13  C   UNL     1     -10.133  20.325  66.866  1.00  0.00    -0.565 A  
HETATM   14  C   UNL     1      -9.181  19.909  67.789  1.00  0.00    -0.436 A  
HETATM   15  C   UNL     1      -8.674  18.591  67.781  1.00  0.00    -0.275 A  
HETATM   16  S   UNL     1      -7.528  18.231  69.074  1.00  0.00    -0.103 SA 
HETATM   17  C   UNL     1      -7.085  16.546  68.801  1.00  0.00    -0.189 A  
HETATM   18  C   UNL     1      -6.282  15.964  69.801  1.00  0.00    -0.177 A  
HETATM   19  C   UNL     1      -5.791  14.670  69.675  1.00  0.00    -0.104 A  
HETATM   20  C   UNL     1      -6.056  13.958  68.518  1.00  0.00    -0.093 A  
HETATM   21  C   UNL     1      -6.852  14.527  67.520  1.00  0.00    -0.168 A  
HETATM   22  C   UNL     1      -7.444  15.805  67.669  1.00  0.00    -0.180 A  
ENDBRANCH   8   9
ENDBRANCH   6   8
TORSDOF 2
ENDMDL
MODEL      101
REMARK 921   NORMALIZED FREE ENERGY PREDICTED BY IDOCK:   -4.90 KCAL/MOL
REMARK 922        TOTAL FREE ENERGY PREDICTED BY IDOCK:   -5.87 KCAL/MOL
REMARK 923 INTER-LIGAND FREE ENERGY PREDICTED BY IDOCK:   -5.26 KCAL/MOL
REMARK 924 INTRA-LIGAND FREE ENERGY PREDICTED BY IDOCK:   -0.62 KCAL/MOL
REMARK 927      BINDING AFFINITY PREDICTED BY RF-SCORE:    0.00 PKD
ROOT
HETATM    1  C   UNL     1      -9.557  13.407  68.027  1.00  0.00    -0.219 C  
HETATM    2  N   UNL     1     -10.798  13.015  67.367  1.00  0.00    -0.248 NA 
HETATM    3  C   UNL     1     -10.747  13.160  65.910  1.00  0.00    -0.274 C  
HETATM    4  C   UNL     1      -9.893  12.094  65.222  1.00  0.00    -0.216 C  
HETATM    5  C   UNL     1     -10.332  10.688  65.617  1.00  0.00    -0.285 C  
HETATM    6  C   UNL     1     -10.411  10.516  67.150  1.00  0.00    -0.285 C  
HETATM    7  C   UNL     1     -11.232  11.670  67.760  1.00  0.00    -0.268 C  
ENDROOT
BRANCH   6   8
HETATM    8  C   UNL     1     -10.995   9.115  67.462  1.00  0.00    -0.010 C  
BRANCH   8   9
HETATM    9  C   UNL     1     -10.174   8.150  68.390  1.00  0.00    -0.240 C  
HETATM   10  C   UNL     1     -10.754   8.034  69.808  1.00  0.00    -0.231 A  
HETATM   11  C   UNL     1     -11.257   9.187  70.458  1.00  0.00    -0.309 A  
HETATM   12  C   UNL     1     -11.647   9.179  71.801  1.00  0.00    -0.457 A  
HETATM   13  C   UNL     1     -11.519   8.020  72.549  1.00  0.00    -0.471 A  
HETATM   14  C   UNL     1     -11.053   6.866  71.930  1.00  0.00    -0.278 A  
HETATM   15  C   UNL     1     -10.691   6.858  70.566  1.00  0.00    -0.235 A  
HETATM   16  S   UNL     1     -10.192   5.283  69.942  1.00  0.00    -0.300 SA 
HETATM   17  C   UNL     1      -9.810   5.592  68.248  1.00  0.00    -0.141 A  
HETATM   18  C   UNL     1      -9.524   4.449  67.477  1.00  0.00    -0.201 A  
HETATM   19  C   UNL     1      -9.127   4.551  66.149  1.00  0.00    -0.128 A  
HETATM   20  C   UNL     1      -8.961   5.806  65.589  1.00  0.00    -0.122 A  
HETATM   21  C   UNL     1      -9.242   6.946  66.347  1.00  0.00    -0.186 A  
HETATM   22  C   UNL     1      -9.742   6.865  67.669  1.00  0.00    -0.151 A  
ENDBRANCH   8   9
ENDBRANCH   6   8
TORSDOF 2
ENDMDL
MODEL      102
REMARK 921   NORMALIZED FREE ENERGY PREDICTED BY IDOCK:   -4.88 KCAL/MOL
REMARK 922        TOTAL FREE ENERGY PREDICTED BY IDOCK:   -5.84 KCAL/MOL
REMARK 923 INTER-LIGAND FREE ENERGY PREDICTED BY IDOCK:   -5.26 KCAL/MOL
REMARK 924 INTRA-LIGAND FREE ENERGY PREDICTED BY IDOCK:   -0.58 KCAL/MOL
REMARK 927      BINDING AFFINITY PREDICTED BY RF-SCORE:    0.00 PKD
ROOT
HETATM    1  C   UNL     1      -5.688  11.137  67.727  1.00  0.00    -0.043 C  
HETATM    2  N   UNL     1      -5.879  10.287  66.557  1.00  0.00    -0.059 NA 
HETATM    3  C   UNL     1      -5.450   8.902  66.775  1.00  0.00    -0.040 C  
HETATM    4  C   UNL     1      -6.399   8.105  67.670  1.00  0.00    -0.053 C  
HETATM    5  C   UNL     1      -7.832   8.159  67.150  1.00  0.00    -0.101 C  
HETATM    6  C   UNL     1      -8.301   9.608  66.895  1.00  0.00    -0.117 C  
HETATM    7  C   UNL     1      -7.251  10.351  66.044  1.00  0.00    -0.134 C  
ENDROOT
BRANCH   6   8
HETATM    8  C   UNL     1      -9.704   9.566  66.240  1.00  0.00    -0.310 C  
BRANCH   8   9
HETATM    9  C   UNL     1     -10.857  10.422  66.879  1.00  0.00    -0.229 C  
HETATM   10  C   UNL     1     -10.980  10.234  68.398  1.00  0.00    -0.308 A  
HETATM   11  C   UNL     1     -10.825   8.944  68.961  1.00  0.00    -0.071 A  
HETATM   12  C   UNL     1     -11.086   8.680  70.310  1.00  0.00    -0.230 A  
HETATM   13  C   UNL     1     -11.538   9.694  71.137  1.00  0.00    -0.456 A  
HETATM   14  C   UNL     1     -11.674  10.976  70.617  1.00  0.00    -0.371 A  
HETATM   15  C   UNL     1     -11.380  11.258  69.265  1.00  0.00    -0.287 A  
HETATM   16  S   UNL     1     -11.543  12.956  68.811  1.00  0.00    -0.330 SA 
HETATM   17  C   UNL     1     -11.118  12.987  67.099  1.00  0.00    -0.273 A  
HETATM   18  C   UNL     1     -11.024  14.269  66.525  1.00  0.00    -0.316 A  
HETATM   19  C   UNL     1     -10.777  14.439  65.168  1.00  0.00    -0.413 A  
HETATM   20  C   UNL     1     -10.672  13.322  64.356  1.00  0.00    -0.432 A  
HETATM   21  C   UNL     1     -10.764  12.047  64.918  1.00  0.00    -0.346 A  
HETATM   22  C   UNL     1     -10.916  11.848  66.311  1.00  0.00    -0.345 A  
ENDBRANCH   8   9
ENDBRANCH   6   8
TORSDOF 2
ENDMDL
MODEL      103
REMARK 921   NORMALIZED FREE ENERGY PREDICTED BY IDOCK:   -4.87 KCAL/MOL
REMARK 922        TOTAL FREE ENERGY PREDICTED BY IDOCK:   -5.84 KCAL/MOL
REMARK 923 INTER-LIGAND FREE ENERGY PREDICTED BY IDOCK:   -5.97 KCAL/MOL
REMARK 924 INTRA-LIGAND FREE ENERGY PREDICTED BY IDOCK:    0.13 KCAL/MOL
REMARK 927      BINDING AFFINITY PREDICTED BY RF-SCORE:    0.00 PKD
ROOT
HETATM    1  C   UNL     1      -5.928  17.573  68.653  1.00  0.00    -0.171 C  
HETATM    2  N   UNL     1      -6.675  16.614  67.847  1.00  0.00    -0.136 NA 
HETATM    3  C   UNL     1      -6.640  15.253  68.391  1.00  0.00    -0.110 C  
HETATM    4  C   UNL     1      -7.505  15.075  69.639  1.00  0.00    -0.161 C  
HETATM    5  C   UNL     1      -8.940  15.529  69.393  1.00  0.00    -0.275 C  
HETATM    6  C   UNL     1      -9.003  16.954  68.801  1.00  0.00    -0.256 C  
HETATM    7  C   UNL     1      -8.050  17.057  67.593  1.00  0.00    -0.180 C  
ENDROOT
BRANCH   6   8
HETATM    8  C   UNL     1     -10.476  17.281  68.452  1.00  0.00    -0.381 C  
BRANCH   8   9
HETATM    9  C   UNL     1     -11.503  16.097  68.351  1.00  0.00    -0.298 C  
HETATM   10  C   UNL     1     -11.234  15.159  67.165  1.00  0.00    -0.320 A  
HETATM   11  C   UNL     1     -10.837  15.700  65.918  1.00  0.00    -0.297 A  
HETATM   12  C   UNL     1     -10.735  14.919  64.762  1.00  0.00    -0.365 A  
HETATM   13  C   UNL     1     -11.054  13.572  64.809  1.00  0.00    -0.368 A  
HETATM   14  C   UNL     1     -11.421  13.009  66.026  1.00  0.00    -0.374 A  
HETATM   15  C   UNL     1     -11.492  13.784  67.204  1.00  0.00    -0.340 A  
HETATM   16  S   UNL     1     -11.905  12.877  68.662  1.00  0.00    -0.271 SA 
HETATM   17  C   UNL     1     -11.917  14.095  69.937  1.00  0.00    -0.338 A  
HETATM   18  C   UNL     1     -12.075  13.596  71.245  1.00  0.00    -0.128 A  
HETATM   19  C   UNL     1     -12.185  14.449  72.337  1.00  0.00    -0.172 A  
HETATM   20  C   UNL     1     -12.189  15.817  72.127  1.00  0.00    -0.552 A  
HETATM   21  C   UNL     1     -12.032  16.320  70.834  1.00  0.00    -0.102 A  
HETATM   22  C   UNL     1     -11.820  15.474  69.718  1.00  0.00    -0.376 A  
ENDBRANCH   8   9
ENDBRANCH   6   8
TORSDOF 2
ENDMDL
MODEL      104
REMARK 921   NORMALIZED FREE ENERGY PREDICTED BY IDOCK:   -4.87 KCAL/MOL
REMARK 922        TOTAL FREE ENERGY PREDICTED BY IDOCK:   -5.84 KCAL/MOL
REMARK 923 INTER-LIGAND FREE ENERGY PREDICTED BY IDOCK:   -5.48 KCAL/MOL
REMARK 924 INTRA-LIGAND FREE ENERGY PREDICTED BY IDOCK:   -0.35 KCAL/MOL
REMARK 927      BINDING AFFINITY PREDICTED BY RF-SCORE:    0.00 PKD
ROOT
HETATM    1  C   UNL     1      -7.426  11.757  68.908  1.00  0.00    -0.080 C  
HETATM    2  N   UNL     1      -8.283  10.814  68.197  1.00  0.00    -0.115 NA 
HETATM    3  C   UNL     1      -8.480   9.555  68.921  1.00  0.00    -0.123 C  
HETATM    4  C   UNL     1      -9.409   9.687  70.129  1.00  0.00    -0.294 C  
HETATM    5  C   UNL     1     -10.746  10.310  69.740  1.00  0.00    -0.328 C  
HETATM    6  C   UNL     1     -10.563  11.630  68.959  1.00  0.00    -0.188 C  
HETATM    7  C   UNL     1      -9.562  11.416  67.805  1.00  0.00    -0.172 C  
ENDROOT
BRANCH   6   8
HETATM    8  C   UNL     1     -11.954  12.119  68.482  1.00  0.00    -0.273 C  
BRANCH   8   9
HETATM    9  C   UNL     1     -12.031  13.420  67.605  1.00  0.00    -0.362 C  
HETATM   10  C   UNL     1     -11.402  14.646  68.283  1.00  0.00    -0.317 A  
HETATM   11  C   UNL     1     -11.596  14.860  69.670  1.00  0.00    -0.337 A  
HETATM   12  C   UNL     1     -11.189  16.035  70.310  1.00  0.00    -0.397 A  
HETATM   13  C   UNL     1     -10.598  17.050  69.578  1.00  0.00    -0.168 A  
HETATM   14  C   UNL     1     -10.370  16.858  68.221  1.00  0.00    -0.335 A  
HETATM   15  C   UNL     1     -10.747  15.660  67.574  1.00  0.00    -0.303 A  
HETATM   16  S   UNL     1     -10.311  15.573  65.865  1.00  0.00    -0.373 SA 
HETATM   17  C   UNL     1     -10.902  13.994  65.350  1.00  0.00    -0.328 A  
HETATM   18  C   UNL     1     -10.541  13.613  64.043  1.00  0.00     0.127 A  
HETATM   19  C   UNL     1     -11.006  12.431  63.478  1.00  0.00    -0.506 A  
HETATM   20  C   UNL     1     -11.883  11.638  64.198  1.00  0.00    -0.264 A  
HETATM   21  C   UNL     1     -12.246  12.009  65.495  1.00  0.00     0.082 A  
HETATM   22  C   UNL     1     -11.708  13.155  66.128  1.00  0.00    -0.428 A  
ENDBRANCH   8   9
ENDBRANCH   6   8
TORSDOF 2
ENDMDL
MODEL      105
REMARK 921   NORMALIZED FREE ENERGY PREDICTED BY IDOCK:   -4.87 KCAL/MOL
REMARK 922        TOTAL FREE ENERGY PREDICTED BY IDOCK:   -5.83 KCAL/MOL
REMARK 923 INTER-LIGAND FREE ENERGY PREDICTED BY IDOCK:   -5.22 KCAL/MOL
REMARK 924 INTRA-LIGAND FREE ENERGY PREDICTED BY IDOCK:   -0.61 KCAL/MOL
REMARK 927      BINDING AFFINITY PREDICTED BY RF-SCORE:    0.00 PKD
ROOT
HETATM    1  C   UNL     1     -13.022  12.196  63.577  1.00  0.00    -0.181 C  
HETATM    2  N   UNL     1     -11.745  12.900  63.649  1.00  0.00    -0.487 NA 
HETATM    3  C   UNL     1     -11.856  14.236  64.240  1.00  0.00    -0.379 C  
HETATM    4  C   UNL     1     -12.077  14.217  65.752  1.00  0.00    -0.433 C  
HETATM    5  C   UNL     1     -11.007  13.391  66.462  1.00  0.00    -0.299 C  
HETATM    6  C   UNL     1     -10.859  11.983  65.844  1.00  0.00    -0.329 C  
HETATM    7  C   UNL     1     -10.710  12.101  64.314  1.00  0.00    -0.338 C  
ENDROOT
BRANCH   6   8
HETATM    8  C   UNL     1      -9.666  11.268  66.525  1.00  0.00    -0.230 C  
BRANCH   8   9
HETATM    9  C   UNL     1      -9.851   9.778  66.990  1.00  0.00    -0.245 C  
HETATM   10  C   UNL     1      -8.851   8.811  66.339  1.00  0.00    -0.175 A  
HETATM   11  C   UNL     1      -8.517   8.962  64.971  1.00  0.00    -0.194 A  
HETATM   12  C   UNL     1      -7.743   8.022  64.282  1.00  0.00    -0.128 A  
HETATM   13  C   UNL     1      -7.300   6.883  64.933  1.00  0.00    -0.087 A  
HETATM   14  C   UNL     1      -7.591   6.722  66.282  1.00  0.00    -0.086 A  
HETATM   15  C   UNL     1      -8.342   7.683  66.993  1.00  0.00    -0.124 A  
HETATM   16  S   UNL     1      -8.546   7.338  68.713  1.00  0.00    -0.128 SA 
HETATM   17  C   UNL     1      -9.506   8.691  69.312  1.00  0.00    -0.158 A  
HETATM   18  C   UNL     1      -9.684   8.732  70.709  1.00  0.00    -0.257 A  
HETATM   19  C   UNL     1     -10.486   9.695  71.310  1.00  0.00    -0.216 A  
HETATM   20  C   UNL     1     -11.164  10.601  70.512  1.00  0.00    -0.270 A  
HETATM   21  C   UNL     1     -10.994  10.568  69.126  1.00  0.00    -0.286 A  
HETATM   22  C   UNL     1     -10.106   9.660  68.499  1.00  0.00    -0.195 A  
ENDBRANCH   8   9
ENDBRANCH   6   8
TORSDOF 2
ENDMDL
MODEL      106
REMARK 921   NORMALIZED FREE ENERGY PREDICTED BY IDOCK:   -4.84 KCAL/MOL
REMARK 922        TOTAL FREE ENERGY PREDICTED BY IDOCK:   -5.80 KCAL/MOL
REMARK 923 INTER-LIGAND FREE ENERGY PREDICTED BY IDOCK:   -5.05 KCAL/MOL
REMARK 924 INTRA-LIGAND FREE ENERGY PREDICTED BY IDOCK:   -0.75 KCAL/MOL
REMARK 927      BINDING AFFINITY PREDICTED BY RF-SCORE:    0.00 PKD
ROOT
HETATM    1  C   UNL     1      -9.324   3.742  72.049  1.00  0.00    -0.128 C  
HETATM    2  N   UNL     1     -10.427   4.697  72.035  1.00  0.00    -0.168 NA 
HETATM    3  C   UNL     1     -11.134   4.779  73.316  1.00  0.00    -0.333 C  
HETATM    4  C   UNL     1     -10.345   5.511  74.401  1.00  0.00    -0.282 C  
HETATM    5  C   UNL     1      -9.900   6.892  73.932  1.00  0.00    -0.340 C  
HETATM    6  C   UNL     1      -9.167   6.834  72.573  1.00  0.00    -0.146 C  
HETATM    7  C   UNL     1     -10.007   6.021  71.566  1.00  0.00    -0.177 C  
ENDROOT
BRANCH   6   8
HETATM    8  C   UNL     1      -8.878   8.281  72.104  1.00  0.00    -0.265 C  
BRANCH   8   9
HETATM    9  C   UNL     1      -9.384   8.725  70.684  1.00  0.00    -0.234 C  
HETATM   10  C   UNL     1     -10.586   9.679  70.740  1.00  0.00    -0.392 A  
HETATM   11  C   UNL     1     -11.614   9.459  71.688  1.00  0.00    -0.466 A  
HETATM   12  C   UNL     1     -12.807  10.191  71.682  1.00  0.00    -0.559 A  
HETATM   13  C   UNL     1     -13.022  11.151  70.709  1.00  0.00    -0.223 A  
HETATM   14  C   UNL     1     -12.018  11.407  69.781  1.00  0.00    -0.422 A  
HETATM   15  C   UNL     1     -10.798  10.697  69.802  1.00  0.00    -0.261 A  
HETATM   16  S   UNL     1      -9.621  11.213  68.592  1.00  0.00    -0.178 SA 
HETATM   17  C   UNL     1      -8.232  10.160  68.866  1.00  0.00    -0.124 A  
HETATM   18  C   UNL     1      -7.082  10.472  68.115  1.00  0.00    -0.082 A  
HETATM   19  C   UNL     1      -5.943   9.678  68.169  1.00  0.00    -0.047 A  
HETATM   20  C   UNL     1      -5.960   8.528  68.940  1.00  0.00    -0.044 A  
HETATM   21  C   UNL     1      -7.096   8.210  69.687  1.00  0.00    -0.057 A  
HETATM   22  C   UNL     1      -8.232   9.055  69.725  1.00  0.00    -0.122 A  
ENDBRANCH   8   9
ENDBRANCH   6   8
TORSDOF 2
ENDMDL
MODEL      107
REMARK 921   NORMALIZED FREE ENERGY PREDICTED BY IDOCK:   -4.83 KCAL/MOL
REMARK 922        TOTAL FREE ENERGY PREDICTED BY IDOCK:   -5.79 KCAL/MOL
REMARK 923 INTER-LIGAND FREE ENERGY PREDICTED BY IDOCK:   -5.03 KCAL/MOL
REMARK 924 INTRA-LIGAND FREE ENERGY PREDICTED BY IDOCK:   -0.76 KCAL/MOL
REMARK 927      BINDING AFFINITY PREDICTED BY RF-SCORE:    0.00 PKD
ROOT
HETATM    1  C   UNL     1     -12.230  12.580  65.322  1.00  0.00    -0.433 C  
HETATM    2  N   UNL     1     -11.262  13.528  65.863  1.00  0.00    -0.299 NA 
HETATM    3  C   UNL     1     -11.844  14.448  66.844  1.00  0.00    -0.410 C  
HETATM    4  C   UNL     1     -12.146  13.789  68.191  1.00  0.00    -0.316 C  
HETATM    5  C   UNL     1     -10.914  13.090  68.758  1.00  0.00    -0.295 C  
HETATM    6  C   UNL     1     -10.272  12.128  67.735  1.00  0.00    -0.207 C  
HETATM    7  C   UNL     1     -10.069  12.860  66.393  1.00  0.00    -0.269 C  
ENDROOT
BRANCH   6   8
HETATM    8  C   UNL     1      -8.958  11.572  68.336  1.00  0.00    -0.173 C  
BRANCH   8   9
HETATM    9  C   UNL     1      -8.712  10.020  68.295  1.00  0.00    -0.119 C  
HETATM   10  C   UNL     1      -9.736   9.223  69.115  1.00  0.00    -0.164 A  
HETATM   11  C   UNL     1     -10.169   9.716  70.370  1.00  0.00    -0.348 A  
HETATM   12  C   UNL     1     -10.971   8.962  71.234  1.00  0.00    -0.363 A  
HETATM   13  C   UNL     1     -11.345   7.676  70.882  1.00  0.00    -0.291 A  
HETATM   14  C   UNL     1     -10.956   7.176  69.645  1.00  0.00    -0.236 A  
HETATM   15  C   UNL     1     -10.176   7.943  68.753  1.00  0.00    -0.205 A  
HETATM   16  S   UNL     1      -9.844   7.166  67.203  1.00  0.00    -0.198 SA 
HETATM   17  C   UNL     1      -8.870   8.348  66.328  1.00  0.00    -0.159 A  
HETATM   18  C   UNL     1      -8.596   8.026  64.984  1.00  0.00    -0.037 A  
HETATM   19  C   UNL     1      -7.772   8.825  64.201  1.00  0.00    -0.130 A  
HETATM   20  C   UNL     1      -7.170   9.934  64.770  1.00  0.00    -0.136 A  
HETATM   21  C   UNL     1      -7.436  10.261  66.102  1.00  0.00    -0.121 A  
HETATM   22  C   UNL     1      -8.349   9.518  66.890  1.00  0.00    -0.116 A  
ENDBRANCH   8   9
ENDBRANCH   6   8
TORSDOF 2
ENDMDL
MODEL      108
REMARK 921   NORMALIZED FREE ENERGY PREDICTED BY IDOCK:   -4.83 KCAL/MOL
REMARK 922        TOTAL FREE ENERGY PREDICTED BY IDOCK:   -5.79 KCAL/MOL
REMARK 923 INTER-LIGAND FREE ENERGY PREDICTED BY IDOCK:   -5.22 KCAL/MOL
REMARK 924 INTRA-LIGAND FREE ENERGY PREDICTED BY IDOCK:   -0.56 KCAL/MOL
REMARK 927      BINDING AFFINITY PREDICTED BY RF-SCORE:    0.00 PKD
ROOT
HETATM    1  C   UNL     1      -5.552   8.884  66.650  1.00  0.00    -0.040 C  
HETATM    2  N   UNL     1      -6.068   8.795  68.011  1.00  0.00    -0.050 NA 
HETATM    3  C   UNL     1      -5.679   9.931  68.851  1.00  0.00    -0.035 C  
HETATM    4  C   UNL     1      -6.427  11.221  68.514  1.00  0.00    -0.051 C  
HETATM    5  C   UNL     1      -7.938  11.013  68.541  1.00  0.00    -0.137 C  
HETATM    6  C   UNL     1      -8.371   9.808  67.677  1.00  0.00    -0.114 C  
HETATM    7  C   UNL     1      -7.518   8.576  68.040  1.00  0.00    -0.097 C  
ENDROOT
BRANCH   6   8
HETATM    8  C   UNL     1      -9.891   9.582  67.871  1.00  0.00    -0.186 C  
BRANCH   8   9
HETATM    9  C   UNL     1     -10.891  10.618  67.241  1.00  0.00    -0.345 C  
HETATM   10  C   UNL     1     -11.285  11.744  68.208  1.00  0.00    -0.313 A  
HETATM   11  C   UNL     1     -11.528  11.447  69.571  1.00  0.00    -0.381 A  
HETATM   12  C   UNL     1     -12.046  12.393  70.462  1.00  0.00    -0.363 A  
HETATM   13  C   UNL     1     -12.364  13.663  70.012  1.00  0.00    -0.342 A  
HETATM   14  C   UNL     1     -12.111  13.991  68.685  1.00  0.00    -0.332 A  
HETATM   15  C   UNL     1     -11.557  13.052  67.788  1.00  0.00    -0.340 A  
HETATM   16  S   UNL     1     -11.241  13.675  66.167  1.00  0.00    -0.307 SA 
HETATM   17  C   UNL     1     -10.565  12.296  65.299  1.00  0.00    -0.287 A  
HETATM   18  C   UNL     1     -10.083  12.575  64.006  1.00  0.00    -0.316 A  
HETATM   19  C   UNL     1      -9.600  11.568  63.179  1.00  0.00    -0.381 A  
HETATM   20  C   UNL     1      -9.641  10.256  63.620  1.00  0.00    -0.334 A  
HETATM   21  C   UNL     1     -10.118   9.970  64.901  1.00  0.00    -0.184 A  
HETATM   22  C   UNL     1     -10.523  10.989  65.798  1.00  0.00    -0.290 A  
ENDBRANCH   8   9
ENDBRANCH   6   8
TORSDOF 2
ENDMDL
MODEL      109
REMARK 921   NORMALIZED FREE ENERGY PREDICTED BY IDOCK:   -4.82 KCAL/MOL
REMARK 922        TOTAL FREE ENERGY PREDICTED BY IDOCK:   -5.78 KCAL/MOL
REMARK 923 INTER-LIGAND FREE ENERGY PREDICTED BY IDOCK:   -5.18 KCAL/MOL
REMARK 924 INTRA-LIGAND FREE ENERGY PREDICTED BY IDOCK:   -0.59 KCAL/MOL
REMARK 927      BINDING AFFINITY PREDICTED BY RF-SCORE:    0.00 PKD
ROOT
HETATM    1  C   UNL     1     -11.336   7.630  72.881  1.00  0.00    -0.341 C  
HETATM    2  N   UNL     1     -12.253   7.613  71.746  1.00  0.00    -0.300 NA 
HETATM    3  C   UNL     1     -13.496   8.347  71.999  1.00  0.00    -0.350 C  
HETATM    4  C   UNL     1     -13.317   9.865  71.997  1.00  0.00    -0.532 C  
HETATM    5  C   UNL     1     -12.648  10.347  70.714  1.00  0.00    -0.462 C  
HETATM    6  C   UNL     1     -11.343   9.575  70.416  1.00  0.00    -0.318 C  
HETATM    7  C   UNL     1     -11.607   8.058  70.507  1.00  0.00    -0.134 C  
ENDROOT
BRANCH   6   8
HETATM    8  C   UNL     1     -10.807  10.024  69.034  1.00  0.00    -0.253 C  
BRANCH   8   9
HETATM    9  C   UNL     1      -9.852  11.270  68.969  1.00  0.00    -0.101 C  
HETATM   10  C   UNL     1      -8.363  10.893  68.972  1.00  0.00    -0.118 A  
HETATM   11  C   UNL     1      -7.905   9.845  69.807  1.00  0.00    -0.169 A  
HETATM   12  C   UNL     1      -6.545   9.563  69.977  1.00  0.00    -0.065 A  
HETATM   13  C   UNL     1      -5.595  10.340  69.336  1.00  0.00    -0.037 A  
HETATM   14  C   UNL     1      -6.016  11.359  68.490  1.00  0.00    -0.045 A  
HETATM   15  C   UNL     1      -7.387  11.627  68.287  1.00  0.00    -0.093 A  
HETATM   16  S   UNL     1      -7.726  12.910  67.122  1.00  0.00     0.023 SA 
HETATM   17  C   UNL     1      -9.486  13.007  67.087  1.00  0.00    -0.230 A  
HETATM   18  C   UNL     1     -10.023  13.867  66.109  1.00  0.00    -0.322 A  
HETATM   19  C   UNL     1     -11.390  14.102  66.023  1.00  0.00    -0.330 A  
HETATM   20  C   UNL     1     -12.235  13.518  66.951  1.00  0.00    -0.377 A  
HETATM   21  C   UNL     1     -11.711  12.664  67.924  1.00  0.00    -0.412 A  
HETATM   22  C   UNL     1     -10.336  12.331  67.971  1.00  0.00    -0.220 A  
ENDBRANCH   8   9
ENDBRANCH   6   8
TORSDOF 2
ENDMDL
MODEL      110
REMARK 921   NORMALIZED FREE ENERGY PREDICTED BY IDOCK:   -4.81 KCAL/MOL
REMARK 922        TOTAL FREE ENERGY PREDICTED BY IDOCK:   -5.77 KCAL/MOL
REMARK 923 INTER-LIGAND FREE ENERGY PREDICTED BY IDOCK:   -5.11 KCAL/MOL
REMARK 924 INTRA-LIGAND FREE ENERGY PREDICTED BY IDOCK:   -0.66 KCAL/MOL
REMARK 927      BINDING AFFINITY PREDICTED BY RF-SCORE:    0.00 PKD
ROOT
HETATM    1  C   UNL     1      -9.674  11.754  64.643  1.00  0.00    -0.149 C  
HETATM    2  N   UNL     1      -9.074  10.427  64.738  1.00  0.00    -0.196 NA 
HETATM    3  C   UNL     1      -7.697  10.452  65.237  1.00  0.00    -0.124 C  
HETATM    4  C   UNL     1      -7.597  10.744  66.735  1.00  0.00    -0.129 C  
HETATM    5  C   UNL     1      -8.458   9.783  67.549  1.00  0.00    -0.122 C  
HETATM    6  C   UNL     1      -9.912   9.726  67.029  1.00  0.00    -0.259 C  
HETATM    7  C   UNL     1      -9.908   9.496  65.505  1.00  0.00    -0.234 C  
ENDROOT
BRANCH   6   8
HETATM    8  C   UNL     1     -10.675   8.631  67.814  1.00  0.00    -0.178 C  
BRANCH   8   9
HETATM    9  C   UNL     1     -10.409   8.490  69.356  1.00  0.00    -0.218 C  
HETATM   10  C   UNL     1     -11.399   9.287  70.218  1.00  0.00    -0.238 A  
HETATM   11  C   UNL     1     -11.805  10.581  69.808  1.00  0.00    -0.329 A  
HETATM   12  C   UNL     1     -12.572  11.418  70.624  1.00  0.00    -0.360 A  
HETATM   13  C   UNL     1     -12.937  10.999  71.892  1.00  0.00    -0.485 A  
HETATM   14  C   UNL     1     -12.576   9.724  72.311  1.00  0.00    -0.264 A  
HETATM   15  C   UNL     1     -11.830   8.860  71.480  1.00  0.00    -0.332 A  
HETATM   16  S   UNL     1     -11.531   7.258  72.157  1.00  0.00    -0.283 SA 
HETATM   17  C   UNL     1     -10.598   6.430  70.910  1.00  0.00    -0.236 A  
HETATM   18  C   UNL     1     -10.355   5.063  71.147  1.00  0.00    -0.254 A  
HETATM   19  C   UNL     1      -9.564   4.308  70.288  1.00  0.00    -0.269 A  
HETATM   20  C   UNL     1      -8.963   4.927  69.206  1.00  0.00    -0.129 A  
HETATM   21  C   UNL     1      -9.197   6.283  68.964  1.00  0.00    -0.127 A  
HETATM   22  C   UNL     1     -10.077   7.049  69.767  1.00  0.00    -0.197 A  
ENDBRANCH   8   9
ENDBRANCH   6   8
TORSDOF 2
ENDMDL
MODEL      111
REMARK 921   NORMALIZED FREE ENERGY PREDICTED BY IDOCK:   -4.80 KCAL/MOL
REMARK 922        TOTAL FREE ENERGY PREDICTED BY IDOCK:   -5.76 KCAL/MOL
REMARK 923 INTER-LIGAND FREE ENERGY PREDICTED BY IDOCK:   -5.17 KCAL/MOL
REMARK 924 INTRA-LIGAND FREE ENERGY PREDICTED BY IDOCK:   -0.59 KCAL/MOL
REMARK 927      BINDING AFFINITY PREDICTED BY RF-SCORE:    0.00 PKD
ROOT
HETATM    1  C   UNL     1      -7.778   8.830  68.206  1.00  0.00    -0.100 C  
HETATM    2  N   UNL     1      -8.275   9.589  67.064  1.00  0.00    -0.113 NA 
HETATM    3  C   UNL     1      -9.468   8.996  66.454  1.00  0.00    -0.226 C  
HETATM    4  C   UNL     1     -10.734   9.180  67.290  1.00  0.00    -0.224 C  
HETATM    5  C   UNL     1     -10.967  10.648  67.635  1.00  0.00    -0.370 C  
HETATM    6  C   UNL     1      -9.715  11.300  68.264  1.00  0.00    -0.199 C  
HETATM    7  C   UNL     1      -8.482  11.004  67.387  1.00  0.00    -0.132 C  
ENDROOT
BRANCH   6   8
HETATM    8  C   UNL     1      -9.987  12.813  68.451  1.00  0.00    -0.210 C  
BRANCH   8   9
HETATM    9  C   UNL     1      -9.407  13.817  67.391  1.00  0.00    -0.226 C  
HETATM   10  C   UNL     1     -10.458  14.316  66.390  1.00  0.00    -0.282 A  
HETATM   11  C   UNL     1     -11.426  13.417  65.879  1.00  0.00    -0.344 A  
HETATM   12  C   UNL     1     -12.303  13.768  64.847  1.00  0.00    -0.435 A  
HETATM   13  C   UNL     1     -12.224  15.025  64.272  1.00  0.00    -0.312 A  
HETATM   14  C   UNL     1     -11.301  15.937  64.771  1.00  0.00    -0.314 A  
HETATM   15  C   UNL     1     -10.436  15.602  65.835  1.00  0.00    -0.344 A  
HETATM   16  S   UNL     1      -9.387  16.914  66.377  1.00  0.00    -0.274 SA 
HETATM   17  C   UNL     1      -8.445  16.200  67.687  1.00  0.00    -0.168 A  
HETATM   18  C   UNL     1      -7.626  17.098  68.398  1.00  0.00    -0.231 A  
HETATM   19  C   UNL     1      -6.769  16.658  69.400  1.00  0.00    -0.218 A  
HETATM   20  C   UNL     1      -6.684  15.303  69.669  1.00  0.00    -0.181 A  
HETATM   21  C   UNL     1      -7.493  14.405  68.968  1.00  0.00    -0.119 A  
HETATM   22  C   UNL     1      -8.444  14.839  68.012  1.00  0.00    -0.151 A  
ENDBRANCH   8   9
ENDBRANCH   6   8
TORSDOF 2
ENDMDL
MODEL      112
REMARK 921   NORMALIZED FREE ENERGY PREDICTED BY IDOCK:   -4.78 KCAL/MOL
REMARK 922        TOTAL FREE ENERGY PREDICTED BY IDOCK:   -5.74 KCAL/MOL
REMARK 923 INTER-LIGAND FREE ENERGY PREDICTED BY IDOCK:   -5.05 KCAL/MOL
REMARK 924 INTRA-LIGAND FREE ENERGY PREDICTED BY IDOCK:   -0.69 KCAL/MOL
REMARK 927      BINDING AFFINITY PREDICTED BY RF-SCORE:    0.00 PKD
ROOT
HETATM    1  C   UNL     1      -7.789   6.325  66.655  1.00  0.00    -0.104 C  
HETATM    2  N   UNL     1      -7.689   7.780  66.593  1.00  0.00    -0.096 NA 
HETATM    3  C   UNL     1      -8.728   8.394  65.762  1.00  0.00    -0.169 C  
HETATM    4  C   UNL     1     -10.111   8.387  66.413  1.00  0.00    -0.242 C  
HETATM    5  C   UNL     1     -10.077   9.018  67.802  1.00  0.00    -0.260 C  
HETATM    6  C   UNL     1      -8.976   8.399  68.692  1.00  0.00    -0.140 C  
HETATM    7  C   UNL     1      -7.638   8.387  67.927  1.00  0.00    -0.099 C  
ENDROOT
BRANCH   6   8
HETATM    8  C   UNL     1      -8.916   9.186  70.024  1.00  0.00    -0.201 C  
BRANCH   8   9
HETATM    9  C   UNL     1      -9.660   8.597  71.277  1.00  0.00    -0.292 C  
HETATM   10  C   UNL     1     -11.141   8.996  71.346  1.00  0.00    -0.399 A  
HETATM   11  C   UNL     1     -11.532  10.312  70.995  1.00  0.00    -0.386 A  
HETATM   12  C   UNL     1     -12.835  10.782  71.191  1.00  0.00    -0.513 A  
HETATM   13  C   UNL     1     -13.785   9.960  71.771  1.00  0.00    -0.268 A  
HETATM   14  C   UNL     1     -13.437   8.656  72.101  1.00  0.00    -0.434 A  
HETATM   15  C   UNL     1     -12.133   8.162  71.875  1.00  0.00    -0.323 A  
HETATM   16  S   UNL     1     -11.903   6.462  72.291  1.00  0.00    -0.223 SA 
HETATM   17  C   UNL     1     -10.211   6.149  71.904  1.00  0.00    -0.200 A  
HETATM   18  C   UNL     1      -9.808   4.804  72.008  1.00  0.00    -0.234 A  
HETATM   19  C   UNL     1      -8.485   4.426  71.812  1.00  0.00    -0.116 A  
HETATM   20  C   UNL     1      -7.536   5.401  71.560  1.00  0.00    -0.101 A  
HETATM   21  C   UNL     1      -7.926   6.738  71.456  1.00  0.00    -0.102 A  
HETATM   22  C   UNL     1      -9.282   7.135  71.553  1.00  0.00    -0.148 A  
ENDBRANCH   8   9
ENDBRANCH   6   8
TORSDOF 2
ENDMDL
MODEL      113
REMARK 921   NORMALIZED FREE ENERGY PREDICTED BY IDOCK:   -4.77 KCAL/MOL
REMARK 922        TOTAL FREE ENERGY PREDICTED BY IDOCK:   -5.72 KCAL/MOL
REMARK 923 INTER-LIGAND FREE ENERGY PREDICTED BY IDOCK:   -5.06 KCAL/MOL
REMARK 924 INTRA-LIGAND FREE ENERGY PREDICTED BY IDOCK:   -0.67 KCAL/MOL
REMARK 927      BINDING AFFINITY PREDICTED BY RF-SCORE:    0.00 PKD
ROOT
HETATM    1  C   UNL     1     -12.573  14.068  65.682  1.00  0.00    -0.512 C  
HETATM    2  N   UNL     1     -11.371  14.394  66.442  1.00  0.00    -0.342 NA 
HETATM    3  C   UNL     1     -11.659  14.868  67.799  1.00  0.00    -0.339 C  
HETATM    4  C   UNL     1     -12.115  13.759  68.747  1.00  0.00    -0.344 C  
HETATM    5  C   UNL     1     -11.121  12.602  68.771  1.00  0.00    -0.307 C  
HETATM    6  C   UNL     1     -10.788  12.096  67.350  1.00  0.00    -0.286 C  
HETATM    7  C   UNL     1     -10.406  13.290  66.451  1.00  0.00    -0.286 C  
ENDROOT
BRANCH   6   8
HETATM    8  C   UNL     1      -9.674  11.025  67.454  1.00  0.00    -0.189 C  
BRANCH   8   9
HETATM    9  C   UNL     1      -9.975   9.576  66.926  1.00  0.00    -0.278 C  
HETATM   10  C   UNL     1      -9.206   9.227  65.644  1.00  0.00    -0.291 A  
HETATM   11  C   UNL     1      -9.053  10.202  64.628  1.00  0.00    -0.268 A  
HETATM   12  C   UNL     1      -8.508   9.899  63.376  1.00  0.00    -0.182 A  
HETATM   13  C   UNL     1      -8.123   8.601  63.087  1.00  0.00    -0.170 A  
HETATM   14  C   UNL     1      -8.237   7.629  64.073  1.00  0.00     0.018 A  
HETATM   15  C   UNL     1      -8.754   7.934  65.352  1.00  0.00    -0.046 A  
HETATM   16  S   UNL     1      -8.753   6.586  66.492  1.00  0.00    -0.139 SA 
HETATM   17  C   UNL     1      -9.442   7.268  67.965  1.00  0.00    -0.136 A  
HETATM   18  C   UNL     1      -9.413   6.422  69.091  1.00  0.00    -0.137 A  
HETATM   19  C   UNL     1      -9.995   6.798  70.295  1.00  0.00    -0.192 A  
HETATM   20  C   UNL     1     -10.661   8.009  70.373  1.00  0.00    -0.233 A  
HETATM   21  C   UNL     1     -10.695   8.855  69.261  1.00  0.00    -0.177 A  
HETATM   22  C   UNL     1     -10.025   8.537  68.055  1.00  0.00    -0.221 A  
ENDBRANCH   8   9
ENDBRANCH   6   8
TORSDOF 2
ENDMDL
MODEL      114
REMARK 921   NORMALIZED FREE ENERGY PREDICTED BY IDOCK:   -4.76 KCAL/MOL
REMARK 922        TOTAL FREE ENERGY PREDICTED BY IDOCK:   -5.71 KCAL/MOL
REMARK 923 INTER-LIGAND FREE ENERGY PREDICTED BY IDOCK:   -5.00 KCAL/MOL
REMARK 924 INTRA-LIGAND FREE ENERGY PREDICTED BY IDOCK:   -0.71 KCAL/MOL
REMARK 927      BINDING AFFINITY PREDICTED BY RF-SCORE:    0.00 PKD
ROOT
HETATM    1  C   UNL     1     -13.242  10.261  70.754  1.00  0.00    -0.216 C  
HETATM    2  N   UNL     1     -12.763   9.603  71.965  1.00  0.00    -0.390 NA 
HETATM    3  C   UNL     1     -13.621   8.495  72.396  1.00  0.00    -0.279 C  
HETATM    4  C   UNL     1     -13.497   7.252  71.515  1.00  0.00    -0.439 C  
HETATM    5  C   UNL     1     -12.046   6.802  71.386  1.00  0.00    -0.415 C  
HETATM    6  C   UNL     1     -11.118   7.957  70.949  1.00  0.00    -0.268 C  
HETATM    7  C   UNL     1     -11.362   9.185  71.849  1.00  0.00    -0.346 C  
ENDROOT
BRANCH   6   8
HETATM    8  C   UNL     1      -9.653   7.455  70.979  1.00  0.00    -0.161 C  
BRANCH   8   9
HETATM    9  C   UNL     1      -8.984   7.013  69.628  1.00  0.00    -0.141 C  
HETATM   10  C   UNL     1      -9.306   5.563  69.238  1.00  0.00    -0.153 A  
HETATM   11  C   UNL     1      -9.336   4.557  70.235  1.00  0.00    -0.218 A  
HETATM   12  C   UNL     1      -9.462   3.199  69.924  1.00  0.00    -0.203 A  
HETATM   13  C   UNL     1      -9.533   2.798  68.600  1.00  0.00    -0.191 A  
HETATM   14  C   UNL     1      -9.532   3.765  67.602  1.00  0.00    -0.234 A  
HETATM   15  C   UNL     1      -9.441   5.140  67.910  1.00  0.00    -0.129 A  
HETATM   16  S   UNL     1      -9.528   6.218  66.514  1.00  0.00    -0.133 SA 
HETATM   17  C   UNL     1      -9.389   7.834  67.208  1.00  0.00    -0.145 A  
HETATM   18  C   UNL     1      -9.582   8.896  66.304  1.00  0.00    -0.328 A  
HETATM   19  C   UNL     1      -9.421  10.220  66.696  1.00  0.00    -0.203 A  
HETATM   20  C   UNL     1      -9.011  10.495  67.990  1.00  0.00    -0.135 A  
HETATM   21  C   UNL     1      -8.817   9.447  68.893  1.00  0.00    -0.136 A  
HETATM   22  C   UNL     1      -9.071   8.098  68.545  1.00  0.00    -0.136 A  
ENDBRANCH   8   9
ENDBRANCH   6   8
TORSDOF 2
ENDMDL
MODEL      115
REMARK 921   NORMALIZED FREE ENERGY PREDICTED BY IDOCK:   -4.75 KCAL/MOL
REMARK 922        TOTAL FREE ENERGY PREDICTED BY IDOCK:   -5.70 KCAL/MOL
REMARK 923 INTER-LIGAND FREE ENERGY PREDICTED BY IDOCK:   -5.05 KCAL/MOL
REMARK 924 INTRA-LIGAND FREE ENERGY PREDICTED BY IDOCK:   -0.65 KCAL/MOL
REMARK 927      BINDING AFFINITY PREDICTED BY RF-SCORE:    0.00 PKD
ROOT
HETATM    1  C   UNL     1     -10.234   5.565  71.293  1.00  0.00    -0.222 C  
HETATM    2  N   UNL     1     -11.090   6.734  71.121  1.00  0.00    -0.259 NA 
HETATM    3  C   UNL     1     -10.581   7.927  71.802  1.00  0.00    -0.226 C  
HETATM    4  C   UNL     1      -9.369   8.552  71.110  1.00  0.00    -0.249 C  
HETATM    5  C   UNL     1      -9.654   8.841  69.640  1.00  0.00    -0.171 C  
HETATM    6  C   UNL     1     -10.209   7.602  68.904  1.00  0.00    -0.217 C  
HETATM    7  C   UNL     1     -11.380   7.003  69.708  1.00  0.00    -0.182 C  
ENDROOT
BRANCH   6   8
HETATM    8  C   UNL     1     -10.602   8.016  67.464  1.00  0.00    -0.302 C  
BRANCH   8   9
HETATM    9  C   UNL     1      -9.559   8.819  66.604  1.00  0.00    -0.283 C  
HETATM   10  C   UNL     1      -8.716   7.924  65.684  1.00  0.00    -0.145 A  
HETATM   11  C   UNL     1      -8.249   6.673  66.156  1.00  0.00    -0.124 A  
HETATM   12  C   UNL     1      -7.346   5.889  65.430  1.00  0.00    -0.076 A  
HETATM   13  C   UNL     1      -6.857   6.344  64.217  1.00  0.00    -0.039 A  
HETATM   14  C   UNL     1      -7.318   7.557  63.717  1.00  0.00    -0.093 A  
HETATM   15  C   UNL     1      -8.256   8.337  64.428  1.00  0.00    -0.127 A  
HETATM   16  S   UNL     1      -8.775   9.807  63.599  1.00  0.00    -0.236 SA 
HETATM   17  C   UNL     1      -9.920  10.550  64.716  1.00  0.00    -0.345 A  
HETATM   18  C   UNL     1     -10.602  11.677  64.218  1.00  0.00    -0.394 A  
HETATM   19  C   UNL     1     -11.472  12.409  65.017  1.00  0.00    -0.378 A  
HETATM   20  C   UNL     1     -11.632  12.051  66.344  1.00  0.00    -0.381 A  
HETATM   21  C   UNL     1     -10.959  10.934  66.847  1.00  0.00    -0.286 A  
HETATM   22  C   UNL     1     -10.145  10.115  66.027  1.00  0.00    -0.317 A  
ENDBRANCH   8   9
ENDBRANCH   6   8
TORSDOF 2
ENDMDL
MODEL      116
REMARK 921   NORMALIZED FREE ENERGY PREDICTED BY IDOCK:   -4.75 KCAL/MOL
REMARK 922        TOTAL FREE ENERGY PREDICTED BY IDOCK:   -5.70 KCAL/MOL
REMARK 923 INTER-LIGAND FREE ENERGY PREDICTED BY IDOCK:   -5.07 KCAL/MOL
REMARK 924 INTRA-LIGAND FREE ENERGY PREDICTED BY IDOCK:   -0.63 KCAL/MOL
REMARK 927      BINDING AFFINITY PREDICTED BY RF-SCORE:    0.00 PKD
ROOT
HETATM    1  C   UNL     1      -7.086   8.562  68.422  1.00  0.00    -0.084 C  
HETATM    2  N   UNL     1      -6.716   9.756  69.174  1.00  0.00    -0.052 NA 
HETATM    3  C   UNL     1      -5.442  10.337  68.741  1.00  0.00    -0.038 C  
HETATM    4  C   UNL     1      -5.526  11.054  67.394  1.00  0.00    -0.047 C  
HETATM    5  C   UNL     1      -6.635  12.101  67.388  1.00  0.00    -0.147 C  
HETATM    6  C   UNL     1      -7.985  11.516  67.857  1.00  0.00    -0.126 C  
HETATM    7  C   UNL     1      -7.788  10.757  69.185  1.00  0.00    -0.142 C  
ENDROOT
BRANCH   6   8
HETATM    8  C   UNL     1      -9.016  12.669  67.957  1.00  0.00    -0.200 C  
BRANCH   8   9
HETATM    9  C   UNL     1      -9.140  13.670  66.752  1.00  0.00    -0.230 C  
HETATM   10  C   UNL     1     -10.219  13.266  65.737  1.00  0.00    -0.296 A  
HETATM   11  C   UNL     1     -10.380  11.904  65.387  1.00  0.00    -0.306 A  
HETATM   12  C   UNL     1     -11.229  11.491  64.354  1.00  0.00    -0.327 A  
HETATM   13  C   UNL     1     -11.926  12.434  63.617  1.00  0.00    -0.626 A  
HETATM   14  C   UNL     1     -11.807  13.776  63.955  1.00  0.00    -0.410 A  
HETATM   15  C   UNL     1     -10.979  14.197  65.019  1.00  0.00    -0.384 A  
HETATM   16  S   UNL     1     -11.015  15.932  65.343  1.00  0.00    -0.237 SA 
HETATM   17  C   UNL     1      -9.903  16.141  66.696  1.00  0.00    -0.249 A  
HETATM   18  C   UNL     1      -9.866  17.435  67.251  1.00  0.00    -0.278 A  
HETATM   19  C   UNL     1      -8.976  17.762  68.267  1.00  0.00    -0.277 A  
HETATM   20  C   UNL     1      -8.073  16.809  68.706  1.00  0.00    -0.252 A  
HETATM   21  C   UNL     1      -8.103  15.523  68.161  1.00  0.00    -0.132 A  
HETATM   22  C   UNL     1      -9.065  15.138  67.196  1.00  0.00    -0.226 A  
ENDBRANCH   8   9
ENDBRANCH   6   8
TORSDOF 2
ENDMDL
MODEL      117
REMARK 921   NORMALIZED FREE ENERGY PREDICTED BY IDOCK:   -4.75 KCAL/MOL
REMARK 922        TOTAL FREE ENERGY PREDICTED BY IDOCK:   -5.70 KCAL/MOL
REMARK 923 INTER-LIGAND FREE ENERGY PREDICTED BY IDOCK:   -5.42 KCAL/MOL
REMARK 924 INTRA-LIGAND FREE ENERGY PREDICTED BY IDOCK:   -0.28 KCAL/MOL
REMARK 927      BINDING AFFINITY PREDICTED BY RF-SCORE:    0.00 PKD
ROOT
HETATM    1  C   UNL     1     -10.885   9.808  70.358  1.00  0.00    -0.311 C  
HETATM    2  N   UNL     1     -12.052  10.390  69.703  1.00  0.00    -0.159 NA 
HETATM    3  C   UNL     1     -13.017  10.961  70.646  1.00  0.00    -0.184 C  
HETATM    4  C   UNL     1     -12.552  12.275  71.273  1.00  0.00    -0.336 C  
HETATM    5  C   UNL     1     -12.161  13.294  70.207  1.00  0.00    -0.391 C  
HETATM    6  C   UNL     1     -11.157  12.710  69.189  1.00  0.00    -0.252 C  
HETATM    7  C   UNL     1     -11.679  11.357  68.664  1.00  0.00    -0.329 C  
ENDROOT
BRANCH   6   8
HETATM    8  C   UNL     1     -10.923  13.754  68.069  1.00  0.00    -0.268 C  
BRANCH   8   9
HETATM    9  C   UNL     1      -9.950  13.386  66.892  1.00  0.00    -0.252 C  
HETATM   10  C   UNL     1      -8.712  12.601  67.351  1.00  0.00    -0.191 A  
HETATM   11  C   UNL     1      -8.065  12.954  68.560  1.00  0.00    -0.080 A  
HETATM   12  C   UNL     1      -6.846  12.388  68.949  1.00  0.00    -0.099 A  
HETATM   13  C   UNL     1      -6.219  11.469  68.126  1.00  0.00    -0.045 A  
HETATM   14  C   UNL     1      -6.844  11.083  66.946  1.00  0.00    -0.121 A  
HETATM   15  C   UNL     1      -8.091  11.624  66.563  1.00  0.00    -0.075 A  
HETATM   16  S   UNL     1      -8.760  10.959  65.071  1.00  0.00    -0.038 SA 
HETATM   17  C   UNL     1     -10.287  11.816  64.864  1.00  0.00    -0.289 A  
HETATM   18  C   UNL     1     -11.098  11.354  63.809  1.00  0.00    -0.417 A  
HETATM   19  C   UNL     1     -12.290  11.989  63.480  1.00  0.00    -0.661 A  
HETATM   20  C   UNL     1     -12.661  13.129  64.173  1.00  0.00    -0.261 A  
HETATM   21  C   UNL     1     -11.862  13.593  65.221  1.00  0.00    -0.365 A  
HETATM   22  C   UNL     1     -10.696  12.908  65.638  1.00  0.00    -0.295 A  
ENDBRANCH   8   9
ENDBRANCH   6   8
TORSDOF 2
ENDMDL
MODEL      118
REMARK 921   NORMALIZED FREE ENERGY PREDICTED BY IDOCK:   -4.74 KCAL/MOL
REMARK 922        TOTAL FREE ENERGY PREDICTED BY IDOCK:   -5.69 KCAL/MOL
REMARK 923 INTER-LIGAND FREE ENERGY PREDICTED BY IDOCK:   -5.12 KCAL/MOL
REMARK 924 INTRA-LIGAND FREE ENERGY PREDICTED BY IDOCK:   -0.57 KCAL/MOL
REMARK 927      BINDING AFFINITY PREDICTED BY RF-SCORE:    0.00 PKD
ROOT
HETATM    1  C   UNL     1     -13.328   9.446  71.356  1.00  0.00    -0.346 C  
HETATM    2  N   UNL     1     -12.007   9.330  71.964  1.00  0.00    -0.352 NA 
HETATM    3  C   UNL     1     -11.815   8.072  72.691  1.00  0.00    -0.321 C  
HETATM    4  C   UNL     1     -11.641   6.861  71.776  1.00  0.00    -0.322 C  
HETATM    5  C   UNL     1     -10.522   7.083  70.763  1.00  0.00    -0.231 C  
HETATM    6  C   UNL     1     -10.693   8.413  69.996  1.00  0.00    -0.236 C  
HETATM    7  C   UNL     1     -10.929   9.562  70.996  1.00  0.00    -0.353 C  
ENDROOT
BRANCH   6   8
HETATM    8  C   UNL     1      -9.450   8.628  69.096  1.00  0.00    -0.157 C  
BRANCH   8   9
HETATM    9  C   UNL     1      -9.580   8.340  67.557  1.00  0.00    -0.194 C  
HETATM   10  C   UNL     1      -9.926   9.589  66.733  1.00  0.00    -0.297 A  
HETATM   11  C   UNL     1     -10.861  10.526  67.237  1.00  0.00    -0.338 A  
HETATM   12  C   UNL     1     -11.338  11.593  66.469  1.00  0.00    -0.331 A  
HETATM   13  C   UNL     1     -10.915  11.744  65.159  1.00  0.00    -0.351 A  
HETATM   14  C   UNL     1      -9.977  10.855  64.647  1.00  0.00    -0.369 A  
HETATM   15  C   UNL     1      -9.465   9.796  65.428  1.00  0.00    -0.269 A  
HETATM   16  S   UNL     1      -8.231   8.818  64.629  1.00  0.00    -0.166 SA 
HETATM   17  C   UNL     1      -7.798   7.603  65.832  1.00  0.00    -0.103 A  
HETATM   18  C   UNL     1      -6.709   6.778  65.490  1.00  0.00    -0.051 A  
HETATM   19  C   UNL     1      -6.312   5.727  66.307  1.00  0.00    -0.039 A  
HETATM   20  C   UNL     1      -7.036   5.455  67.456  1.00  0.00    -0.066 A  
HETATM   21  C   UNL     1      -8.118   6.268  67.802  1.00  0.00    -0.114 A  
HETATM   22  C   UNL     1      -8.479   7.404  67.038  1.00  0.00    -0.118 A  
ENDBRANCH   8   9
ENDBRANCH   6   8
TORSDOF 2
ENDMDL
MODEL      119
REMARK 921   NORMALIZED FREE ENERGY PREDICTED BY IDOCK:   -4.74 KCAL/MOL
REMARK 922        TOTAL FREE ENERGY PREDICTED BY IDOCK:   -5.69 KCAL/MOL
REMARK 923 INTER-LIGAND FREE ENERGY PREDICTED BY IDOCK:   -5.66 KCAL/MOL
REMARK 924 INTRA-LIGAND FREE ENERGY PREDICTED BY IDOCK:   -0.03 KCAL/MOL
REMARK 927      BINDING AFFINITY PREDICTED BY RF-SCORE:    0.00 PKD
ROOT
HETATM    1  C   UNL     1      -8.285   4.070  67.895  1.00  0.00    -0.093 C  
HETATM    2  N   UNL     1      -8.293   5.170  66.936  1.00  0.00    -0.108 NA 
HETATM    3  C   UNL     1      -9.412   5.103  65.993  1.00  0.00    -0.160 C  
HETATM    4  C   UNL     1     -10.758   5.469  66.618  1.00  0.00    -0.332 C  
HETATM    5  C   UNL     1     -10.702   6.830  67.306  1.00  0.00    -0.423 C  
HETATM    6  C   UNL     1      -9.518   6.930  68.294  1.00  0.00    -0.126 C  
HETATM    7  C   UNL     1      -8.220   6.478  67.594  1.00  0.00    -0.122 C  
ENDROOT
BRANCH   6   8
HETATM    8  C   UNL     1      -9.450   8.378  68.839  1.00  0.00    -0.147 C  
BRANCH   8   9
HETATM    9  C   UNL     1      -9.920   8.648  70.314  1.00  0.00    -0.204 C  
HETATM   10  C   UNL     1     -11.015   9.720  70.415  1.00  0.00    -0.371 A  
HETATM   11  C   UNL     1     -10.944  10.876  69.600  1.00  0.00    -0.311 A  
HETATM   12  C   UNL     1     -11.816  11.959  69.760  1.00  0.00    -0.411 A  
HETATM   13  C   UNL     1     -12.773  11.932  70.759  1.00  0.00    -0.242 A  
HETATM   14  C   UNL     1     -12.883  10.799  71.556  1.00  0.00    -0.567 A  
HETATM   15  C   UNL     1     -12.030   9.688  71.379  1.00  0.00    -0.399 A  
HETATM   16  S   UNL     1     -12.371   8.316  72.437  1.00  0.00    -0.273 SA 
HETATM   17  C   UNL     1     -11.162   7.113  71.985  1.00  0.00    -0.251 A  
HETATM   18  C   UNL     1     -11.315   5.850  72.589  1.00  0.00    -0.337 A  
HETATM   19  C   UNL     1     -10.389   4.834  72.388  1.00  0.00    -0.261 A  
HETATM   20  C   UNL     1      -9.267   5.087  71.617  1.00  0.00    -0.178 A  
HETATM   21  C   UNL     1      -9.107   6.337  71.015  1.00  0.00    -0.156 A  
HETATM   22  C   UNL     1     -10.086   7.355  71.124  1.00  0.00    -0.189 A  
ENDBRANCH   8   9
ENDBRANCH   6   8
TORSDOF 2
ENDMDL
MODEL      120
REMARK 921   NORMALIZED FREE ENERGY PREDICTED BY IDOCK:   -4.72 KCAL/MOL
REMARK 922        TOTAL FREE ENERGY PREDICTED BY IDOCK:   -5.67 KCAL/MOL
REMARK 923 INTER-LIGAND FREE ENERGY PREDICTED BY IDOCK:   -5.21 KCAL/MOL
REMARK 924 INTRA-LIGAND FREE ENERGY PREDICTED BY IDOCK:   -0.46 KCAL/MOL
REMARK 927      BINDING AFFINITY PREDICTED BY RF-SCORE:    0.00 PKD
ROOT
HETATM    1  C   UNL     1     -11.920   5.653  72.721  1.00  0.00    -0.024 C  
HETATM    2  N   UNL     1     -10.512   5.932  72.457  1.00  0.00    -0.197 NA 
HETATM    3  C   UNL     1      -9.919   5.024  71.472  1.00  0.00    -0.190 C  
HETATM    4  C   UNL     1     -10.375   5.299  70.039  1.00  0.00    -0.365 C  
HETATM    5  C   UNL     1     -10.145   6.756  69.650  1.00  0.00    -0.197 C  
HETATM    6  C   UNL     1     -10.746   7.733  70.683  1.00  0.00    -0.233 C  
HETATM    7  C   UNL     1     -10.285   7.337  72.101  1.00  0.00    -0.190 C  
ENDROOT
BRANCH   6   8
HETATM    8  C   UNL     1     -10.347   9.177  70.289  1.00  0.00    -0.253 C  
BRANCH   8   9
HETATM    9  C   UNL     1     -11.346  10.019  69.417  1.00  0.00    -0.192 C  
HETATM   10  C   UNL     1     -11.893  11.255  70.145  1.00  0.00    -0.449 A  
HETATM   11  C   UNL     1     -12.240  11.168  71.516  1.00  0.00    -0.128 A  
HETATM   12  C   UNL     1     -12.892  12.205  72.191  1.00  0.00    -0.128 A  
HETATM   13  C   UNL     1     -13.244  13.357  71.509  1.00  0.00    -0.395 A  
HETATM   14  C   UNL     1     -12.893  13.482  70.170  1.00  0.00     0.075 A  
HETATM   15  C   UNL     1     -12.205  12.453  69.491  1.00  0.00    -0.086 A  
HETATM   16  S   UNL     1     -11.782  12.825  67.817  1.00  0.00    -0.345 SA 
HETATM   17  C   UNL     1     -10.950  11.377  67.251  1.00  0.00    -0.282 A  
HETATM   18  C   UNL     1     -10.371  11.477  65.971  1.00  0.00    -0.290 A  
HETATM   19  C   UNL     1      -9.755  10.387  65.367  1.00  0.00    -0.325 A  
HETATM   20  C   UNL     1      -9.757   9.165  66.018  1.00  0.00    -0.358 A  
HETATM   21  C   UNL     1     -10.329   9.058  67.288  1.00  0.00    -0.342 A  
HETATM   22  C   UNL     1     -10.873  10.176  67.965  1.00  0.00    -0.320 A  
ENDBRANCH   8   9
ENDBRANCH   6   8
TORSDOF 2
ENDMDL
MODEL      121
REMARK 921   NORMALIZED FREE ENERGY PREDICTED BY IDOCK:   -4.72 KCAL/MOL
REMARK 922        TOTAL FREE ENERGY PREDICTED BY IDOCK:   -5.67 KCAL/MOL
REMARK 923 INTER-LIGAND FREE ENERGY PREDICTED BY IDOCK:   -4.95 KCAL/MOL
REMARK 924 INTRA-LIGAND FREE ENERGY PREDICTED BY IDOCK:   -0.72 KCAL/MOL
REMARK 927      BINDING AFFINITY PREDICTED BY RF-SCORE:    0.00 PKD
ROOT
HETATM    1  C   UNL     1      -7.439   8.281  64.576  1.00  0.00    -0.101 C  
HETATM    2  N   UNL     1      -7.363   7.125  65.463  1.00  0.00    -0.076 NA 
HETATM    3  C   UNL     1      -6.197   7.155  66.350  1.00  0.00    -0.040 C  
HETATM    4  C   UNL     1      -6.319   8.176  67.481  1.00  0.00    -0.056 C  
HETATM    5  C   UNL     1      -7.606   7.978  68.275  1.00  0.00    -0.109 C  
HETATM    6  C   UNL     1      -8.849   7.925  67.359  1.00  0.00    -0.129 C  
HETATM    7  C   UNL     1      -8.606   6.921  66.214  1.00  0.00    -0.136 C  
ENDROOT
BRANCH   6   8
HETATM    8  C   UNL     1     -10.087   7.583  68.224  1.00  0.00    -0.209 C  
BRANCH   8   9
HETATM    9  C   UNL     1     -10.118   8.072  69.717  1.00  0.00    -0.196 C  
HETATM   10  C   UNL     1     -11.034   9.284  69.939  1.00  0.00    -0.231 A  
HETATM   11  C   UNL     1     -11.069  10.324  68.979  1.00  0.00    -0.277 A  
HETATM   12  C   UNL     1     -11.755  11.524  69.200  1.00  0.00    -0.395 A  
HETATM   13  C   UNL     1     -12.409  11.733  70.402  1.00  0.00    -0.362 A  
HETATM   14  C   UNL     1     -12.414  10.719  71.352  1.00  0.00    -0.478 A  
HETATM   15  C   UNL     1     -11.752   9.492  71.123  1.00  0.00    -0.363 A  
HETATM   16  S   UNL     1     -11.933   8.302  72.415  1.00  0.00    -0.348 SA 
HETATM   17  C   UNL     1     -11.014   6.908  71.847  1.00  0.00    -0.235 A  
HETATM   18  C   UNL     1     -11.124   5.750  72.641  1.00  0.00    -0.325 A  
HETATM   19  C   UNL     1     -10.390   4.604  72.357  1.00  0.00    -0.262 A  
HETATM   20  C   UNL     1      -9.495   4.621  71.301  1.00  0.00    -0.221 A  
HETATM   21  C   UNL     1      -9.379   5.765  70.508  1.00  0.00    -0.189 A  
HETATM   22  C   UNL     1     -10.187   6.909  70.717  1.00  0.00    -0.212 A  
ENDBRANCH   8   9
ENDBRANCH   6   8
TORSDOF 2
ENDMDL
MODEL      122
REMARK 921   NORMALIZED FREE ENERGY PREDICTED BY IDOCK:   -4.72 KCAL/MOL
REMARK 922        TOTAL FREE ENERGY PREDICTED BY IDOCK:   -5.66 KCAL/MOL
REMARK 923 INTER-LIGAND FREE ENERGY PREDICTED BY IDOCK:   -5.51 KCAL/MOL
REMARK 924 INTRA-LIGAND FREE ENERGY PREDICTED BY IDOCK:   -0.15 KCAL/MOL
REMARK 927      BINDING AFFINITY PREDICTED BY RF-SCORE:    0.00 PKD
ROOT
HETATM    1  C   UNL     1     -13.254  15.333  70.633  1.00  0.00    -0.323 C  
HETATM    2  N   UNL     1     -11.987  14.696  70.975  1.00  0.00    -0.325 NA 
HETATM    3  C   UNL     1     -12.067  13.233  71.005  1.00  0.00    -0.062 C  
HETATM    4  C   UNL     1     -12.158  12.600  69.616  1.00  0.00    -0.277 C  
HETATM    5  C   UNL     1     -11.021  13.068  68.714  1.00  0.00    -0.295 C  
HETATM    6  C   UNL     1     -10.905  14.608  68.680  1.00  0.00    -0.261 C  
HETATM    7  C   UNL     1     -10.888  15.158  70.121  1.00  0.00    -0.241 C  
ENDROOT
BRANCH   6   8
HETATM    8  C   UNL     1      -9.647  14.992  67.861  1.00  0.00    -0.203 C  
BRANCH   8   9
HETATM    9  C   UNL     1      -9.132  13.992  66.765  1.00  0.00    -0.250 C  
HETATM   10  C   UNL     1      -8.297  12.839  67.340  1.00  0.00    -0.189 A  
HETATM   11  C   UNL     1      -7.373  13.093  68.383  1.00  0.00    -0.116 A  
HETATM   12  C   UNL     1      -6.471  12.125  68.837  1.00  0.00    -0.088 A  
HETATM   13  C   UNL     1      -6.444  10.876  68.241  1.00  0.00    -0.057 A  
HETATM   14  C   UNL     1      -7.356  10.590  67.232  1.00  0.00    -0.091 A  
HETATM   15  C   UNL     1      -8.293  11.551  66.793  1.00  0.00    -0.165 A  
HETATM   16  S   UNL     1      -9.415  10.978  65.556  1.00  0.00    -0.225 SA 
HETATM   17  C   UNL     1     -10.437  12.377  65.221  1.00  0.00    -0.286 A  
HETATM   18  C   UNL     1     -11.527  12.135  64.363  1.00  0.00    -0.417 A  
HETATM   19  C   UNL     1     -12.365  13.163  63.949  1.00  0.00    -0.439 A  
HETATM   20  C   UNL     1     -12.092  14.459  64.350  1.00  0.00    -0.491 A  
HETATM   21  C   UNL     1     -11.013  14.708  65.201  1.00  0.00    -0.395 A  
HETATM   22  C   UNL     1     -10.204  13.666  65.715  1.00  0.00    -0.317 A  
ENDBRANCH   8   9
ENDBRANCH   6   8
TORSDOF 2
ENDMDL
MODEL      123
REMARK 921   NORMALIZED FREE ENERGY PREDICTED BY IDOCK:   -4.71 KCAL/MOL
REMARK 922        TOTAL FREE ENERGY PREDICTED BY IDOCK:   -5.65 KCAL/MOL
REMARK 923 INTER-LIGAND FREE ENERGY PREDICTED BY IDOCK:   -5.70 KCAL/MOL
REMARK 924 INTRA-LIGAND FREE ENERGY PREDICTED BY IDOCK:    0.04 KCAL/MOL
REMARK 927      BINDING AFFINITY PREDICTED BY RF-SCORE:    0.00 PKD
ROOT
HETATM    1  C   UNL     1      -9.133  11.689  63.549  1.00  0.00     0.132 C  
HETATM    2  N   UNL     1      -9.195  10.614  64.534  1.00  0.00    -0.216 NA 
HETATM    3  C   UNL     1      -7.948  10.447  65.285  1.00  0.00    -0.143 C  
HETATM    4  C   UNL     1      -7.706  11.551  66.315  1.00  0.00     0.070 C  
HETATM    5  C   UNL     1      -8.896  11.705  67.257  1.00  0.00    -0.164 C  
HETATM    6  C   UNL     1     -10.226  11.864  66.488  1.00  0.00    -0.232 C  
HETATM    7  C   UNL     1     -10.349  10.749  65.429  1.00  0.00    -0.247 C  
ENDROOT
BRANCH   6   8
HETATM    8  C   UNL     1     -11.391  11.872  67.509  1.00  0.00    -0.381 C  
BRANCH   8   9
HETATM    9  C   UNL     1     -12.000  13.254  67.941  1.00  0.00    -0.349 C  
HETATM   10  C   UNL     1     -12.156  13.399  69.462  1.00  0.00    -0.334 A  
HETATM   11  C   UNL     1     -12.600  12.295  70.231  1.00  0.00    -0.033 A  
HETATM   12  C   UNL     1     -12.916  12.409  71.589  1.00  0.00    -0.409 A  
HETATM   13  C   UNL     1     -12.826  13.639  72.218  1.00  0.00    -0.332 A  
HETATM   14  C   UNL     1     -12.369  14.734  71.494  1.00  0.00    -0.404 A  
HETATM   15  C   UNL     1     -12.014  14.620  70.132  1.00  0.00    -0.313 A  
HETATM   16  S   UNL     1     -11.387  16.101  69.404  1.00  0.00    -0.296 SA 
HETATM   17  C   UNL     1     -11.042  15.648  67.735  1.00  0.00    -0.311 A  
HETATM   18  C   UNL     1     -10.382  16.629  66.969  1.00  0.00    -0.301 A  
HETATM   19  C   UNL     1     -10.121  16.438  65.618  1.00  0.00    -0.314 A  
HETATM   20  C   UNL     1     -10.565  15.281  65.002  1.00  0.00    -0.444 A  
HETATM   21  C   UNL     1     -11.221  14.303  65.754  1.00  0.00    -0.317 A  
HETATM   22  C   UNL     1     -11.410  14.431  67.151  1.00  0.00    -0.356 A  
ENDBRANCH   8   9
ENDBRANCH   6   8
TORSDOF 2
ENDMDL
MODEL      124
REMARK 921   NORMALIZED FREE ENERGY PREDICTED BY IDOCK:   -4.70 KCAL/MOL
REMARK 922        TOTAL FREE ENERGY PREDICTED BY IDOCK:   -5.64 KCAL/MOL
REMARK 923 INTER-LIGAND FREE ENERGY PREDICTED BY IDOCK:   -5.09 KCAL/MOL
REMARK 924 INTRA-LIGAND FREE ENERGY PREDICTED BY IDOCK:   -0.55 KCAL/MOL
REMARK 927      BINDING AFFINITY PREDICTED BY RF-SCORE:    0.00 PKD
ROOT
HETATM    1  C   UNL     1      -6.410  14.981  69.962  1.00  0.00    -0.163 C  
HETATM    2  N   UNL     1      -6.311  15.117  68.512  1.00  0.00    -0.088 NA 
HETATM    3  C   UNL     1      -5.367  14.173  67.908  1.00  0.00    -0.067 C  
HETATM    4  C   UNL     1      -5.886  12.736  67.867  1.00  0.00    -0.117 C  
HETATM    5  C   UNL     1      -7.250  12.654  67.190  1.00  0.00    -0.040 C  
HETATM    6  C   UNL     1      -8.259  13.654  67.799  1.00  0.00    -0.179 C  
HETATM    7  C   UNL     1      -7.624  15.057  67.860  1.00  0.00    -0.139 C  
ENDROOT
BRANCH   6   8
HETATM    8  C   UNL     1      -9.565  13.606  66.967  1.00  0.00    -0.251 C  
BRANCH   8   9
HETATM    9  C   UNL     1     -10.784  12.792  67.532  1.00  0.00    -0.247 C  
HETATM   10  C   UNL     1     -10.511  11.284  67.632  1.00  0.00    -0.225 A  
HETATM   11  C   UNL     1      -9.794  10.629  66.601  1.00  0.00    -0.245 A  
HETATM   12  C   UNL     1      -9.655   9.238  66.554  1.00  0.00    -0.285 A  
HETATM   13  C   UNL     1     -10.253   8.451  67.524  1.00  0.00    -0.308 A  
HETATM   14  C   UNL     1     -10.941   9.068  68.562  1.00  0.00     0.036 A  
HETATM   15  C   UNL     1     -11.057  10.474  68.636  1.00  0.00    -0.267 A  
HETATM   16  S   UNL     1     -11.903  11.072  70.064  1.00  0.00    -0.385 SA 
HETATM   17  C   UNL     1     -11.886  12.826  69.872  1.00  0.00    -0.301 A  
HETATM   18  C   UNL     1     -12.376  13.557  70.972  1.00  0.00    -0.422 A  
HETATM   19  C   UNL     1     -12.496  14.941  70.926  1.00  0.00    -0.395 A  
HETATM   20  C   UNL     1     -12.174  15.607  69.756  1.00  0.00    -0.293 A  
HETATM   21  C   UNL     1     -11.688  14.890  68.661  1.00  0.00    -0.358 A  
HETATM   22  C   UNL     1     -11.463  13.493  68.717  1.00  0.00    -0.349 A  
ENDBRANCH   8   9
ENDBRANCH   6   8
TORSDOF 2
ENDMDL
MODEL      125
REMARK 921   NORMALIZED FREE ENERGY PREDICTED BY IDOCK:   -4.68 KCAL/MOL
REMARK 922        TOTAL FREE ENERGY PREDICTED BY IDOCK:   -5.63 KCAL/MOL
REMARK 923 INTER-LIGAND FREE ENERGY PREDICTED BY IDOCK:   -5.55 KCAL/MOL
REMARK 924 INTRA-LIGAND FREE ENERGY PREDICTED BY IDOCK:   -0.08 KCAL/MOL
REMARK 927      BINDING AFFINITY PREDICTED BY RF-SCORE:    0.00 PKD
ROOT
HETATM    1  C   UNL     1     -12.692  15.727  70.983  1.00  0.00    -0.398 C  
HETATM    2  N   UNL     1     -11.486  14.975  70.654  1.00  0.00    -0.285 NA 
HETATM    3  C   UNL     1     -11.681  13.523  70.703  1.00  0.00     0.027 C  
HETATM    4  C   UNL     1     -12.496  12.978  69.531  1.00  0.00     0.103 C  
HETATM    5  C   UNL     1     -11.902  13.405  68.192  1.00  0.00    -0.396 C  
HETATM    6  C   UNL     1     -11.671  14.931  68.122  1.00  0.00    -0.344 C  
HETATM    7  C   UNL     1     -10.902  15.396  69.376  1.00  0.00    -0.263 C  
ENDROOT
BRANCH   6   8
HETATM    8  C   UNL     1     -10.940  15.260  66.797  1.00  0.00    -0.306 C  
BRANCH   8   9
HETATM    9  C   UNL     1      -9.523  15.935  66.869  1.00  0.00    -0.242 C  
HETATM   10  C   UNL     1      -9.572  17.401  67.322  1.00  0.00    -0.258 A  
HETATM   11  C   UNL     1     -10.603  18.249  66.848  1.00  0.00    -0.356 A  
HETATM   12  C   UNL     1     -10.610  19.627  67.093  1.00  0.00    -0.611 A  
HETATM   13  C   UNL     1      -9.569  20.208  67.797  1.00  0.00    -0.508 A  
HETATM   14  C   UNL     1      -8.558  19.396  68.297  1.00  0.00    -0.376 A  
HETATM   15  C   UNL     1      -8.561  18.000  68.084  1.00  0.00    -0.273 A  
HETATM   16  S   UNL     1      -7.233  17.130  68.856  1.00  0.00    -0.231 SA 
HETATM   17  C   UNL     1      -7.508  15.445  68.415  1.00  0.00    -0.115 A  
HETATM   18  C   UNL     1      -6.657  14.512  69.040  1.00  0.00    -0.100 A  
HETATM   19  C   UNL     1      -6.707  13.160  68.723  1.00  0.00    -0.100 A  
HETATM   20  C   UNL     1      -7.578  12.730  67.737  1.00  0.00    -0.141 A  
HETATM   21  C   UNL     1      -8.426  13.648  67.113  1.00  0.00    -0.186 A  
HETATM   22  C   UNL     1      -8.463  15.013  67.487  1.00  0.00    -0.188 A  
ENDBRANCH   8   9
ENDBRANCH   6   8
TORSDOF 2
ENDMDL
MODEL      126
REMARK 921   NORMALIZED FREE ENERGY PREDICTED BY IDOCK:   -4.64 KCAL/MOL
REMARK 922        TOTAL FREE ENERGY PREDICTED BY IDOCK:   -5.58 KCAL/MOL
REMARK 923 INTER-LIGAND FREE ENERGY PREDICTED BY IDOCK:   -4.99 KCAL/MOL
REMARK 924 INTRA-LIGAND FREE ENERGY PREDICTED BY IDOCK:   -0.59 KCAL/MOL
REMARK 927      BINDING AFFINITY PREDICTED BY RF-SCORE:    0.00 PKD
ROOT
HETATM    1  C   UNL     1      -5.739   8.843  66.217  1.00  0.00    -0.049 C  
HETATM    2  N   UNL     1      -5.884  10.043  67.034  1.00  0.00    -0.050 NA 
HETATM    3  C   UNL     1      -6.529  11.150  66.322  1.00  0.00    -0.082 C  
HETATM    4  C   UNL     1      -8.031  10.950  66.118  1.00  0.00    -0.155 C  
HETATM    5  C   UNL     1      -8.739  10.662  67.438  1.00  0.00    -0.125 C  
HETATM    6  C   UNL     1      -8.067   9.509  68.216  1.00  0.00    -0.102 C  
HETATM    7  C   UNL     1      -6.549   9.765  68.312  1.00  0.00    -0.056 C  
ENDROOT
BRANCH   6   8
HETATM    8  C   UNL     1      -8.755   9.377  69.597  1.00  0.00    -0.172 C  
BRANCH   8   9
HETATM    9  C   UNL     1     -10.094   8.559  69.692  1.00  0.00    -0.202 C  
HETATM   10  C   UNL     1      -9.882   7.093  70.097  1.00  0.00    -0.180 A  
HETATM   11  C   UNL     1      -8.788   6.369  69.565  1.00  0.00    -0.136 A  
HETATM   12  C   UNL     1      -8.633   4.993  69.766  1.00  0.00    -0.100 A  
HETATM   13  C   UNL     1      -9.585   4.289  70.484  1.00  0.00    -0.267 A  
HETATM   14  C   UNL     1     -10.655   4.979  71.040  1.00  0.00    -0.146 A  
HETATM   15  C   UNL     1     -10.800   6.374  70.871  1.00  0.00    -0.263 A  
HETATM   16  S   UNL     1     -12.182   7.082  71.712  1.00  0.00    -0.354 SA 
HETATM   17  C   UNL     1     -12.094   8.798  71.315  1.00  0.00    -0.296 A  
HETATM   18  C   UNL     1     -13.013   9.621  71.995  1.00  0.00    -0.518 A  
HETATM   19  C   UNL     1     -13.110  10.980  71.720  1.00  0.00    -0.554 A  
HETATM   20  C   UNL     1     -12.321  11.524  70.721  1.00  0.00    -0.472 A  
HETATM   21  C   UNL     1     -11.407  10.715  70.042  1.00  0.00    -0.400 A  
HETATM   22  C   UNL     1     -11.220   9.351  70.372  1.00  0.00    -0.309 A  
ENDBRANCH   8   9
ENDBRANCH   6   8
TORSDOF 2
ENDMDL
MODEL      127
REMARK 921   NORMALIZED FREE ENERGY PREDICTED BY IDOCK:   -4.64 KCAL/MOL
REMARK 922        TOTAL FREE ENERGY PREDICTED BY IDOCK:   -5.58 KCAL/MOL
REMARK 923 INTER-LIGAND FREE ENERGY PREDICTED BY IDOCK:   -5.05 KCAL/MOL
REMARK 924 INTRA-LIGAND FREE ENERGY PREDICTED BY IDOCK:   -0.53 KCAL/MOL
REMARK 927      BINDING AFFINITY PREDICTED BY RF-SCORE:    0.00 PKD
ROOT
HETATM    1  C   UNL     1     -10.371  19.352  69.091  1.00  0.00     0.017 C  
HETATM    2  N   UNL     1     -10.473  19.664  67.669  1.00  0.00    -0.440 NA 
HETATM    3  C   UNL     1      -9.621  20.784  67.263  1.00  0.00    -0.354 C  
HETATM    4  C   UNL     1      -8.134  20.431  67.211  1.00  0.00    -0.384 C  
HETATM    5  C   UNL     1      -7.882  19.207  66.337  1.00  0.00    -0.296 C  
HETATM    6  C   UNL     1      -8.783  18.016  66.735  1.00  0.00    -0.269 C  
HETATM    7  C   UNL     1     -10.249  18.484  66.827  1.00  0.00    -0.393 C  
ENDROOT
BRANCH   6   8
HETATM    8  C   UNL     1      -8.566  16.870  65.716  1.00  0.00     0.177 C  
BRANCH   8   9
HETATM    9  C   UNL     1      -8.673  15.386  66.223  1.00  0.00    -0.240 C  
HETATM   10  C   UNL     1      -7.935  15.143  67.547  1.00  0.00    -0.194 A  
HETATM   11  C   UNL     1      -6.677  15.752  67.773  1.00  0.00    -0.178 A  
HETATM   12  C   UNL     1      -5.884  15.443  68.883  1.00  0.00    -0.098 A  
HETATM   13  C   UNL     1      -6.313  14.492  69.794  1.00  0.00    -0.148 A  
HETATM   14  C   UNL     1      -7.556  13.897  69.612  1.00  0.00     0.479 A  
HETATM   15  C   UNL     1      -8.377  14.230  68.512  1.00  0.00    -0.156 A  
HETATM   16  S   UNL     1      -9.949  13.425  68.492  1.00  0.00    -0.146 SA 
HETATM   17  C   UNL     1     -10.724  14.032  67.029  1.00  0.00    -0.284 A  
HETATM   18  C   UNL     1     -12.069  13.651  66.858  1.00  0.00    -0.431 A  
HETATM   19  C   UNL     1     -12.778  13.989  65.711  1.00  0.00    -0.487 A  
HETATM   20  C   UNL     1     -12.132  14.671  64.695  1.00  0.00    -0.466 A  
HETATM   21  C   UNL     1     -10.798  15.053  64.856  1.00  0.00    -0.430 A  
HETATM   22  C   UNL     1     -10.084  14.806  66.054  1.00  0.00    -0.327 A  
ENDBRANCH   8   9
ENDBRANCH   6   8
TORSDOF 2
ENDMDL
MODEL      128
REMARK 921   NORMALIZED FREE ENERGY PREDICTED BY IDOCK:   -4.64 KCAL/MOL
REMARK 922        TOTAL FREE ENERGY PREDICTED BY IDOCK:   -5.57 KCAL/MOL
REMARK 923 INTER-LIGAND FREE ENERGY PREDICTED BY IDOCK:   -4.79 KCAL/MOL
REMARK 924 INTRA-LIGAND FREE ENERGY PREDICTED BY IDOCK:   -0.79 KCAL/MOL
REMARK 927      BINDING AFFINITY PREDICTED BY RF-SCORE:    0.00 PKD
ROOT
HETATM    1  C   UNL     1      -6.265  15.385  68.176  1.00  0.00    -0.127 C  
HETATM    2  N   UNL     1      -7.329  15.605  69.149  1.00  0.00    -0.172 NA 
HETATM    3  C   UNL     1      -8.089  16.834  68.905  1.00  0.00    -0.230 C  
HETATM    4  C   UNL     1      -9.030  16.739  67.704  1.00  0.00    -0.210 C  
HETATM    5  C   UNL     1      -9.959  15.534  67.817  1.00  0.00    -0.222 C  
HETATM    6  C   UNL     1      -9.182  14.228  68.093  1.00  0.00    -0.202 C  
HETATM    7  C   UNL     1      -8.213  14.441  69.273  1.00  0.00     0.124 C  
ENDROOT
BRANCH   6   8
HETATM    8  C   UNL     1     -10.202  13.087  68.333  1.00  0.00    -0.246 C  
BRANCH   8   9
HETATM    9  C   UNL     1     -10.263  11.906  67.299  1.00  0.00    -0.220 C  
HETATM   10  C   UNL     1     -10.882  12.310  65.953  1.00  0.00    -0.306 A  
HETATM   11  C   UNL     1     -12.005  13.173  65.927  1.00  0.00    -0.479 A  
HETATM   12  C   UNL     1     -12.711  13.448  64.750  1.00  0.00    -0.310 A  
HETATM   13  C   UNL     1     -12.333  12.845  63.563  1.00  0.00    -0.521 A  
HETATM   14  C   UNL     1     -11.219  12.014  63.554  1.00  0.00    -0.526 A  
HETATM   15  C   UNL     1     -10.480  11.759  64.730  1.00  0.00    -0.293 A  
HETATM   16  S   UNL     1      -9.058  10.739  64.504  1.00  0.00    -0.177 SA 
HETATM   17  C   UNL     1      -8.362  10.607  66.120  1.00  0.00    -0.158 A  
HETATM   18  C   UNL     1      -7.115   9.956  66.187  1.00  0.00    -0.103 A  
HETATM   19  C   UNL     1      -6.490   9.709  67.404  1.00  0.00    -0.069 A  
HETATM   20  C   UNL     1      -7.134  10.067  68.577  1.00  0.00    -0.071 A  
HETATM   21  C   UNL     1      -8.371  10.713  68.519  1.00  0.00    -0.130 A  
HETATM   22  C   UNL     1      -8.980  11.063  67.290  1.00  0.00    -0.138 A  
ENDBRANCH   8   9
ENDBRANCH   6   8
TORSDOF 2
ENDMDL
MODEL      129
REMARK 921   NORMALIZED FREE ENERGY PREDICTED BY IDOCK:   -4.63 KCAL/MOL
REMARK 922        TOTAL FREE ENERGY PREDICTED BY IDOCK:   -5.56 KCAL/MOL
REMARK 923 INTER-LIGAND FREE ENERGY PREDICTED BY IDOCK:   -5.08 KCAL/MOL
REMARK 924 INTRA-LIGAND FREE ENERGY PREDICTED BY IDOCK:   -0.48 KCAL/MOL
REMARK 927      BINDING AFFINITY PREDICTED BY RF-SCORE:    0.00 PKD
ROOT
HETATM    1  C   UNL     1     -11.319   6.131  69.398  1.00  0.00    -0.331 C  
HETATM    2  N   UNL     1      -9.989   5.667  69.015  1.00  0.00    -0.160 NA 
HETATM    3  C   UNL     1     -10.013   4.683  67.930  1.00  0.00    -0.077 C  
HETATM    4  C   UNL     1     -10.336   5.290  66.564  1.00  0.00    -0.332 C  
HETATM    5  C   UNL     1      -9.399   6.447  66.233  1.00  0.00    -0.149 C  
HETATM    6  C   UNL     1      -9.343   7.490  67.371  1.00  0.00    -0.164 C  
HETATM    7  C   UNL     1      -9.081   6.779  68.713  1.00  0.00    -0.132 C  
ENDROOT
BRANCH   6   8
HETATM    8  C   UNL     1      -8.271   8.550  67.017  1.00  0.00    -0.107 C  
BRANCH   8   9
HETATM    9  C   UNL     1      -8.738  10.024  66.735  1.00  0.00    -0.137 C  
HETATM   10  C   UNL     1      -8.959  10.314  65.243  1.00  0.00    -0.214 A  
HETATM   11  C   UNL     1      -8.059   9.788  64.284  1.00  0.00    -0.152 A  
HETATM   12  C   UNL     1      -8.111  10.148  62.933  1.00  0.00    -0.149 A  
HETATM   13  C   UNL     1      -9.050  11.069  62.500  1.00  0.00    -0.362 A  
HETATM   14  C   UNL     1      -9.963  11.581  63.414  1.00  0.00    -0.445 A  
HETATM   15  C   UNL     1      -9.939  11.197  64.773  1.00  0.00    -0.287 A  
HETATM   16  S   UNL     1     -11.221  11.898  65.763  1.00  0.00    -0.282 SA 
HETATM   17  C   UNL     1     -10.928  11.242  67.374  1.00  0.00    -0.282 A  
HETATM   18  C   UNL     1     -11.917  11.536  68.333  1.00  0.00    -0.268 A  
HETATM   19  C   UNL     1     -11.775  11.153  69.661  1.00  0.00    -0.410 A  
HETATM   20  C   UNL     1     -10.613  10.514  70.059  1.00  0.00    -0.223 A  
HETATM   21  C   UNL     1      -9.627  10.219  69.115  1.00  0.00    -0.229 A  
HETATM   22  C   UNL     1      -9.792  10.511  67.739  1.00  0.00    -0.188 A  
ENDBRANCH   8   9
ENDBRANCH   6   8
TORSDOF 2
ENDMDL
MODEL      130
REMARK 921   NORMALIZED FREE ENERGY PREDICTED BY IDOCK:   -4.61 KCAL/MOL
REMARK 922        TOTAL FREE ENERGY PREDICTED BY IDOCK:   -5.55 KCAL/MOL
REMARK 923 INTER-LIGAND FREE ENERGY PREDICTED BY IDOCK:   -5.10 KCAL/MOL
REMARK 924 INTRA-LIGAND FREE ENERGY PREDICTED BY IDOCK:   -0.44 KCAL/MOL
REMARK 927      BINDING AFFINITY PREDICTED BY RF-SCORE:    0.00 PKD
ROOT
HETATM    1  C   UNL     1     -11.217  16.149  64.847  1.00  0.00    -0.285 C  
HETATM    2  N   UNL     1     -10.979  16.071  66.285  1.00  0.00    -0.152 NA 
HETATM    3  C   UNL     1     -11.112  14.713  66.818  1.00  0.00    -0.335 C  
HETATM    4  C   UNL     1      -9.948  13.796  66.445  1.00  0.00    -0.301 C  
HETATM    5  C   UNL     1      -8.607  14.408  66.836  1.00  0.00    -0.191 C  
HETATM    6  C   UNL     1      -8.450  15.848  66.300  1.00  0.00    -0.302 C  
HETATM    7  C   UNL     1      -9.698  16.676  66.666  1.00  0.00    -0.266 C  
ENDROOT
BRANCH   6   8
HETATM    8  C   UNL     1      -7.133  16.443  66.857  1.00  0.00    -0.256 C  
BRANCH   8   9
HETATM    9  C   UNL     1      -7.130  17.021  68.318  1.00  0.00    -0.190 C  
HETATM   10  C   UNL     1      -6.360  16.143  69.315  1.00  0.00    -0.174 A  
HETATM   11  C   UNL     1      -6.470  14.733  69.241  1.00  0.00    -0.121 A  
HETATM   12  C   UNL     1      -5.927  13.887  70.215  1.00  0.00    -0.155 A  
HETATM   13  C   UNL     1      -5.279  14.427  71.313  1.00  0.00    -0.150 A  
HETATM   14  C   UNL     1      -5.133  15.806  71.398  1.00  0.00    -0.107 A  
HETATM   15  C   UNL     1      -5.647  16.664  70.402  1.00  0.00    -0.161 A  
HETATM   16  S   UNL     1      -5.300  18.378  70.649  1.00  0.00    -0.239 SA 
HETATM   17  C   UNL     1      -6.057  19.174  69.269  1.00  0.00    -0.260 A  
HETATM   18  C   UNL     1      -5.793  20.552  69.150  1.00  0.00    -0.392 A  
HETATM   19  C   UNL     1      -6.391  21.321  68.159  1.00  0.00    -0.135 A  
HETATM   20  C   UNL     1      -7.303  20.728  67.303  1.00  0.00    -0.397 A  
HETATM   21  C   UNL     1      -7.571  19.362  67.414  1.00  0.00    -0.269 A  
HETATM   22  C   UNL     1      -6.901  18.538  68.352  1.00  0.00    -0.264 A  
ENDBRANCH   8   9
ENDBRANCH   6   8
TORSDOF 2
ENDMDL
MODEL      131
REMARK 921   NORMALIZED FREE ENERGY PREDICTED BY IDOCK:   -4.58 KCAL/MOL
REMARK 922        TOTAL FREE ENERGY PREDICTED BY IDOCK:   -5.51 KCAL/MOL
REMARK 923 INTER-LIGAND FREE ENERGY PREDICTED BY IDOCK:   -4.76 KCAL/MOL
REMARK 924 INTRA-LIGAND FREE ENERGY PREDICTED BY IDOCK:   -0.75 KCAL/MOL
REMARK 927      BINDING AFFINITY PREDICTED BY RF-SCORE:    0.00 PKD
ROOT
HETATM    1  C   UNL     1     -10.086   9.985  65.643  1.00  0.00    -0.251 C  
HETATM    2  N   UNL     1      -9.225   8.832  65.888  1.00  0.00    -0.218 NA 
HETATM    3  C   UNL     1      -7.972   9.182  66.563  1.00  0.00    -0.100 C  
HETATM    4  C   UNL     1      -8.153   9.524  68.042  1.00  0.00    -0.102 C  
HETATM    5  C   UNL     1      -8.884   8.412  68.787  1.00  0.00    -0.140 C  
HETATM    6  C   UNL     1     -10.200   8.013  68.084  1.00  0.00    -0.251 C  
HETATM    7  C   UNL     1      -9.931   7.754  66.588  1.00  0.00    -0.228 C  
ENDROOT
BRANCH   6   8
HETATM    8  C   UNL     1     -10.804   6.791  68.821  1.00  0.00    -0.280 C  
BRANCH   8   9
HETATM    9  C   UNL     1      -9.876   5.958  69.776  1.00  0.00    -0.217 C  
HETATM   10  C   UNL     1     -10.217   6.138  71.262  1.00  0.00    -0.252 A  
HETATM   11  C   UNL     1     -10.565   7.420  71.753  1.00  0.00    -0.228 A  
HETATM   12  C   UNL     1     -10.727   7.680  73.118  1.00  0.00    -0.445 A  
HETATM   13  C   UNL     1     -10.519   6.670  74.042  1.00  0.00    -0.309 A  
HETATM   14  C   UNL     1     -10.203   5.395  73.587  1.00  0.00    -0.237 A  
HETATM   15  C   UNL     1     -10.071   5.117  72.209  1.00  0.00    -0.192 A  
HETATM   16  S   UNL     1      -9.738   3.426  71.824  1.00  0.00    -0.160 SA 
HETATM   17  C   UNL     1      -9.631   3.399  70.064  1.00  0.00    -0.132 A  
HETATM   18  C   UNL     1      -9.517   2.119  69.488  1.00  0.00    -0.113 A  
HETATM   19  C   UNL     1      -9.341   1.953  68.119  1.00  0.00    -0.241 A  
HETATM   20  C   UNL     1      -9.226   3.073  67.314  1.00  0.00    -0.214 A  
HETATM   21  C   UNL     1      -9.337   4.346  67.877  1.00  0.00    -0.190 A  
HETATM   22  C   UNL     1      -9.614   4.539  69.252  1.00  0.00    -0.258 A  
ENDBRANCH   8   9
ENDBRANCH   6   8
TORSDOF 2
ENDMDL
MODEL      132
REMARK 921   NORMALIZED FREE ENERGY PREDICTED BY IDOCK:   -4.55 KCAL/MOL
REMARK 922        TOTAL FREE ENERGY PREDICTED BY IDOCK:   -5.48 KCAL/MOL
REMARK 923 INTER-LIGAND FREE ENERGY PREDICTED BY IDOCK:   -4.65 KCAL/MOL
REMARK 924 INTRA-LIGAND FREE ENERGY PREDICTED BY IDOCK:   -0.83 KCAL/MOL
REMARK 927      BINDING AFFINITY PREDICTED BY RF-SCORE:    0.00 PKD
ROOT
HETATM    1  C   UNL     1      -5.514  10.354  66.687  1.00  0.00    -0.049 C  
HETATM    2  N   UNL     1      -5.678   9.419  67.794  1.00  0.00    -0.041 NA 
HETATM    3  C   UNL     1      -5.180   9.943  69.069  1.00  0.00    -0.036 C  
HETATM    4  C   UNL     1      -6.078  11.020  69.677  1.00  0.00    -0.084 C  
HETATM    5  C   UNL     1      -7.519  10.536  69.809  1.00  0.00    -0.127 C  
HETATM    6  C   UNL     1      -8.061   9.962  68.482  1.00  0.00    -0.101 C  
HETATM    7  C   UNL     1      -7.059   8.938  67.913  1.00  0.00    -0.079 C  
ENDROOT
BRANCH   6   8
HETATM    8  C   UNL     1      -9.468   9.368  68.737  1.00  0.00    -0.150 C  
BRANCH   8   9
HETATM    9  C   UNL     1      -9.952   9.199  70.223  1.00  0.00    -0.246 C  
HETATM   10  C   UNL     1     -11.145  10.099  70.578  1.00  0.00    -0.400 A  
HETATM   11  C   UNL     1     -11.191  11.429  70.093  1.00  0.00    -0.076 A  
HETATM   12  C   UNL     1     -12.162  12.344  70.511  1.00  0.00    -0.382 A  
HETATM   13  C   UNL     1     -13.106  11.968  71.452  1.00  0.00    -0.295 A  
HETATM   14  C   UNL     1     -13.101  10.661  71.925  1.00  0.00    -0.563 A  
HETATM   15  C   UNL     1     -12.145   9.721  71.482  1.00  0.00    -0.409 A  
HETATM   16  S   UNL     1     -12.345   8.095  72.141  1.00  0.00    -0.328 SA 
HETATM   17  C   UNL     1     -11.029   7.172  71.415  1.00  0.00    -0.234 A  
HETATM   18  C   UNL     1     -11.055   5.786  71.668  1.00  0.00    -0.290 A  
HETATM   19  C   UNL     1     -10.036   4.950  71.227  1.00  0.00    -0.271 A  
HETATM   20  C   UNL     1      -8.949   5.500  70.570  1.00  0.00    -0.153 A  
HETATM   21  C   UNL     1      -8.915   6.873  70.315  1.00  0.00    -0.152 A  
HETATM   22  C   UNL     1      -9.986   7.730  70.667  1.00  0.00    -0.186 A  
ENDBRANCH   8   9
ENDBRANCH   6   8
TORSDOF 2
ENDMDL
MODEL      133
REMARK 921   NORMALIZED FREE ENERGY PREDICTED BY IDOCK:   -4.55 KCAL/MOL
REMARK 922        TOTAL FREE ENERGY PREDICTED BY IDOCK:   -5.48 KCAL/MOL
REMARK 923 INTER-LIGAND FREE ENERGY PREDICTED BY IDOCK:   -5.65 KCAL/MOL
REMARK 924 INTRA-LIGAND FREE ENERGY PREDICTED BY IDOCK:    0.17 KCAL/MOL
REMARK 927      BINDING AFFINITY PREDICTED BY RF-SCORE:    0.00 PKD
ROOT
HETATM    1  C   UNL     1      -9.859  19.570  69.319  1.00  0.00    -0.278 C  
HETATM    2  N   UNL     1     -10.312  19.688  67.938  1.00  0.00    -0.440 NA 
HETATM    3  C   UNL     1      -9.454  20.551  67.121  1.00  0.00    -0.404 C  
HETATM    4  C   UNL     1      -8.113  19.911  66.762  1.00  0.00    -0.349 C  
HETATM    5  C   UNL     1      -8.304  18.548  66.103  1.00  0.00    -0.166 C  
HETATM    6  C   UNL     1      -9.221  17.626  66.937  1.00  0.00    -0.270 C  
HETATM    7  C   UNL     1     -10.515  18.379  67.308  1.00  0.00    -0.405 C  
ENDROOT
BRANCH   6   8
HETATM    8  C   UNL     1      -9.476  16.325  66.136  1.00  0.00    -0.373 C  
BRANCH   8   9
HETATM    9  C   UNL     1      -9.408  14.951  66.895  1.00  0.00    -0.258 C  
HETATM   10  C   UNL     1      -9.822  13.756  66.024  1.00  0.00    -0.298 A  
HETATM   11  C   UNL     1     -10.915  13.881  65.133  1.00  0.00    -0.352 A  
HETATM   12  C   UNL     1     -11.441  12.789  64.435  1.00  0.00    -0.404 A  
HETATM   13  C   UNL     1     -10.907  11.526  64.628  1.00  0.00    -0.372 A  
HETATM   14  C   UNL     1      -9.816  11.377  65.477  1.00  0.00    -0.271 A  
HETATM   15  C   UNL     1      -9.258  12.481  66.157  1.00  0.00    -0.073 A  
HETATM   16  S   UNL     1      -7.834  12.107  67.132  1.00  0.00    -0.133 SA 
HETATM   17  C   UNL     1      -7.379  13.656  67.842  1.00  0.00    -0.148 A  
HETATM   18  C   UNL     1      -6.165  13.657  68.556  1.00  0.00    -0.091 A  
HETATM   19  C   UNL     1      -5.725  14.787  69.236  1.00  0.00    -0.097 A  
HETATM   20  C   UNL     1      -6.523  15.917  69.252  1.00  0.00    -0.159 A  
HETATM   21  C   UNL     1      -7.729  15.925  68.547  1.00  0.00    -0.147 A  
HETATM   22  C   UNL     1      -8.151  14.821  67.766  1.00  0.00    -0.161 A  
ENDBRANCH   8   9
ENDBRANCH   6   8
TORSDOF 2
ENDMDL
MODEL      134
REMARK 921   NORMALIZED FREE ENERGY PREDICTED BY IDOCK:   -4.54 KCAL/MOL
REMARK 922        TOTAL FREE ENERGY PREDICTED BY IDOCK:   -5.47 KCAL/MOL
REMARK 923 INTER-LIGAND FREE ENERGY PREDICTED BY IDOCK:   -4.85 KCAL/MOL
REMARK 924 INTRA-LIGAND FREE ENERGY PREDICTED BY IDOCK:   -0.62 KCAL/MOL
REMARK 927      BINDING AFFINITY PREDICTED BY RF-SCORE:    0.00 PKD
ROOT
HETATM    1  C   UNL     1      -5.189  11.354  70.627  1.00  0.00    -0.117 C  
HETATM    2  N   UNL     1      -5.542  10.539  69.470  1.00  0.00    -0.038 NA 
HETATM    3  C   UNL     1      -6.567   9.533  69.764  1.00  0.00    -0.051 C  
HETATM    4  C   UNL     1      -7.967  10.123  69.937  1.00  0.00    -0.149 C  
HETATM    5  C   UNL     1      -8.365  10.976  68.737  1.00  0.00    -0.144 C  
HETATM    6  C   UNL     1      -7.291  12.033  68.396  1.00  0.00    -0.096 C  
HETATM    7  C   UNL     1      -5.908  11.357  68.308  1.00  0.00    -0.045 C  
ENDROOT
BRANCH   6   8
HETATM    8  C   UNL     1      -7.705  12.756  67.090  1.00  0.00    -0.072 C  
BRANCH   8   9
HETATM    9  C   UNL     1      -9.061  13.551  67.070  1.00  0.00    -0.248 C  
HETATM   10  C   UNL     1      -8.887  15.052  67.344  1.00  0.00    -0.202 A  
HETATM   11  C   UNL     1      -7.966  15.484  68.330  1.00  0.00    -0.127 A  
HETATM   12  C   UNL     1      -7.880  16.819  68.739  1.00  0.00    -0.243 A  
HETATM   13  C   UNL     1      -8.733  17.764  68.194  1.00  0.00    -0.266 A  
HETATM   14  C   UNL     1      -9.628  17.373  67.205  1.00  0.00    -0.258 A  
HETATM   15  C   UNL     1      -9.697  16.034  66.763  1.00  0.00    -0.239 A  
HETATM   16  S   UNL     1     -10.844  15.746  65.451  1.00  0.00    -0.339 SA 
HETATM   17  C   UNL     1     -10.703  14.018  65.127  1.00  0.00    -0.382 A  
HETATM   18  C   UNL     1     -11.417  13.556  64.005  1.00  0.00    -0.357 A  
HETATM   19  C   UNL     1     -11.463  12.205  63.681  1.00  0.00    -0.566 A  
HETATM   20  C   UNL     1     -10.833  11.292  64.509  1.00  0.00    -0.354 A  
HETATM   21  C   UNL     1     -10.123  11.741  65.624  1.00  0.00    -0.278 A  
HETATM   22  C   UNL     1      -9.980  13.119  65.919  1.00  0.00    -0.275 A  
ENDBRANCH   8   9
ENDBRANCH   6   8
TORSDOF 2
ENDMDL
MODEL      135
REMARK 921   NORMALIZED FREE ENERGY PREDICTED BY IDOCK:   -4.52 KCAL/MOL
REMARK 922        TOTAL FREE ENERGY PREDICTED BY IDOCK:   -5.45 KCAL/MOL
REMARK 923 INTER-LIGAND FREE ENERGY PREDICTED BY IDOCK:   -5.22 KCAL/MOL
REMARK 924 INTRA-LIGAND FREE ENERGY PREDICTED BY IDOCK:   -0.22 KCAL/MOL
REMARK 927      BINDING AFFINITY PREDICTED BY RF-SCORE:    0.00 PKD
ROOT
HETATM    1  C   UNL     1      -7.774  17.700  66.301  1.00  0.00    -0.289 C  
HETATM    2  N   UNL     1      -7.138  17.105  67.472  1.00  0.00    -0.150 NA 
HETATM    3  C   UNL     1      -7.877  17.346  68.714  1.00  0.00    -0.250 C  
HETATM    4  C   UNL     1      -9.158  16.519  68.830  1.00  0.00    -0.256 C  
HETATM    5  C   UNL     1      -8.880  15.031  68.637  1.00  0.00    -0.185 C  
HETATM    6  C   UNL     1      -8.085  14.754  67.342  1.00  0.00    -0.220 C  
HETATM    7  C   UNL     1      -6.853  15.679  67.282  1.00  0.00    -0.162 C  
ENDROOT
BRANCH   6   8
HETATM    8  C   UNL     1      -7.726  13.248  67.295  1.00  0.00    -0.100 C  
BRANCH   8   9
HETATM    9  C   UNL     1      -8.887  12.205  67.112  1.00  0.00    -0.191 C  
HETATM   10  C   UNL     1      -9.097  11.310  68.342  1.00  0.00    -0.170 A  
HETATM   11  C   UNL     1      -7.975  10.821  69.055  1.00  0.00    -0.137 A  
HETATM   12  C   UNL     1      -8.094   9.875  70.080  1.00  0.00    -0.193 A  
HETATM   13  C   UNL     1      -9.338   9.365  70.406  1.00  0.00    -0.317 A  
HETATM   14  C   UNL     1     -10.460   9.846  69.741  1.00  0.00    -0.292 A  
HETATM   15  C   UNL     1     -10.352  10.825  68.730  1.00  0.00    -0.192 A  
HETATM   16  S   UNL     1     -11.891  11.362  68.052  1.00  0.00    -0.112 SA 
HETATM   17  C   UNL     1     -11.435  12.560  66.841  1.00  0.00    -0.353 A  
HETATM   18  C   UNL     1     -12.506  13.259  66.251  1.00  0.00    -0.283 A  
HETATM   19  C   UNL     1     -12.298  14.172  65.225  1.00  0.00    -0.469 A  
HETATM   20  C   UNL     1     -11.015  14.360  64.739  1.00  0.00    -0.409 A  
HETATM   21  C   UNL     1      -9.947  13.671  65.318  1.00  0.00    -0.229 A  
HETATM   22  C   UNL     1     -10.121  12.811  66.429  1.00  0.00    -0.266 A  
ENDBRANCH   8   9
ENDBRANCH   6   8
TORSDOF 2
ENDMDL
MODEL      136
REMARK 921   NORMALIZED FREE ENERGY PREDICTED BY IDOCK:   -4.52 KCAL/MOL
REMARK 922        TOTAL FREE ENERGY PREDICTED BY IDOCK:   -5.45 KCAL/MOL
REMARK 923 INTER-LIGAND FREE ENERGY PREDICTED BY IDOCK:   -4.85 KCAL/MOL
REMARK 924 INTRA-LIGAND FREE ENERGY PREDICTED BY IDOCK:   -0.60 KCAL/MOL
REMARK 927      BINDING AFFINITY PREDICTED BY RF-SCORE:    0.00 PKD
ROOT
HETATM    1  C   UNL     1      -7.775  14.231  68.920  1.00  0.00    -0.112 C  
HETATM    2  N   UNL     1      -7.883  13.438  67.701  1.00  0.00    -0.159 NA 
HETATM    3  C   UNL     1      -6.627  12.781  67.328  1.00  0.00    -0.075 C  
HETATM    4  C   UNL     1      -6.272  11.594  68.223  1.00  0.00    -0.049 C  
HETATM    5  C   UNL     1      -7.416  10.587  68.294  1.00  0.00    -0.090 C  
HETATM    6  C   UNL     1      -8.756  11.259  68.668  1.00  0.00    -0.136 C  
HETATM    7  C   UNL     1      -8.994  12.482  67.759  1.00  0.00    -0.184 C  
ENDROOT
BRANCH   6   8
HETATM    8  C   UNL     1      -9.883  10.200  68.580  1.00  0.00    -0.170 C  
BRANCH   8   9
HETATM    9  C   UNL     1     -10.227   9.363  69.865  1.00  0.00    -0.247 C  
HETATM   10  C   UNL     1     -11.514   9.824  70.562  1.00  0.00    -0.370 A  
HETATM   11  C   UNL     1     -11.798  11.208  70.669  1.00  0.00    -0.403 A  
HETATM   12  C   UNL     1     -12.866  11.695  71.431  1.00  0.00    -0.461 A  
HETATM   13  C   UNL     1     -13.670  10.815  72.135  1.00  0.00     0.037 A  
HETATM   14  C   UNL     1     -13.431   9.450  72.027  1.00  0.00    -0.522 A  
HETATM   15  C   UNL     1     -12.377   8.948  71.233  1.00  0.00    -0.291 A  
HETATM   16  S   UNL     1     -12.277   7.187  71.163  1.00  0.00    -0.358 SA 
HETATM   17  C   UNL     1     -10.891   6.875  70.118  1.00  0.00    -0.263 A  
HETATM   18  C   UNL     1     -10.685   5.524  69.777  1.00  0.00    -0.355 A  
HETATM   19  C   UNL     1      -9.585   5.125  69.028  1.00  0.00    -0.204 A  
HETATM   20  C   UNL     1      -8.645   6.070  68.653  1.00  0.00    -0.112 A  
HETATM   21  C   UNL     1      -8.841   7.412  68.988  1.00  0.00    -0.132 A  
HETATM   22  C   UNL     1     -10.003   7.857  69.664  1.00  0.00    -0.191 A  
ENDBRANCH   8   9
ENDBRANCH   6   8
TORSDOF 2
ENDMDL
MODEL      137
REMARK 921   NORMALIZED FREE ENERGY PREDICTED BY IDOCK:   -4.52 KCAL/MOL
REMARK 922        TOTAL FREE ENERGY PREDICTED BY IDOCK:   -5.44 KCAL/MOL
REMARK 923 INTER-LIGAND FREE ENERGY PREDICTED BY IDOCK:   -4.81 KCAL/MOL
REMARK 924 INTRA-LIGAND FREE ENERGY PREDICTED BY IDOCK:   -0.63 KCAL/MOL
REMARK 927      BINDING AFFINITY PREDICTED BY RF-SCORE:    0.00 PKD
ROOT
HETATM    1  C   UNL     1     -10.346   9.607  70.823  1.00  0.00    -0.286 C  
HETATM    2  N   UNL     1     -11.537   9.808  70.004  1.00  0.00    -0.181 NA 
HETATM    3  C   UNL     1     -12.639  10.438  70.734  1.00  0.00    -0.371 C  
HETATM    4  C   UNL     1     -12.417  11.926  71.006  1.00  0.00    -0.390 C  
HETATM    5  C   UNL     1     -12.106  12.688  69.722  1.00  0.00    -0.301 C  
HETATM    6  C   UNL     1     -10.957  12.031  68.924  1.00  0.00    -0.277 C  
HETATM    7  C   UNL     1     -11.237  10.524  68.759  1.00  0.00    -0.262 C  
ENDROOT
BRANCH   6   8
HETATM    8  C   UNL     1     -10.801  12.778  67.576  1.00  0.00    -0.263 C  
BRANCH   8   9
HETATM    9  C   UNL     1      -9.367  12.892  66.944  1.00  0.00    -0.240 C  
HETATM   10  C   UNL     1      -8.337  13.529  67.887  1.00  0.00    -0.175 A  
HETATM   11  C   UNL     1      -8.711  14.630  68.695  1.00  0.00    -0.174 A  
HETATM   12  C   UNL     1      -7.782  15.354  69.450  1.00  0.00    -0.227 A  
HETATM   13  C   UNL     1      -6.440  15.017  69.400  1.00  0.00    -0.135 A  
HETATM   14  C   UNL     1      -6.048  13.925  68.636  1.00  0.00    -0.088 A  
HETATM   15  C   UNL     1      -6.984  13.168  67.898  1.00  0.00    -0.132 A  
HETATM   16  S   UNL     1      -6.307  11.776  67.049  1.00  0.00    -0.130 SA 
HETATM   17  C   UNL     1      -7.694  11.049  66.238  1.00  0.00    -0.132 A  
HETATM   18  C   UNL     1      -7.443   9.818  65.603  1.00  0.00    -0.110 A  
HETATM   19  C   UNL     1      -8.423   9.174  64.857  1.00  0.00    -0.191 A  
HETATM   20  C   UNL     1      -9.656   9.782  64.695  1.00  0.00    -0.244 A  
HETATM   21  C   UNL     1      -9.913  11.004  65.321  1.00  0.00    -0.320 A  
HETATM   22  C   UNL     1      -8.965  11.631  66.166  1.00  0.00    -0.180 A  
ENDBRANCH   8   9
ENDBRANCH   6   8
TORSDOF 2
ENDMDL
MODEL      138
REMARK 921   NORMALIZED FREE ENERGY PREDICTED BY IDOCK:   -4.51 KCAL/MOL
REMARK 922        TOTAL FREE ENERGY PREDICTED BY IDOCK:   -5.43 KCAL/MOL
REMARK 923 INTER-LIGAND FREE ENERGY PREDICTED BY IDOCK:   -4.84 KCAL/MOL
REMARK 924 INTRA-LIGAND FREE ENERGY PREDICTED BY IDOCK:   -0.60 KCAL/MOL
REMARK 927      BINDING AFFINITY PREDICTED BY RF-SCORE:    0.00 PKD
ROOT
HETATM    1  C   UNL     1      -9.710  15.697  69.598  1.00  0.00    -0.276 C  
HETATM    2  N   UNL     1     -10.926  15.426  68.838  1.00  0.00    -0.247 NA 
HETATM    3  C   UNL     1     -10.951  16.094  67.534  1.00  0.00    -0.238 C  
HETATM    4  C   UNL     1     -10.014  15.459  66.507  1.00  0.00    -0.282 C  
HETATM    5  C   UNL     1     -10.277  13.963  66.361  1.00  0.00    -0.292 C  
HETATM    6  C   UNL     1     -10.273  13.239  67.726  1.00  0.00    -0.228 C  
HETATM    7  C   UNL     1     -11.191  13.989  68.712  1.00  0.00    -0.271 C  
ENDROOT
BRANCH   6   8
HETATM    8  C   UNL     1     -10.685  11.763  67.504  1.00  0.00    -0.262 C  
BRANCH   8   9
HETATM    9  C   UNL     1      -9.759  10.631  68.079  1.00  0.00    -0.170 C  
HETATM   10  C   UNL     1     -10.488   9.681  69.040  1.00  0.00    -0.229 A  
HETATM   11  C   UNL     1     -11.425  10.201  69.966  1.00  0.00    -0.344 A  
HETATM   12  C   UNL     1     -11.998   9.415  70.971  1.00  0.00    -0.389 A  
HETATM   13  C   UNL     1     -11.632   8.086  71.101  1.00  0.00    -0.307 A  
HETATM   14  C   UNL     1     -10.735   7.542  70.190  1.00  0.00    -0.248 A  
HETATM   15  C   UNL     1     -10.178   8.320  69.151  1.00  0.00    -0.218 A  
HETATM   16  S   UNL     1      -9.116   7.436  68.052  1.00  0.00    -0.129 SA 
HETATM   17  C   UNL     1      -8.589   8.654  66.890  1.00  0.00    -0.120 A  
HETATM   18  C   UNL     1      -7.840   8.164  65.802  1.00  0.00    -0.096 A  
HETATM   19  C   UNL     1      -7.291   9.021  64.856  1.00  0.00    -0.100 A  
HETATM   20  C   UNL     1      -7.443  10.388  65.015  1.00  0.00    -0.079 A  
HETATM   21  C   UNL     1      -8.185  10.882  66.091  1.00  0.00    -0.168 A  
HETATM   22  C   UNL     1      -8.836  10.026  67.012  1.00  0.00    -0.147 A  
ENDBRANCH   8   9
ENDBRANCH   6   8
TORSDOF 2
ENDMDL
MODEL      139
REMARK 921   NORMALIZED FREE ENERGY PREDICTED BY IDOCK:   -4.50 KCAL/MOL
REMARK 922        TOTAL FREE ENERGY PREDICTED BY IDOCK:   -5.42 KCAL/MOL
REMARK 923 INTER-LIGAND FREE ENERGY PREDICTED BY IDOCK:   -4.91 KCAL/MOL
REMARK 924 INTRA-LIGAND FREE ENERGY PREDICTED BY IDOCK:   -0.51 KCAL/MOL
REMARK 927      BINDING AFFINITY PREDICTED BY RF-SCORE:    0.00 PKD
ROOT
HETATM    1  C   UNL     1     -12.947  10.550  70.790  1.00  0.00    -0.330 C  
HETATM    2  N   UNL     1     -12.403   9.766  71.894  1.00  0.00    -0.368 NA 
HETATM    3  C   UNL     1     -13.393   8.885  72.518  1.00  0.00    -0.399 C  
HETATM    4  C   UNL     1     -13.753   7.671  71.662  1.00  0.00    -0.454 C  
HETATM    5  C   UNL     1     -12.508   6.890  71.251  1.00  0.00    -0.409 C  
HETATM    6  C   UNL     1     -11.441   7.802  70.606  1.00  0.00    -0.259 C  
HETATM    7  C   UNL     1     -11.195   9.029  71.506  1.00  0.00    -0.348 C  
ENDROOT
BRANCH   6   8
HETATM    8  C   UNL     1     -10.164   6.963  70.349  1.00  0.00    -0.209 C  
BRANCH   8   9
HETATM    9  C   UNL     1     -10.076   6.116  69.029  1.00  0.00    -0.213 C  
HETATM   10  C   UNL     1      -9.510   6.906  67.839  1.00  0.00    -0.120 A  
HETATM   11  C   UNL     1      -9.891   8.256  67.647  1.00  0.00    -0.218 A  
HETATM   12  C   UNL     1      -9.541   8.976  66.499  1.00  0.00    -0.286 A  
HETATM   13  C   UNL     1      -8.820   8.359  65.491  1.00  0.00    -0.172 A  
HETATM   14  C   UNL     1      -8.410   7.042  65.664  1.00  0.00    -0.137 A  
HETATM   15  C   UNL     1      -8.730   6.320  66.835  1.00  0.00    -0.113 A  
HETATM   16  S   UNL     1      -8.060   4.688  66.903  1.00  0.00    -0.102 SA 
HETATM   17  C   UNL     1      -8.622   4.056  68.451  1.00  0.00    -0.095 A  
HETATM   18  C   UNL     1      -8.093   2.804  68.818  1.00  0.00    -0.069 A  
HETATM   19  C   UNL     1      -8.511   2.150  69.971  1.00  0.00    -0.086 A  
HETATM   20  C   UNL     1      -9.505   2.721  70.747  1.00  0.00    -0.219 A  
HETATM   21  C   UNL     1     -10.036   3.963  70.390  1.00  0.00    -0.055 A  
HETATM   22  C   UNL     1      -9.557   4.693  69.276  1.00  0.00    -0.251 A  
ENDBRANCH   8   9
ENDBRANCH   6   8
TORSDOF 2
ENDMDL
MODEL      140
REMARK 921   NORMALIZED FREE ENERGY PREDICTED BY IDOCK:   -4.50 KCAL/MOL
REMARK 922        TOTAL FREE ENERGY PREDICTED BY IDOCK:   -5.42 KCAL/MOL
REMARK 923 INTER-LIGAND FREE ENERGY PREDICTED BY IDOCK:   -5.32 KCAL/MOL
REMARK 924 INTRA-LIGAND FREE ENERGY PREDICTED BY IDOCK:   -0.09 KCAL/MOL
REMARK 927      BINDING AFFINITY PREDICTED BY RF-SCORE:    0.00 PKD
ROOT
HETATM    1  C   UNL     1      -7.014  14.089  67.721  1.00  0.00    -0.177 C  
HETATM    2  N   UNL     1      -6.947  12.800  67.040  1.00  0.00     0.025 NA 
HETATM    3  C   UNL     1      -6.034  11.854  67.688  1.00  0.00    -0.084 C  
HETATM    4  C   UNL     1      -6.580  11.280  68.996  1.00  0.00    -0.079 C  
HETATM    5  C   UNL     1      -7.961  10.663  68.801  1.00  0.00    -0.135 C  
HETATM    6  C   UNL     1      -8.937  11.636  68.103  1.00  0.00    -0.182 C  
HETATM    7  C   UNL     1      -8.275  12.213  66.835  1.00  0.00    -0.134 C  
ENDROOT
BRANCH   6   8
HETATM    8  C   UNL     1     -10.263  10.888  67.818  1.00  0.00    -0.209 C  
BRANCH   8   9
HETATM    9  C   UNL     1     -10.649  10.588  66.324  1.00  0.00    -0.203 C  
HETATM   10  C   UNL     1     -11.101  11.837  65.553  1.00  0.00    -0.336 A  
HETATM   11  C   UNL     1     -11.924  12.797  66.191  1.00  0.00    -0.476 A  
HETATM   12  C   UNL     1     -12.500  13.867  65.498  1.00  0.00    -0.541 A  
HETATM   13  C   UNL     1     -12.295  13.997  64.135  1.00  0.00    -0.374 A  
HETATM   14  C   UNL     1     -11.471  13.084  63.488  1.00  0.00    -0.403 A  
HETATM   15  C   UNL     1     -10.858  12.021  64.187  1.00  0.00    -0.352 A  
HETATM   16  S   UNL     1      -9.790  11.011  63.209  1.00  0.00    -0.380 SA 
HETATM   17  C   UNL     1      -9.189   9.799  64.340  1.00  0.00    -0.245 A  
HETATM   18  C   UNL     1      -8.186   8.948  63.835  1.00  0.00    -0.171 A  
HETATM   19  C   UNL     1      -7.681   7.896  64.589  1.00  0.00    -0.120 A  
HETATM   20  C   UNL     1      -8.211   7.650  65.844  1.00  0.00    -0.133 A  
HETATM   21  C   UNL     1      -9.205   8.488  66.352  1.00  0.00    -0.251 A  
HETATM   22  C   UNL     1      -9.666   9.624  65.644  1.00  0.00    -0.363 A  
ENDBRANCH   8   9
ENDBRANCH   6   8
TORSDOF 2
ENDMDL
MODEL      141
REMARK 921   NORMALIZED FREE ENERGY PREDICTED BY IDOCK:   -4.49 KCAL/MOL
REMARK 922        TOTAL FREE ENERGY PREDICTED BY IDOCK:   -5.41 KCAL/MOL
REMARK 923 INTER-LIGAND FREE ENERGY PREDICTED BY IDOCK:   -4.64 KCAL/MOL
REMARK 924 INTRA-LIGAND FREE ENERGY PREDICTED BY IDOCK:   -0.77 KCAL/MOL
REMARK 927      BINDING AFFINITY PREDICTED BY RF-SCORE:    0.00 PKD
ROOT
HETATM    1  C   UNL     1     -10.695  16.108  67.683  1.00  0.00    -0.318 C  
HETATM    2  N   UNL     1     -10.179  16.534  66.386  1.00  0.00    -0.304 NA 
HETATM    3  C   UNL     1     -10.646  17.865  65.990  1.00  0.00    -0.234 C  
HETATM    4  C   UNL     1      -9.982  19.000  66.770  1.00  0.00    -0.417 C  
HETATM    5  C   UNL     1      -8.461  18.910  66.701  1.00  0.00    -0.308 C  
HETATM    6  C   UNL     1      -7.946  17.508  67.097  1.00  0.00    -0.229 C  
HETATM    7  C   UNL     1      -8.718  16.431  66.310  1.00  0.00    -0.334 C  
ENDROOT
BRANCH   6   8
HETATM    8  C   UNL     1      -6.415  17.460  66.865  1.00  0.00    -0.219 C  
BRANCH   8   9
HETATM    9  C   UNL     1      -5.476  17.234  68.104  1.00  0.00    -0.125 C  
HETATM   10  C   UNL     1      -5.504  18.397  69.106  1.00  0.00    -0.205 A  
HETATM   11  C   UNL     1      -5.543  19.731  68.634  1.00  0.00    -0.236 A  
HETATM   12  C   UNL     1      -5.407  20.832  69.487  1.00  0.00    -0.406 A  
HETATM   13  C   UNL     1      -5.199  20.633  70.842  1.00  0.00    -0.247 A  
HETATM   14  C   UNL     1      -5.183  19.334  71.337  1.00  0.00    -0.340 A  
HETATM   15  C   UNL     1      -5.354  18.220  70.487  1.00  0.00    -0.264 A  
HETATM   16  S   UNL     1      -5.377  16.658  71.310  1.00  0.00     0.217 SA 
HETATM   17  C   UNL     1      -5.601  15.488  70.008  1.00  0.00    -0.135 A  
HETATM   18  C   UNL     1      -5.804  14.158  70.423  1.00  0.00    -0.158 A  
HETATM   19  C   UNL     1      -5.912  13.121  69.504  1.00  0.00    -0.108 A  
HETATM   20  C   UNL     1      -5.767  13.398  68.155  1.00  0.00    -0.108 A  
HETATM   21  C   UNL     1      -5.564  14.714  67.735  1.00  0.00    -0.059 A  
HETATM   22  C   UNL     1      -5.549  15.800  68.645  1.00  0.00    -0.102 A  
ENDBRANCH   8   9
ENDBRANCH   6   8
TORSDOF 2
ENDMDL
MODEL      142
REMARK 921   NORMALIZED FREE ENERGY PREDICTED BY IDOCK:   -4.48 KCAL/MOL
REMARK 922        TOTAL FREE ENERGY PREDICTED BY IDOCK:   -5.40 KCAL/MOL
REMARK 923 INTER-LIGAND FREE ENERGY PREDICTED BY IDOCK:   -4.65 KCAL/MOL
REMARK 924 INTRA-LIGAND FREE ENERGY PREDICTED BY IDOCK:   -0.75 KCAL/MOL
REMARK 927      BINDING AFFINITY PREDICTED BY RF-SCORE:    0.00 PKD
ROOT
HETATM    1  C   UNL     1      -5.541  21.312  65.024  1.00  0.00    -0.138 C  
HETATM    2  N   UNL     1      -5.432  20.649  66.319  1.00  0.00    -0.176 NA 
HETATM    3  C   UNL     1      -6.298  21.239  67.343  1.00  0.00    -0.356 C  
HETATM    4  C   UNL     1      -7.778  20.907  67.153  1.00  0.00    -0.259 C  
HETATM    5  C   UNL     1      -8.003  19.402  67.046  1.00  0.00    -0.287 C  
HETATM    6  C   UNL     1      -7.087  18.754  65.984  1.00  0.00    -0.302 C  
HETATM    7  C   UNL     1      -5.629  19.199  66.216  1.00  0.00    -0.156 C  
ENDROOT
BRANCH   6   8
HETATM    8  C   UNL     1      -7.277  17.218  66.038  1.00  0.00    -0.219 C  
BRANCH   8   9
HETATM    9  C   UNL     1      -8.177  16.613  67.175  1.00  0.00    -0.206 C  
HETATM   10  C   UNL     1      -9.364  15.799  66.639  1.00  0.00    -0.284 A  
HETATM   11  C   UNL     1     -10.078  16.260  65.506  1.00  0.00    -0.276 A  
HETATM   12  C   UNL     1     -11.261  15.654  65.070  1.00  0.00    -0.335 A  
HETATM   13  C   UNL     1     -11.786  14.581  65.770  1.00  0.00    -0.344 A  
HETATM   14  C   UNL     1     -11.092  14.090  66.870  1.00  0.00    -0.310 A  
HETATM   15  C   UNL     1      -9.879  14.675  67.296  1.00  0.00    -0.231 A  
HETATM   16  S   UNL     1      -9.110  13.868  68.665  1.00  0.00    -0.017 SA 
HETATM   17  C   UNL     1      -7.648  14.812  68.955  1.00  0.00    -0.144 A  
HETATM   18  C   UNL     1      -6.768  14.279  69.916  1.00  0.00    -0.068 A  
HETATM   19  C   UNL     1      -5.619  14.958  70.303  1.00  0.00    -0.127 A  
HETATM   20  C   UNL     1      -5.363  16.209  69.768  1.00  0.00    -0.133 A  
HETATM   21  C   UNL     1      -6.231  16.746  68.814  1.00  0.00    -0.151 A  
HETATM   22  C   UNL     1      -7.353  16.030  68.332  1.00  0.00    -0.131 A  
ENDBRANCH   8   9
ENDBRANCH   6   8
TORSDOF 2
ENDMDL
MODEL      143
REMARK 921   NORMALIZED FREE ENERGY PREDICTED BY IDOCK:   -4.48 KCAL/MOL
REMARK 922        TOTAL FREE ENERGY PREDICTED BY IDOCK:   -5.40 KCAL/MOL
REMARK 923 INTER-LIGAND FREE ENERGY PREDICTED BY IDOCK:   -4.91 KCAL/MOL
REMARK 924 INTRA-LIGAND FREE ENERGY PREDICTED BY IDOCK:   -0.48 KCAL/MOL
REMARK 927      BINDING AFFINITY PREDICTED BY RF-SCORE:    0.00 PKD
ROOT
HETATM    1  C   UNL     1     -12.542  14.382  63.526  1.00  0.00     0.732 C  
HETATM    2  N   UNL     1     -12.627  13.282  64.481  1.00  0.00    -0.646 NA 
HETATM    3  C   UNL     1     -12.197  11.999  63.920  1.00  0.00    -0.453 C  
HETATM    4  C   UNL     1     -10.683  11.892  63.735  1.00  0.00    -0.476 C  
HETATM    5  C   UNL     1      -9.939  12.200  65.030  1.00  0.00    -0.242 C  
HETATM    6  C   UNL     1     -10.389  13.541  65.651  1.00  0.00    -0.303 C  
HETATM    7  C   UNL     1     -11.928  13.583  65.735  1.00  0.00    -0.403 C  
ENDROOT
BRANCH   6   8
HETATM    8  C   UNL     1      -9.694  13.709  67.025  1.00  0.00    -0.251 C  
BRANCH   8   9
HETATM    9  C   UNL     1      -8.526  14.752  67.153  1.00  0.00    -0.247 C  
HETATM   10  C   UNL     1      -9.011  16.163  67.516  1.00  0.00    -0.197 A  
HETATM   11  C   UNL     1     -10.193  16.674  66.926  1.00  0.00    -0.291 A  
HETATM   12  C   UNL     1     -10.597  18.003  67.089  1.00  0.00    -0.337 A  
HETATM   13  C   UNL     1      -9.816  18.876  67.827  1.00  0.00    -0.389 A  
HETATM   14  C   UNL     1      -8.664  18.396  68.439  1.00  0.00    -0.337 A  
HETATM   15  C   UNL     1      -8.268  17.047  68.308  1.00  0.00    -0.227 A  
HETATM   16  S   UNL     1      -6.819  16.609  69.217  1.00  0.00    -0.215 SA 
HETATM   17  C   UNL     1      -6.585  14.898  68.857  1.00  0.00    -0.090 A  
HETATM   18  C   UNL     1      -5.565  14.262  69.590  1.00  0.00    -0.096 A  
HETATM   19  C   UNL     1      -5.217  12.938  69.350  1.00  0.00    -0.075 A  
HETATM   20  C   UNL     1      -5.854  12.247  68.334  1.00  0.00    -0.054 A  
HETATM   21  C   UNL     1      -6.868  12.870  67.602  1.00  0.00    -0.149 A  
HETATM   22  C   UNL     1      -7.307  14.184  67.893  1.00  0.00    -0.163 A  
ENDBRANCH   8   9
ENDBRANCH   6   8
TORSDOF 2
ENDMDL
MODEL      144
REMARK 921   NORMALIZED FREE ENERGY PREDICTED BY IDOCK:   -4.45 KCAL/MOL
REMARK 922        TOTAL FREE ENERGY PREDICTED BY IDOCK:   -5.37 KCAL/MOL
REMARK 923 INTER-LIGAND FREE ENERGY PREDICTED BY IDOCK:   -4.65 KCAL/MOL
REMARK 924 INTRA-LIGAND FREE ENERGY PREDICTED BY IDOCK:   -0.72 KCAL/MOL
REMARK 927      BINDING AFFINITY PREDICTED BY RF-SCORE:    0.00 PKD
ROOT
HETATM    1  C   UNL     1     -10.373   5.374  71.698  1.00  0.00    -0.218 C  
HETATM    2  N   UNL     1     -11.277   6.473  72.021  1.00  0.00    -0.259 NA 
HETATM    3  C   UNL     1     -10.776   7.333  73.096  1.00  0.00    -0.365 C  
HETATM    4  C   UNL     1      -9.623   8.239  72.664  1.00  0.00    -0.352 C  
HETATM    5  C   UNL     1      -9.990   9.060  71.432  1.00  0.00    -0.388 C  
HETATM    6  C   UNL     1     -10.538   8.176  70.290  1.00  0.00    -0.228 C  
HETATM    7  C   UNL     1     -11.646   7.253  70.835  1.00  0.00    -0.300 C  
ENDROOT
BRANCH   6   8
HETATM    8  C   UNL     1     -11.016   9.095  69.138  1.00  0.00    -0.057 C  
BRANCH   8   9
HETATM    9  C   UNL     1     -10.182   9.125  67.807  1.00  0.00    -0.278 C  
HETATM   10  C   UNL     1      -8.980  10.079  67.866  1.00  0.00    -0.131 A  
HETATM   11  C   UNL     1      -9.111  11.335  68.506  1.00  0.00    -0.173 A  
HETATM   12  C   UNL     1      -8.109  12.310  68.452  1.00  0.00    -0.151 A  
HETATM   13  C   UNL     1      -6.951  12.071  67.732  1.00  0.00    -0.103 A  
HETATM   14  C   UNL     1      -6.784  10.836  67.116  1.00  0.00    -0.084 A  
HETATM   15  C   UNL     1      -7.776   9.834  67.195  1.00  0.00    -0.095 A  
HETATM   16  S   UNL     1      -7.352   8.310  66.411  1.00  0.00    -0.080 SA 
HETATM   17  C   UNL     1      -8.761   7.283  66.675  1.00  0.00    -0.132 A  
HETATM   18  C   UNL     1      -8.614   5.942  66.270  1.00  0.00    -0.132 A  
HETATM   19  C   UNL     1      -9.671   5.043  66.343  1.00  0.00    -0.194 A  
HETATM   20  C   UNL     1     -10.907   5.489  66.777  1.00  0.00    -0.252 A  
HETATM   21  C   UNL     1     -11.062   6.817  67.181  1.00  0.00    -0.404 A  
HETATM   22  C   UNL     1      -9.977   7.726  67.209  1.00  0.00    -0.277 A  
ENDBRANCH   8   9
ENDBRANCH   6   8
TORSDOF 2
ENDMDL
MODEL      145
REMARK 921   NORMALIZED FREE ENERGY PREDICTED BY IDOCK:   -4.45 KCAL/MOL
REMARK 922        TOTAL FREE ENERGY PREDICTED BY IDOCK:   -5.36 KCAL/MOL
REMARK 923 INTER-LIGAND FREE ENERGY PREDICTED BY IDOCK:   -4.88 KCAL/MOL
REMARK 924 INTRA-LIGAND FREE ENERGY PREDICTED BY IDOCK:   -0.49 KCAL/MOL
REMARK 927      BINDING AFFINITY PREDICTED BY RF-SCORE:    0.00 PKD
ROOT
HETATM    1  C   UNL     1     -11.499  11.704  67.018  1.00  0.00    -0.262 C  
HETATM    2  N   UNL     1     -10.928  12.270  68.235  1.00  0.00    -0.218 NA 
HETATM    3  C   UNL     1     -11.896  12.378  69.330  1.00  0.00    -0.304 C  
HETATM    4  C   UNL     1     -12.247  11.034  69.967  1.00  0.00    -0.418 C  
HETATM    5  C   UNL     1     -10.996  10.285  70.415  1.00  0.00    -0.365 C  
HETATM    6  C   UNL     1      -9.952  10.173  69.282  1.00  0.00    -0.234 C  
HETATM    7  C   UNL     1      -9.714  11.563  68.658  1.00  0.00    -0.165 C  
ENDROOT
BRANCH   6   8
HETATM    8  C   UNL     1      -8.665   9.530  69.856  1.00  0.00    -0.224 C  
BRANCH   8   9
HETATM    9  C   UNL     1      -8.605   7.965  69.990  1.00  0.00    -0.135 C  
HETATM   10  C   UNL     1      -9.415   7.427  71.178  1.00  0.00    -0.157 A  
HETATM   11  C   UNL     1      -9.401   8.124  72.411  1.00  0.00    -0.308 A  
HETATM   12  C   UNL     1      -9.983   7.602  73.572  1.00  0.00    -0.354 A  
HETATM   13  C   UNL     1     -10.576   6.351  73.544  1.00  0.00    -0.297 A  
HETATM   14  C   UNL     1     -10.627   5.656  72.342  1.00  0.00    -0.270 A  
HETATM   15  C   UNL     1     -10.073   6.191  71.158  1.00  0.00    -0.190 A  
HETATM   16  S   UNL     1     -10.301   5.195  69.718  1.00  0.00    -0.197 SA 
HETATM   17  C   UNL     1      -9.515   6.111  68.432  1.00  0.00    -0.118 A  
HETATM   18  C   UNL     1      -9.687   5.595  67.133  1.00  0.00    -0.151 A  
HETATM   19  C   UNL     1      -9.056   6.169  66.036  1.00  0.00    -0.136 A  
HETATM   20  C   UNL     1      -8.200   7.239  66.233  1.00  0.00    -0.123 A  
HETATM   21  C   UNL     1      -8.023   7.757  67.518  1.00  0.00    -0.123 A  
HETATM   22  C   UNL     1      -8.731   7.253  68.636  1.00  0.00    -0.127 A  
ENDBRANCH   8   9
ENDBRANCH   6   8
TORSDOF 2
ENDMDL
MODEL      146
REMARK 921   NORMALIZED FREE ENERGY PREDICTED BY IDOCK:   -4.44 KCAL/MOL
REMARK 922        TOTAL FREE ENERGY PREDICTED BY IDOCK:   -5.36 KCAL/MOL
REMARK 923 INTER-LIGAND FREE ENERGY PREDICTED BY IDOCK:   -4.75 KCAL/MOL
REMARK 924 INTRA-LIGAND FREE ENERGY PREDICTED BY IDOCK:   -0.61 KCAL/MOL
REMARK 927      BINDING AFFINITY PREDICTED BY RF-SCORE:    0.00 PKD
ROOT
HETATM    1  C   UNL     1      -7.933   7.753  64.594  1.00  0.00    -0.136 C  
HETATM    2  N   UNL     1      -7.473   9.049  64.107  1.00  0.00    -0.107 NA 
HETATM    3  C   UNL     1      -8.420   9.690  63.191  1.00  0.00    -0.189 C  
HETATM    4  C   UNL     1      -9.661  10.248  63.889  1.00  0.00    -0.354 C  
HETATM    5  C   UNL     1      -9.283  11.187  65.030  1.00  0.00    -0.190 C  
HETATM    6  C   UNL     1      -8.271  10.540  66.001  1.00  0.00    -0.150 C  
HETATM    7  C   UNL     1      -7.092   9.948  65.202  1.00  0.00    -0.129 C  
ENDROOT
BRANCH   6   8
HETATM    8  C   UNL     1      -7.836  11.602  67.042  1.00  0.00    -0.164 C  
BRANCH   8   9
HETATM    9  C   UNL     1      -8.723  11.804  68.322  1.00  0.00    -0.167 C  
HETATM   10  C   UNL     1      -9.792  12.894  68.152  1.00  0.00    -0.227 A  
HETATM   11  C   UNL     1      -9.475  14.089  67.463  1.00  0.00    -0.221 A  
HETATM   12  C   UNL     1     -10.348  15.181  67.415  1.00  0.00    -0.244 A  
HETATM   13  C   UNL     1     -11.561  15.123  68.082  1.00  0.00    -0.358 A  
HETATM   14  C   UNL     1     -11.910  13.953  68.745  1.00  0.00    -0.396 A  
HETATM   15  C   UNL     1     -11.049  12.834  68.768  1.00  0.00    -0.260 A  
HETATM   16  S   UNL     1     -11.698  11.417  69.597  1.00  0.00    -0.376 SA 
HETATM   17  C   UNL     1     -10.416  10.213  69.459  1.00  0.00    -0.241 A  
HETATM   18  C   UNL     1     -10.750   8.924  69.919  1.00  0.00    -0.236 A  
HETATM   19  C   UNL     1      -9.811   7.899  69.946  1.00  0.00    -0.182 A  
HETATM   20  C   UNL     1      -8.509   8.167  69.560  1.00  0.00    -0.127 A  
HETATM   21  C   UNL     1      -8.170   9.443  69.103  1.00  0.00    -0.112 A  
HETATM   22  C   UNL     1      -9.130  10.475  68.973  1.00  0.00    -0.188 A  
ENDBRANCH   8   9
ENDBRANCH   6   8
TORSDOF 2
ENDMDL
MODEL      147
REMARK 921   NORMALIZED FREE ENERGY PREDICTED BY IDOCK:   -4.40 KCAL/MOL
REMARK 922        TOTAL FREE ENERGY PREDICTED BY IDOCK:   -5.31 KCAL/MOL
REMARK 923 INTER-LIGAND FREE ENERGY PREDICTED BY IDOCK:   -4.74 KCAL/MOL
REMARK 924 INTRA-LIGAND FREE ENERGY PREDICTED BY IDOCK:   -0.58 KCAL/MOL
REMARK 927      BINDING AFFINITY PREDICTED BY RF-SCORE:    0.00 PKD
ROOT
HETATM    1  C   UNL     1     -11.793   8.047  71.231  1.00  0.00    -0.294 C  
HETATM    2  N   UNL     1     -10.667   7.151  70.992  1.00  0.00    -0.229 NA 
HETATM    3  C   UNL     1     -11.012   6.003  70.150  1.00  0.00    -0.359 C  
HETATM    4  C   UNL     1     -11.204   6.364  68.677  1.00  0.00    -0.338 C  
HETATM    5  C   UNL     1      -9.992   7.105  68.121  1.00  0.00    -0.172 C  
HETATM    6  C   UNL     1      -9.597   8.311  69.003  1.00  0.00    -0.156 C  
HETATM    7  C   UNL     1      -9.493   7.864  70.475  1.00  0.00    -0.162 C  
ENDROOT
BRANCH   6   8
HETATM    8  C   UNL     1      -8.283   8.917  68.451  1.00  0.00    -0.117 C  
BRANCH   8   9
HETATM    9  C   UNL     1      -8.361   9.864  67.200  1.00  0.00    -0.121 C  
HETATM   10  C   UNL     1      -8.153   9.127  65.869  1.00  0.00    -0.111 A  
HETATM   11  C   UNL     1      -7.173   8.109  65.775  1.00  0.00    -0.068 A  
HETATM   12  C   UNL     1      -6.824   7.516  64.556  1.00  0.00    -0.051 A  
HETATM   13  C   UNL     1      -7.425   7.943  63.384  1.00  0.00    -0.122 A  
HETATM   14  C   UNL     1      -8.410   8.922  63.450  1.00  0.00    -0.177 A  
HETATM   15  C   UNL     1      -8.792   9.500  64.680  1.00  0.00    -0.213 A  
HETATM   16  S   UNL     1     -10.108  10.672  64.569  1.00  0.00    -0.330 SA 
HETATM   17  C   UNL     1     -10.351  11.206  66.233  1.00  0.00    -0.249 A  
HETATM   18  C   UNL     1     -11.462  12.045  66.440  1.00  0.00    -0.417 A  
HETATM   19  C   UNL     1     -11.726  12.606  67.684  1.00  0.00    -0.420 A  
HETATM   20  C   UNL     1     -10.847  12.373  68.728  1.00  0.00    -0.263 A  
HETATM   21  C   UNL     1      -9.741  11.542  68.531  1.00  0.00    -0.191 A  
HETATM   22  C   UNL     1      -9.507  10.881  67.301  1.00  0.00    -0.176 A  
ENDBRANCH   8   9
ENDBRANCH   6   8
TORSDOF 2
ENDMDL
MODEL      148
REMARK 921   NORMALIZED FREE ENERGY PREDICTED BY IDOCK:   -4.39 KCAL/MOL
REMARK 922        TOTAL FREE ENERGY PREDICTED BY IDOCK:   -5.30 KCAL/MOL
REMARK 923 INTER-LIGAND FREE ENERGY PREDICTED BY IDOCK:   -4.98 KCAL/MOL
REMARK 924 INTRA-LIGAND FREE ENERGY PREDICTED BY IDOCK:   -0.32 KCAL/MOL
REMARK 927      BINDING AFFINITY PREDICTED BY RF-SCORE:    0.00 PKD
ROOT
HETATM    1  C   UNL     1      -7.451   4.553  71.373  1.00  0.00    -0.068 C  
HETATM    2  N   UNL     1      -7.363   6.005  71.266  1.00  0.00    -0.079 NA 
HETATM    3  C   UNL     1      -6.237   6.454  70.442  1.00  0.00    -0.035 C  
HETATM    4  C   UNL     1      -6.450   6.227  68.945  1.00  0.00    -0.043 C  
HETATM    5  C   UNL     1      -7.759   6.847  68.467  1.00  0.00    -0.113 C  
HETATM    6  C   UNL     1      -8.959   6.402  69.333  1.00  0.00    -0.131 C  
HETATM    7  C   UNL     1      -8.626   6.606  70.824  1.00  0.00    -0.135 C  
ENDROOT
BRANCH   6   8
HETATM    8  C   UNL     1     -10.216   7.181  68.872  1.00  0.00    -0.188 C  
BRANCH   8   9
HETATM    9  C   UNL     1     -10.235   8.743  69.043  1.00  0.00    -0.218 C  
HETATM   10  C   UNL     1     -10.246   9.499  67.706  1.00  0.00    -0.265 A  
HETATM   11  C   UNL     1      -9.451   9.035  66.630  1.00  0.00    -0.251 A  
HETATM   12  C   UNL     1      -9.293   9.766  65.448  1.00  0.00    -0.311 A  
HETATM   13  C   UNL     1      -9.904  11.001  65.313  1.00  0.00    -0.309 A  
HETATM   14  C   UNL     1     -10.711  11.469  66.343  1.00  0.00    -0.320 A  
HETATM   15  C   UNL     1     -10.904  10.722  67.525  1.00  0.00    -0.288 A  
HETATM   16  S   UNL     1     -12.021  11.446  68.685  1.00  0.00    -0.151 SA 
HETATM   17  C   UNL     1     -12.051  10.302  70.026  1.00  0.00    -0.156 A  
HETATM   18  C   UNL     1     -12.996  10.579  71.033  1.00  0.00    -0.475 A  
HETATM   19  C   UNL     1     -13.073   9.808  72.187  1.00  0.00    -0.513 A  
HETATM   20  C   UNL     1     -12.168   8.777  72.371  1.00  0.00    -0.396 A  
HETATM   21  C   UNL     1     -11.227   8.495  71.377  1.00  0.00    -0.327 A  
HETATM   22  C   UNL     1     -11.193   9.203  70.151  1.00  0.00    -0.211 A  
ENDBRANCH   8   9
ENDBRANCH   6   8
TORSDOF 2
ENDMDL
MODEL      149
REMARK 921   NORMALIZED FREE ENERGY PREDICTED BY IDOCK:   -4.39 KCAL/MOL
REMARK 922        TOTAL FREE ENERGY PREDICTED BY IDOCK:   -5.30 KCAL/MOL
REMARK 923 INTER-LIGAND FREE ENERGY PREDICTED BY IDOCK:   -4.55 KCAL/MOL
REMARK 924 INTRA-LIGAND FREE ENERGY PREDICTED BY IDOCK:   -0.75 KCAL/MOL
REMARK 927      BINDING AFFINITY PREDICTED BY RF-SCORE:    0.00 PKD
ROOT
HETATM    1  C   UNL     1      -8.008   5.293  71.264  1.00  0.00    -0.109 C  
HETATM    2  N   UNL     1      -9.388   4.823  71.325  1.00  0.00    -0.142 NA 
HETATM    3  C   UNL     1     -10.174   5.479  72.373  1.00  0.00    -0.196 C  
HETATM    4  C   UNL     1     -10.545   6.925  72.041  1.00  0.00    -0.238 C  
HETATM    5  C   UNL     1     -11.244   7.025  70.689  1.00  0.00    -0.327 C  
HETATM    6  C   UNL     1     -10.442   6.324  69.570  1.00  0.00    -0.293 C  
HETATM    7  C   UNL     1     -10.057   4.901  70.021  1.00  0.00    -0.266 C  
ENDROOT
BRANCH   6   8
HETATM    8  C   UNL     1     -11.282   6.349  68.269  1.00  0.00    -0.276 C  
BRANCH   8   9
HETATM    9  C   UNL     1     -10.603   6.859  66.947  1.00  0.00    -0.372 C  
HETATM   10  C   UNL     1     -10.110   8.310  67.039  1.00  0.00    -0.353 A  
HETATM   11  C   UNL     1     -10.898   9.279  67.705  1.00  0.00    -0.192 A  
HETATM   12  C   UNL     1     -10.584  10.643  67.683  1.00  0.00    -0.288 A  
HETATM   13  C   UNL     1      -9.485  11.086  66.968  1.00  0.00    -0.191 A  
HETATM   14  C   UNL     1      -8.678  10.154  66.326  1.00  0.00    -0.152 A  
HETATM   15  C   UNL     1      -8.968   8.773  66.373  1.00  0.00    -0.158 A  
HETATM   16  S   UNL     1      -7.789   7.741  65.560  1.00  0.00    -0.118 SA 
HETATM   17  C   UNL     1      -8.416   6.108  65.787  1.00  0.00    -0.147 A  
HETATM   18  C   UNL     1      -7.567   5.071  65.353  1.00  0.00    -0.085 A  
HETATM   19  C   UNL     1      -7.968   3.741  65.396  1.00  0.00    -0.093 A  
HETATM   20  C   UNL     1      -9.247   3.435  65.828  1.00  0.00    -0.155 A  
HETATM   21  C   UNL     1     -10.095   4.458  66.261  1.00  0.00    -0.249 A  
HETATM   22  C   UNL     1      -9.675   5.809  66.319  1.00  0.00    -0.148 A  
ENDBRANCH   8   9
ENDBRANCH   6   8
TORSDOF 2
ENDMDL
MODEL      150
REMARK 921   NORMALIZED FREE ENERGY PREDICTED BY IDOCK:   -4.39 KCAL/MOL
REMARK 922        TOTAL FREE ENERGY PREDICTED BY IDOCK:   -5.30 KCAL/MOL
REMARK 923 INTER-LIGAND FREE ENERGY PREDICTED BY IDOCK:   -5.75 KCAL/MOL
REMARK 924 INTRA-LIGAND FREE ENERGY PREDICTED BY IDOCK:    0.45 KCAL/MOL
REMARK 927      BINDING AFFINITY PREDICTED BY RF-SCORE:    0.00 PKD
ROOT
HETATM    1  C   UNL     1     -10.929   5.735  71.807  1.00  0.00    -0.256 C  
HETATM    2  N   UNL     1     -10.588   6.888  72.633  1.00  0.00    -0.220 NA 
HETATM    3  C   UNL     1      -9.166   6.943  72.986  1.00  0.00    -0.132 C  
HETATM    4  C   UNL     1      -8.265   7.349  71.819  1.00  0.00    -0.107 C  
HETATM    5  C   UNL     1      -8.723   8.660  71.190  1.00  0.00    -0.244 C  
HETATM    6  C   UNL     1     -10.224   8.633  70.825  1.00  0.00    -0.250 C  
HETATM    7  C   UNL     1     -11.044   8.149  72.038  1.00  0.00    -0.306 C  
ENDROOT
BRANCH   6   8
HETATM    8  C   UNL     1     -10.638  10.040  70.326  1.00  0.00    -0.354 C  
BRANCH   8   9
HETATM    9  C   UNL     1     -11.087  10.203  68.830  1.00  0.00    -0.250 C  
HETATM   10  C   UNL     1     -11.238  11.669  68.398  1.00  0.00    -0.307 A  
HETATM   11  C   UNL     1     -11.811  12.609  69.290  1.00  0.00    -0.358 A  
HETATM   12  C   UNL     1     -12.123  13.916  68.900  1.00  0.00    -0.355 A  
HETATM   13  C   UNL     1     -11.897  14.319  67.595  1.00  0.00    -0.420 A  
HETATM   14  C   UNL     1     -11.311  13.427  66.706  1.00  0.00    -0.353 A  
HETATM   15  C   UNL     1     -10.961  12.117  67.101  1.00  0.00    -0.268 A  
HETATM   16  S   UNL     1     -10.162  11.156  65.853  1.00  0.00    -0.259 SA 
HETATM   17  C   UNL     1      -9.858   9.604  66.634  1.00  0.00    -0.224 A  
HETATM   18  C   UNL     1      -9.083   8.696  65.886  1.00  0.00    -0.259 A  
HETATM   19  C   UNL     1      -8.836   7.407  66.344  1.00  0.00    -0.176 A  
HETATM   20  C   UNL     1      -9.405   6.993  67.536  1.00  0.00    -0.134 A  
HETATM   21  C   UNL     1     -10.175   7.888  68.283  1.00  0.00    -0.240 A  
HETATM   22  C   UNL     1     -10.359   9.235  67.887  1.00  0.00    -0.279 A  
ENDBRANCH   8   9
ENDBRANCH   6   8
TORSDOF 2
ENDMDL
MODEL      151
REMARK 921   NORMALIZED FREE ENERGY PREDICTED BY IDOCK:   -4.35 KCAL/MOL
REMARK 922        TOTAL FREE ENERGY PREDICTED BY IDOCK:   -5.25 KCAL/MOL
REMARK 923 INTER-LIGAND FREE ENERGY PREDICTED BY IDOCK:   -6.16 KCAL/MOL
REMARK 924 INTRA-LIGAND FREE ENERGY PREDICTED BY IDOCK:    0.91 KCAL/MOL
REMARK 927      BINDING AFFINITY PREDICTED BY RF-SCORE:    0.00 PKD
ROOT
HETATM    1  C   UNL     1     -13.788  12.776  72.249  1.00  0.00    -0.302 C  
HETATM    2  N   UNL     1     -14.171  14.144  71.912  1.00  0.00    -0.479 NA 
HETATM    3  C   UNL     1     -13.874  15.104  72.979  1.00  0.00    -0.157 C  
HETATM    4  C   UNL     1     -12.385  15.418  73.118  1.00  0.00    -0.562 C  
HETATM    5  C   UNL     1     -11.783  15.871  71.791  1.00  0.00    -0.575 C  
HETATM    6  C   UNL     1     -12.098  14.883  70.646  1.00  0.00    -0.366 C  
HETATM    7  C   UNL     1     -13.609  14.575  70.628  1.00  0.00     0.117 C  
ENDROOT
BRANCH   6   8
HETATM    8  C   UNL     1     -11.577  15.483  69.317  1.00  0.00    -0.369 C  
BRANCH   8   9
HETATM    9  C   UNL     1     -10.914  14.520  68.268  1.00  0.00    -0.258 C  
HETATM   10  C   UNL     1     -11.254  13.041  68.503  1.00  0.00    -0.309 A  
HETATM   11  C   UNL     1     -11.297  12.531  69.823  1.00  0.00    -0.111 A  
HETATM   12  C   UNL     1     -11.440  11.166  70.094  1.00  0.00    -0.361 A  
HETATM   13  C   UNL     1     -11.516  10.260  69.049  1.00  0.00    -0.200 A  
HETATM   14  C   UNL     1     -11.503  10.735  67.743  1.00  0.00    -0.283 A  
HETATM   15  C   UNL     1     -11.394  12.114  67.462  1.00  0.00    -0.326 A  
HETATM   16  S   UNL     1     -11.468  12.529  65.748  1.00  0.00    -0.383 SA 
HETATM   17  C   UNL     1     -11.308  14.285  65.722  1.00  0.00    -0.326 A  
HETATM   18  C   UNL     1     -11.488  14.888  64.462  1.00  0.00    -0.328 A  
HETATM   19  C   UNL     1     -11.309  16.254  64.280  1.00  0.00    -0.012 A  
HETATM   20  C   UNL     1     -10.896  17.029  65.350  1.00  0.00    -0.079 A  
HETATM   21  C   UNL     1     -10.715  16.439  66.603  1.00  0.00    -0.173 A  
HETATM   22  C   UNL     1     -10.986  15.069  66.836  1.00  0.00    -0.324 A  
ENDBRANCH   8   9
ENDBRANCH   6   8
TORSDOF 2
ENDMDL
MODEL      152
REMARK 921   NORMALIZED FREE ENERGY PREDICTED BY IDOCK:   -4.34 KCAL/MOL
REMARK 922        TOTAL FREE ENERGY PREDICTED BY IDOCK:   -5.25 KCAL/MOL
REMARK 923 INTER-LIGAND FREE ENERGY PREDICTED BY IDOCK:   -4.43 KCAL/MOL
REMARK 924 INTRA-LIGAND FREE ENERGY PREDICTED BY IDOCK:   -0.82 KCAL/MOL
REMARK 927      BINDING AFFINITY PREDICTED BY RF-SCORE:    0.00 PKD
ROOT
HETATM    1  C   UNL     1     -10.609  11.858  65.460  1.00  0.00    -0.269 C  
HETATM    2  N   UNL     1      -9.467  10.952  65.527  1.00  0.00    -0.200 NA 
HETATM    3  C   UNL     1      -8.469  11.356  66.521  1.00  0.00    -0.170 C  
HETATM    4  C   UNL     1      -8.912  11.110  67.963  1.00  0.00    -0.149 C  
HETATM    5  C   UNL     1      -9.341   9.662  68.176  1.00  0.00    -0.140 C  
HETATM    6  C   UNL     1     -10.381   9.207  67.128  1.00  0.00    -0.337 C  
HETATM    7  C   UNL     1      -9.878   9.556  65.713  1.00  0.00    -0.293 C  
ENDROOT
BRANCH   6   8
HETATM    8  C   UNL     1     -10.655   7.696  67.327  1.00  0.00    -0.388 C  
BRANCH   8   9
HETATM    9  C   UNL     1      -9.715   6.883  68.288  1.00  0.00    -0.132 C  
HETATM   10  C   UNL     1     -10.406   6.449  69.589  1.00  0.00    -0.249 A  
HETATM   11  C   UNL     1     -11.290   7.340  70.246  1.00  0.00    -0.266 A  
HETATM   12  C   UNL     1     -11.822   7.068  71.511  1.00  0.00    -0.351 A  
HETATM   13  C   UNL     1     -11.465   5.907  72.175  1.00  0.00    -0.333 A  
HETATM   14  C   UNL     1     -10.620   5.002  71.543  1.00  0.00    -0.175 A  
HETATM   15  C   UNL     1     -10.107   5.252  70.251  1.00  0.00    -0.259 A  
HETATM   16  S   UNL     1      -9.111   3.955  69.586  1.00  0.00    -0.138 SA 
HETATM   17  C   UNL     1      -8.629   4.553  67.998  1.00  0.00    -0.102 A  
HETATM   18  C   UNL     1      -7.940   3.628  67.190  1.00  0.00    -0.087 A  
HETATM   19  C   UNL     1      -7.430   3.989  65.949  1.00  0.00    -0.084 A  
HETATM   20  C   UNL     1      -7.558   5.300  65.522  1.00  0.00    -0.082 A  
HETATM   21  C   UNL     1      -8.239   6.224  66.318  1.00  0.00    -0.117 A  
HETATM   22  C   UNL     1      -8.853   5.856  67.540  1.00  0.00    -0.106 A  
ENDBRANCH   8   9
ENDBRANCH   6   8
TORSDOF 2
ENDMDL
MODEL      153
REMARK 921   NORMALIZED FREE ENERGY PREDICTED BY IDOCK:   -4.34 KCAL/MOL
REMARK 922        TOTAL FREE ENERGY PREDICTED BY IDOCK:   -5.24 KCAL/MOL
REMARK 923 INTER-LIGAND FREE ENERGY PREDICTED BY IDOCK:   -4.48 KCAL/MOL
REMARK 924 INTRA-LIGAND FREE ENERGY PREDICTED BY IDOCK:   -0.77 KCAL/MOL
REMARK 927      BINDING AFFINITY PREDICTED BY RF-SCORE:    0.00 PKD
ROOT
HETATM    1  C   UNL     1      -7.399  15.066  69.604  1.00  0.00    -0.181 C  
HETATM    2  N   UNL     1      -6.601  14.313  68.643  1.00  0.00    -0.084 NA 
HETATM    3  C   UNL     1      -5.505  13.564  69.265  1.00  0.00    -0.076 C  
HETATM    4  C   UNL     1      -5.973  12.331  70.038  1.00  0.00    -0.153 C  
HETATM    5  C   UNL     1      -6.834  11.420  69.168  1.00  0.00    -0.111 C  
HETATM    6  C   UNL     1      -7.986  12.192  68.486  1.00  0.00    -0.119 C  
HETATM    7  C   UNL     1      -7.428  13.450  67.793  1.00  0.00    -0.160 C  
ENDROOT
BRANCH   6   8
HETATM    8  C   UNL     1      -8.719  11.231  67.518  1.00  0.00    -0.138 C  
BRANCH   8   9
HETATM    9  C   UNL     1      -8.665  11.533  65.977  1.00  0.00    -0.095 C  
HETATM   10  C   UNL     1      -7.857  10.497  65.184  1.00  0.00    -0.076 A  
HETATM   11  C   UNL     1      -6.653   9.981  65.723  1.00  0.00    -0.101 A  
HETATM   12  C   UNL     1      -5.792   9.162  64.985  1.00  0.00    -0.059 A  
HETATM   13  C   UNL     1      -6.094   8.854  63.669  1.00  0.00    -0.080 A  
HETATM   14  C   UNL     1      -7.281   9.324  63.122  1.00  0.00    -0.095 A  
HETATM   15  C   UNL     1      -8.172  10.123  63.872  1.00  0.00    -0.164 A  
HETATM   16  S   UNL     1      -9.660  10.562  63.029  1.00  0.00    -0.303 SA 
HETATM   17  C   UNL     1     -10.547  11.538  64.201  1.00  0.00    -0.363 A  
HETATM   18  C   UNL     1     -11.855  11.894  63.822  1.00  0.00    -0.558 A  
HETATM   19  C   UNL     1     -12.637  12.729  64.611  1.00  0.00    -0.491 A  
HETATM   20  C   UNL     1     -12.098  13.260  65.770  1.00  0.00    -0.491 A  
HETATM   21  C   UNL     1     -10.801  12.913  66.154  1.00  0.00    -0.300 A  
HETATM   22  C   UNL     1     -10.021  11.987  65.418  1.00  0.00    -0.279 A  
ENDBRANCH   8   9
ENDBRANCH   6   8
TORSDOF 2
ENDMDL
MODEL      154
REMARK 921   NORMALIZED FREE ENERGY PREDICTED BY IDOCK:   -4.32 KCAL/MOL
REMARK 922        TOTAL FREE ENERGY PREDICTED BY IDOCK:   -5.23 KCAL/MOL
REMARK 923 INTER-LIGAND FREE ENERGY PREDICTED BY IDOCK:   -4.60 KCAL/MOL
REMARK 924 INTRA-LIGAND FREE ENERGY PREDICTED BY IDOCK:   -0.63 KCAL/MOL
REMARK 927      BINDING AFFINITY PREDICTED BY RF-SCORE:    0.00 PKD
ROOT
HETATM    1  C   UNL     1      -9.233   9.270  64.974  1.00  0.00    -0.178 C  
HETATM    2  N   UNL     1      -8.929  10.650  64.609  1.00  0.00    -0.196 NA 
HETATM    3  C   UNL     1      -9.899  11.225  63.672  1.00  0.00    -0.340 C  
HETATM    4  C   UNL     1     -11.245  11.556  64.317  1.00  0.00    -0.358 C  
HETATM    5  C   UNL     1     -11.072  12.448  65.542  1.00  0.00    -0.338 C  
HETATM    6  C   UNL     1     -10.040  11.871  66.537  1.00  0.00    -0.229 C  
HETATM    7  C   UNL     1      -8.744  11.506  65.786  1.00  0.00    -0.007 C  
ENDROOT
BRANCH   6   8
HETATM    8  C   UNL     1      -9.822  12.899  67.675  1.00  0.00    -0.211 C  
BRANCH   8   9
HETATM    9  C   UNL     1      -8.595  13.877  67.577  1.00  0.00    -0.195 C  
HETATM   10  C   UNL     1      -9.002  15.339  67.347  1.00  0.00    -0.194 A  
HETATM   11  C   UNL     1     -10.066  15.642  66.463  1.00  0.00    -0.293 A  
HETATM   12  C   UNL     1     -10.378  16.954  66.088  1.00  0.00    -0.327 A  
HETATM   13  C   UNL     1      -9.615  18.006  66.565  1.00  0.00    -0.318 A  
HETATM   14  C   UNL     1      -8.581  17.741  67.455  1.00  0.00    -0.233 A  
HETATM   15  C   UNL     1      -8.283  16.423  67.865  1.00  0.00    -0.166 A  
HETATM   16  S   UNL     1      -6.984  16.294  69.054  1.00  0.00    -0.198 SA 
HETATM   17  C   UNL     1      -6.850  14.562  69.360  1.00  0.00    -0.149 A  
HETATM   18  C   UNL     1      -5.972  14.200  70.399  1.00  0.00    -0.171 A  
HETATM   19  C   UNL     1      -5.708  12.868  70.694  1.00  0.00    -0.163 A  
HETATM   20  C   UNL     1      -6.282  11.879  69.915  1.00  0.00    -0.139 A  
HETATM   21  C   UNL     1      -7.154  12.229  68.881  1.00  0.00    -0.088 A  
HETATM   22  C   UNL     1      -7.516  13.574  68.626  1.00  0.00    -0.108 A  
ENDBRANCH   8   9
ENDBRANCH   6   8
TORSDOF 2
ENDMDL
MODEL      155
REMARK 921   NORMALIZED FREE ENERGY PREDICTED BY IDOCK:   -4.32 KCAL/MOL
REMARK 922        TOTAL FREE ENERGY PREDICTED BY IDOCK:   -5.22 KCAL/MOL
REMARK 923 INTER-LIGAND FREE ENERGY PREDICTED BY IDOCK:   -5.32 KCAL/MOL
REMARK 924 INTRA-LIGAND FREE ENERGY PREDICTED BY IDOCK:    0.10 KCAL/MOL
REMARK 927      BINDING AFFINITY PREDICTED BY RF-SCORE:    0.00 PKD
ROOT
HETATM    1  C   UNL     1      -9.559   6.512  69.039  1.00  0.00    -0.132 C  
HETATM    2  N   UNL     1      -9.602   7.140  70.356  1.00  0.00    -0.169 NA 
HETATM    3  C   UNL     1      -8.283   7.560  70.837  1.00  0.00    -0.112 C  
HETATM    4  C   UNL     1      -7.740   8.797  70.123  1.00  0.00    -0.084 C  
HETATM    5  C   UNL     1      -8.734   9.953  70.174  1.00  0.00    -0.142 C  
HETATM    6  C   UNL     1     -10.138   9.529  69.688  1.00  0.00    -0.228 C  
HETATM    7  C   UNL     1     -10.571   8.239  70.413  1.00  0.00    -0.224 C  
ENDROOT
BRANCH   6   8
HETATM    8  C   UNL     1     -11.114  10.712  69.905  1.00  0.00    -0.364 C  
BRANCH   8   9
HETATM    9  C   UNL     1     -11.540  11.571  68.659  1.00  0.00    -0.375 C  
HETATM   10  C   UNL     1     -11.498  13.083  68.922  1.00  0.00    -0.345 A  
HETATM   11  C   UNL     1     -11.941  13.593  70.167  1.00  0.00    -0.407 A  
HETATM   12  C   UNL     1     -12.079  14.964  70.408  1.00  0.00    -0.386 A  
HETATM   13  C   UNL     1     -11.804  15.872  69.400  1.00  0.00    -0.325 A  
HETATM   14  C   UNL     1     -11.342  15.402  68.176  1.00  0.00    -0.353 A  
HETATM   15  C   UNL     1     -11.167  14.021  67.937  1.00  0.00    -0.273 A  
HETATM   16  S   UNL     1     -10.502  13.624  66.351  1.00  0.00    -0.292 SA 
HETATM   17  C   UNL     1     -10.404  11.863  66.354  1.00  0.00    -0.219 A  
HETATM   18  C   UNL     1      -9.756  11.293  65.240  1.00  0.00    -0.280 A  
HETATM   19  C   UNL     1      -9.679   9.916  65.072  1.00  0.00    -0.359 A  
HETATM   20  C   UNL     1     -10.297   9.089  65.995  1.00  0.00     0.159 A  
HETATM   21  C   UNL     1     -10.941   9.645  67.102  1.00  0.00    -0.066 A  
HETATM   22  C   UNL     1     -10.948  11.039  67.347  1.00  0.00    -0.349 A  
ENDBRANCH   8   9
ENDBRANCH   6   8
TORSDOF 2
ENDMDL
MODEL      156
REMARK 921   NORMALIZED FREE ENERGY PREDICTED BY IDOCK:   -4.24 KCAL/MOL
REMARK 922        TOTAL FREE ENERGY PREDICTED BY IDOCK:   -5.13 KCAL/MOL
REMARK 923 INTER-LIGAND FREE ENERGY PREDICTED BY IDOCK:   -4.48 KCAL/MOL
REMARK 924 INTRA-LIGAND FREE ENERGY PREDICTED BY IDOCK:   -0.65 KCAL/MOL
REMARK 927      BINDING AFFINITY PREDICTED BY RF-SCORE:    0.00 PKD
ROOT
HETATM    1  C   UNL     1     -11.817  14.124  69.811  1.00  0.00    -0.322 C  
HETATM    2  N   UNL     1     -12.126  13.312  68.639  1.00  0.00    -0.297 NA 
HETATM    3  C   UNL     1     -11.508  13.816  67.409  1.00  0.00    -0.345 C  
HETATM    4  C   UNL     1     -10.000  13.571  67.342  1.00  0.00    -0.234 C  
HETATM    5  C   UNL     1      -9.664  12.099  67.560  1.00  0.00    -0.185 C  
HETATM    6  C   UNL     1     -10.320  11.540  68.842  1.00  0.00    -0.191 C  
HETATM    7  C   UNL     1     -11.821  11.893  68.852  1.00  0.00    -0.307 C  
ENDROOT
BRANCH   6   8
HETATM    8  C   UNL     1     -10.048  10.017  68.913  1.00  0.00    -0.200 C  
BRANCH   8   9
HETATM    9  C   UNL     1      -9.069   9.480  70.020  1.00  0.00    -0.255 C  
HETATM   10  C   UNL     1      -9.776   8.657  71.106  1.00  0.00    -0.287 A  
HETATM   11  C   UNL     1     -11.041   9.070  71.590  1.00  0.00    -0.433 A  
HETATM   12  C   UNL     1     -11.659   8.459  72.687  1.00  0.00    -0.367 A  
HETATM   13  C   UNL     1     -11.018   7.429  73.354  1.00  0.00    -0.292 A  
HETATM   14  C   UNL     1      -9.787   6.985  72.884  1.00  0.00    -0.204 A  
HETATM   15  C   UNL     1      -9.173   7.574  71.757  1.00  0.00    -0.140 A  
HETATM   16  S   UNL     1      -7.650   6.826  71.270  1.00  0.00    -0.093 SA 
HETATM   17  C   UNL     1      -7.140   7.764  69.865  1.00  0.00    -0.062 A  
HETATM   18  C   UNL     1      -6.010   7.268  69.188  1.00  0.00    -0.026 A  
HETATM   19  C   UNL     1      -5.450   7.951  68.115  1.00  0.00    -0.033 A  
HETATM   20  C   UNL     1      -5.987   9.170  67.738  1.00  0.00    -0.049 A  
HETATM   21  C   UNL     1      -7.108   9.670  68.404  1.00  0.00    -0.070 A  
HETATM   22  C   UNL     1      -7.755   8.945  69.435  1.00  0.00    -0.093 A  
ENDBRANCH   8   9
ENDBRANCH   6   8
TORSDOF 2
ENDMDL
MODEL      157
REMARK 921   NORMALIZED FREE ENERGY PREDICTED BY IDOCK:   -4.23 KCAL/MOL
REMARK 922        TOTAL FREE ENERGY PREDICTED BY IDOCK:   -5.12 KCAL/MOL
REMARK 923 INTER-LIGAND FREE ENERGY PREDICTED BY IDOCK:   -4.49 KCAL/MOL
REMARK 924 INTRA-LIGAND FREE ENERGY PREDICTED BY IDOCK:   -0.63 KCAL/MOL
REMARK 927      BINDING AFFINITY PREDICTED BY RF-SCORE:    0.00 PKD
ROOT
HETATM    1  C   UNL     1     -12.306  12.404  70.759  1.00  0.00    -0.286 C  
HETATM    2  N   UNL     1     -12.286  11.736  69.463  1.00  0.00    -0.221 NA 
HETATM    3  C   UNL     1     -11.836  12.606  68.373  1.00  0.00    -0.301 C  
HETATM    4  C   UNL     1     -10.333  12.885  68.397  1.00  0.00    -0.249 C  
HETATM    5  C   UNL     1      -9.526  11.591  68.433  1.00  0.00    -0.195 C  
HETATM    6  C   UNL     1      -9.994  10.648  69.564  1.00  0.00    -0.138 C  
HETATM    7  C   UNL     1     -11.526  10.482  69.499  1.00  0.00    -0.272 C  
ENDROOT
BRANCH   6   8
HETATM    8  C   UNL     1      -9.225   9.309  69.442  1.00  0.00    -0.159 C  
BRANCH   8   9
HETATM    9  C   UNL     1      -9.952   7.985  69.872  1.00  0.00    -0.189 C  
HETATM   10  C   UNL     1     -10.037   6.946  68.744  1.00  0.00    -0.168 A  
HETATM   11  C   UNL     1     -10.317   7.366  67.421  1.00  0.00    -0.340 A  
HETATM   12  C   UNL     1     -10.566   6.460  66.385  1.00  0.00    -0.009 A  
HETATM   13  C   UNL     1     -10.572   5.100  66.644  1.00  0.00    -0.295 A  
HETATM   14  C   UNL     1     -10.275   4.658  67.928  1.00  0.00    -0.019 A  
HETATM   15  C   UNL     1      -9.988   5.565  68.971  1.00  0.00    -0.181 A  
HETATM   16  S   UNL     1      -9.564   4.812  70.511  1.00  0.00    -0.205 SA 
HETATM   17  C   UNL     1      -9.267   6.176  71.590  1.00  0.00    -0.145 A  
HETATM   18  C   UNL     1      -8.759   5.840  72.860  1.00  0.00    -0.124 A  
HETATM   19  C   UNL     1      -8.556   6.806  73.838  1.00  0.00    -0.154 A  
HETATM   20  C   UNL     1      -8.909   8.118  73.573  1.00  0.00    -0.310 A  
HETATM   21  C   UNL     1      -9.413   8.460  72.317  1.00  0.00    -0.367 A  
HETATM   22  C   UNL     1      -9.536   7.512  71.272  1.00  0.00    -0.165 A  
ENDBRANCH   8   9
ENDBRANCH   6   8
TORSDOF 2
ENDMDL
MODEL      158
REMARK 921   NORMALIZED FREE ENERGY PREDICTED BY IDOCK:   -4.22 KCAL/MOL
REMARK 922        TOTAL FREE ENERGY PREDICTED BY IDOCK:   -5.11 KCAL/MOL
REMARK 923 INTER-LIGAND FREE ENERGY PREDICTED BY IDOCK:   -4.31 KCAL/MOL
REMARK 924 INTRA-LIGAND FREE ENERGY PREDICTED BY IDOCK:   -0.79 KCAL/MOL
REMARK 927      BINDING AFFINITY PREDICTED BY RF-SCORE:    0.00 PKD
ROOT
HETATM    1  C   UNL     1      -6.653   8.530  71.711  1.00  0.00    -0.072 C  
HETATM    2  N   UNL     1      -7.664   9.436  71.175  1.00  0.00    -0.331 NA 
HETATM    3  C   UNL     1      -7.216  10.154  69.979  1.00  0.00    -0.161 C  
HETATM    4  C   UNL     1      -7.155   9.276  68.729  1.00  0.00    -0.073 C  
HETATM    5  C   UNL     1      -8.483   8.568  68.478  1.00  0.00    -0.131 C  
HETATM    6  C   UNL     1      -8.985   7.818  69.732  1.00  0.00    -0.146 C  
HETATM    7  C   UNL     1      -8.947   8.762  70.951  1.00  0.00    -0.201 C  
ENDROOT
BRANCH   6   8
HETATM    8  C   UNL     1     -10.396   7.251  69.438  1.00  0.00    -0.212 C  
BRANCH   8   9
HETATM    9  C   UNL     1     -10.634   5.707  69.607  1.00  0.00    -0.401 C  
HETATM   10  C   UNL     1      -9.892   4.862  68.561  1.00  0.00    -0.208 A  
HETATM   11  C   UNL     1      -9.830   5.303  67.217  1.00  0.00    -0.183 A  
HETATM   12  C   UNL     1      -9.313   4.505  66.190  1.00  0.00    -0.156 A  
HETATM   13  C   UNL     1      -8.867   3.225  66.470  1.00  0.00    -0.147 A  
HETATM   14  C   UNL     1      -8.892   2.775  67.785  1.00  0.00    -0.166 A  
HETATM   15  C   UNL     1      -9.379   3.587  68.832  1.00  0.00    -0.168 A  
HETATM   16  S   UNL     1      -9.263   2.870  70.441  1.00  0.00    -0.149 SA 
HETATM   17  C   UNL     1      -9.937   4.100  71.511  1.00  0.00    -0.160 A  
HETATM   18  C   UNL     1      -9.821   3.830  72.888  1.00  0.00    -0.194 A  
HETATM   19  C   UNL     1     -10.381   4.672  73.841  1.00  0.00    -0.279 A  
HETATM   20  C   UNL     1     -11.110   5.772  73.425  1.00  0.00    -0.195 A  
HETATM   21  C   UNL     1     -11.230   6.048  72.061  1.00  0.00    -0.341 A  
HETATM   22  C   UNL     1     -10.587   5.261  71.075  1.00  0.00    -0.240 A  
ENDBRANCH   8   9
ENDBRANCH   6   8
TORSDOF 2
ENDMDL
MODEL      159
REMARK 921   NORMALIZED FREE ENERGY PREDICTED BY IDOCK:   -4.19 KCAL/MOL
REMARK 922        TOTAL FREE ENERGY PREDICTED BY IDOCK:   -5.08 KCAL/MOL
REMARK 923 INTER-LIGAND FREE ENERGY PREDICTED BY IDOCK:   -4.52 KCAL/MOL
REMARK 924 INTRA-LIGAND FREE ENERGY PREDICTED BY IDOCK:   -0.55 KCAL/MOL
REMARK 927      BINDING AFFINITY PREDICTED BY RF-SCORE:    0.00 PKD
ROOT
HETATM    1  C   UNL     1      -7.365   3.133  71.826  1.00  0.00    -0.043 C  
HETATM    2  N   UNL     1      -8.647   3.220  72.517  1.00  0.00    -0.083 NA 
HETATM    3  C   UNL     1      -8.604   4.076  73.705  1.00  0.00    -0.091 C  
HETATM    4  C   UNL     1      -8.534   5.568  73.378  1.00  0.00    -0.116 C  
HETATM    5  C   UNL     1      -9.662   5.988  72.441  1.00  0.00    -0.172 C  
HETATM    6  C   UNL     1      -9.738   5.087  71.188  1.00  0.00    -0.241 C  
HETATM    7  C   UNL     1      -9.737   3.605  71.614  1.00  0.00    -0.166 C  
ENDROOT
BRANCH   6   8
HETATM    8  C   UNL     1     -10.988   5.488  70.366  1.00  0.00    -0.199 C  
BRANCH   8   9
HETATM    9  C   UNL     1     -11.005   6.894  69.664  1.00  0.00    -0.298 C  
HETATM   10  C   UNL     1     -11.594   8.005  70.546  1.00  0.00    -0.141 A  
HETATM   11  C   UNL     1     -12.728   7.737  71.350  1.00  0.00    -0.333 A  
HETATM   12  C   UNL     1     -13.406   8.742  72.047  1.00  0.00    -0.455 A  
HETATM   13  C   UNL     1     -12.988  10.058  71.940  1.00  0.00    -0.547 A  
HETATM   14  C   UNL     1     -11.862  10.347  71.179  1.00  0.00    -0.432 A  
HETATM   15  C   UNL     1     -11.151   9.333  70.501  1.00  0.00    -0.265 A  
HETATM   16  S   UNL     1      -9.708   9.885  69.647  1.00  0.00    -0.234 SA 
HETATM   17  C   UNL     1      -9.053   8.419  68.916  1.00  0.00    -0.147 A  
HETATM   18  C   UNL     1      -7.799   8.565  68.292  1.00  0.00    -0.106 A  
HETATM   19  C   UNL     1      -7.204   7.514  67.606  1.00  0.00    -0.090 A  
HETATM   20  C   UNL     1      -7.883   6.313  67.490  1.00  0.00    -0.105 A  
HETATM   21  C   UNL     1      -9.128   6.159  68.105  1.00  0.00    -0.111 A  
HETATM   22  C   UNL     1      -9.709   7.183  68.893  1.00  0.00    -0.146 A  
ENDBRANCH   8   9
ENDBRANCH   6   8
TORSDOF 2
ENDMDL
MODEL      160
REMARK 921   NORMALIZED FREE ENERGY PREDICTED BY IDOCK:   -4.19 KCAL/MOL
REMARK 922        TOTAL FREE ENERGY PREDICTED BY IDOCK:   -5.07 KCAL/MOL
REMARK 923 INTER-LIGAND FREE ENERGY PREDICTED BY IDOCK:   -5.47 KCAL/MOL
REMARK 924 INTRA-LIGAND FREE ENERGY PREDICTED BY IDOCK:    0.39 KCAL/MOL
REMARK 927      BINDING AFFINITY PREDICTED BY RF-SCORE:    0.00 PKD
ROOT
HETATM    1  C   UNL     1     -12.686  15.701  70.241  1.00  0.00    -0.206 C  
HETATM    2  N   UNL     1     -11.824  14.856  71.061  1.00  0.00    -0.309 NA 
HETATM    3  C   UNL     1     -12.394  14.559  72.378  1.00  0.00    -0.219 C  
HETATM    4  C   UNL     1     -13.548  13.557  72.330  1.00  0.00    -0.690 C  
HETATM    5  C   UNL     1     -13.145  12.276  71.606  1.00  0.00    -0.408 C  
HETATM    6  C   UNL     1     -12.524  12.565  70.221  1.00  0.00    -0.157 C  
HETATM    7  C   UNL     1     -11.420  13.632  70.361  1.00  0.00     0.092 C  
ENDROOT
BRANCH   6   8
HETATM    8  C   UNL     1     -12.016  11.231  69.619  1.00  0.00    -0.423 C  
BRANCH   8   9
HETATM    9  C   UNL     1     -10.928  11.286  68.487  1.00  0.00    -0.266 C  
HETATM   10  C   UNL     1     -11.048  12.527  67.590  1.00  0.00    -0.301 A  
HETATM   11  C   UNL     1     -12.328  12.990  67.198  1.00  0.00    -0.004 A  
HETATM   12  C   UNL     1     -12.498  14.010  66.256  1.00  0.00    -0.439 A  
HETATM   13  C   UNL     1     -11.392  14.584  65.653  1.00  0.00    -0.336 A  
HETATM   14  C   UNL     1     -10.123  14.168  66.038  1.00  0.00    -0.330 A  
HETATM   15  C   UNL     1      -9.942  13.163  67.013  1.00  0.00    -0.244 A  
HETATM   16  S   UNL     1      -8.258  12.823  67.421  1.00  0.00    -0.186 SA 
HETATM   17  C   UNL     1      -8.359  11.551  68.639  1.00  0.00    -0.123 A  
HETATM   18  C   UNL     1      -7.138  11.200  69.246  1.00  0.00    -0.123 A  
HETATM   19  C   UNL     1      -7.056  10.159  70.163  1.00  0.00    -0.162 A  
HETATM   20  C   UNL     1      -8.192   9.419  70.445  1.00  0.00    -0.214 A  
HETATM   21  C   UNL     1      -9.408   9.760  69.847  1.00  0.00    -0.262 A  
HETATM   22  C   UNL     1      -9.535  10.877  68.987  1.00  0.00    -0.160 A  
ENDBRANCH   8   9
ENDBRANCH   6   8
TORSDOF 2
ENDMDL
MODEL      161
REMARK 921   NORMALIZED FREE ENERGY PREDICTED BY IDOCK:   -4.18 KCAL/MOL
REMARK 922        TOTAL FREE ENERGY PREDICTED BY IDOCK:   -5.06 KCAL/MOL
REMARK 923 INTER-LIGAND FREE ENERGY PREDICTED BY IDOCK:   -4.51 KCAL/MOL
REMARK 924 INTRA-LIGAND FREE ENERGY PREDICTED BY IDOCK:   -0.55 KCAL/MOL
REMARK 927      BINDING AFFINITY PREDICTED BY RF-SCORE:    0.00 PKD
ROOT
HETATM    1  C   UNL     1     -11.756  12.103  63.441  1.00  0.00    -0.444 C  
HETATM    2  N   UNL     1     -10.834  13.034  64.082  1.00  0.00    -0.399 NA 
HETATM    3  C   UNL     1     -11.436  14.340  64.362  1.00  0.00    -0.310 C  
HETATM    4  C   UNL     1     -12.426  14.318  65.526  1.00  0.00    -0.434 C  
HETATM    5  C   UNL     1     -11.797  13.725  66.783  1.00  0.00    -0.454 C  
HETATM    6  C   UNL     1     -11.139  12.354  66.509  1.00  0.00    -0.346 C  
HETATM    7  C   UNL     1     -10.213  12.460  65.281  1.00  0.00    -0.282 C  
ENDROOT
BRANCH   6   8
HETATM    8  C   UNL     1     -10.406  11.892  67.793  1.00  0.00    -0.214 C  
BRANCH   8   9
HETATM    9  C   UNL     1      -8.836  11.854  67.788  1.00  0.00    -0.166 C  
HETATM   10  C   UNL     1      -8.196  13.121  68.373  1.00  0.00    -0.130 A  
HETATM   11  C   UNL     1      -8.753  14.389  68.078  1.00  0.00    -0.170 A  
HETATM   12  C   UNL     1      -8.127  15.585  68.445  1.00  0.00    -0.136 A  
HETATM   13  C   UNL     1      -6.904  15.553  69.094  1.00  0.00    -0.155 A  
HETATM   14  C   UNL     1      -6.346  14.322  69.419  1.00  0.00    -0.120 A  
HETATM   15  C   UNL     1      -6.990  13.111  69.084  1.00  0.00    -0.028 A  
HETATM   16  S   UNL     1      -6.164  11.654  69.644  1.00  0.00    -0.137 SA 
HETATM   17  C   UNL     1      -7.190  10.334  69.083  1.00  0.00    -0.083 A  
HETATM   18  C   UNL     1      -6.824   9.052  69.536  1.00  0.00    -0.048 A  
HETATM   19  C   UNL     1      -7.494   7.913  69.107  1.00  0.00    -0.093 A  
HETATM   20  C   UNL     1      -8.510   8.039  68.175  1.00  0.00    -0.123 A  
HETATM   21  C   UNL     1      -8.880   9.307  67.720  1.00  0.00    -0.121 A  
HETATM   22  C   UNL     1      -8.279  10.489  68.216  1.00  0.00    -0.117 A  
ENDBRANCH   8   9
ENDBRANCH   6   8
TORSDOF 2
ENDMDL
MODEL      162
REMARK 921   NORMALIZED FREE ENERGY PREDICTED BY IDOCK:   -4.18 KCAL/MOL
REMARK 922        TOTAL FREE ENERGY PREDICTED BY IDOCK:   -5.06 KCAL/MOL
REMARK 923 INTER-LIGAND FREE ENERGY PREDICTED BY IDOCK:   -5.13 KCAL/MOL
REMARK 924 INTRA-LIGAND FREE ENERGY PREDICTED BY IDOCK:    0.07 KCAL/MOL
REMARK 927      BINDING AFFINITY PREDICTED BY RF-SCORE:    0.00 PKD
ROOT
HETATM    1  C   UNL     1     -12.772  13.641  65.927  1.00  0.00    -0.372 C  
HETATM    2  N   UNL     1     -11.458  13.634  66.562  1.00  0.00    -0.323 NA 
HETATM    3  C   UNL     1     -11.522  13.472  68.017  1.00  0.00    -0.307 C  
HETATM    4  C   UNL     1     -11.885  12.053  68.456  1.00  0.00    -0.369 C  
HETATM    5  C   UNL     1     -10.952  11.020  67.831  1.00  0.00    -0.317 C  
HETATM    6  C   UNL     1     -10.854  11.182  66.298  1.00  0.00    -0.266 C  
HETATM    7  C   UNL     1     -10.554  12.654  65.950  1.00  0.00    -0.273 C  
ENDROOT
BRANCH   6   8
HETATM    8  C   UNL     1      -9.787  10.195  65.763  1.00  0.00    -0.331 C  
BRANCH   8   9
HETATM    9  C   UNL     1      -8.853   9.468  66.797  1.00  0.00    -0.145 C  
HETATM   10  C   UNL     1      -7.967  10.433  67.597  1.00  0.00    -0.106 A  
HETATM   11  C   UNL     1      -7.374  11.544  66.948  1.00  0.00    -0.140 A  
HETATM   12  C   UNL     1      -6.431  12.363  67.579  1.00  0.00    -0.146 A  
HETATM   13  C   UNL     1      -6.030  12.082  68.874  1.00  0.00    -0.060 A  
HETATM   14  C   UNL     1      -6.615  11.014  69.544  1.00  0.00    -0.118 A  
HETATM   15  C   UNL     1      -7.592  10.203  68.926  1.00  0.00    -0.090 A  
HETATM   16  S   UNL     1      -8.271   8.943  69.960  1.00  0.00    -0.135 SA 
HETATM   17  C   UNL     1      -9.437   8.118  68.925  1.00  0.00    -0.151 A  
HETATM   18  C   UNL     1     -10.234   7.152  69.568  1.00  0.00    -0.201 A  
HETATM   19  C   UNL     1     -11.136   6.368  68.858  1.00  0.00    -0.420 A  
HETATM   20  C   UNL     1     -11.214   6.508  67.483  1.00  0.00    -0.288 A  
HETATM   21  C   UNL     1     -10.427   7.464  66.837  1.00  0.00    -0.379 A  
HETATM   22  C   UNL     1      -9.574   8.341  67.550  1.00  0.00    -0.194 A  
ENDBRANCH   8   9
ENDBRANCH   6   8
TORSDOF 2
ENDMDL
MODEL      163
REMARK 921   NORMALIZED FREE ENERGY PREDICTED BY IDOCK:   -4.16 KCAL/MOL
REMARK 922        TOTAL FREE ENERGY PREDICTED BY IDOCK:   -5.05 KCAL/MOL
REMARK 923 INTER-LIGAND FREE ENERGY PREDICTED BY IDOCK:   -4.30 KCAL/MOL
REMARK 924 INTRA-LIGAND FREE ENERGY PREDICTED BY IDOCK:   -0.75 KCAL/MOL
REMARK 927      BINDING AFFINITY PREDICTED BY RF-SCORE:    0.00 PKD
ROOT
HETATM    1  C   UNL     1     -11.540  12.269  66.676  1.00  0.00    -0.375 C  
HETATM    2  N   UNL     1     -10.942  12.732  67.924  1.00  0.00    -0.225 NA 
HETATM    3  C   UNL     1     -11.890  12.760  69.042  1.00  0.00    -0.297 C  
HETATM    4  C   UNL     1     -12.242  11.371  69.575  1.00  0.00    -0.303 C  
HETATM    5  C   UNL     1     -10.990  10.579  69.939  1.00  0.00    -0.359 C  
HETATM    6  C   UNL     1      -9.967  10.551  68.782  1.00  0.00    -0.200 C  
HETATM    7  C   UNL     1      -9.728  11.985  68.267  1.00  0.00    -0.205 C  
ENDROOT
BRANCH   6   8
HETATM    8  C   UNL     1      -8.676   9.854  69.279  1.00  0.00    -0.172 C  
BRANCH   8   9
HETATM    9  C   UNL     1      -8.241   8.507  68.597  1.00  0.00    -0.122 C  
HETATM   10  C   UNL     1      -9.043   7.293  69.085  1.00  0.00    -0.137 A  
HETATM   11  C   UNL     1      -9.375   7.175  70.457  1.00  0.00    -0.158 A  
HETATM   12  C   UNL     1      -9.959   6.021  70.989  1.00  0.00    -0.230 A  
HETATM   13  C   UNL     1     -10.206   4.932  70.171  1.00  0.00    -0.310 A  
HETATM   14  C   UNL     1      -9.914   5.029  68.815  1.00  0.00    -0.225 A  
HETATM   15  C   UNL     1      -9.357   6.203  68.264  1.00  0.00    -0.116 A  
HETATM   16  S   UNL     1      -9.125   6.161  66.514  1.00  0.00    -0.150 SA 
HETATM   17  C   UNL     1      -8.428   7.737  66.134  1.00  0.00    -0.138 A  
HETATM   18  C   UNL     1      -8.285   8.017  64.761  1.00  0.00    -0.124 A  
HETATM   19  C   UNL     1      -7.676   9.185  64.320  1.00  0.00    -0.120 A  
HETATM   20  C   UNL     1      -7.154  10.067  65.251  1.00  0.00    -0.137 A  
HETATM   21  C   UNL     1      -7.292   9.797  66.614  1.00  0.00    -0.094 A  
HETATM   22  C   UNL     1      -7.995   8.663  67.089  1.00  0.00    -0.100 A  
ENDBRANCH   8   9
ENDBRANCH   6   8
TORSDOF 2
ENDMDL
MODEL      164
REMARK 921   NORMALIZED FREE ENERGY PREDICTED BY IDOCK:   -4.15 KCAL/MOL
REMARK 922        TOTAL FREE ENERGY PREDICTED BY IDOCK:   -5.03 KCAL/MOL
REMARK 923 INTER-LIGAND FREE ENERGY PREDICTED BY IDOCK:   -4.74 KCAL/MOL
REMARK 924 INTRA-LIGAND FREE ENERGY PREDICTED BY IDOCK:   -0.29 KCAL/MOL
REMARK 927      BINDING AFFINITY PREDICTED BY RF-SCORE:    0.00 PKD
ROOT
HETATM    1  C   UNL     1      -6.156   8.865  71.080  1.00  0.00    -0.053 C  
HETATM    2  N   UNL     1      -6.790  10.091  70.606  1.00  0.00    -0.292 NA 
HETATM    3  C   UNL     1      -5.930  10.879  69.720  1.00  0.00    -0.076 C  
HETATM    4  C   UNL     1      -5.771  10.270  68.327  1.00  0.00    -0.041 C  
HETATM    5  C   UNL     1      -7.125  10.000  67.678  1.00  0.00    -0.087 C  
HETATM    6  C   UNL     1      -8.057   9.185  68.602  1.00  0.00    -0.102 C  
HETATM    7  C   UNL     1      -8.101   9.836  69.999  1.00  0.00    -0.189 C  
ENDROOT
BRANCH   6   8
HETATM    8  C   UNL     1      -9.449   9.078  67.930  1.00  0.00    -0.159 C  
BRANCH   8   9
HETATM    9  C   UNL     1     -10.668   8.606  68.802  1.00  0.00    -0.098 C  
HETATM   10  C   UNL     1     -10.400   7.298  69.560  1.00  0.00    -0.230 A  
HETATM   11  C   UNL     1      -9.691   6.249  68.925  1.00  0.00    -0.144 A  
HETATM   12  C   UNL     1      -9.557   4.981  69.500  1.00  0.00    -0.237 A  
HETATM   13  C   UNL     1     -10.153   4.710  70.720  1.00  0.00    -0.264 A  
HETATM   14  C   UNL     1     -10.833   5.728  71.379  1.00  0.00    -0.316 A  
HETATM   15  C   UNL     1     -10.943   7.020  70.821  1.00  0.00    -0.255 A  
HETATM   16  S   UNL     1     -11.779   8.196  71.838  1.00  0.00    -0.334 SA 
HETATM   17  C   UNL     1     -11.756   9.682  70.888  1.00  0.00    -0.334 A  
HETATM   18  C   UNL     1     -12.237  10.828  71.549  1.00  0.00    -0.302 A  
HETATM   19  C   UNL     1     -12.353  12.048  70.894  1.00  0.00    -0.384 A  
HETATM   20  C   UNL     1     -12.035  12.124  69.549  1.00  0.00    -0.338 A  
HETATM   21  C   UNL     1     -11.557  10.992  68.885  1.00  0.00    -0.383 A  
HETATM   22  C   UNL     1     -11.338   9.764  69.554  1.00  0.00    -0.127 A  
ENDBRANCH   8   9
ENDBRANCH   6   8
TORSDOF 2
ENDMDL
MODEL      165
REMARK 921   NORMALIZED FREE ENERGY PREDICTED BY IDOCK:   -4.10 KCAL/MOL
REMARK 922        TOTAL FREE ENERGY PREDICTED BY IDOCK:   -4.97 KCAL/MOL
REMARK 923 INTER-LIGAND FREE ENERGY PREDICTED BY IDOCK:   -4.28 KCAL/MOL
REMARK 924 INTRA-LIGAND FREE ENERGY PREDICTED BY IDOCK:   -0.69 KCAL/MOL
REMARK 927      BINDING AFFINITY PREDICTED BY RF-SCORE:    0.00 PKD
ROOT
HETATM    1  C   UNL     1     -12.260  11.842  70.551  1.00  0.00    -0.336 C  
HETATM    2  N   UNL     1     -12.183  11.219  69.234  1.00  0.00    -0.361 NA 
HETATM    3  C   UNL     1     -11.757  12.146  68.182  1.00  0.00    -0.341 C  
HETATM    4  C   UNL     1     -10.270  12.495  68.246  1.00  0.00    -0.235 C  
HETATM    5  C   UNL     1      -9.402  11.241  68.255  1.00  0.00    -0.180 C  
HETATM    6  C   UNL     1      -9.844  10.240  69.345  1.00  0.00    -0.247 C  
HETATM    7  C   UNL     1     -11.364  10.002  69.245  1.00  0.00    -0.117 C  
ENDROOT
BRANCH   6   8
HETATM    8  C   UNL     1      -9.009   8.944  69.195  1.00  0.00    -0.140 C  
BRANCH   8   9
HETATM    9  C   UNL     1      -9.672   7.700  68.502  1.00  0.00    -0.162 C  
HETATM   10  C   UNL     1      -9.053   7.366  67.137  1.00  0.00    -0.146 A  
HETATM   11  C   UNL     1      -8.698   8.412  66.251  1.00  0.00    -0.164 A  
HETATM   12  C   UNL     1      -8.284   8.172  64.936  1.00  0.00    -0.150 A  
HETATM   13  C   UNL     1      -8.238   6.875  64.454  1.00  0.00     0.021 A  
HETATM   14  C   UNL     1      -8.556   5.826  65.309  1.00  0.00    -0.129 A  
HETATM   15  C   UNL     1      -8.941   6.059  66.647  1.00  0.00    -0.128 A  
HETATM   16  S   UNL     1      -9.235   4.600  67.597  1.00  0.00    -0.137 SA 
HETATM   17  C   UNL     1      -9.689   5.207  69.190  1.00  0.00    -0.163 A  
HETATM   18  C   UNL     1      -9.833   4.225  70.190  1.00  0.00    -0.271 A  
HETATM   19  C   UNL     1     -10.267   4.552  71.469  1.00  0.00    -0.195 A  
HETATM   20  C   UNL     1     -10.613   5.863  71.749  1.00  0.00    -0.286 A  
HETATM   21  C   UNL     1     -10.474   6.843  70.763  1.00  0.00    -0.238 A  
HETATM   22  C   UNL     1      -9.941   6.552  69.484  1.00  0.00    -0.180 A  
ENDBRANCH   8   9
ENDBRANCH   6   8
TORSDOF 2
ENDMDL
MODEL      166
REMARK 921   NORMALIZED FREE ENERGY PREDICTED BY IDOCK:   -4.08 KCAL/MOL
REMARK 922        TOTAL FREE ENERGY PREDICTED BY IDOCK:   -4.96 KCAL/MOL
REMARK 923 INTER-LIGAND FREE ENERGY PREDICTED BY IDOCK:   -4.39 KCAL/MOL
REMARK 924 INTRA-LIGAND FREE ENERGY PREDICTED BY IDOCK:   -0.56 KCAL/MOL
REMARK 927      BINDING AFFINITY PREDICTED BY RF-SCORE:    0.00 PKD
ROOT
HETATM    1  C   UNL     1     -12.460  10.510  70.115  1.00  0.00    -0.226 C  
HETATM    2  N   UNL     1     -12.194  10.052  71.475  1.00  0.00    -0.396 NA 
HETATM    3  C   UNL     1     -13.193   9.100  71.967  1.00  0.00    -0.441 C  
HETATM    4  C   UNL     1     -13.072   7.712  71.338  1.00  0.00    -0.339 C  
HETATM    5  C   UNL     1     -11.661   7.152  71.488  1.00  0.00    -0.324 C  
HETATM    6  C   UNL     1     -10.589   8.146  70.992  1.00  0.00    -0.242 C  
HETATM    7  C   UNL     1     -10.832   9.530  71.626  1.00  0.00    -0.155 C  
ENDROOT
BRANCH   6   8
HETATM    8  C   UNL     1      -9.189   7.563  71.308  1.00  0.00    -0.155 C  
BRANCH   8   9
HETATM    9  C   UNL     1      -8.655   6.376  70.428  1.00  0.00    -0.142 C  
HETATM   10  C   UNL     1      -9.104   4.997  70.932  1.00  0.00    -0.181 A  
HETATM   11  C   UNL     1      -9.130   4.731  72.323  1.00  0.00    -0.144 A  
HETATM   12  C   UNL     1      -9.372   3.453  72.836  1.00  0.00    -0.130 A  
HETATM   13  C   UNL     1      -9.569   2.389  71.972  1.00  0.00    -0.200 A  
HETATM   14  C   UNL     1      -9.575   2.625  70.602  1.00  0.00    -0.167 A  
HETATM   15  C   UNL     1      -9.366   3.919  70.078  1.00  0.00    -0.176 A  
HETATM   16  S   UNL     1      -9.482   4.033  68.319  1.00  0.00    -0.132 SA 
HETATM   17  C   UNL     1      -9.180   5.736  67.977  1.00  0.00    -0.109 A  
HETATM   18  C   UNL     1      -9.366   6.123  66.636  1.00  0.00    -0.161 A  
HETATM   19  C   UNL     1      -9.084   7.415  66.208  1.00  0.00    -0.195 A  
HETATM   20  C   UNL     1      -8.562   8.325  67.111  1.00  0.00    -0.123 A  
HETATM   21  C   UNL     1      -8.374   7.950  68.443  1.00  0.00    -0.124 A  
HETATM   22  C   UNL     1      -8.746   6.671  68.924  1.00  0.00    -0.128 A  
ENDBRANCH   8   9
ENDBRANCH   6   8
TORSDOF 2
ENDMDL
MODEL      167
REMARK 921   NORMALIZED FREE ENERGY PREDICTED BY IDOCK:   -4.08 KCAL/MOL
REMARK 922        TOTAL FREE ENERGY PREDICTED BY IDOCK:   -4.95 KCAL/MOL
REMARK 923 INTER-LIGAND FREE ENERGY PREDICTED BY IDOCK:   -4.13 KCAL/MOL
REMARK 924 INTRA-LIGAND FREE ENERGY PREDICTED BY IDOCK:   -0.82 KCAL/MOL
REMARK 927      BINDING AFFINITY PREDICTED BY RF-SCORE:    0.00 PKD
ROOT
HETATM    1  C   UNL     1      -5.869   5.517  69.821  1.00  0.00    -0.017 C  
HETATM    2  N   UNL     1      -6.509   5.432  68.512  1.00  0.00    -0.038 NA 
HETATM    3  C   UNL     1      -7.822   4.783  68.555  1.00  0.00    -0.081 C  
HETATM    4  C   UNL     1      -8.913   5.657  69.175  1.00  0.00    -0.120 C  
HETATM    5  C   UNL     1      -8.996   7.017  68.488  1.00  0.00    -0.122 C  
HETATM    6  C   UNL     1      -7.618   7.713  68.415  1.00  0.00    -0.113 C  
HETATM    7  C   UNL     1      -6.573   6.735  67.842  1.00  0.00    -0.059 C  
ENDROOT
BRANCH   6   8
HETATM    8  C   UNL     1      -7.764   9.012  67.584  1.00  0.00    -0.097 C  
BRANCH   8   9
HETATM    9  C   UNL     1      -9.123   9.279  66.842  1.00  0.00    -0.158 C  
HETATM   10  C   UNL     1      -9.945  10.413  67.473  1.00  0.00    -0.215 A  
HETATM   11  C   UNL     1     -10.012  10.533  68.882  1.00  0.00    -0.213 A  
HETATM   12  C   UNL     1     -10.869  11.439  69.516  1.00  0.00    -0.165 A  
HETATM   13  C   UNL     1     -11.710  12.238  68.760  1.00  0.00    -0.390 A  
HETATM   14  C   UNL     1     -11.647  12.160  67.374  1.00  0.00    -0.410 A  
HETATM   15  C   UNL     1     -10.760  11.273  66.726  1.00  0.00    -0.275 A  
HETATM   16  S   UNL     1     -10.772  11.370  64.963  1.00  0.00    -0.249 SA 
HETATM   17  C   UNL     1      -9.586  10.167  64.457  1.00  0.00    -0.311 A  
HETATM   18  C   UNL     1      -9.295  10.151  63.079  1.00  0.00    -0.330 A  
HETATM   19  C   UNL     1      -8.442   9.201  62.530  1.00  0.00    -0.209 A  
HETATM   20  C   UNL     1      -7.907   8.221  63.348  1.00  0.00    -0.152 A  
HETATM   21  C   UNL     1      -8.191   8.229  64.716  1.00  0.00    -0.147 A  
HETATM   22  C   UNL     1      -8.977   9.243  65.315  1.00  0.00    -0.260 A  
ENDBRANCH   8   9
ENDBRANCH   6   8
TORSDOF 2
ENDMDL
MODEL      168
REMARK 921   NORMALIZED FREE ENERGY PREDICTED BY IDOCK:   -4.02 KCAL/MOL
REMARK 922        TOTAL FREE ENERGY PREDICTED BY IDOCK:   -4.88 KCAL/MOL
REMARK 923 INTER-LIGAND FREE ENERGY PREDICTED BY IDOCK:   -4.98 KCAL/MOL
REMARK 924 INTRA-LIGAND FREE ENERGY PREDICTED BY IDOCK:    0.09 KCAL/MOL
REMARK 927      BINDING AFFINITY PREDICTED BY RF-SCORE:    0.00 PKD
ROOT
HETATM    1  C   UNL     1      -5.487  10.151  66.876  1.00  0.00    -0.045 C  
HETATM    2  N   UNL     1      -6.290   9.267  67.714  1.00  0.00    -0.058 NA 
HETATM    3  C   UNL     1      -6.340   9.691  69.116  1.00  0.00    -0.041 C  
HETATM    4  C   UNL     1      -7.217  10.921  69.350  1.00  0.00    -0.126 C  
HETATM    5  C   UNL     1      -8.621  10.720  68.789  1.00  0.00    -0.156 C  
HETATM    6  C   UNL     1      -8.594  10.256  67.316  1.00  0.00    -0.125 C  
HETATM    7  C   UNL     1      -7.635   9.058  67.167  1.00  0.00    -0.091 C  
ENDROOT
BRANCH   6   8
HETATM    8  C   UNL     1     -10.044   9.941  66.870  1.00  0.00    -0.285 C  
BRANCH   8   9
HETATM    9  C   UNL     1     -11.142   9.743  67.976  1.00  0.00    -0.168 C  
HETATM   10  C   UNL     1     -10.881   8.530  68.881  1.00  0.00    -0.009 A  
HETATM   11  C   UNL     1     -10.391   7.327  68.318  1.00  0.00    -0.227 A  
HETATM   12  C   UNL     1     -10.287   6.143  69.057  1.00  0.00    -0.263 A  
HETATM   13  C   UNL     1     -10.696   6.117  70.379  1.00  0.00    -0.347 A  
HETATM   14  C   UNL     1     -11.157   7.290  70.965  1.00  0.00    -0.281 A  
HETATM   15  C   UNL     1     -11.232   8.497  70.236  1.00  0.00    -0.179 A  
HETATM   16  S   UNL     1     -11.772   9.894  71.171  1.00  0.00    -0.403 SA 
HETATM   17  C   UNL     1     -11.763  11.220  70.008  1.00  0.00    -0.346 A  
HETATM   18  C   UNL     1     -12.015  12.496  70.547  1.00  0.00    -0.277 A  
HETATM   19  C   UNL     1     -12.119  13.619  69.735  1.00  0.00    -0.396 A  
HETATM   20  C   UNL     1     -12.022  13.470  68.362  1.00  0.00    -0.378 A  
HETATM   21  C   UNL     1     -11.771  12.208  67.818  1.00  0.00    -0.390 A  
HETATM   22  C   UNL     1     -11.564  11.066  68.631  1.00  0.00    -0.385 A  
ENDBRANCH   8   9
ENDBRANCH   6   8
TORSDOF 2
ENDMDL
MODEL      169
REMARK 921   NORMALIZED FREE ENERGY PREDICTED BY IDOCK:   -4.02 KCAL/MOL
REMARK 922        TOTAL FREE ENERGY PREDICTED BY IDOCK:   -4.88 KCAL/MOL
REMARK 923 INTER-LIGAND FREE ENERGY PREDICTED BY IDOCK:   -4.23 KCAL/MOL
REMARK 924 INTRA-LIGAND FREE ENERGY PREDICTED BY IDOCK:   -0.65 KCAL/MOL
REMARK 927      BINDING AFFINITY PREDICTED BY RF-SCORE:    0.00 PKD
ROOT
HETATM    1  C   UNL     1     -12.153   9.852  71.554  1.00  0.00    -0.410 C  
HETATM    2  N   UNL     1     -11.061   9.056  72.104  1.00  0.00    -0.301 NA 
HETATM    3  C   UNL     1     -11.505   7.775  72.661  1.00  0.00    -0.375 C  
HETATM    4  C   UNL     1     -11.890   6.749  71.595  1.00  0.00    -0.370 C  
HETATM    5  C   UNL     1     -10.765   6.545  70.585  1.00  0.00    -0.297 C  
HETATM    6  C   UNL     1     -10.267   7.884  69.997  1.00  0.00    -0.208 C  
HETATM    7  C   UNL     1      -9.970   8.874  71.140  1.00  0.00    -0.272 C  
ENDROOT
BRANCH   6   8
HETATM    8  C   UNL     1      -9.040   7.601  69.094  1.00  0.00    -0.141 C  
BRANCH   8   9
HETATM    9  C   UNL     1      -9.098   8.047  67.589  1.00  0.00    -0.144 C  
HETATM   10  C   UNL     1      -8.076   9.139  67.241  1.00  0.00    -0.106 A  
HETATM   11  C   UNL     1      -7.832  10.192  68.156  1.00  0.00    -0.096 A  
HETATM   12  C   UNL     1      -7.039  11.298  67.832  1.00  0.00    -0.078 A  
HETATM   13  C   UNL     1      -6.485  11.402  66.568  1.00  0.00    -0.081 A  
HETATM   14  C   UNL     1      -6.685  10.371  65.657  1.00  0.00    -0.127 A  
HETATM   15  C   UNL     1      -7.455   9.235  65.989  1.00  0.00    -0.095 A  
HETATM   16  S   UNL     1      -7.535   8.001  64.729  1.00  0.00    -0.098 SA 
HETATM   17  C   UNL     1      -8.546   6.736  65.428  1.00  0.00    -0.047 A  
HETATM   18  C   UNL     1      -8.644   5.554  64.668  1.00  0.00    -0.067 A  
HETATM   19  C   UNL     1      -9.472   4.508  65.058  1.00  0.00    -0.156 A  
HETATM   20  C   UNL     1     -10.254   4.654  66.191  1.00  0.00    -0.308 A  
HETATM   21  C   UNL     1     -10.163   5.823  66.951  1.00  0.00    -0.265 A  
HETATM   22  C   UNL     1      -9.255   6.860  66.628  1.00  0.00    -0.185 A  
ENDBRANCH   8   9
ENDBRANCH   6   8
TORSDOF 2
ENDMDL
MODEL      170
REMARK 921   NORMALIZED FREE ENERGY PREDICTED BY IDOCK:   -4.02 KCAL/MOL
REMARK 922        TOTAL FREE ENERGY PREDICTED BY IDOCK:   -4.88 KCAL/MOL
REMARK 923 INTER-LIGAND FREE ENERGY PREDICTED BY IDOCK:   -5.02 KCAL/MOL
REMARK 924 INTRA-LIGAND FREE ENERGY PREDICTED BY IDOCK:    0.13 KCAL/MOL
REMARK 927      BINDING AFFINITY PREDICTED BY RF-SCORE:    0.00 PKD
ROOT
HETATM    1  C   UNL     1      -9.525   2.445  72.358  1.00  0.00    -0.096 C  
HETATM    2  N   UNL     1     -10.196   3.171  73.430  1.00  0.00    -0.121 NA 
HETATM    3  C   UNL     1      -9.266   3.750  74.404  1.00  0.00    -0.095 C  
HETATM    4  C   UNL     1      -8.512   4.970  73.875  1.00  0.00    -0.103 C  
HETATM    5  C   UNL     1      -9.470   6.028  73.337  1.00  0.00    -0.138 C  
HETATM    6  C   UNL     1     -10.472   5.438  72.321  1.00  0.00    -0.272 C  
HETATM    7  C   UNL     1     -11.131   4.177  72.915  1.00  0.00    -0.035 C  
ENDROOT
BRANCH   6   8
HETATM    8  C   UNL     1     -11.491   6.539  71.934  1.00  0.00    -0.345 C  
BRANCH   8   9
HETATM    9  C   UNL     1     -11.397   7.176  70.500  1.00  0.00    -0.333 C  
HETATM   10  C   UNL     1     -11.500   8.708  70.511  1.00  0.00    -0.208 A  
HETATM   11  C   UNL     1     -12.420   9.345  71.378  1.00  0.00    -0.435 A  
HETATM   12  C   UNL     1     -12.676  10.720  71.320  1.00  0.00    -0.546 A  
HETATM   13  C   UNL     1     -12.039  11.500  70.370  1.00  0.00    -0.471 A  
HETATM   14  C   UNL     1     -11.111  10.906  69.523  1.00  0.00    -0.326 A  
HETATM   15  C   UNL     1     -10.821   9.526  69.599  1.00  0.00    -0.235 A  
HETATM   16  S   UNL     1      -9.564   8.971  68.491  1.00  0.00    -0.155 SA 
HETATM   17  C   UNL     1      -9.434   7.243  68.818  1.00  0.00    -0.142 A  
HETATM   18  C   UNL     1      -8.378   6.583  68.159  1.00  0.00    -0.116 A  
HETATM   19  C   UNL     1      -8.208   5.208  68.260  1.00  0.00    -0.093 A  
HETATM   20  C   UNL     1      -9.126   4.466  68.984  1.00  0.00    -0.180 A  
HETATM   21  C   UNL     1     -10.175   5.112  69.641  1.00  0.00    -0.337 A  
HETATM   22  C   UNL     1     -10.313   6.521  69.634  1.00  0.00    -0.234 A  
ENDBRANCH   8   9
ENDBRANCH   6   8
TORSDOF 2
ENDMDL
MODEL      171
REMARK 921   NORMALIZED FREE ENERGY PREDICTED BY IDOCK:   -4.01 KCAL/MOL
REMARK 922        TOTAL FREE ENERGY PREDICTED BY IDOCK:   -4.87 KCAL/MOL
REMARK 923 INTER-LIGAND FREE ENERGY PREDICTED BY IDOCK:   -4.50 KCAL/MOL
REMARK 924 INTRA-LIGAND FREE ENERGY PREDICTED BY IDOCK:   -0.37 KCAL/MOL
REMARK 927      BINDING AFFINITY PREDICTED BY RF-SCORE:    0.00 PKD
ROOT
HETATM    1  C   UNL     1     -10.236   5.890  72.647  1.00  0.00    -0.183 C  
HETATM    2  N   UNL     1      -9.174   6.026  71.657  1.00  0.00    -0.146 NA 
HETATM    3  C   UNL     1      -8.538   4.750  71.316  1.00  0.00    -0.118 C  
HETATM    4  C   UNL     1      -9.411   3.848  70.444  1.00  0.00    -0.252 C  
HETATM    5  C   UNL     1      -9.887   4.575  69.190  1.00  0.00    -0.222 C  
HETATM    6  C   UNL     1     -10.545   5.933  69.523  1.00  0.00    -0.378 C  
HETATM    7  C   UNL     1      -9.623   6.741  70.458  1.00  0.00    -0.169 C  
ENDROOT
BRANCH   6   8
HETATM    8  C   UNL     1     -10.869   6.664  68.197  1.00  0.00    -0.334 C  
BRANCH   8   9
HETATM    9  C   UNL     1      -9.765   7.582  67.558  1.00  0.00    -0.190 C  
HETATM   10  C   UNL     1      -8.999   6.903  66.413  1.00  0.00    -0.172 A  
HETATM   11  C   UNL     1      -8.637   5.538  66.522  1.00  0.00    -0.118 A  
HETATM   12  C   UNL     1      -7.803   4.909  65.592  1.00  0.00    -0.095 A  
HETATM   13  C   UNL     1      -7.280   5.633  64.534  1.00  0.00    -0.058 A  
HETATM   14  C   UNL     1      -7.640   6.967  64.387  1.00  0.00    -0.108 A  
HETATM   15  C   UNL     1      -8.509   7.600  65.303  1.00  0.00    -0.076 A  
HETATM   16  S   UNL     1      -8.906   9.275  64.909  1.00  0.00    -0.170 SA 
HETATM   17  C   UNL     1      -9.984   9.779  66.210  1.00  0.00    -0.262 A  
HETATM   18  C   UNL     1     -10.571  11.049  66.048  1.00  0.00    -0.275 A  
HETATM   19  C   UNL     1     -11.376  11.607  67.034  1.00  0.00    -0.373 A  
HETATM   20  C   UNL     1     -11.563  10.919  68.221  1.00  0.00    -0.335 A  
HETATM   21  C   UNL     1     -10.985   9.659  68.390  1.00  0.00    -0.161 A  
HETATM   22  C   UNL     1     -10.243   9.028  67.362  1.00  0.00    -0.308 A  
ENDBRANCH   8   9
ENDBRANCH   6   8
TORSDOF 2
ENDMDL
MODEL      172
REMARK 921   NORMALIZED FREE ENERGY PREDICTED BY IDOCK:   -3.99 KCAL/MOL
REMARK 922        TOTAL FREE ENERGY PREDICTED BY IDOCK:   -4.85 KCAL/MOL
REMARK 923 INTER-LIGAND FREE ENERGY PREDICTED BY IDOCK:   -4.47 KCAL/MOL
REMARK 924 INTRA-LIGAND FREE ENERGY PREDICTED BY IDOCK:   -0.38 KCAL/MOL
REMARK 927      BINDING AFFINITY PREDICTED BY RF-SCORE:    0.00 PKD
ROOT
HETATM    1  C   UNL     1     -12.055  13.652  70.813  1.00  0.00    -0.295 C  
HETATM    2  N   UNL     1     -12.118  14.101  69.426  1.00  0.00    -0.330 NA 
HETATM    3  C   UNL     1     -11.232  15.235  69.147  1.00  0.00    -0.278 C  
HETATM    4  C   UNL     1      -9.753  14.851  69.090  1.00  0.00    -0.184 C  
HETATM    5  C   UNL     1      -9.510  13.711  68.107  1.00  0.00    -0.217 C  
HETATM    6  C   UNL     1     -10.446  12.510  68.370  1.00  0.00    -0.250 C  
HETATM    7  C   UNL     1     -11.903  13.003  68.478  1.00  0.00    -0.325 C  
ENDROOT
BRANCH   6   8
HETATM    8  C   UNL     1     -10.234  11.462  67.250  1.00  0.00    -0.229 C  
BRANCH   8   9
HETATM    9  C   UNL     1      -9.430  10.155  67.588  1.00  0.00    -0.166 C  
HETATM   10  C   UNL     1      -8.003  10.157  67.023  1.00  0.00    -0.110 A  
HETATM   11  C   UNL     1      -7.760  10.677  65.728  1.00  0.00    -0.130 A  
HETATM   12  C   UNL     1      -6.518  10.560  65.095  1.00  0.00    -0.052 A  
HETATM   13  C   UNL     1      -5.482   9.893  65.727  1.00  0.00    -0.047 A  
HETATM   14  C   UNL     1      -5.684   9.396  67.009  1.00  0.00    -0.048 A  
HETATM   15  C   UNL     1      -6.924   9.540  67.668  1.00  0.00    -0.080 A  
HETATM   16  S   UNL     1      -6.964   8.909  69.317  1.00  0.00    -0.058 SA 
HETATM   17  C   UNL     1      -8.611   9.230  69.861  1.00  0.00    -0.170 A  
HETATM   18  C   UNL     1      -8.861   8.951  71.219  1.00  0.00    -0.298 A  
HETATM   19  C   UNL     1     -10.134   9.080  71.762  1.00  0.00    -0.373 A  
HETATM   20  C   UNL     1     -11.186   9.441  70.937  1.00  0.00    -0.393 A  
HETATM   21  C   UNL     1     -10.946   9.719  69.590  1.00  0.00    -0.269 A  
HETATM   22  C   UNL     1      -9.643   9.691  69.036  1.00  0.00    -0.168 A  
ENDBRANCH   8   9
ENDBRANCH   6   8
TORSDOF 2
ENDMDL
MODEL      173
REMARK 921   NORMALIZED FREE ENERGY PREDICTED BY IDOCK:   -3.98 KCAL/MOL
REMARK 922        TOTAL FREE ENERGY PREDICTED BY IDOCK:   -4.85 KCAL/MOL
REMARK 923 INTER-LIGAND FREE ENERGY PREDICTED BY IDOCK:   -5.37 KCAL/MOL
REMARK 924 INTRA-LIGAND FREE ENERGY PREDICTED BY IDOCK:    0.52 KCAL/MOL
REMARK 927      BINDING AFFINITY PREDICTED BY RF-SCORE:    0.00 PKD
ROOT
HETATM    1  C   UNL     1     -10.945  16.104  70.311  1.00  0.00    -0.340 C  
HETATM    2  N   UNL     1     -11.027  16.372  68.879  1.00  0.00    -0.323 NA 
HETATM    3  C   UNL     1     -10.658  17.746  68.527  1.00  0.00    -0.255 C  
HETATM    4  C   UNL     1      -9.157  18.016  68.623  1.00  0.00    -0.276 C  
HETATM    5  C   UNL     1      -8.355  17.008  67.805  1.00  0.00    -0.199 C  
HETATM    6  C   UNL     1      -8.740  15.551  68.145  1.00  0.00    -0.164 C  
HETATM    7  C   UNL     1     -10.273  15.393  68.089  1.00  0.00    -0.230 C  
ENDROOT
BRANCH   6   8
HETATM    8  C   UNL     1      -7.989  14.602  67.178  1.00  0.00    -0.184 C  
BRANCH   8   9
HETATM    9  C   UNL     1      -8.670  13.242  66.782  1.00  0.00    -0.093 C  
HETATM   10  C   UNL     1      -8.584  12.177  67.885  1.00  0.00    -0.167 A  
HETATM   11  C   UNL     1      -7.392  12.040  68.638  1.00  0.00    -0.111 A  
HETATM   12  C   UNL     1      -7.193  10.990  69.540  1.00  0.00    -0.091 A  
HETATM   13  C   UNL     1      -8.171  10.023  69.699  1.00  0.00    -0.185 A  
HETATM   14  C   UNL     1      -9.362  10.146  68.993  1.00  0.00    -0.192 A  
HETATM   15  C   UNL     1      -9.584  11.223  68.106  1.00  0.00    -0.186 A  
HETATM   16  S   UNL     1     -11.182  11.247  67.357  1.00  0.00    -0.277 SA 
HETATM   17  C   UNL     1     -11.153  12.679  66.327  1.00  0.00    -0.293 A  
HETATM   18  C   UNL     1     -12.382  13.011  65.724  1.00  0.00    -0.477 A  
HETATM   19  C   UNL     1     -12.485  14.065  64.824  1.00  0.00    -0.392 A  
HETATM   20  C   UNL     1     -11.345  14.769  64.476  1.00  0.00    -0.309 A  
HETATM   21  C   UNL     1     -10.123  14.446  65.069  1.00  0.00    -0.322 A  
HETATM   22  C   UNL     1     -10.011  13.442  66.062  1.00  0.00    -0.300 A  
ENDBRANCH   8   9
ENDBRANCH   6   8
TORSDOF 2
ENDMDL
MODEL      174
REMARK 921   NORMALIZED FREE ENERGY PREDICTED BY IDOCK:   -3.95 KCAL/MOL
REMARK 922        TOTAL FREE ENERGY PREDICTED BY IDOCK:   -4.81 KCAL/MOL
REMARK 923 INTER-LIGAND FREE ENERGY PREDICTED BY IDOCK:   -4.38 KCAL/MOL
REMARK 924 INTRA-LIGAND FREE ENERGY PREDICTED BY IDOCK:   -0.42 KCAL/MOL
REMARK 927      BINDING AFFINITY PREDICTED BY RF-SCORE:    0.00 PKD
ROOT
HETATM    1  C   UNL     1      -5.751   7.867  71.643  1.00  0.00    -0.035 C  
HETATM    2  N   UNL     1      -6.142   6.970  72.726  1.00  0.00    -0.052 NA 
HETATM    3  C   UNL     1      -5.742   7.456  74.049  1.00  0.00    -0.057 C  
HETATM    4  C   UNL     1      -6.584   8.631  74.546  1.00  0.00    -0.171 C  
HETATM    5  C   UNL     1      -8.074   8.305  74.510  1.00  0.00    -0.225 C  
HETATM    6  C   UNL     1      -8.516   7.773  73.128  1.00  0.00    -0.215 C  
HETATM    7  C   UNL     1      -7.570   6.640  72.682  1.00  0.00    -0.093 C  
ENDROOT
BRANCH   6   8
HETATM    8  C   UNL     1      -9.999   7.336  73.218  1.00  0.00    -0.319 C  
BRANCH   8   9
HETATM    9  C   UNL     1     -10.708   6.815  71.916  1.00  0.00    -0.250 C  
HETATM   10  C   UNL     1     -10.597   7.789  70.735  1.00  0.00    -0.220 A  
HETATM   11  C   UNL     1     -10.728   9.182  70.958  1.00  0.00    -0.363 A  
HETATM   12  C   UNL     1     -10.799  10.104  69.908  1.00  0.00    -0.347 A  
HETATM   13  C   UNL     1     -10.770   9.661  68.597  1.00  0.00    -0.233 A  
HETATM   14  C   UNL     1     -10.616   8.302  68.348  1.00  0.00    -0.148 A  
HETATM   15  C   UNL     1     -10.509   7.369  69.402  1.00  0.00    -0.217 A  
HETATM   16  S   UNL     1     -10.245   5.700  68.889  1.00  0.00    -0.223 SA 
HETATM   17  C   UNL     1     -10.155   4.794  70.399  1.00  0.00    -0.231 A  
HETATM   18  C   UNL     1      -9.796   3.438  70.268  1.00  0.00    -0.003 A  
HETATM   19  C   UNL     1      -9.766   2.587  71.365  1.00  0.00    -0.217 A  
HETATM   20  C   UNL     1     -10.148   3.071  72.605  1.00  0.00    -0.231 A  
HETATM   21  C   UNL     1     -10.506   4.414  72.745  1.00  0.00    -0.253 A  
HETATM   22  C   UNL     1     -10.449   5.323  71.661  1.00  0.00    -0.280 A  
ENDBRANCH   8   9
ENDBRANCH   6   8
TORSDOF 2
ENDMDL
MODEL      175
REMARK 921   NORMALIZED FREE ENERGY PREDICTED BY IDOCK:   -3.92 KCAL/MOL
REMARK 922        TOTAL FREE ENERGY PREDICTED BY IDOCK:   -4.78 KCAL/MOL
REMARK 923 INTER-LIGAND FREE ENERGY PREDICTED BY IDOCK:   -4.39 KCAL/MOL
REMARK 924 INTRA-LIGAND FREE ENERGY PREDICTED BY IDOCK:   -0.39 KCAL/MOL
REMARK 927      BINDING AFFINITY PREDICTED BY RF-SCORE:    0.00 PKD
ROOT
HETATM    1  C   UNL     1      -6.009  11.479  70.338  1.00  0.00    -0.138 C  
HETATM    2  N   UNL     1      -6.265  10.629  69.180  1.00  0.00    -0.041 NA 
HETATM    3  C   UNL     1      -7.355   9.674  69.395  1.00  0.00    -0.081 C  
HETATM    4  C   UNL     1      -8.740  10.321  69.388  1.00  0.00    -0.168 C  
HETATM    5  C   UNL     1      -8.969  11.136  68.120  1.00  0.00    -0.159 C  
HETATM    6  C   UNL     1      -7.823  12.139  67.862  1.00  0.00    -0.147 C  
HETATM    7  C   UNL     1      -6.467  11.411  67.955  1.00  0.00    -0.058 C  
ENDROOT
BRANCH   6   8
HETATM    8  C   UNL     1      -8.061  12.821  66.491  1.00  0.00     0.395 C  
BRANCH   8   9
HETATM    9  C   UNL     1      -9.365  13.675  66.295  1.00  0.00    -0.153 C  
HETATM   10  C   UNL     1     -10.445  12.953  65.477  1.00  0.00    -0.305 A  
HETATM   11  C   UNL     1     -10.074  12.181  64.349  1.00  0.00    -0.300 A  
HETATM   12  C   UNL     1     -11.017  11.635  63.472  1.00  0.00    -0.485 A  
HETATM   13  C   UNL     1     -12.366  11.868  63.679  1.00  0.00    -0.591 A  
HETATM   14  C   UNL     1     -12.761  12.601  64.792  1.00  0.00    -0.460 A  
HETATM   15  C   UNL     1     -11.816  13.125  65.701  1.00  0.00    -0.387 A  
HETATM   16  S   UNL     1     -12.512  13.964  67.090  1.00  0.00     0.143 SA 
HETATM   17  C   UNL     1     -11.110  14.493  68.020  1.00  0.00    -0.276 A  
HETATM   18  C   UNL     1     -11.401  15.066  69.274  1.00  0.00    -0.311 A  
HETATM   19  C   UNL     1     -10.399  15.601  70.075  1.00  0.00    -0.309 A  
HETATM   20  C   UNL     1      -9.096  15.614  69.608  1.00  0.00    -0.165 A  
HETATM   21  C   UNL     1      -8.799  15.048  68.366  1.00  0.00    -0.178 A  
HETATM   22  C   UNL     1      -9.786  14.410  67.576  1.00  0.00    -0.215 A  
ENDBRANCH   8   9
ENDBRANCH   6   8
TORSDOF 2
ENDMDL
MODEL      176
REMARK 921   NORMALIZED FREE ENERGY PREDICTED BY IDOCK:   -3.91 KCAL/MOL
REMARK 922        TOTAL FREE ENERGY PREDICTED BY IDOCK:   -4.76 KCAL/MOL
REMARK 923 INTER-LIGAND FREE ENERGY PREDICTED BY IDOCK:   -4.37 KCAL/MOL
REMARK 924 INTRA-LIGAND FREE ENERGY PREDICTED BY IDOCK:   -0.39 KCAL/MOL
REMARK 927      BINDING AFFINITY PREDICTED BY RF-SCORE:    0.00 PKD
ROOT
HETATM    1  C   UNL     1      -6.378   8.756  70.919  1.00  0.00    -0.049 C  
HETATM    2  N   UNL     1      -7.265   7.600  70.995  1.00  0.00    -0.058 NA 
HETATM    3  C   UNL     1      -7.682   7.283  72.364  1.00  0.00    -0.088 C  
HETATM    4  C   UNL     1      -8.704   8.268  72.932  1.00  0.00    -0.291 C  
HETATM    5  C   UNL     1      -9.912   8.411  72.012  1.00  0.00    -0.354 C  
HETATM    6  C   UNL     1      -9.497   8.728  70.558  1.00  0.00    -0.219 C  
HETATM    7  C   UNL     1      -8.418   7.727  70.097  1.00  0.00    -0.134 C  
ENDROOT
BRANCH   6   8
HETATM    8  C   UNL     1     -10.764   8.717  69.668  1.00  0.00    -0.212 C  
BRANCH   8   9
HETATM    9  C   UNL     1     -10.604   9.004  68.131  1.00  0.00    -0.225 C  
HETATM   10  C   UNL     1      -9.897  10.334  67.833  1.00  0.00    -0.181 A  
HETATM   11  C   UNL     1     -10.190  11.477  68.616  1.00  0.00    -0.217 A  
HETATM   12  C   UNL     1      -9.704  12.749  68.295  1.00  0.00    -0.216 A  
HETATM   13  C   UNL     1      -8.930  12.925  67.160  1.00  0.00    -0.219 A  
HETATM   14  C   UNL     1      -8.605  11.817  66.387  1.00  0.00    -0.113 A  
HETATM   15  C   UNL     1      -9.063  10.524  66.725  1.00  0.00    -0.151 A  
HETATM   16  S   UNL     1      -8.486   9.235  65.665  1.00  0.00    -0.147 SA 
HETATM   17  C   UNL     1      -9.214   7.773  66.330  1.00  0.00    -0.180 A  
HETATM   18  C   UNL     1      -8.784   6.566  65.745  1.00  0.00    -0.129 A  
HETATM   19  C   UNL     1      -9.334   5.345  66.114  1.00  0.00    -0.167 A  
HETATM   20  C   UNL     1     -10.362   5.321  67.042  1.00  0.00    -0.286 A  
HETATM   21  C   UNL     1     -10.795   6.513  67.627  1.00  0.00    -0.419 A  
HETATM   22  C   UNL     1     -10.183   7.758  67.340  1.00  0.00    -0.320 A  
ENDBRANCH   8   9
ENDBRANCH   6   8
TORSDOF 2
ENDMDL
MODEL      177
REMARK 921   NORMALIZED FREE ENERGY PREDICTED BY IDOCK:   -3.91 KCAL/MOL
REMARK 922        TOTAL FREE ENERGY PREDICTED BY IDOCK:   -4.76 KCAL/MOL
REMARK 923 INTER-LIGAND FREE ENERGY PREDICTED BY IDOCK:   -5.09 KCAL/MOL
REMARK 924 INTRA-LIGAND FREE ENERGY PREDICTED BY IDOCK:    0.33 KCAL/MOL
REMARK 927      BINDING AFFINITY PREDICTED BY RF-SCORE:    0.00 PKD
ROOT
HETATM    1  C   UNL     1      -5.485  14.328  69.725  1.00  0.00    -0.096 C  
HETATM    2  N   UNL     1      -6.550  15.322  69.651  1.00  0.00    -0.162 NA 
HETATM    3  C   UNL     1      -6.098  16.613  69.124  1.00  0.00    -0.170 C  
HETATM    4  C   UNL     1      -5.833  16.596  67.619  1.00  0.00    -0.166 C  
HETATM    5  C   UNL     1      -7.043  16.082  66.845  1.00  0.00    -0.182 C  
HETATM    6  C   UNL     1      -7.550  14.730  67.394  1.00  0.00    -0.228 C  
HETATM    7  C   UNL     1      -7.722  14.824  68.924  1.00  0.00    -0.146 C  
ENDROOT
BRANCH   6   8
HETATM    8  C   UNL     1      -8.855  14.352  66.651  1.00  0.00    -0.188 C  
BRANCH   8   9
HETATM    9  C   UNL     1     -10.223  14.859  67.233  1.00  0.00    -0.241 C  
HETATM   10  C   UNL     1     -10.759  13.983  68.374  1.00  0.00    -0.261 A  
HETATM   11  C   UNL     1     -10.642  12.574  68.293  1.00  0.00    -0.245 A  
HETATM   12  C   UNL     1     -11.251  11.717  69.216  1.00  0.00    -0.318 A  
HETATM   13  C   UNL     1     -12.022  12.242  70.239  1.00  0.00    -0.373 A  
HETATM   14  C   UNL     1     -12.134  13.623  70.359  1.00  0.00    -0.421 A  
HETATM   15  C   UNL     1     -11.493  14.494  69.451  1.00  0.00    -0.285 A  
HETATM   16  S   UNL     1     -11.692  16.212  69.809  1.00  0.00    -0.087 SA 
HETATM   17  C   UNL     1     -10.797  17.026  68.525  1.00  0.00    -0.310 A  
HETATM   18  C   UNL     1     -10.674  18.421  68.668  1.00  0.00     0.190 A  
HETATM   19  C   UNL     1     -10.066  19.199  67.690  1.00  0.00    -0.464 A  
HETATM   20  C   UNL     1      -9.618  18.594  66.529  1.00  0.00    -0.351 A  
HETATM   21  C   UNL     1      -9.737  17.210  66.378  1.00  0.00    -0.307 A  
HETATM   22  C   UNL     1     -10.262  16.385  67.402  1.00  0.00    -0.281 A  
ENDBRANCH   8   9
ENDBRANCH   6   8
TORSDOF 2
ENDMDL
MODEL      178
REMARK 921   NORMALIZED FREE ENERGY PREDICTED BY IDOCK:   -3.91 KCAL/MOL
REMARK 922        TOTAL FREE ENERGY PREDICTED BY IDOCK:   -4.76 KCAL/MOL
REMARK 923 INTER-LIGAND FREE ENERGY PREDICTED BY IDOCK:   -4.35 KCAL/MOL
REMARK 924 INTRA-LIGAND FREE ENERGY PREDICTED BY IDOCK:   -0.41 KCAL/MOL
REMARK 927      BINDING AFFINITY PREDICTED BY RF-SCORE:    0.00 PKD
ROOT
HETATM    1  C   UNL     1     -12.009  10.123  71.166  1.00  0.00    -0.386 C  
HETATM    2  N   UNL     1     -11.187   9.108  71.817  1.00  0.00    -0.375 NA 
HETATM    3  C   UNL     1     -11.951   7.928  72.233  1.00  0.00    -0.337 C  
HETATM    4  C   UNL     1     -12.366   7.030  71.068  1.00  0.00    -0.402 C  
HETATM    5  C   UNL     1     -11.166   6.632  70.215  1.00  0.00    -0.408 C  
HETATM    6  C   UNL     1     -10.334   7.858  69.778  1.00  0.00    -0.219 C  
HETATM    7  C   UNL     1     -10.022   8.737  71.007  1.00  0.00    -0.234 C  
ENDROOT
BRANCH   6   8
HETATM    8  C   UNL     1      -9.066   7.360  69.042  1.00  0.00    -0.133 C  
BRANCH   8   9
HETATM    9  C   UNL     1      -8.053   8.425  68.487  1.00  0.00    -0.123 C  
HETATM   10  C   UNL     1      -8.718   9.492  67.605  1.00  0.00    -0.122 A  
HETATM   11  C   UNL     1      -9.735   9.116  66.693  1.00  0.00    -0.287 A  
HETATM   12  C   UNL     1     -10.263  10.007  65.753  1.00  0.00    -0.270 A  
HETATM   13  C   UNL     1      -9.771  11.299  65.674  1.00  0.00    -0.267 A  
HETATM   14  C   UNL     1      -8.792  11.703  66.575  1.00  0.00    -0.188 A  
HETATM   15  C   UNL     1      -8.279  10.820  67.549  1.00  0.00    -0.112 A  
HETATM   16  S   UNL     1      -7.096  11.536  68.647  1.00  0.00    -0.104 SA 
HETATM   17  C   UNL     1      -6.652  10.212  69.725  1.00  0.00    -0.080 A  
HETATM   18  C   UNL     1      -5.819  10.567  70.804  1.00  0.00    -0.093 A  
HETATM   19  C   UNL     1      -5.325   9.612  71.683  1.00  0.00    -0.076 A  
HETATM   20  C   UNL     1      -5.618   8.277  71.462  1.00  0.00    -0.035 A  
HETATM   21  C   UNL     1      -6.443   7.915  70.394  1.00  0.00    -0.037 A  
HETATM   22  C   UNL     1      -7.038   8.879  69.544  1.00  0.00    -0.059 A  
ENDBRANCH   8   9
ENDBRANCH   6   8
TORSDOF 2
ENDMDL
MODEL      179
REMARK 921   NORMALIZED FREE ENERGY PREDICTED BY IDOCK:   -3.91 KCAL/MOL
REMARK 922        TOTAL FREE ENERGY PREDICTED BY IDOCK:   -4.76 KCAL/MOL
REMARK 923 INTER-LIGAND FREE ENERGY PREDICTED BY IDOCK:   -4.28 KCAL/MOL
REMARK 924 INTRA-LIGAND FREE ENERGY PREDICTED BY IDOCK:   -0.48 KCAL/MOL
REMARK 927      BINDING AFFINITY PREDICTED BY RF-SCORE:    0.00 PKD
ROOT
HETATM    1  C   UNL     1      -9.827   4.830  70.641  1.00  0.00    -0.222 C  
HETATM    2  N   UNL     1     -10.852   5.868  70.649  1.00  0.00    -0.289 NA 
HETATM    3  C   UNL     1     -10.503   7.016  71.490  1.00  0.00    -0.204 C  
HETATM    4  C   UNL     1      -9.421   7.909  70.883  1.00  0.00    -0.167 C  
HETATM    5  C   UNL     1      -9.794   8.357  69.473  1.00  0.00    -0.181 C  
HETATM    6  C   UNL     1     -10.184   7.165  68.571  1.00  0.00    -0.189 C  
HETATM    7  C   UNL     1     -11.226   6.288  69.294  1.00  0.00    -0.389 C  
ENDROOT
BRANCH   6   8
HETATM    8  C   UNL     1     -10.680   7.715  67.211  1.00  0.00    -0.344 C  
BRANCH   8   9
HETATM    9  C   UNL     1      -9.733   8.666  66.396  1.00  0.00    -0.333 C  
HETATM   10  C   UNL     1      -9.898  10.148  66.764  1.00  0.00    -0.247 A  
HETATM   11  C   UNL     1     -11.192  10.672  67.003  1.00  0.00    -0.117 A  
HETATM   12  C   UNL     1     -11.424  12.040  67.182  1.00  0.00    -0.401 A  
HETATM   13  C   UNL     1     -10.370  12.935  67.098  1.00  0.00    -0.239 A  
HETATM   14  C   UNL     1      -9.086  12.446  66.890  1.00  0.00    -0.211 A  
HETATM   15  C   UNL     1      -8.839  11.063  66.744  1.00  0.00    -0.156 A  
HETATM   16  S   UNL     1      -7.137  10.631  66.560  1.00  0.00    -0.139 SA 
HETATM   17  C   UNL     1      -7.154   8.874  66.402  1.00  0.00    -0.083 A  
HETATM   18  C   UNL     1      -5.888   8.258  66.392  1.00  0.00    -0.041 A  
HETATM   19  C   UNL     1      -5.749   6.890  66.191  1.00  0.00    -0.030 A  
HETATM   20  C   UNL     1      -6.877   6.127  65.946  1.00  0.00    -0.057 A  
HETATM   21  C   UNL     1      -8.137   6.729  65.954  1.00  0.00    -0.123 A  
HETATM   22  C   UNL     1      -8.312   8.102  66.254  1.00  0.00    -0.119 A  
ENDBRANCH   8   9
ENDBRANCH   6   8
TORSDOF 2
ENDMDL
MODEL      180
REMARK 921   NORMALIZED FREE ENERGY PREDICTED BY IDOCK:   -3.90 KCAL/MOL
REMARK 922        TOTAL FREE ENERGY PREDICTED BY IDOCK:   -4.75 KCAL/MOL
REMARK 923 INTER-LIGAND FREE ENERGY PREDICTED BY IDOCK:   -4.31 KCAL/MOL
REMARK 924 INTRA-LIGAND FREE ENERGY PREDICTED BY IDOCK:   -0.44 KCAL/MOL
REMARK 927      BINDING AFFINITY PREDICTED BY RF-SCORE:    0.00 PKD
ROOT
HETATM    1  C   UNL     1     -10.981   9.599  70.265  1.00  0.00    -0.285 C  
HETATM    2  N   UNL     1     -12.157  10.271  69.723  1.00  0.00    -0.123 NA 
HETATM    3  C   UNL     1     -13.232  10.435  70.705  1.00  0.00    -0.196 C  
HETATM    4  C   UNL     1     -12.940  11.511  71.751  1.00  0.00    -0.500 C  
HETATM    5  C   UNL     1     -12.588  12.844  71.098  1.00  0.00    -0.373 C  
HETATM    6  C   UNL     1     -11.468  12.693  70.044  1.00  0.00    -0.090 C  
HETATM    7  C   UNL     1     -11.818  11.543  69.077  1.00  0.00    -0.343 C  
ENDROOT
BRANCH   6   8
HETATM    8  C   UNL     1     -11.271  14.055  69.333  1.00  0.00    -0.283 C  
BRANCH   8   9
HETATM    9  C   UNL     1     -10.416  14.096  68.015  1.00  0.00    -0.240 C  
HETATM   10  C   UNL     1     -11.256  14.359  66.756  1.00  0.00    -0.340 A  
HETATM   11  C   UNL     1     -12.523  13.743  66.615  1.00  0.00    -0.307 A  
HETATM   12  C   UNL     1     -13.261  13.812  65.428  1.00  0.00    -0.028 A  
HETATM   13  C   UNL     1     -12.741  14.477  64.331  1.00  0.00     0.016 A  
HETATM   14  C   UNL     1     -11.511  15.114  64.449  1.00  0.00    -0.241 A  
HETATM   15  C   UNL     1     -10.777  15.078  65.655  1.00  0.00    -0.354 A  
HETATM   16  S   UNL     1      -9.274  16.005  65.633  1.00  0.00     0.157 SA 
HETATM   17  C   UNL     1      -8.600  15.769  67.246  1.00  0.00    -0.188 A  
HETATM   18  C   UNL     1      -7.457  16.539  67.539  1.00  0.00    -0.170 A  
HETATM   19  C   UNL     1      -6.774  16.393  68.741  1.00  0.00    -0.158 A  
HETATM   20  C   UNL     1      -7.199  15.436  69.646  1.00  0.00    -0.174 A  
HETATM   21  C   UNL     1      -8.331  14.668  69.363  1.00  0.00     0.085 A  
HETATM   22  C   UNL     1      -9.100  14.867  68.191  1.00  0.00    -0.177 A  
ENDBRANCH   8   9
ENDBRANCH   6   8
TORSDOF 2
ENDMDL
MODEL      181
REMARK 921   NORMALIZED FREE ENERGY PREDICTED BY IDOCK:   -3.90 KCAL/MOL
REMARK 922        TOTAL FREE ENERGY PREDICTED BY IDOCK:   -4.75 KCAL/MOL
REMARK 923 INTER-LIGAND FREE ENERGY PREDICTED BY IDOCK:   -4.92 KCAL/MOL
REMARK 924 INTRA-LIGAND FREE ENERGY PREDICTED BY IDOCK:    0.18 KCAL/MOL
REMARK 927      BINDING AFFINITY PREDICTED BY RF-SCORE:    0.00 PKD
ROOT
HETATM    1  C   UNL     1      -6.478   9.206  71.134  1.00  0.00    -0.084 C  
HETATM    2  N   UNL     1      -7.299  10.262  70.552  1.00  0.00    -0.233 NA 
HETATM    3  C   UNL     1      -6.599  11.034  69.522  1.00  0.00    -0.118 C  
HETATM    4  C   UNL     1      -6.418  10.274  68.209  1.00  0.00    -0.056 C  
HETATM    5  C   UNL     1      -7.748   9.742  67.684  1.00  0.00    -0.094 C  
HETATM    6  C   UNL     1      -8.514   8.938  68.759  1.00  0.00    -0.131 C  
HETATM    7  C   UNL     1      -8.586   9.757  70.064  1.00  0.00    -0.204 C  
ENDROOT
BRANCH   6   8
HETATM    8  C   UNL     1      -9.905   8.558  68.195  1.00  0.00    -0.192 C  
BRANCH   8   9
HETATM    9  C   UNL     1     -11.099   9.557  68.407  1.00  0.00    -0.036 C  
HETATM   10  C   UNL     1     -11.641   9.559  69.844  1.00  0.00    -0.026 A  
HETATM   11  C   UNL     1     -11.765   8.337  70.549  1.00  0.00    -0.067 A  
HETATM   12  C   UNL     1     -12.399   8.253  71.793  1.00  0.00    -0.366 A  
HETATM   13  C   UNL     1     -12.956   9.385  72.362  1.00  0.00    -0.427 A  
HETATM   14  C   UNL     1     -12.827  10.603  71.704  1.00  0.00    -0.570 A  
HETATM   15  C   UNL     1     -12.158  10.702  70.465  1.00  0.00    -0.355 A  
HETATM   16  S   UNL     1     -12.032  12.342  69.821  1.00  0.00    -0.248 SA 
HETATM   17  C   UNL     1     -11.165  12.141  68.298  1.00  0.00    -0.268 A  
HETATM   18  C   UNL     1     -10.800  13.337  67.651  1.00  0.00    -0.273 A  
HETATM   19  C   UNL     1     -10.185  13.329  66.405  1.00  0.00    -0.292 A  
HETATM   20  C   UNL     1      -9.975  12.119  65.765  1.00  0.00    -0.271 A  
HETATM   21  C   UNL     1     -10.334  10.928  66.400  1.00  0.00    -0.306 A  
HETATM   22  C   UNL     1     -10.870  10.906  67.710  1.00  0.00    -0.309 A  
ENDBRANCH   8   9
ENDBRANCH   6   8
TORSDOF 2
ENDMDL
MODEL      182
REMARK 921   NORMALIZED FREE ENERGY PREDICTED BY IDOCK:   -3.87 KCAL/MOL
REMARK 922        TOTAL FREE ENERGY PREDICTED BY IDOCK:   -4.72 KCAL/MOL
REMARK 923 INTER-LIGAND FREE ENERGY PREDICTED BY IDOCK:   -3.97 KCAL/MOL
REMARK 924 INTRA-LIGAND FREE ENERGY PREDICTED BY IDOCK:   -0.75 KCAL/MOL
REMARK 927      BINDING AFFINITY PREDICTED BY RF-SCORE:    0.00 PKD
ROOT
HETATM    1  C   UNL     1     -10.099   7.832  73.338  1.00  0.00    -0.263 C  
HETATM    2  N   UNL     1     -11.362   7.879  72.608  1.00  0.00    -0.388 NA 
HETATM    3  C   UNL     1     -11.673   9.211  72.082  1.00  0.00    -0.235 C  
HETATM    4  C   UNL     1     -10.816   9.607  70.880  1.00  0.00    -0.409 C  
HETATM    5  C   UNL     1     -10.880   8.554  69.778  1.00  0.00    -0.177 C  
HETATM    6  C   UNL     1     -10.573   7.137  70.313  1.00  0.00    -0.245 C  
HETATM    7  C   UNL     1     -11.434   6.856  71.560  1.00  0.00    -0.277 C  
ENDROOT
BRANCH   6   8
HETATM    8  C   UNL     1     -10.797   6.118  69.169  1.00  0.00    -0.418 C  
BRANCH   8   9
HETATM    9  C   UNL     1      -9.566   5.292  68.647  1.00  0.00    -0.183 C  
HETATM   10  C   UNL     1      -8.648   6.097  67.715  1.00  0.00    -0.114 A  
HETATM   11  C   UNL     1      -9.213   6.975  66.759  1.00  0.00    -0.181 A  
HETATM   12  C   UNL     1      -8.443   7.609  65.778  1.00  0.00    -0.153 A  
HETATM   13  C   UNL     1      -7.083   7.363  65.703  1.00  0.00    -0.065 A  
HETATM   14  C   UNL     1      -6.497   6.525  66.644  1.00  0.00    -0.043 A  
HETATM   15  C   UNL     1      -7.262   5.909  67.659  1.00  0.00    -0.076 A  
HETATM   16  S   UNL     1      -6.329   4.940  68.803  1.00  0.00    -0.036 SA 
HETATM   17  C   UNL     1      -7.539   4.315  69.924  1.00  0.00    -0.053 A  
HETATM   18  C   UNL     1      -7.027   3.622  71.037  1.00  0.00    -0.033 A  
HETATM   19  C   UNL     1      -7.867   3.006  71.957  1.00  0.00    -0.054 A  
HETATM   20  C   UNL     1      -9.235   3.033  71.745  1.00  0.00    -0.181 A  
HETATM   21  C   UNL     1      -9.752   3.718  70.642  1.00  0.00    -0.235 A  
HETATM   22  C   UNL     1      -8.922   4.436  69.747  1.00  0.00    -0.151 A  
ENDBRANCH   8   9
ENDBRANCH   6   8
TORSDOF 2
ENDMDL
MODEL      183
REMARK 921   NORMALIZED FREE ENERGY PREDICTED BY IDOCK:   -3.85 KCAL/MOL
REMARK 922        TOTAL FREE ENERGY PREDICTED BY IDOCK:   -4.69 KCAL/MOL
REMARK 923 INTER-LIGAND FREE ENERGY PREDICTED BY IDOCK:   -4.52 KCAL/MOL
REMARK 924 INTRA-LIGAND FREE ENERGY PREDICTED BY IDOCK:   -0.17 KCAL/MOL
REMARK 927      BINDING AFFINITY PREDICTED BY RF-SCORE:    0.00 PKD
ROOT
HETATM    1  C   UNL     1     -11.395  16.487  64.681  1.00  0.00    -0.069 C  
HETATM    2  N   UNL     1     -10.153  15.756  64.912  1.00  0.00    -0.341 NA 
HETATM    3  C   UNL     1      -9.406  16.244  66.074  1.00  0.00    -0.326 C  
HETATM    4  C   UNL     1     -10.036  15.853  67.411  1.00  0.00    -0.239 C  
HETATM    5  C   UNL     1     -10.265  14.348  67.500  1.00  0.00    -0.240 C  
HETATM    6  C   UNL     1     -11.036  13.806  66.276  1.00  0.00    -0.302 C  
HETATM    7  C   UNL     1     -10.368  14.307  64.980  1.00  0.00    -0.421 C  
ENDROOT
BRANCH   6   8
HETATM    8  C   UNL     1     -11.102  12.262  66.376  1.00  0.00    -0.345 C  
BRANCH   8   9
HETATM    9  C   UNL     1      -9.757  11.451  66.350  1.00  0.00    -0.231 C  
HETATM   10  C   UNL     1      -9.538  10.600  67.610  1.00  0.00    -0.178 A  
HETATM   11  C   UNL     1      -9.885  11.122  68.880  1.00  0.00    -0.176 A  
HETATM   12  C   UNL     1      -9.562  10.465  70.072  1.00  0.00     0.141 A  
HETATM   13  C   UNL     1      -8.855   9.275  70.035  1.00  0.00    -0.212 A  
HETATM   14  C   UNL     1      -8.524   8.726  68.801  1.00  0.00    -0.129 A  
HETATM   15  C   UNL     1      -8.877   9.365  67.593  1.00  0.00    -0.115 A  
HETATM   16  S   UNL     1      -8.435   8.480  66.131  1.00  0.00    -0.140 SA 
HETATM   17  C   UNL     1      -8.996   9.512  64.816  1.00  0.00    -0.218 A  
HETATM   18  C   UNL     1      -8.895   8.954  63.527  1.00  0.00     0.064 A  
HETATM   19  C   UNL     1      -9.223   9.686  62.392  1.00  0.00    -0.248 A  
HETATM   20  C   UNL     1      -9.609  11.008  62.531  1.00  0.00    -0.215 A  
HETATM   21  C   UNL     1      -9.712  11.570  63.806  1.00  0.00    -0.298 A  
HETATM   22  C   UNL     1      -9.478  10.816  64.981  1.00  0.00    -0.286 A  
ENDBRANCH   8   9
ENDBRANCH   6   8
TORSDOF 2
ENDMDL
MODEL      184
REMARK 921   NORMALIZED FREE ENERGY PREDICTED BY IDOCK:   -3.84 KCAL/MOL
REMARK 922        TOTAL FREE ENERGY PREDICTED BY IDOCK:   -4.69 KCAL/MOL
REMARK 923 INTER-LIGAND FREE ENERGY PREDICTED BY IDOCK:   -4.07 KCAL/MOL
REMARK 924 INTRA-LIGAND FREE ENERGY PREDICTED BY IDOCK:   -0.61 KCAL/MOL
REMARK 927      BINDING AFFINITY PREDICTED BY RF-SCORE:    0.00 PKD
ROOT
HETATM    1  C   UNL     1      -9.001   3.415  68.620  1.00  0.00    -0.130 C  
HETATM    2  N   UNL     1      -8.288   3.538  67.353  1.00  0.00    -0.090 NA 
HETATM    3  C   UNL     1      -9.152   3.348  66.185  1.00  0.00    -0.152 C  
HETATM    4  C   UNL     1     -10.088   4.528  65.922  1.00  0.00    -0.279 C  
HETATM    5  C   UNL     1      -9.317   5.841  65.824  1.00  0.00    -0.046 C  
HETATM    6  C   UNL     1      -8.384   6.055  67.037  1.00  0.00    -0.105 C  
HETATM    7  C   UNL     1      -7.531   4.792  67.264  1.00  0.00    -0.082 C  
ENDROOT
BRANCH   6   8
HETATM    8  C   UNL     1      -7.540   7.331  66.793  1.00  0.00    -0.100 C  
BRANCH   8   9
HETATM    9  C   UNL     1      -8.166   8.726  67.156  1.00  0.00    -0.104 C  
HETATM   10  C   UNL     1      -8.936   9.367  65.993  1.00  0.00    -0.205 A  
HETATM   11  C   UNL     1      -8.420   9.279  64.676  1.00  0.00    -0.192 A  
HETATM   12  C   UNL     1      -8.986   9.977  63.603  1.00  0.00    -0.280 A  
HETATM   13  C   UNL     1     -10.071  10.809  63.817  1.00  0.00    -0.391 A  
HETATM   14  C   UNL     1     -10.615  10.894  65.094  1.00  0.00    -0.268 A  
HETATM   15  C   UNL     1     -10.071  10.166  66.175  1.00  0.00    -0.246 A  
HETATM   16  S   UNL     1     -10.941  10.346  67.700  1.00  0.00    -0.285 SA 
HETATM   17  C   UNL     1     -10.039   9.339  68.832  1.00  0.00    -0.195 A  
HETATM   18  C   UNL     1     -10.624   9.190  70.105  1.00  0.00    -0.258 A  
HETATM   19  C   UNL     1      -9.982   8.492  71.121  1.00  0.00    -0.265 A  
HETATM   20  C   UNL     1      -8.719   7.975  70.890  1.00  0.00    -0.143 A  
HETATM   21  C   UNL     1      -8.131   8.117  69.631  1.00  0.00    -0.118 A  
HETATM   22  C   UNL     1      -8.806   8.738  68.552  1.00  0.00    -0.138 A  
ENDBRANCH   8   9
ENDBRANCH   6   8
TORSDOF 2
ENDMDL
MODEL      185
REMARK 921   NORMALIZED FREE ENERGY PREDICTED BY IDOCK:   -3.84 KCAL/MOL
REMARK 922        TOTAL FREE ENERGY PREDICTED BY IDOCK:   -4.68 KCAL/MOL
REMARK 923 INTER-LIGAND FREE ENERGY PREDICTED BY IDOCK:   -4.13 KCAL/MOL
REMARK 924 INTRA-LIGAND FREE ENERGY PREDICTED BY IDOCK:   -0.55 KCAL/MOL
REMARK 927      BINDING AFFINITY PREDICTED BY RF-SCORE:    0.00 PKD
ROOT
HETATM    1  C   UNL     1     -12.957   9.587  71.370  1.00  0.00    -0.368 C  
HETATM    2  N   UNL     1     -12.112   8.714  72.177  1.00  0.00    -0.366 NA 
HETATM    3  C   UNL     1     -12.411   7.291  71.993  1.00  0.00    -0.242 C  
HETATM    4  C   UNL     1     -11.927   6.736  70.654  1.00  0.00    -0.418 C  
HETATM    5  C   UNL     1     -10.443   7.016  70.438  1.00  0.00    -0.225 C  
HETATM    6  C   UNL     1     -10.099   8.508  70.645  1.00  0.00    -0.225 C  
HETATM    7  C   UNL     1     -10.685   8.993  71.986  1.00  0.00    -0.263 C  
ENDROOT
BRANCH   6   8
HETATM    8  C   UNL     1      -8.563   8.680  70.547  1.00  0.00    -0.170 C  
BRANCH   8   9
HETATM    9  C   UNL     1      -7.871   8.461  69.153  1.00  0.00    -0.105 C  
HETATM   10  C   UNL     1      -7.421   7.011  68.921  1.00  0.00    -0.095 A  
HETATM   11  C   UNL     1      -6.845   6.275  69.985  1.00  0.00    -0.058 A  
HETATM   12  C   UNL     1      -6.270   5.014  69.798  1.00  0.00    -0.026 A  
HETATM   13  C   UNL     1      -6.226   4.457  68.531  1.00  0.00    -0.032 A  
HETATM   14  C   UNL     1      -6.807   5.145  67.472  1.00  0.00    -0.057 A  
HETATM   15  C   UNL     1      -7.420   6.403  67.660  1.00  0.00    -0.093 A  
HETATM   16  S   UNL     1      -8.166   7.087  66.213  1.00  0.00    -0.126 SA 
HETATM   17  C   UNL     1      -8.833   8.626  66.758  1.00  0.00    -0.134 A  
HETATM   18  C   UNL     1      -9.621   9.309  65.812  1.00  0.00    -0.341 A  
HETATM   19  C   UNL     1     -10.142  10.570  66.077  1.00  0.00    -0.317 A  
HETATM   20  C   UNL     1      -9.835  11.187  67.278  1.00  0.00    -0.198 A  
HETATM   21  C   UNL     1      -9.053  10.517  68.222  1.00  0.00    -0.146 A  
HETATM   22  C   UNL     1      -8.594   9.193  68.015  1.00  0.00    -0.125 A  
ENDBRANCH   8   9
ENDBRANCH   6   8
TORSDOF 2
ENDMDL
MODEL      186
REMARK 921   NORMALIZED FREE ENERGY PREDICTED BY IDOCK:   -3.82 KCAL/MOL
REMARK 922        TOTAL FREE ENERGY PREDICTED BY IDOCK:   -4.66 KCAL/MOL
REMARK 923 INTER-LIGAND FREE ENERGY PREDICTED BY IDOCK:   -5.01 KCAL/MOL
REMARK 924 INTRA-LIGAND FREE ENERGY PREDICTED BY IDOCK:    0.35 KCAL/MOL
REMARK 927      BINDING AFFINITY PREDICTED BY RF-SCORE:    0.00 PKD
ROOT
HETATM    1  C   UNL     1     -13.134  15.250  70.379  1.00  0.00    -0.200 C  
HETATM    2  N   UNL     1     -11.811  14.697  70.109  1.00  0.00    -0.289 NA 
HETATM    3  C   UNL     1     -11.669  13.304  70.542  1.00  0.00     0.007 C  
HETATM    4  C   UNL     1     -12.409  12.310  69.647  1.00  0.00    -0.050 C  
HETATM    5  C   UNL     1     -12.008  12.472  68.184  1.00  0.00    -0.274 C  
HETATM    6  C   UNL     1     -12.132  13.936  67.708  1.00  0.00    -0.328 C  
HETATM    7  C   UNL     1     -11.415  14.868  68.707  1.00  0.00    -0.307 C  
ENDROOT
BRANCH   6   8
HETATM    8  C   UNL     1     -11.576  14.037  66.266  1.00  0.00    -0.379 C  
BRANCH   8   9
HETATM    9  C   UNL     1     -10.020  14.129  66.067  1.00  0.00    -0.340 C  
HETATM   10  C   UNL     1      -9.439  15.496  66.456  1.00  0.00    -0.299 A  
HETATM   11  C   UNL     1     -10.144  16.679  66.126  1.00  0.00    -0.361 A  
HETATM   12  C   UNL     1      -9.594  17.953  66.306  1.00  0.00    -0.252 A  
HETATM   13  C   UNL     1      -8.307  18.085  66.797  1.00  0.00    -0.271 A  
HETATM   14  C   UNL     1      -7.601  16.942  67.154  1.00  0.00    -0.210 A  
HETATM   15  C   UNL     1      -8.162  15.655  67.008  1.00  0.00    -0.233 A  
HETATM   16  S   UNL     1      -7.142  14.333  67.582  1.00  0.00    -0.174 SA 
HETATM   17  C   UNL     1      -8.098  12.884  67.270  1.00  0.00    -0.163 A  
HETATM   18  C   UNL     1      -7.562  11.687  67.783  1.00  0.00    -0.121 A  
HETATM   19  C   UNL     1      -8.167  10.460  67.541  1.00  0.00    -0.114 A  
HETATM   20  C   UNL     1      -9.293  10.410  66.737  1.00  0.00    -0.181 A  
HETATM   21  C   UNL     1      -9.832  11.593  66.224  1.00  0.00    -0.245 A  
HETATM   22  C   UNL     1      -9.291  12.863  66.538  1.00  0.00    -0.224 A  
ENDBRANCH   8   9
ENDBRANCH   6   8
TORSDOF 2
ENDMDL
MODEL      187
REMARK 921   NORMALIZED FREE ENERGY PREDICTED BY IDOCK:   -3.78 KCAL/MOL
REMARK 922        TOTAL FREE ENERGY PREDICTED BY IDOCK:   -4.62 KCAL/MOL
REMARK 923 INTER-LIGAND FREE ENERGY PREDICTED BY IDOCK:   -4.70 KCAL/MOL
REMARK 924 INTRA-LIGAND FREE ENERGY PREDICTED BY IDOCK:    0.08 KCAL/MOL
REMARK 927      BINDING AFFINITY PREDICTED BY RF-SCORE:    0.00 PKD
ROOT
HETATM    1  C   UNL     1      -6.895  14.404  68.173  1.00  0.00    -0.123 C  
HETATM    2  N   UNL     1      -6.934  13.186  67.371  1.00  0.00    -0.146 NA 
HETATM    3  C   UNL     1      -6.255  12.054  68.009  1.00  0.00    -0.058 C  
HETATM    4  C   UNL     1      -7.034  11.460  69.182  1.00  0.00    -0.118 C  
HETATM    5  C   UNL     1      -8.456  11.087  68.776  1.00  0.00    -0.144 C  
HETATM    6  C   UNL     1      -9.187  12.260  68.085  1.00  0.00    -0.197 C  
HETATM    7  C   UNL     1      -8.298  12.835  66.964  1.00  0.00    -0.120 C  
ENDROOT
BRANCH   6   8
HETATM    8  C   UNL     1     -10.563  11.757  67.581  1.00  0.00    -0.237 C  
BRANCH   8   9
HETATM    9  C   UNL     1     -10.911  10.234  67.746  1.00  0.00    -0.360 C  
HETATM   10  C   UNL     1      -9.978   9.309  66.951  1.00  0.00    -0.298 A  
HETATM   11  C   UNL     1      -9.564   9.679  65.648  1.00  0.00    -0.338 A  
HETATM   12  C   UNL     1      -8.851   8.811  64.815  1.00  0.00    -0.089 A  
HETATM   13  C   UNL     1      -8.551   7.531  65.247  1.00  0.00    -0.023 A  
HETATM   14  C   UNL     1      -8.922   7.149  66.531  1.00  0.00    -0.172 A  
HETATM   15  C   UNL     1      -9.612   8.031  67.391  1.00  0.00    -0.153 A  
HETATM   16  S   UNL     1      -9.931   7.392  69.006  1.00  0.00    -0.181 SA 
HETATM   17  C   UNL     1     -10.786   8.699  69.825  1.00  0.00    -0.183 A  
HETATM   18  C   UNL     1     -11.027   8.494  71.197  1.00  0.00    -0.306 A  
HETATM   19  C   UNL     1     -11.762   9.404  71.948  1.00  0.00    -0.376 A  
HETATM   20  C   UNL     1     -12.310  10.509  71.320  1.00  0.00    -0.502 A  
HETATM   21  C   UNL     1     -12.076  10.720  69.959  1.00  0.00    -0.423 A  
HETATM   22  C   UNL     1     -11.250   9.861  69.196  1.00  0.00    -0.151 A  
ENDBRANCH   8   9
ENDBRANCH   6   8
TORSDOF 2
ENDMDL
MODEL      188
REMARK 921   NORMALIZED FREE ENERGY PREDICTED BY IDOCK:   -3.77 KCAL/MOL
REMARK 922        TOTAL FREE ENERGY PREDICTED BY IDOCK:   -4.60 KCAL/MOL
REMARK 923 INTER-LIGAND FREE ENERGY PREDICTED BY IDOCK:   -3.80 KCAL/MOL
REMARK 924 INTRA-LIGAND FREE ENERGY PREDICTED BY IDOCK:   -0.80 KCAL/MOL
REMARK 927      BINDING AFFINITY PREDICTED BY RF-SCORE:    0.00 PKD
ROOT
HETATM    1  C   UNL     1      -7.609  10.728  66.216  1.00  0.00    -0.142 C  
HETATM    2  N   UNL     1      -8.708  10.479  67.144  1.00  0.00    -0.130 NA 
HETATM    3  C   UNL     1      -9.933  10.028  66.478  1.00  0.00    -0.225 C  
HETATM    4  C   UNL     1      -9.857   8.585  65.978  1.00  0.00    -0.135 C  
HETATM    5  C   UNL     1      -9.457   7.627  67.095  1.00  0.00    -0.196 C  
HETATM    6  C   UNL     1      -8.177   8.092  67.825  1.00  0.00    -0.129 C  
HETATM    7  C   UNL     1      -8.320   9.573  68.230  1.00  0.00    -0.118 C  
ENDROOT
BRANCH   6   8
HETATM    8  C   UNL     1      -7.922   7.148  69.026  1.00  0.00    -0.120 C  
BRANCH   8   9
HETATM    9  C   UNL     1      -9.088   6.209  69.503  1.00  0.00    -0.140 C  
HETATM   10  C   UNL     1      -8.771   4.716  69.334  1.00  0.00    -0.111 A  
HETATM   11  C   UNL     1      -8.093   4.268  68.174  1.00  0.00    -0.089 A  
HETATM   12  C   UNL     1      -7.920   2.910  67.885  1.00  0.00    -0.068 A  
HETATM   13  C   UNL     1      -8.445   1.952  68.735  1.00  0.00    -0.085 A  
HETATM   14  C   UNL     1      -9.092   2.362  69.895  1.00  0.00    -0.176 A  
HETATM   15  C   UNL     1      -9.241   3.730  70.210  1.00  0.00    -0.149 A  
HETATM   16  S   UNL     1     -10.026   4.052  71.759  1.00  0.00    -0.137 SA 
HETATM   17  C   UNL     1     -10.064   5.812  71.865  1.00  0.00    -0.185 A  
HETATM   18  C   UNL     1     -10.514   6.331  73.095  1.00  0.00    -0.259 A  
HETATM   19  C   UNL     1     -10.673   7.698  73.289  1.00  0.00    -0.409 A  
HETATM   20  C   UNL     1     -10.431   8.562  72.235  1.00  0.00    -0.402 A  
HETATM   21  C   UNL     1      -9.985   8.055  71.012  1.00  0.00    -0.208 A  
HETATM   22  C   UNL     1      -9.721   6.677  70.820  1.00  0.00    -0.190 A  
ENDBRANCH   8   9
ENDBRANCH   6   8
TORSDOF 2
ENDMDL
MODEL      189
REMARK 921   NORMALIZED FREE ENERGY PREDICTED BY IDOCK:   -3.76 KCAL/MOL
REMARK 922        TOTAL FREE ENERGY PREDICTED BY IDOCK:   -4.60 KCAL/MOL
REMARK 923 INTER-LIGAND FREE ENERGY PREDICTED BY IDOCK:   -3.96 KCAL/MOL
REMARK 924 INTRA-LIGAND FREE ENERGY PREDICTED BY IDOCK:   -0.64 KCAL/MOL
REMARK 927      BINDING AFFINITY PREDICTED BY RF-SCORE:    0.00 PKD
ROOT
HETATM    1  C   UNL     1     -11.767  11.402  68.657  1.00  0.00    -0.329 C  
HETATM    2  N   UNL     1     -10.951  10.955  67.534  1.00  0.00    -0.274 NA 
HETATM    3  C   UNL     1      -9.990  11.965  67.081  1.00  0.00    -0.194 C  
HETATM    4  C   UNL     1      -8.809  12.151  68.033  1.00  0.00    -0.181 C  
HETATM    5  C   UNL     1      -8.112  10.826  68.323  1.00  0.00    -0.121 C  
HETATM    6  C   UNL     1      -9.108   9.738  68.785  1.00  0.00    -0.136 C  
HETATM    7  C   UNL     1     -10.294   9.671  67.803  1.00  0.00    -0.236 C  
ENDROOT
BRANCH   6   8
HETATM    8  C   UNL     1      -8.346   8.397  68.922  1.00  0.00    -0.119 C  
BRANCH   8   9
HETATM    9  C   UNL     1      -8.397   7.642  70.299  1.00  0.00    -0.132 C  
HETATM   10  C   UNL     1      -7.422   8.212  71.339  1.00  0.00    -0.079 A  
HETATM   11  C   UNL     1      -6.126   8.617  70.939  1.00  0.00    -0.037 A  
HETATM   12  C   UNL     1      -5.141   8.991  71.860  1.00  0.00    -0.046 A  
HETATM   13  C   UNL     1      -5.412   8.944  73.217  1.00  0.00    -0.092 A  
HETATM   14  C   UNL     1      -6.685   8.575  73.637  1.00  0.00    -0.099 A  
HETATM   15  C   UNL     1      -7.694   8.230  72.712  1.00  0.00    -0.117 A  
HETATM   16  S   UNL     1      -9.263   7.861  73.433  1.00  0.00    -0.274 SA 
HETATM   17  C   UNL     1     -10.291   7.476  72.053  1.00  0.00    -0.199 A  
HETATM   18  C   UNL     1     -11.655   7.288  72.351  1.00  0.00    -0.307 A  
HETATM   19  C   UNL     1     -12.564   6.900  71.374  1.00  0.00    -0.400 A  
HETATM   20  C   UNL     1     -12.108   6.645  70.092  1.00  0.00    -0.121 A  
HETATM   21  C   UNL     1     -10.757   6.829  69.787  1.00  0.00    -0.288 A  
HETATM   22  C   UNL     1      -9.831   7.318  70.740  1.00  0.00    -0.178 A  
ENDBRANCH   8   9
ENDBRANCH   6   8
TORSDOF 2
ENDMDL
MODEL      190
REMARK 921   NORMALIZED FREE ENERGY PREDICTED BY IDOCK:   -3.75 KCAL/MOL
REMARK 922        TOTAL FREE ENERGY PREDICTED BY IDOCK:   -4.59 KCAL/MOL
REMARK 923 INTER-LIGAND FREE ENERGY PREDICTED BY IDOCK:   -4.00 KCAL/MOL
REMARK 924 INTRA-LIGAND FREE ENERGY PREDICTED BY IDOCK:   -0.58 KCAL/MOL
REMARK 927      BINDING AFFINITY PREDICTED BY RF-SCORE:    0.00 PKD
ROOT
HETATM    1  C   UNL     1     -11.827  11.599  64.121  1.00  0.00    -0.172 C  
HETATM    2  N   UNL     1     -10.431  11.983  64.301  1.00  0.00    -0.303 NA 
HETATM    3  C   UNL     1     -10.269  13.239  65.039  1.00  0.00    -0.297 C  
HETATM    4  C   UNL     1     -10.561  13.109  66.534  1.00  0.00    -0.290 C  
HETATM    5  C   UNL     1      -9.737  11.993  67.168  1.00  0.00    -0.203 C  
HETATM    6  C   UNL     1      -9.877  10.661  66.397  1.00  0.00    -0.259 C  
HETATM    7  C   UNL     1      -9.632  10.904  64.894  1.00  0.00    -0.248 C  
ENDROOT
BRANCH   6   8
HETATM    8  C   UNL     1      -8.906   9.626  67.018  1.00  0.00    -0.142 C  
BRANCH   8   9
HETATM    9  C   UNL     1      -9.398   8.143  67.184  1.00  0.00    -0.183 C  
HETATM   10  C   UNL     1      -8.499   7.123  66.470  1.00  0.00    -0.125 A  
HETATM   11  C   UNL     1      -7.970   7.427  65.192  1.00  0.00    -0.128 A  
HETATM   12  C   UNL     1      -7.283   6.481  64.423  1.00  0.00    -0.069 A  
HETATM   13  C   UNL     1      -7.126   5.190  64.896  1.00  0.00    -0.062 A  
HETATM   14  C   UNL     1      -7.612   4.870  66.158  1.00  0.00    -0.091 A  
HETATM   15  C   UNL     1      -8.277   5.829  66.955  1.00  0.00    -0.101 A  
HETATM   16  S   UNL     1      -8.757   5.256  68.554  1.00  0.00    -0.097 SA 
HETATM   17  C   UNL     1      -9.545   6.651  69.292  1.00  0.00    -0.143 A  
HETATM   18  C   UNL     1      -9.893   6.498  70.648  1.00  0.00    -0.201 A  
HETATM   19  C   UNL     1     -10.592   7.485  71.333  1.00  0.00    -0.229 A  
HETATM   20  C   UNL     1     -10.999   8.619  70.651  1.00  0.00    -0.274 A  
HETATM   21  C   UNL     1     -10.659   8.779  69.305  1.00  0.00    -0.210 A  
HETATM   22  C   UNL     1      -9.863   7.833  68.614  1.00  0.00    -0.174 A  
ENDBRANCH   8   9
ENDBRANCH   6   8
TORSDOF 2
ENDMDL
MODEL      191
REMARK 921   NORMALIZED FREE ENERGY PREDICTED BY IDOCK:   -3.75 KCAL/MOL
REMARK 922        TOTAL FREE ENERGY PREDICTED BY IDOCK:   -4.58 KCAL/MOL
REMARK 923 INTER-LIGAND FREE ENERGY PREDICTED BY IDOCK:   -3.84 KCAL/MOL
REMARK 924 INTRA-LIGAND FREE ENERGY PREDICTED BY IDOCK:   -0.74 KCAL/MOL
REMARK 927      BINDING AFFINITY PREDICTED BY RF-SCORE:    0.00 PKD
ROOT
HETATM    1  C   UNL     1     -10.719  19.385  67.347  1.00  0.00    -0.479 C  
HETATM    2  N   UNL     1      -9.750  18.445  66.794  1.00  0.00    -0.311 NA 
HETATM    3  C   UNL     1      -8.392  18.992  66.725  1.00  0.00    -0.288 C  
HETATM    4  C   UNL     1      -7.708  19.095  68.088  1.00  0.00    -0.328 C  
HETATM    5  C   UNL     1      -7.723  17.758  68.823  1.00  0.00    -0.252 C  
HETATM    6  C   UNL     1      -9.142  17.152  68.892  1.00  0.00    -0.192 C  
HETATM    7  C   UNL     1      -9.776  17.152  67.486  1.00  0.00    -0.256 C  
ENDROOT
BRANCH   6   8
HETATM    8  C   UNL     1      -9.048  15.741  69.523  1.00  0.00    -0.202 C  
BRANCH   8   9
HETATM    9  C   UNL     1      -9.587  14.514  68.702  1.00  0.00    -0.219 C  
HETATM   10  C   UNL     1      -8.490  13.509  68.324  1.00  0.00    -0.168 A  
HETATM   11  C   UNL     1      -7.219  13.977  67.912  1.00  0.00    -0.164 A  
HETATM   12  C   UNL     1      -6.235  13.123  67.402  1.00  0.00    -0.046 A  
HETATM   13  C   UNL     1      -6.502  11.772  67.260  1.00  0.00    -0.131 A  
HETATM   14  C   UNL     1      -7.732  11.280  67.680  1.00  0.00    -0.115 A  
HETATM   15  C   UNL     1      -8.717  12.130  68.228  1.00  0.00    -0.178 A  
HETATM   16  S   UNL     1     -10.184  11.311  68.770  1.00  0.00    -0.184 SA 
HETATM   17  C   UNL     1     -11.199  12.612  69.391  1.00  0.00    -0.139 A  
HETATM   18  C   UNL     1     -12.384  12.199  70.030  1.00  0.00    -0.167 A  
HETATM   19  C   UNL     1     -13.317  13.119  70.493  1.00  0.00     0.605 A  
HETATM   20  C   UNL     1     -13.098  14.469  70.277  1.00  0.00    -0.027 A  
HETATM   21  C   UNL     1     -11.925  14.888  69.645  1.00  0.00    -0.360 A  
HETATM   22  C   UNL     1     -10.915  13.976  69.252  1.00  0.00    -0.242 A  
ENDBRANCH   8   9
ENDBRANCH   6   8
TORSDOF 2
ENDMDL
MODEL      192
REMARK 921   NORMALIZED FREE ENERGY PREDICTED BY IDOCK:   -3.70 KCAL/MOL
REMARK 922        TOTAL FREE ENERGY PREDICTED BY IDOCK:   -4.53 KCAL/MOL
REMARK 923 INTER-LIGAND FREE ENERGY PREDICTED BY IDOCK:   -3.83 KCAL/MOL
REMARK 924 INTRA-LIGAND FREE ENERGY PREDICTED BY IDOCK:   -0.71 KCAL/MOL
REMARK 927      BINDING AFFINITY PREDICTED BY RF-SCORE:    0.00 PKD
ROOT
HETATM    1  C   UNL     1     -10.108   9.106  69.674  1.00  0.00    -0.198 C  
HETATM    2  N   UNL     1     -10.448   9.492  71.040  1.00  0.00    -0.314 NA 
HETATM    3  C   UNL     1     -11.892   9.516  71.289  1.00  0.00    -0.373 C  
HETATM    4  C   UNL     1     -12.515   8.123  71.389  1.00  0.00    -0.313 C  
HETATM    5  C   UNL     1     -11.796   7.263  72.423  1.00  0.00    -0.247 C  
HETATM    6  C   UNL     1     -10.269   7.237  72.192  1.00  0.00    -0.216 C  
HETATM    7  C   UNL     1      -9.743   8.678  72.036  1.00  0.00    -0.321 C  
ENDROOT
BRANCH   6   8
HETATM    8  C   UNL     1      -9.605   6.464  73.358  1.00  0.00    -0.163 C  
BRANCH   8   9
HETATM    9  C   UNL     1      -8.790   5.162  73.028  1.00  0.00    -0.120 C  
HETATM   10  C   UNL     1      -9.679   3.931  72.800  1.00  0.00    -0.190 A  
HETATM   11  C   UNL     1     -10.813   3.722  73.622  1.00  0.00    -0.329 A  
HETATM   12  C   UNL     1     -11.566   2.543  73.572  1.00  0.00    -0.198 A  
HETATM   13  C   UNL     1     -11.192   1.522  72.716  1.00  0.00    -0.153 A  
HETATM   14  C   UNL     1     -10.099   1.711  71.878  1.00  0.00    -0.221 A  
HETATM   15  C   UNL     1      -9.355   2.911  71.898  1.00  0.00    -0.120 A  
HETATM   16  S   UNL     1      -8.050   2.991  70.712  1.00  0.00    -0.053 SA 
HETATM   17  C   UNL     1      -7.323   4.576  70.979  1.00  0.00    -0.051 A  
HETATM   18  C   UNL     1      -6.338   4.952  70.045  1.00  0.00    -0.030 A  
HETATM   19  C   UNL     1      -5.624   6.137  70.182  1.00  0.00    -0.014 A  
HETATM   20  C   UNL     1      -5.853   6.939  71.287  1.00  0.00    -0.036 A  
HETATM   21  C   UNL     1      -6.828   6.573  72.218  1.00  0.00    -0.068 A  
HETATM   22  C   UNL     1      -7.636   5.422  72.049  1.00  0.00    -0.099 A  
ENDBRANCH   8   9
ENDBRANCH   6   8
TORSDOF 2
ENDMDL
MODEL      193
REMARK 921   NORMALIZED FREE ENERGY PREDICTED BY IDOCK:   -3.69 KCAL/MOL
REMARK 922        TOTAL FREE ENERGY PREDICTED BY IDOCK:   -4.52 KCAL/MOL
REMARK 923 INTER-LIGAND FREE ENERGY PREDICTED BY IDOCK:   -4.45 KCAL/MOL
REMARK 924 INTRA-LIGAND FREE ENERGY PREDICTED BY IDOCK:   -0.07 KCAL/MOL
REMARK 927      BINDING AFFINITY PREDICTED BY RF-SCORE:    0.00 PKD
ROOT
HETATM    1  C   UNL     1      -5.729   7.896  70.545  1.00  0.00    -0.029 C  
HETATM    2  N   UNL     1      -6.336   8.878  69.653  1.00  0.00    -0.042 NA 
HETATM    3  C   UNL     1      -5.499   9.197  68.493  1.00  0.00    -0.037 C  
HETATM    4  C   UNL     1      -5.458   8.082  67.448  1.00  0.00    -0.037 C  
HETATM    5  C   UNL     1      -6.862   7.672  67.014  1.00  0.00    -0.068 C  
HETATM    6  C   UNL     1      -7.769   7.348  68.222  1.00  0.00    -0.120 C  
HETATM    7  C   UNL     1      -7.693   8.495  69.250  1.00  0.00    -0.093 C  
ENDROOT
BRANCH   6   8
HETATM    8  C   UNL     1      -9.204   7.080  67.706  1.00  0.00    -0.124 C  
BRANCH   8   9
HETATM    9  C   UNL     1     -10.400   7.843  68.383  1.00  0.00    -0.235 C  
HETATM   10  C   UNL     1     -10.635   7.427  69.842  1.00  0.00    -0.245 A  
HETATM   11  C   UNL     1     -10.523   6.064  70.211  1.00  0.00    -0.305 A  
HETATM   12  C   UNL     1     -10.883   5.601  71.482  1.00  0.00    -0.297 A  
HETATM   13  C   UNL     1     -11.393   6.483  72.418  1.00  0.00    -0.314 A  
HETATM   14  C   UNL     1     -11.490   7.831  72.093  1.00  0.00    -0.361 A  
HETATM   15  C   UNL     1     -11.097   8.311  70.824  1.00  0.00    -0.258 A  
HETATM   16  S   UNL     1     -11.224  10.061  70.624  1.00  0.00    -0.364 SA 
HETATM   17  C   UNL     1     -10.674  10.346  68.973  1.00  0.00    -0.228 A  
HETATM   18  C   UNL     1     -10.537  11.700  68.610  1.00  0.00    -0.236 A  
HETATM   19  C   UNL     1     -10.191  12.072  67.316  1.00  0.00    -0.221 A  
HETATM   20  C   UNL     1     -10.027  11.091  66.353  1.00  0.00    -0.264 A  
HETATM   21  C   UNL     1     -10.161   9.745  66.705  1.00  0.00    -0.296 A  
HETATM   22  C   UNL     1     -10.416   9.338  68.037  1.00  0.00    -0.275 A  
ENDBRANCH   8   9
ENDBRANCH   6   8
TORSDOF 2
ENDMDL
MODEL      194
REMARK 921   NORMALIZED FREE ENERGY PREDICTED BY IDOCK:   -3.66 KCAL/MOL
REMARK 922        TOTAL FREE ENERGY PREDICTED BY IDOCK:   -4.48 KCAL/MOL
REMARK 923 INTER-LIGAND FREE ENERGY PREDICTED BY IDOCK:   -4.74 KCAL/MOL
REMARK 924 INTRA-LIGAND FREE ENERGY PREDICTED BY IDOCK:    0.26 KCAL/MOL
REMARK 927      BINDING AFFINITY PREDICTED BY RF-SCORE:    0.00 PKD
ROOT
HETATM    1  C   UNL     1      -9.564  15.603  67.875  1.00  0.00    -0.206 C  
HETATM    2  N   UNL     1     -10.841  15.018  67.480  1.00  0.00    -0.289 NA 
HETATM    3  C   UNL     1     -11.160  15.232  66.066  1.00  0.00    -0.278 C  
HETATM    4  C   UNL     1     -10.326  14.372  65.117  1.00  0.00    -0.447 C  
HETATM    5  C   UNL     1     -10.416  12.893  65.480  1.00  0.00    -0.305 C  
HETATM    6  C   UNL     1     -10.101  12.644  66.972  1.00  0.00    -0.228 C  
HETATM    7  C   UNL     1     -10.937  13.601  67.845  1.00  0.00    -0.259 C  
ENDROOT
BRANCH   6   8
HETATM    8  C   UNL     1     -10.350  11.148  67.287  1.00  0.00    -0.243 C  
BRANCH   8   9
HETATM    9  C   UNL     1      -9.110  10.220  67.550  1.00  0.00    -0.146 C  
HETATM   10  C   UNL     1      -8.062  10.857  68.474  1.00  0.00    -0.137 A  
HETATM   11  C   UNL     1      -7.748  12.231  68.339  1.00  0.00    -0.141 A  
HETATM   12  C   UNL     1      -6.693  12.830  69.036  1.00  0.00    -0.096 A  
HETATM   13  C   UNL     1      -5.896  12.065  69.871  1.00  0.00    -0.139 A  
HETATM   14  C   UNL     1      -6.196  10.719  70.042  1.00  0.00    -0.119 A  
HETATM   15  C   UNL     1      -7.281  10.116  69.370  1.00  0.00    -0.096 A  
HETATM   16  S   UNL     1      -7.548   8.417  69.772  1.00  0.00    -0.090 SA 
HETATM   17  C   UNL     1      -8.942   7.957  68.793  1.00  0.00    -0.141 A  
HETATM   18  C   UNL     1      -9.457   6.671  69.045  1.00  0.00    -0.131 A  
HETATM   19  C   UNL     1     -10.500   6.147  68.291  1.00  0.00    -0.284 A  
HETATM   20  C   UNL     1     -11.009   6.888  67.238  1.00  0.00    -0.406 A  
HETATM   21  C   UNL     1     -10.504   8.164  66.981  1.00  0.00    -0.396 A  
HETATM   22  C   UNL     1      -9.510   8.758  67.796  1.00  0.00    -0.164 A  
ENDBRANCH   8   9
ENDBRANCH   6   8
TORSDOF 2
ENDMDL
MODEL      195
REMARK 921   NORMALIZED FREE ENERGY PREDICTED BY IDOCK:   -3.66 KCAL/MOL
REMARK 922        TOTAL FREE ENERGY PREDICTED BY IDOCK:   -4.48 KCAL/MOL
REMARK 923 INTER-LIGAND FREE ENERGY PREDICTED BY IDOCK:   -4.09 KCAL/MOL
REMARK 924 INTRA-LIGAND FREE ENERGY PREDICTED BY IDOCK:   -0.40 KCAL/MOL
REMARK 927      BINDING AFFINITY PREDICTED BY RF-SCORE:    0.00 PKD
ROOT
HETATM    1  C   UNL     1      -7.132   3.728  69.730  1.00  0.00    -0.042 C  
HETATM    2  N   UNL     1      -6.921   4.467  68.490  1.00  0.00    -0.051 NA 
HETATM    3  C   UNL     1      -7.954   4.208  67.483  1.00  0.00    -0.091 C  
HETATM    4  C   UNL     1      -9.294   4.871  67.801  1.00  0.00    -0.154 C  
HETATM    5  C   UNL     1      -9.132   6.367  68.047  1.00  0.00    -0.113 C  
HETATM    6  C   UNL     1      -8.035   6.666  69.093  1.00  0.00    -0.112 C  
HETATM    7  C   UNL     1      -6.747   5.904  68.726  1.00  0.00    -0.064 C  
ENDROOT
BRANCH   6   8
HETATM    8  C   UNL     1      -7.838   8.200  69.179  1.00  0.00    -0.107 C  
BRANCH   8   9
HETATM    9  C   UNL     1      -8.622   8.997  70.283  1.00  0.00    -0.193 C  
HETATM   10  C   UNL     1      -9.781   9.832  69.720  1.00  0.00    -0.256 A  
HETATM   11  C   UNL     1      -9.617  10.529  68.499  1.00  0.00    -0.164 A  
HETATM   12  C   UNL     1     -10.572  11.431  68.018  1.00  0.00    -0.224 A  
HETATM   13  C   UNL     1     -11.713  11.688  68.759  1.00  0.00    -0.392 A  
HETATM   14  C   UNL     1     -11.913  10.999  69.949  1.00  0.00    -0.427 A  
HETATM   15  C   UNL     1     -10.970  10.061  70.424  1.00  0.00    -0.320 A  
HETATM   16  S   UNL     1     -11.434   9.235  71.914  1.00  0.00    -0.202 SA 
HETATM   17  C   UNL     1     -10.082   8.151  72.244  1.00  0.00    -0.269 A  
HETATM   18  C   UNL     1     -10.275   7.257  73.315  1.00  0.00    -0.365 A  
HETATM   19  C   UNL     1      -9.263   6.404  73.738  1.00  0.00    -0.147 A  
HETATM   20  C   UNL     1      -8.024   6.471  73.124  1.00  0.00    -0.103 A  
HETATM   21  C   UNL     1      -7.824   7.355  72.061  1.00  0.00    -0.093 A  
HETATM   22  C   UNL     1      -8.868   8.163  71.548  1.00  0.00    -0.195 A  
ENDBRANCH   8   9
ENDBRANCH   6   8
TORSDOF 2
ENDMDL
MODEL      196
REMARK 921   NORMALIZED FREE ENERGY PREDICTED BY IDOCK:   -3.65 KCAL/MOL
REMARK 922        TOTAL FREE ENERGY PREDICTED BY IDOCK:   -4.47 KCAL/MOL
REMARK 923 INTER-LIGAND FREE ENERGY PREDICTED BY IDOCK:   -3.88 KCAL/MOL
REMARK 924 INTRA-LIGAND FREE ENERGY PREDICTED BY IDOCK:   -0.59 KCAL/MOL
REMARK 927      BINDING AFFINITY PREDICTED BY RF-SCORE:    0.00 PKD
ROOT
HETATM    1  C   UNL     1     -13.286  10.290  70.738  1.00  0.00    -0.216 C  
HETATM    2  N   UNL     1     -13.247   9.528  71.981  1.00  0.00    -0.422 NA 
HETATM    3  C   UNL     1     -14.226   8.438  72.019  1.00  0.00    -0.444 C  
HETATM    4  C   UNL     1     -13.852   7.252  71.130  1.00  0.00    -0.229 C  
HETATM    5  C   UNL     1     -12.451   6.739  71.443  1.00  0.00    -0.379 C  
HETATM    6  C   UNL     1     -11.402   7.874  71.427  1.00  0.00    -0.285 C  
HETATM    7  C   UNL     1     -11.897   9.049  72.295  1.00  0.00    -0.236 C  
ENDROOT
BRANCH   6   8
HETATM    8  C   UNL     1     -10.042   7.298  71.891  1.00  0.00    -0.196 C  
BRANCH   8   9
HETATM    9  C   UNL     1      -9.306   6.269  70.959  1.00  0.00    -0.170 C  
HETATM   10  C   UNL     1      -8.183   6.902  70.125  1.00  0.00    -0.133 A  
HETATM   11  C   UNL     1      -8.369   8.184  69.552  1.00  0.00    -0.122 A  
HETATM   12  C   UNL     1      -7.454   8.742  68.653  1.00  0.00    -0.092 A  
HETATM   13  C   UNL     1      -6.333   8.024  68.274  1.00  0.00    -0.050 A  
HETATM   14  C   UNL     1      -6.111   6.774  68.840  1.00  0.00    -0.026 A  
HETATM   15  C   UNL     1      -7.012   6.218  69.774  1.00  0.00    -0.070 A  
HETATM   16  S   UNL     1      -6.522   4.656  70.436  1.00  0.00    -0.035 SA 
HETATM   17  C   UNL     1      -7.824   4.232  71.548  1.00  0.00    -0.081 A  
HETATM   18  C   UNL     1      -7.599   3.081  72.328  1.00  0.00    -0.053 A  
HETATM   19  C   UNL     1      -8.573   2.585  73.186  1.00  0.00    -0.071 A  
HETATM   20  C   UNL     1      -9.808   3.208  73.236  1.00  0.00    -0.169 A  
HETATM   21  C   UNL     1     -10.041   4.349  72.465  1.00  0.00    -0.237 A  
HETATM   22  C   UNL     1      -9.032   4.930  71.659  1.00  0.00    -0.161 A  
ENDBRANCH   8   9
ENDBRANCH   6   8
TORSDOF 2
ENDMDL
MODEL      197
REMARK 921   NORMALIZED FREE ENERGY PREDICTED BY IDOCK:   -3.65 KCAL/MOL
REMARK 922        TOTAL FREE ENERGY PREDICTED BY IDOCK:   -4.47 KCAL/MOL
REMARK 923 INTER-LIGAND FREE ENERGY PREDICTED BY IDOCK:   -4.39 KCAL/MOL
REMARK 924 INTRA-LIGAND FREE ENERGY PREDICTED BY IDOCK:   -0.08 KCAL/MOL
REMARK 927      BINDING AFFINITY PREDICTED BY RF-SCORE:    0.00 PKD
ROOT
HETATM    1  C   UNL     1      -6.137   8.277  70.762  1.00  0.00    -0.033 C  
HETATM    2  N   UNL     1      -6.717   7.153  71.490  1.00  0.00    -0.051 NA 
HETATM    3  C   UNL     1      -6.568   7.269  72.943  1.00  0.00    -0.063 C  
HETATM    4  C   UNL     1      -7.491   8.316  73.567  1.00  0.00    -0.175 C  
HETATM    5  C   UNL     1      -8.947   8.076  73.184  1.00  0.00    -0.333 C  
HETATM    6  C   UNL     1      -9.127   7.932  71.656  1.00  0.00    -0.175 C  
HETATM    7  C   UNL     1      -8.112   6.909  71.109  1.00  0.00    -0.110 C  
ENDROOT
BRANCH   6   8
HETATM    8  C   UNL     1     -10.600   7.553  71.365  1.00  0.00    -0.229 C  
BRANCH   8   9
HETATM    9  C   UNL     1     -10.913   6.103  70.847  1.00  0.00    -0.359 C  
HETATM   10  C   UNL     1     -10.517   5.885  69.379  1.00  0.00    -0.343 A  
HETATM   11  C   UNL     1     -10.747   6.910  68.430  1.00  0.00    -0.259 A  
HETATM   12  C   UNL     1     -10.560   6.715  67.057  1.00  0.00    -0.404 A  
HETATM   13  C   UNL     1     -10.162   5.475  66.585  1.00  0.00    -0.279 A  
HETATM   14  C   UNL     1      -9.904   4.458  67.496  1.00  0.00    -0.180 A  
HETATM   15  C   UNL     1     -10.057   4.658  68.885  1.00  0.00    -0.033 A  
HETATM   16  S   UNL     1      -9.612   3.273  69.886  1.00  0.00    -0.014 SA 
HETATM   17  C   UNL     1      -9.907   3.821  71.536  1.00  0.00    -0.165 A  
HETATM   18  C   UNL     1      -9.482   2.939  72.549  1.00  0.00    -0.168 A  
HETATM   19  C   UNL     1      -9.725   3.206  73.891  1.00  0.00    -0.135 A  
HETATM   20  C   UNL     1     -10.443   4.338  74.234  1.00  0.00    -0.307 A  
HETATM   21  C   UNL     1     -10.868   5.219  73.236  1.00  0.00    -0.349 A  
HETATM   22  C   UNL     1     -10.547   5.019  71.872  1.00  0.00    -0.224 A  
ENDBRANCH   8   9
ENDBRANCH   6   8
TORSDOF 2
ENDMDL
MODEL      198
REMARK 921   NORMALIZED FREE ENERGY PREDICTED BY IDOCK:   -3.61 KCAL/MOL
REMARK 922        TOTAL FREE ENERGY PREDICTED BY IDOCK:   -4.42 KCAL/MOL
REMARK 923 INTER-LIGAND FREE ENERGY PREDICTED BY IDOCK:   -4.80 KCAL/MOL
REMARK 924 INTRA-LIGAND FREE ENERGY PREDICTED BY IDOCK:    0.38 KCAL/MOL
REMARK 927      BINDING AFFINITY PREDICTED BY RF-SCORE:    0.00 PKD
ROOT
HETATM    1  C   UNL     1     -11.693  15.164  64.106  1.00  0.00    -0.110 C  
HETATM    2  N   UNL     1     -11.726  15.292  65.559  1.00  0.00    -0.071 NA 
HETATM    3  C   UNL     1     -12.209  14.083  66.233  1.00  0.00    -0.462 C  
HETATM    4  C   UNL     1     -11.196  12.937  66.227  1.00  0.00    -0.337 C  
HETATM    5  C   UNL     1      -9.850  13.379  66.793  1.00  0.00    -0.265 C  
HETATM    6  C   UNL     1      -9.329  14.663  66.110  1.00  0.00    -0.265 C  
HETATM    7  C   UNL     1     -10.438  15.734  66.105  1.00  0.00    -0.317 C  
ENDROOT
BRANCH   6   8
HETATM    8  C   UNL     1      -8.038  15.119  66.835  1.00  0.00    -0.194 C  
BRANCH   8   9
HETATM    9  C   UNL     1      -8.120  16.347  67.811  1.00  0.00    -0.167 C  
HETATM   10  C   UNL     1      -7.914  17.696  67.107  1.00  0.00    -0.229 A  
HETATM   11  C   UNL     1      -6.933  17.817  66.092  1.00  0.00    -0.338 A  
HETATM   12  C   UNL     1      -6.586  19.050  65.529  1.00  0.00    -0.309 A  
HETATM   13  C   UNL     1      -7.191  20.210  65.983  1.00  0.00    -0.312 A  
HETATM   14  C   UNL     1      -8.176  20.119  66.959  1.00  0.00    -0.374 A  
HETATM   15  C   UNL     1      -8.556  18.874  67.508  1.00  0.00    -0.275 A  
HETATM   16  S   UNL     1      -9.873  18.954  68.681  1.00  0.00    -0.414 SA 
HETATM   17  C   UNL     1     -10.112  17.277  69.174  1.00  0.00    -0.252 A  
HETATM   18  C   UNL     1     -11.224  17.048  70.007  1.00  0.00     0.549 A  
HETATM   19  C   UNL     1     -11.485  15.790  70.538  1.00  0.00    -0.401 A  
HETATM   20  C   UNL     1     -10.604  14.754  70.281  1.00  0.00     0.063 A  
HETATM   21  C   UNL     1      -9.498  14.973  69.456  1.00  0.00    -0.081 A  
HETATM   22  C   UNL     1      -9.266  16.219  68.825  1.00  0.00    -0.240 A  
ENDBRANCH   8   9
ENDBRANCH   6   8
TORSDOF 2
ENDMDL
MODEL      199
REMARK 921   NORMALIZED FREE ENERGY PREDICTED BY IDOCK:   -3.60 KCAL/MOL
REMARK 922        TOTAL FREE ENERGY PREDICTED BY IDOCK:   -4.42 KCAL/MOL
REMARK 923 INTER-LIGAND FREE ENERGY PREDICTED BY IDOCK:   -4.52 KCAL/MOL
REMARK 924 INTRA-LIGAND FREE ENERGY PREDICTED BY IDOCK:    0.10 KCAL/MOL
REMARK 927      BINDING AFFINITY PREDICTED BY RF-SCORE:    0.00 PKD
ROOT
HETATM    1  C   UNL     1      -9.600  14.715  69.573  1.00  0.00     0.156 C  
HETATM    2  N   UNL     1      -9.489  14.239  68.198  1.00  0.00    -0.198 NA 
HETATM    3  C   UNL     1      -8.149  13.749  67.864  1.00  0.00    -0.166 C  
HETATM    4  C   UNL     1      -7.821  12.397  68.496  1.00  0.00    -0.112 C  
HETATM    5  C   UNL     1      -8.883  11.353  68.164  1.00  0.00    -0.162 C  
HETATM    6  C   UNL     1     -10.307  11.854  68.491  1.00  0.00    -0.228 C  
HETATM    7  C   UNL     1     -10.521  13.249  67.871  1.00  0.00    -0.240 C  
ENDROOT
BRANCH   6   8
HETATM    8  C   UNL     1     -11.328  10.799  67.997  1.00  0.00    -0.378 C  
BRANCH   8   9
HETATM    9  C   UNL     1     -10.843   9.706  66.977  1.00  0.00    -0.148 C  
HETATM   10  C   UNL     1     -10.339  10.295  65.652  1.00  0.00    -0.232 A  
HETATM   11  C   UNL     1     -11.022  11.386  65.063  1.00  0.00    -0.271 A  
HETATM   12  C   UNL     1     -10.712  11.860  63.783  1.00  0.00    -0.476 A  
HETATM   13  C   UNL     1      -9.725  11.239  63.038  1.00  0.00    -0.389 A  
HETATM   14  C   UNL     1      -9.020  10.182  63.601  1.00  0.00    -0.269 A  
HETATM   15  C   UNL     1      -9.303   9.720  64.905  1.00  0.00    -0.265 A  
HETATM   16  S   UNL     1      -8.254   8.419  65.474  1.00  0.00    -0.147 SA 
HETATM   17  C   UNL     1      -8.845   8.067  67.098  1.00  0.00    -0.131 A  
HETATM   18  C   UNL     1      -8.069   7.153  67.837  1.00  0.00    -0.119 A  
HETATM   19  C   UNL     1      -8.462   6.723  69.098  1.00  0.00    -0.128 A  
HETATM   20  C   UNL     1      -9.667   7.164  69.617  1.00  0.00    -0.158 A  
HETATM   21  C   UNL     1     -10.443   8.071  68.891  1.00  0.00    -0.207 A  
HETATM   22  C   UNL     1     -10.017   8.600  67.648  1.00  0.00    -0.248 A  
ENDBRANCH   8   9
ENDBRANCH   6   8
TORSDOF 2
ENDMDL
MODEL      200
REMARK 921   NORMALIZED FREE ENERGY PREDICTED BY IDOCK:   -3.60 KCAL/MOL
REMARK 922        TOTAL FREE ENERGY PREDICTED BY IDOCK:   -4.41 KCAL/MOL
REMARK 923 INTER-LIGAND FREE ENERGY PREDICTED BY IDOCK:   -4.82 KCAL/MOL
REMARK 924 INTRA-LIGAND FREE ENERGY PREDICTED BY IDOCK:    0.40 KCAL/MOL
REMARK 927      BINDING AFFINITY PREDICTED BY RF-SCORE:    0.00 PKD
ROOT
HETATM    1  C   UNL     1      -9.311  15.019  68.132  1.00  0.00    -0.187 C  
HETATM    2  N   UNL     1     -10.757  14.863  68.257  1.00  0.00    -0.244 NA 
HETATM    3  C   UNL     1     -11.463  15.005  66.981  1.00  0.00    -0.284 C  
HETATM    4  C   UNL     1     -11.284  13.806  66.050  1.00  0.00    -0.307 C  
HETATM    5  C   UNL     1     -11.662  12.500  66.742  1.00  0.00    -0.453 C  
HETATM    6  C   UNL     1     -10.942  12.336  68.099  1.00  0.00    -0.269 C  
HETATM    7  C   UNL     1     -11.121  13.616  68.939  1.00  0.00    -0.256 C  
ENDROOT
BRANCH   6   8
HETATM    8  C   UNL     1     -11.484  11.063  68.796  1.00  0.00    -0.372 C  
BRANCH   8   9
HETATM    9  C   UNL     1     -10.471   9.920  69.163  1.00  0.00    -0.235 C  
HETATM   10  C   UNL     1      -9.002  10.351  69.046  1.00  0.00    -0.184 A  
HETATM   11  C   UNL     1      -8.594  11.172  67.967  1.00  0.00    -0.140 A  
HETATM   12  C   UNL     1      -7.249  11.464  67.714  1.00  0.00    -0.089 A  
HETATM   13  C   UNL     1      -6.263  10.920  68.519  1.00  0.00    -0.046 A  
HETATM   14  C   UNL     1      -6.635  10.131  69.601  1.00  0.00    -0.069 A  
HETATM   15  C   UNL     1      -7.992   9.861  69.883  1.00  0.00    -0.182 A  
HETATM   16  S   UNL     1      -8.268   8.902  71.339  1.00  0.00    -0.058 SA 
HETATM   17  C   UNL     1     -10.022   8.736  71.419  1.00  0.00    -0.283 A  
HETATM   18  C   UNL     1     -10.517   8.129  72.590  1.00  0.00    -0.401 A  
HETATM   19  C   UNL     1     -11.871   7.861  72.750  1.00  0.00    -0.287 A  
HETATM   20  C   UNL     1     -12.744   8.151  71.715  1.00  0.00    -0.356 A  
HETATM   21  C   UNL     1     -12.261   8.753  70.550  1.00  0.00     0.171 A  
HETATM   22  C   UNL     1     -10.903   9.125  70.404  1.00  0.00    -0.285 A  
ENDBRANCH   8   9
ENDBRANCH   6   8
TORSDOF 2
ENDMDL
MODEL      201
REMARK 921   NORMALIZED FREE ENERGY PREDICTED BY IDOCK:   -3.56 KCAL/MOL
REMARK 922        TOTAL FREE ENERGY PREDICTED BY IDOCK:   -4.37 KCAL/MOL
REMARK 923 INTER-LIGAND FREE ENERGY PREDICTED BY IDOCK:   -4.62 KCAL/MOL
REMARK 924 INTRA-LIGAND FREE ENERGY PREDICTED BY IDOCK:    0.25 KCAL/MOL
REMARK 927      BINDING AFFINITY PREDICTED BY RF-SCORE:    0.00 PKD
ROOT
HETATM    1  C   UNL     1     -12.293  14.200  73.157  1.00  0.00     0.156 C  
HETATM    2  N   UNL     1     -13.361  14.199  72.164  1.00  0.00    -0.396 NA 
HETATM    3  C   UNL     1     -13.566  15.507  71.536  1.00  0.00    -0.480 C  
HETATM    4  C   UNL     1     -12.467  15.885  70.543  1.00  0.00    -0.241 C  
HETATM    5  C   UNL     1     -12.268  14.798  69.491  1.00  0.00    -0.280 C  
HETATM    6  C   UNL     1     -12.068  13.405  70.128  1.00  0.00    -0.415 C  
HETATM    7  C   UNL     1     -13.182  13.143  71.161  1.00  0.00    -0.032 C  
ENDROOT
BRANCH   6   8
HETATM    8  C   UNL     1     -12.016  12.347  68.998  1.00  0.00    -0.291 C  
BRANCH   8   9
HETATM    9  C   UNL     1     -10.622  11.990  68.369  1.00  0.00    -0.236 C  
HETATM   10  C   UNL     1      -9.817  13.224  67.937  1.00  0.00    -0.234 A  
HETATM   11  C   UNL     1     -10.478  14.314  67.320  1.00  0.00    -0.269 A  
HETATM   12  C   UNL     1      -9.783  15.391  66.760  1.00  0.00    -0.254 A  
HETATM   13  C   UNL     1      -8.399  15.402  66.775  1.00  0.00    -0.285 A  
HETATM   14  C   UNL     1      -7.724  14.358  67.398  1.00  0.00    -0.207 A  
HETATM   15  C   UNL     1      -8.419  13.285  67.995  1.00  0.00    -0.170 A  
HETATM   16  S   UNL     1      -7.393  12.094  68.799  1.00  0.00    -0.056 SA 
HETATM   17  C   UNL     1      -8.529  10.904  69.433  1.00  0.00     0.091 A  
HETATM   18  C   UNL     1      -7.964   9.912  70.259  1.00  0.00    -0.135 A  
HETATM   19  C   UNL     1      -8.728   8.865  70.760  1.00  0.00    -0.245 A  
HETATM   20  C   UNL     1     -10.061   8.768  70.397  1.00  0.00    -0.223 A  
HETATM   21  C   UNL     1     -10.629   9.747  69.579  1.00  0.00    -0.253 A  
HETATM   22  C   UNL     1      -9.897  10.876  69.137  1.00  0.00    -0.164 A  
ENDBRANCH   8   9
ENDBRANCH   6   8
TORSDOF 2
ENDMDL
MODEL      202
REMARK 921   NORMALIZED FREE ENERGY PREDICTED BY IDOCK:   -3.54 KCAL/MOL
REMARK 922        TOTAL FREE ENERGY PREDICTED BY IDOCK:   -4.35 KCAL/MOL
REMARK 923 INTER-LIGAND FREE ENERGY PREDICTED BY IDOCK:   -4.01 KCAL/MOL
REMARK 924 INTRA-LIGAND FREE ENERGY PREDICTED BY IDOCK:   -0.34 KCAL/MOL
REMARK 927      BINDING AFFINITY PREDICTED BY RF-SCORE:    0.00 PKD
ROOT
HETATM    1  C   UNL     1     -14.410  15.017  71.348  1.00  0.00    -0.497 C  
HETATM    2  N   UNL     1     -13.026  14.762  71.733  1.00  0.00    -0.315 NA 
HETATM    3  C   UNL     1     -12.887  13.660  72.688  1.00  0.00    -0.153 C  
HETATM    4  C   UNL     1     -13.102  12.282  72.063  1.00  0.00    -0.461 C  
HETATM    5  C   UNL     1     -12.200  12.072  70.851  1.00  0.00    -0.325 C  
HETATM    6  C   UNL     1     -12.316  13.231  69.837  1.00  0.00    -0.228 C  
HETATM    7  C   UNL     1     -12.153  14.578  70.568  1.00  0.00    -0.325 C  
ENDROOT
BRANCH   6   8
HETATM    8  C   UNL     1     -11.271  13.012  68.714  1.00  0.00    -0.325 C  
BRANCH   8   9
HETATM    9  C   UNL     1     -10.961  14.201  67.735  1.00  0.00    -0.274 C  
HETATM   10  C   UNL     1      -9.597  14.858  67.993  1.00  0.00    -0.207 A  
HETATM   11  C   UNL     1      -9.155  15.061  69.323  1.00  0.00    -0.157 A  
HETATM   12  C   UNL     1      -8.004  15.796  69.624  1.00  0.00    -0.027 A  
HETATM   13  C   UNL     1      -7.270  16.378  68.604  1.00  0.00    -0.178 A  
HETATM   14  C   UNL     1      -7.666  16.173  67.288  1.00  0.00    -0.212 A  
HETATM   15  C   UNL     1      -8.807  15.403  66.974  1.00  0.00    -0.228 A  
HETATM   16  S   UNL     1      -9.107  15.196  65.246  1.00  0.00     1.540 SA 
HETATM   17  C   UNL     1     -10.569  14.211  65.178  1.00  0.00    -0.398 A  
HETATM   18  C   UNL     1     -10.941  13.773  63.892  1.00  0.00     0.201 A  
HETATM   19  C   UNL     1     -12.114  13.059  63.681  1.00  0.00    -0.604 A  
HETATM   20  C   UNL     1     -12.959  12.818  64.751  1.00  0.00    -0.228 A  
HETATM   21  C   UNL     1     -12.598  13.249  66.030  1.00  0.00    -0.279 A  
HETATM   22  C   UNL     1     -11.362  13.891  66.286  1.00  0.00    -0.329 A  
ENDBRANCH   8   9
ENDBRANCH   6   8
TORSDOF 2
ENDMDL
MODEL      203
REMARK 921   NORMALIZED FREE ENERGY PREDICTED BY IDOCK:   -3.53 KCAL/MOL
REMARK 922        TOTAL FREE ENERGY PREDICTED BY IDOCK:   -4.34 KCAL/MOL
REMARK 923 INTER-LIGAND FREE ENERGY PREDICTED BY IDOCK:   -5.78 KCAL/MOL
REMARK 924 INTRA-LIGAND FREE ENERGY PREDICTED BY IDOCK:    1.44 KCAL/MOL
REMARK 927      BINDING AFFINITY PREDICTED BY RF-SCORE:    0.00 PKD
ROOT
HETATM    1  C   UNL     1     -12.135  14.516  73.609  1.00  0.00     0.045 C  
HETATM    2  N   UNL     1     -13.195  13.794  72.915  1.00  0.00    -0.515 NA 
HETATM    3  C   UNL     1     -14.203  14.678  72.324  1.00  0.00    -0.463 C  
HETATM    4  C   UNL     1     -13.711  15.414  71.077  1.00  0.00    -0.420 C  
HETATM    5  C   UNL     1     -13.158  14.443  70.039  1.00  0.00     0.260 C  
HETATM    6  C   UNL     1     -12.106  13.487  70.643  1.00  0.00    -0.386 C  
HETATM    7  C   UNL     1     -12.665  12.846  71.929  1.00  0.00    -0.096 C  
ENDROOT
BRANCH   6   8
HETATM    8  C   UNL     1     -11.702  12.450  69.565  1.00  0.00    -0.388 C  
BRANCH   8   9
HETATM    9  C   UNL     1     -10.545  12.817  68.568  1.00  0.00    -0.270 C  
HETATM   10  C   UNL     1     -10.481  11.889  67.346  1.00  0.00    -0.242 A  
HETATM   11  C   UNL     1     -10.700  10.499  67.506  1.00  0.00    -0.326 A  
HETATM   12  C   UNL     1     -10.497   9.585  66.467  1.00  0.00    -0.201 A  
HETATM   13  C   UNL     1     -10.040  10.028  65.238  1.00  0.00    -0.299 A  
HETATM   14  C   UNL     1      -9.842  11.390  65.044  1.00  0.00    -0.304 A  
HETATM   15  C   UNL     1     -10.078  12.323  66.077  1.00  0.00    -0.248 A  
HETATM   16  S   UNL     1      -9.840  14.011  65.619  1.00  0.00    -0.172 SA 
HETATM   17  C   UNL     1     -10.203  14.913  67.091  1.00  0.00    -0.245 A  
HETATM   18  C   UNL     1     -10.232  16.313  66.948  1.00  0.00    -0.288 A  
HETATM   19  C   UNL     1     -10.424  17.150  68.041  1.00  0.00    -0.369 A  
HETATM   20  C   UNL     1     -10.539  16.594  69.304  1.00  0.00    -0.343 A  
HETATM   21  C   UNL     1     -10.512  15.205  69.455  1.00  0.00    -0.259 A  
HETATM   22  C   UNL     1     -10.416  14.330  68.346  1.00  0.00    -0.249 A  
ENDBRANCH   8   9
ENDBRANCH   6   8
TORSDOF 2
ENDMDL
MODEL      204
REMARK 921   NORMALIZED FREE ENERGY PREDICTED BY IDOCK:   -3.53 KCAL/MOL
REMARK 922        TOTAL FREE ENERGY PREDICTED BY IDOCK:   -4.34 KCAL/MOL
REMARK 923 INTER-LIGAND FREE ENERGY PREDICTED BY IDOCK:   -3.78 KCAL/MOL
REMARK 924 INTRA-LIGAND FREE ENERGY PREDICTED BY IDOCK:   -0.55 KCAL/MOL
REMARK 927      BINDING AFFINITY PREDICTED BY RF-SCORE:    0.00 PKD
ROOT
HETATM    1  C   UNL     1      -9.532   3.530  73.026  1.00  0.00    -0.107 C  
HETATM    2  N   UNL     1     -10.226   4.750  73.422  1.00  0.00    -0.160 NA 
HETATM    3  C   UNL     1      -9.320   5.798  73.900  1.00  0.00    -0.135 C  
HETATM    4  C   UNL     1      -8.516   6.464  72.784  1.00  0.00    -0.121 C  
HETATM    5  C   UNL     1      -9.425   6.990  71.678  1.00  0.00    -0.160 C  
HETATM    6  C   UNL     1     -10.403   5.907  71.169  1.00  0.00    -0.276 C  
HETATM    7  C   UNL     1     -11.115   5.248  72.367  1.00  0.00    -0.197 C  
ENDROOT
BRANCH   6   8
HETATM    8  C   UNL     1     -11.377   6.557  70.156  1.00  0.00    -0.463 C  
BRANCH   8   9
HETATM    9  C   UNL     1     -10.811   7.036  68.770  1.00  0.00    -0.198 C  
HETATM   10  C   UNL     1     -10.362   8.504  68.774  1.00  0.00    -0.233 A  
HETATM   11  C   UNL     1     -11.134   9.474  69.459  1.00  0.00    -0.168 A  
HETATM   12  C   UNL     1     -10.870  10.844  69.364  1.00  0.00    -0.286 A  
HETATM   13  C   UNL     1      -9.839  11.294  68.557  1.00  0.00    -0.198 A  
HETATM   14  C   UNL     1      -9.048  10.363  67.893  1.00  0.00    -0.132 A  
HETATM   15  C   UNL     1      -9.287   8.976  68.011  1.00  0.00    -0.141 A  
HETATM   16  S   UNL     1      -8.133   7.951  67.154  1.00  0.00    -0.118 SA 
HETATM   17  C   UNL     1      -8.686   6.310  67.486  1.00  0.00    -0.105 A  
HETATM   18  C   UNL     1      -7.835   5.284  67.031  1.00  0.00    -0.100 A  
HETATM   19  C   UNL     1      -8.186   3.944  67.151  1.00  0.00    -0.099 A  
HETATM   20  C   UNL     1      -9.420   3.616  67.685  1.00  0.00    -0.234 A  
HETATM   21  C   UNL     1     -10.270   4.627  68.139  1.00  0.00    -0.003 A  
HETATM   22  C   UNL     1      -9.894   5.992  68.117  1.00  0.00    -0.148 A  
ENDBRANCH   8   9
ENDBRANCH   6   8
TORSDOF 2
ENDMDL
MODEL      205
REMARK 921   NORMALIZED FREE ENERGY PREDICTED BY IDOCK:   -3.52 KCAL/MOL
REMARK 922        TOTAL FREE ENERGY PREDICTED BY IDOCK:   -4.33 KCAL/MOL
REMARK 923 INTER-LIGAND FREE ENERGY PREDICTED BY IDOCK:   -4.51 KCAL/MOL
REMARK 924 INTRA-LIGAND FREE ENERGY PREDICTED BY IDOCK:    0.18 KCAL/MOL
REMARK 927      BINDING AFFINITY PREDICTED BY RF-SCORE:    0.00 PKD
ROOT
HETATM    1  C   UNL     1     -10.412  10.601  64.767  1.00  0.00    -0.210 C  
HETATM    2  N   UNL     1      -9.279  10.308  65.638  1.00  0.00    -0.172 NA 
HETATM    3  C   UNL     1      -9.171  11.230  66.772  1.00  0.00    -0.175 C  
HETATM    4  C   UNL     1     -10.227  10.994  67.851  1.00  0.00    -0.207 C  
HETATM    5  C   UNL     1     -10.228   9.543  68.323  1.00  0.00    -0.225 C  
HETATM    6  C   UNL     1     -10.324   8.551  67.143  1.00  0.00    -0.377 C  
HETATM    7  C   UNL     1      -9.267   8.909  66.079  1.00  0.00    -0.228 C  
ENDROOT
BRANCH   6   8
HETATM    8  C   UNL     1     -10.177   7.111  67.695  1.00  0.00    -0.253 C  
BRANCH   8   9
HETATM    9  C   UNL     1      -9.467   6.908  69.082  1.00  0.00    -0.142 C  
HETATM   10  C   UNL     1      -8.028   7.444  69.111  1.00  0.00    -0.118 A  
HETATM   11  C   UNL     1      -7.186   7.259  67.987  1.00  0.00    -0.091 A  
HETATM   12  C   UNL     1      -5.824   7.578  68.012  1.00  0.00    -0.032 A  
HETATM   13  C   UNL     1      -5.252   8.069  69.174  1.00  0.00    -0.026 A  
HETATM   14  C   UNL     1      -6.060   8.285  70.284  1.00  0.00    -0.031 A  
HETATM   15  C   UNL     1      -7.442   7.998  70.255  1.00  0.00    -0.072 A  
HETATM   16  S   UNL     1      -8.313   8.408  71.735  1.00  0.00    -0.166 SA 
HETATM   17  C   UNL     1      -9.980   7.942  71.397  1.00  0.00    -0.172 A  
HETATM   18  C   UNL     1     -10.920   8.308  72.380  1.00  0.00    -0.438 A  
HETATM   19  C   UNL     1     -12.254   7.933  72.283  1.00  0.00    -0.333 A  
HETATM   20  C   UNL     1     -12.656   7.140  71.222  1.00  0.00    -0.421 A  
HETATM   21  C   UNL     1     -11.731   6.772  70.242  1.00  0.00    -0.397 A  
HETATM   22  C   UNL     1     -10.389   7.223  70.267  1.00  0.00    -0.219 A  
ENDBRANCH   8   9
ENDBRANCH   6   8
TORSDOF 2
ENDMDL
MODEL      206
REMARK 921   NORMALIZED FREE ENERGY PREDICTED BY IDOCK:   -3.52 KCAL/MOL
REMARK 922        TOTAL FREE ENERGY PREDICTED BY IDOCK:   -4.32 KCAL/MOL
REMARK 923 INTER-LIGAND FREE ENERGY PREDICTED BY IDOCK:   -3.70 KCAL/MOL
REMARK 924 INTRA-LIGAND FREE ENERGY PREDICTED BY IDOCK:   -0.62 KCAL/MOL
REMARK 927      BINDING AFFINITY PREDICTED BY RF-SCORE:    0.00 PKD
ROOT
HETATM    1  C   UNL     1      -6.008   7.744  71.460  1.00  0.00    -0.035 C  
HETATM    2  N   UNL     1      -6.673   6.780  72.330  1.00  0.00    -0.058 NA 
HETATM    3  C   UNL     1      -6.950   7.307  73.669  1.00  0.00    -0.075 C  
HETATM    4  C   UNL     1      -8.095   8.320  73.699  1.00  0.00    -0.248 C  
HETATM    5  C   UNL     1      -9.359   7.751  73.063  1.00  0.00    -0.298 C  
HETATM    6  C   UNL     1      -9.089   7.172  71.657  1.00  0.00    -0.141 C  
HETATM    7  C   UNL     1      -7.879   6.218  71.713  1.00  0.00    -0.101 C  
ENDROOT
BRANCH   6   8
HETATM    8  C   UNL     1     -10.383   6.493  71.144  1.00  0.00    -0.237 C  
BRANCH   8   9
HETATM    9  C   UNL     1     -10.657   6.472  69.597  1.00  0.00    -0.291 C  
HETATM   10  C   UNL     1     -10.660   7.870  68.962  1.00  0.00    -0.177 A  
HETATM   11  C   UNL     1     -11.261   8.952  69.650  1.00  0.00     0.035 A  
HETATM   12  C   UNL     1     -11.440  10.208  69.059  1.00  0.00    -0.138 A  
HETATM   13  C   UNL     1     -11.048  10.415  67.747  1.00  0.00    -0.365 A  
HETATM   14  C   UNL     1     -10.432   9.378  67.057  1.00  0.00    -0.302 A  
HETATM   15  C   UNL     1     -10.216   8.118  67.658  1.00  0.00    -0.234 A  
HETATM   16  S   UNL     1      -9.355   6.954  66.649  1.00  0.00    -0.159 SA 
HETATM   17  C   UNL     1      -9.242   5.511  67.656  1.00  0.00    -0.110 A  
HETATM   18  C   UNL     1      -8.455   4.468  67.129  1.00  0.00    -0.104 A  
HETATM   19  C   UNL     1      -8.347   3.244  67.778  1.00  0.00    -0.095 A  
HETATM   20  C   UNL     1      -9.068   3.029  68.940  1.00  0.00    -0.210 A  
HETATM   21  C   UNL     1      -9.851   4.058  69.469  1.00  0.00    -0.134 A  
HETATM   22  C   UNL     1      -9.900   5.345  68.881  1.00  0.00    -0.226 A  
ENDBRANCH   8   9
ENDBRANCH   6   8
TORSDOF 2
ENDMDL
MODEL      207
REMARK 921   NORMALIZED FREE ENERGY PREDICTED BY IDOCK:   -3.49 KCAL/MOL
REMARK 922        TOTAL FREE ENERGY PREDICTED BY IDOCK:   -4.29 KCAL/MOL
REMARK 923 INTER-LIGAND FREE ENERGY PREDICTED BY IDOCK:   -3.59 KCAL/MOL
REMARK 924 INTRA-LIGAND FREE ENERGY PREDICTED BY IDOCK:   -0.70 KCAL/MOL
REMARK 927      BINDING AFFINITY PREDICTED BY RF-SCORE:    0.00 PKD
ROOT
HETATM    1  C   UNL     1     -10.126  13.671  65.264  1.00  0.00    -0.275 C  
HETATM    2  N   UNL     1      -9.571  14.033  66.564  1.00  0.00    -0.286 NA 
HETATM    3  C   UNL     1     -10.589  14.166  67.609  1.00  0.00    -0.253 C  
HETATM    4  C   UNL     1     -11.156  12.826  68.080  1.00  0.00    -0.288 C  
HETATM    5  C   UNL     1     -10.047  11.873  68.514  1.00  0.00    -0.211 C  
HETATM    6  C   UNL     1      -8.951  11.731  67.435  1.00  0.00    -0.173 C  
HETATM    7  C   UNL     1      -8.492  13.129  66.976  1.00  0.00    -0.132 C  
ENDROOT
BRANCH   6   8
HETATM    8  C   UNL     1      -7.802  10.864  68.008  1.00  0.00    -0.107 C  
BRANCH   8   9
HETATM    9  C   UNL     1      -7.579   9.427  67.415  1.00  0.00    -0.095 C  
HETATM   10  C   UNL     1      -8.756   8.475  67.673  1.00  0.00    -0.136 A  
HETATM   11  C   UNL     1      -9.416   8.498  68.926  1.00  0.00    -0.147 A  
HETATM   12  C   UNL     1     -10.383   7.550  69.280  1.00  0.00    -0.209 A  
HETATM   13  C   UNL     1     -10.703   6.530  68.401  1.00  0.00    -0.339 A  
HETATM   14  C   UNL     1     -10.090   6.498  67.154  1.00  0.00    -0.223 A  
HETATM   15  C   UNL     1      -9.139   7.471  66.776  1.00  0.00    -0.148 A  
HETATM   16  S   UNL     1      -8.526   7.306  65.128  1.00  0.00     0.053 SA 
HETATM   17  C   UNL     1      -7.381   8.637  64.959  1.00  0.00    -0.086 A  
HETATM   18  C   UNL     1      -6.857   8.820  63.665  1.00  0.00    -0.088 A  
HETATM   19  C   UNL     1      -5.884   9.777  63.406  1.00  0.00    -0.106 A  
HETATM   20  C   UNL     1      -5.385  10.532  64.453  1.00  0.00    -0.145 A  
HETATM   21  C   UNL     1      -5.899  10.358  65.740  1.00  0.00    -0.108 A  
HETATM   22  C   UNL     1      -6.959   9.459  66.011  1.00  0.00    -0.090 A  
ENDBRANCH   8   9
ENDBRANCH   6   8
TORSDOF 2
ENDMDL
MODEL      208
REMARK 921   NORMALIZED FREE ENERGY PREDICTED BY IDOCK:   -3.44 KCAL/MOL
REMARK 922        TOTAL FREE ENERGY PREDICTED BY IDOCK:   -4.23 KCAL/MOL
REMARK 923 INTER-LIGAND FREE ENERGY PREDICTED BY IDOCK:   -4.28 KCAL/MOL
REMARK 924 INTRA-LIGAND FREE ENERGY PREDICTED BY IDOCK:    0.05 KCAL/MOL
REMARK 927      BINDING AFFINITY PREDICTED BY RF-SCORE:    0.00 PKD
ROOT
HETATM    1  C   UNL     1      -6.861   8.856  65.848  1.00  0.00    -0.072 C  
HETATM    2  N   UNL     1      -7.359   8.843  67.219  1.00  0.00    -0.080 NA 
HETATM    3  C   UNL     1      -7.784  10.164  67.690  1.00  0.00    -0.091 C  
HETATM    4  C   UNL     1      -9.105  10.632  67.079  1.00  0.00    -0.155 C  
HETATM    5  C   UNL     1     -10.209   9.598  67.277  1.00  0.00    -0.292 C  
HETATM    6  C   UNL     1      -9.777   8.193  66.804  1.00  0.00    -0.303 C  
HETATM    7  C   UNL     1      -8.408   7.837  67.417  1.00  0.00    -0.123 C  
ENDROOT
BRANCH   6   8
HETATM    8  C   UNL     1     -10.894   7.183  67.169  1.00  0.00    -0.403 C  
BRANCH   8   9
HETATM    9  C   UNL     1     -10.674   6.234  68.401  1.00  0.00    -0.356 C  
HETATM   10  C   UNL     1      -9.776   5.029  68.086  1.00  0.00    -0.199 A  
HETATM   11  C   UNL     1      -9.909   4.359  66.845  1.00  0.00    -0.235 A  
HETATM   12  C   UNL     1      -9.238   3.164  66.565  1.00  0.00    -0.155 A  
HETATM   13  C   UNL     1      -8.433   2.582  67.528  1.00  0.00    -0.108 A  
HETATM   14  C   UNL     1      -8.263   3.231  68.746  1.00  0.00    -0.076 A  
HETATM   15  C   UNL     1      -8.909   4.456  69.024  1.00  0.00    -0.094 A  
HETATM   16  S   UNL     1      -8.513   5.161  70.593  1.00  0.00    -0.117 SA 
HETATM   17  C   UNL     1      -9.455   6.652  70.645  1.00  0.00    -0.169 A  
HETATM   18  C   UNL     1      -9.199   7.489  71.748  1.00  0.00    -0.162 A  
HETATM   19  C   UNL     1      -9.926   8.654  71.959  1.00  0.00    -0.399 A  
HETATM   20  C   UNL     1     -10.958   8.970  71.092  1.00  0.00    -0.371 A  
HETATM   21  C   UNL     1     -11.220   8.146  69.995  1.00  0.00    -0.084 A  
HETATM   22  C   UNL     1     -10.429   7.008  69.704  1.00  0.00    -0.238 A  
ENDBRANCH   8   9
ENDBRANCH   6   8
TORSDOF 2
ENDMDL
MODEL      209
REMARK 921   NORMALIZED FREE ENERGY PREDICTED BY IDOCK:   -3.44 KCAL/MOL
REMARK 922        TOTAL FREE ENERGY PREDICTED BY IDOCK:   -4.23 KCAL/MOL
REMARK 923 INTER-LIGAND FREE ENERGY PREDICTED BY IDOCK:   -3.55 KCAL/MOL
REMARK 924 INTRA-LIGAND FREE ENERGY PREDICTED BY IDOCK:   -0.69 KCAL/MOL
REMARK 927      BINDING AFFINITY PREDICTED BY RF-SCORE:    0.00 PKD
ROOT
HETATM    1  C   UNL     1      -9.921   7.837  73.282  1.00  0.00    -0.307 C  
HETATM    2  N   UNL     1      -9.998   6.696  72.376  1.00  0.00    -0.166 NA 
HETATM    3  C   UNL     1     -11.279   5.987  72.450  1.00  0.00    -0.292 C  
HETATM    4  C   UNL     1     -12.433   6.747  71.797  1.00  0.00    -0.394 C  
HETATM    5  C   UNL     1     -12.104   7.134  70.359  1.00  0.00    -0.139 C  
HETATM    6  C   UNL     1     -10.749   7.868  70.253  1.00  0.00    -0.236 C  
HETATM    7  C   UNL     1      -9.664   7.062  70.995  1.00  0.00    -0.173 C  
ENDROOT
BRANCH   6   8
HETATM    8  C   UNL     1     -10.426   8.097  68.755  1.00  0.00    -0.198 C  
BRANCH   8   9
HETATM    9  C   UNL     1      -8.938   7.937  68.276  1.00  0.00    -0.132 C  
HETATM   10  C   UNL     1      -8.741   6.777  67.290  1.00  0.00    -0.119 A  
HETATM   11  C   UNL     1      -9.426   5.555  67.496  1.00  0.00    -0.123 A  
HETATM   12  C   UNL     1      -9.166   4.412  66.732  1.00  0.00    -0.147 A  
HETATM   13  C   UNL     1      -8.190   4.446  65.751  1.00  0.00    -0.109 A  
HETATM   14  C   UNL     1      -7.520   5.640  65.508  1.00  0.00    -0.074 A  
HETATM   15  C   UNL     1      -7.801   6.806  66.252  1.00  0.00    -0.104 A  
HETATM   16  S   UNL     1      -6.901   8.240  65.750  1.00  0.00    -0.064 SA 
HETATM   17  C   UNL     1      -7.459   9.505  66.845  1.00  0.00    -0.094 A  
HETATM   18  C   UNL     1      -6.995  10.802  66.553  1.00  0.00    -0.130 A  
HETATM   19  C   UNL     1      -7.289  11.880  67.379  1.00  0.00    -0.145 A  
HETATM   20  C   UNL     1      -8.011  11.662  68.540  1.00  0.00    -0.144 A  
HETATM   21  C   UNL     1      -8.474  10.379  68.838  1.00  0.00    -0.144 A  
HETATM   22  C   UNL     1      -8.272   9.284  67.963  1.00  0.00    -0.115 A  
ENDBRANCH   8   9
ENDBRANCH   6   8
TORSDOF 2
ENDMDL
MODEL      210
REMARK 921   NORMALIZED FREE ENERGY PREDICTED BY IDOCK:   -3.44 KCAL/MOL
REMARK 922        TOTAL FREE ENERGY PREDICTED BY IDOCK:   -4.23 KCAL/MOL
REMARK 923 INTER-LIGAND FREE ENERGY PREDICTED BY IDOCK:   -3.54 KCAL/MOL
REMARK 924 INTRA-LIGAND FREE ENERGY PREDICTED BY IDOCK:   -0.69 KCAL/MOL
REMARK 927      BINDING AFFINITY PREDICTED BY RF-SCORE:    0.00 PKD
ROOT
HETATM    1  C   UNL     1      -9.004   7.962  73.281  1.00  0.00    -0.264 C  
HETATM    2  N   UNL     1     -10.344   7.995  72.705  1.00  0.00    -0.304 NA 
HETATM    3  C   UNL     1     -10.556   9.133  71.805  1.00  0.00    -0.313 C  
HETATM    4  C   UNL     1      -9.842   8.987  70.461  1.00  0.00    -0.263 C  
HETATM    5  C   UNL     1     -10.204   7.673  69.777  1.00  0.00    -0.210 C  
HETATM    6  C   UNL     1     -10.005   6.459  70.712  1.00  0.00    -0.212 C  
HETATM    7  C   UNL     1     -10.701   6.726  72.062  1.00  0.00    -0.218 C  
ENDROOT
BRANCH   6   8
HETATM    8  C   UNL     1     -10.525   5.190  69.993  1.00  0.00    -0.305 C  
BRANCH   8   9
HETATM    9  C   UNL     1      -9.562   3.956  69.860  1.00  0.00    -0.270 C  
HETATM   10  C   UNL     1      -8.483   4.143  68.783  1.00  0.00    -0.098 A  
HETATM   11  C   UNL     1      -8.817   4.763  67.554  1.00  0.00    -0.108 A  
HETATM   12  C   UNL     1      -7.926   4.816  66.476  1.00  0.00    -0.103 A  
HETATM   13  C   UNL     1      -6.679   4.224  66.582  1.00  0.00    -0.051 A  
HETATM   14  C   UNL     1      -6.315   3.631  67.786  1.00  0.00    -0.037 A  
HETATM   15  C   UNL     1      -7.195   3.604  68.889  1.00  0.00    -0.050 A  
HETATM   16  S   UNL     1      -6.527   2.872  70.351  1.00  0.00    -0.028 SA 
HETATM   17  C   UNL     1      -7.838   2.985  71.526  1.00  0.00    -0.056 A  
HETATM   18  C   UNL     1      -7.504   2.599  72.839  1.00  0.00    -0.045 A  
HETATM   19  C   UNL     1      -8.459   2.559  73.847  1.00  0.00    -0.071 A  
HETATM   20  C   UNL     1      -9.776   2.858  73.541  1.00  0.00    -0.144 A  
HETATM   21  C   UNL     1     -10.116   3.241  72.242  1.00  0.00    -0.215 A  
HETATM   22  C   UNL     1      -9.144   3.384  71.222  1.00  0.00    -0.175 A  
ENDBRANCH   8   9
ENDBRANCH   6   8
TORSDOF 2
ENDMDL
MODEL      211
REMARK 921   NORMALIZED FREE ENERGY PREDICTED BY IDOCK:   -3.43 KCAL/MOL
REMARK 922        TOTAL FREE ENERGY PREDICTED BY IDOCK:   -4.23 KCAL/MOL
REMARK 923 INTER-LIGAND FREE ENERGY PREDICTED BY IDOCK:   -4.30 KCAL/MOL
REMARK 924 INTRA-LIGAND FREE ENERGY PREDICTED BY IDOCK:    0.07 KCAL/MOL
REMARK 927      BINDING AFFINITY PREDICTED BY RF-SCORE:    0.00 PKD
ROOT
HETATM    1  C   UNL     1     -12.400   8.314  71.192  1.00  0.00    -0.206 C  
HETATM    2  N   UNL     1     -10.958   8.433  71.010  1.00  0.00    -0.239 NA 
HETATM    3  C   UNL     1     -10.418   7.477  70.040  1.00  0.00    -0.228 C  
HETATM    4  C   UNL     1     -10.760   7.822  68.590  1.00  0.00    -0.084 C  
HETATM    5  C   UNL     1     -10.342   9.248  68.244  1.00  0.00    -0.257 C  
HETATM    6  C   UNL     1     -10.884  10.274  69.264  1.00  0.00    -0.275 C  
HETATM    7  C   UNL     1     -10.552   9.807  70.695  1.00  0.00    -0.313 C  
ENDROOT
BRANCH   6   8
HETATM    8  C   UNL     1     -10.302  11.667  68.921  1.00  0.00    -0.175 C  
BRANCH   8   9
HETATM    9  C   UNL     1      -9.130  11.755  67.878  1.00  0.00    -0.181 C  
HETATM   10  C   UNL     1      -7.862  11.014  68.328  1.00  0.00    -0.121 A  
HETATM   11  C   UNL     1      -7.450  11.082  69.681  1.00  0.00     0.029 A  
HETATM   12  C   UNL     1      -6.225  10.568  70.117  1.00  0.00    -0.117 A  
HETATM   13  C   UNL     1      -5.355   9.991  69.207  1.00  0.00    -0.035 A  
HETATM   14  C   UNL     1      -5.744   9.887  67.877  1.00  0.00    -0.039 A  
HETATM   15  C   UNL     1      -6.995  10.372  67.435  1.00  0.00    -0.085 A  
HETATM   16  S   UNL     1      -7.339  10.084  65.728  1.00  0.00    -0.123 SA 
HETATM   17  C   UNL     1      -8.937  10.790  65.486  1.00  0.00    -0.193 A  
HETATM   18  C   UNL     1      -9.514  10.558  64.222  1.00  0.00    -0.337 A  
HETATM   19  C   UNL     1     -10.732  11.124  63.865  1.00  0.00    -0.407 A  
HETATM   20  C   UNL     1     -11.366  11.975  64.754  1.00  0.00    -0.369 A  
HETATM   21  C   UNL     1     -10.801  12.211  66.010  1.00  0.00    -0.318 A  
HETATM   22  C   UNL     1      -9.612  11.569  66.433  1.00  0.00    -0.230 A  
ENDBRANCH   8   9
ENDBRANCH   6   8
TORSDOF 2
ENDMDL
MODEL      212
REMARK 921   NORMALIZED FREE ENERGY PREDICTED BY IDOCK:   -3.37 KCAL/MOL
REMARK 922        TOTAL FREE ENERGY PREDICTED BY IDOCK:   -4.16 KCAL/MOL
REMARK 923 INTER-LIGAND FREE ENERGY PREDICTED BY IDOCK:   -3.77 KCAL/MOL
REMARK 924 INTRA-LIGAND FREE ENERGY PREDICTED BY IDOCK:   -0.40 KCAL/MOL
REMARK 927      BINDING AFFINITY PREDICTED BY RF-SCORE:    0.00 PKD
ROOT
HETATM    1  C   UNL     1     -13.273  11.375  71.216  1.00  0.00    -0.049 C  
HETATM    2  N   UNL     1     -12.709  10.454  72.198  1.00  0.00    -0.265 NA 
HETATM    3  C   UNL     1     -13.668   9.447  72.660  1.00  0.00    -0.266 C  
HETATM    4  C   UNL     1     -13.960   8.363  71.621  1.00  0.00    -0.460 C  
HETATM    5  C   UNL     1     -12.675   7.709  71.122  1.00  0.00    -0.240 C  
HETATM    6  C   UNL     1     -11.641   8.754  70.646  1.00  0.00    -0.236 C  
HETATM    7  C   UNL     1     -11.464   9.838  71.728  1.00  0.00    -0.067 C  
ENDROOT
BRANCH   6   8
HETATM    8  C   UNL     1     -10.324   8.020  70.290  1.00  0.00    -0.212 C  
BRANCH   8   9
HETATM    9  C   UNL     1      -9.870   7.980  68.787  1.00  0.00    -0.176 C  
HETATM   10  C   UNL     1      -9.067   9.218  68.363  1.00  0.00    -0.128 A  
HETATM   11  C   UNL     1      -9.454  10.499  68.826  1.00  0.00    -0.181 A  
HETATM   12  C   UNL     1      -8.866  11.676  68.349  1.00  0.00    -0.161 A  
HETATM   13  C   UNL     1      -7.888  11.612  67.371  1.00  0.00    -0.147 A  
HETATM   14  C   UNL     1      -7.470  10.366  66.918  1.00  0.00    -0.107 A  
HETATM   15  C   UNL     1      -8.034   9.173  67.419  1.00  0.00    -0.103 A  
HETATM   16  S   UNL     1      -7.323   7.691  66.775  1.00  0.00    -0.090 SA 
HETATM   17  C   UNL     1      -8.219   6.399  67.574  1.00  0.00    -0.117 A  
HETATM   18  C   UNL     1      -7.737   5.097  67.341  1.00  0.00    -0.092 A  
HETATM   19  C   UNL     1      -8.395   3.980  67.841  1.00  0.00    -0.098 A  
HETATM   20  C   UNL     1      -9.577   4.151  68.540  1.00  0.00    -0.192 A  
HETATM   21  C   UNL     1     -10.063   5.439  68.776  1.00  0.00    -0.255 A  
HETATM   22  C   UNL     1      -9.359   6.596  68.363  1.00  0.00    -0.123 A  
ENDBRANCH   8   9
ENDBRANCH   6   8
TORSDOF 2
ENDMDL
MODEL      213
REMARK 921   NORMALIZED FREE ENERGY PREDICTED BY IDOCK:   -3.35 KCAL/MOL
REMARK 922        TOTAL FREE ENERGY PREDICTED BY IDOCK:   -4.14 KCAL/MOL
REMARK 923 INTER-LIGAND FREE ENERGY PREDICTED BY IDOCK:   -3.45 KCAL/MOL
REMARK 924 INTRA-LIGAND FREE ENERGY PREDICTED BY IDOCK:   -0.69 KCAL/MOL
REMARK 927      BINDING AFFINITY PREDICTED BY RF-SCORE:    0.00 PKD
ROOT
HETATM    1  C   UNL     1     -12.508  10.743  69.786  1.00  0.00    -0.162 C  
HETATM    2  N   UNL     1     -12.207  10.337  71.154  1.00  0.00    -0.364 NA 
HETATM    3  C   UNL     1     -13.324   9.650  71.810  1.00  0.00    -0.419 C  
HETATM    4  C   UNL     1     -13.547   8.227  71.299  1.00  0.00    -0.169 C  
HETATM    5  C   UNL     1     -12.270   7.397  71.383  1.00  0.00    -0.374 C  
HETATM    6  C   UNL     1     -11.073   8.109  70.714  1.00  0.00    -0.275 C  
HETATM    7  C   UNL     1     -10.969   9.555  71.240  1.00  0.00    -0.370 C  
ENDROOT
BRANCH   6   8
HETATM    8  C   UNL     1      -9.795   7.271  70.966  1.00  0.00    -0.183 C  
BRANCH   8   9
HETATM    9  C   UNL     1      -8.745   7.137  69.805  1.00  0.00    -0.142 C  
HETATM   10  C   UNL     1      -9.311   6.455  68.551  1.00  0.00    -0.122 A  
HETATM   11  C   UNL     1     -10.181   5.346  68.686  1.00  0.00    -0.246 A  
HETATM   12  C   UNL     1     -10.599   4.585  67.589  1.00  0.00     0.466 A  
HETATM   13  C   UNL     1     -10.136   4.891  66.321  1.00  0.00    -0.285 A  
HETATM   14  C   UNL     1      -9.302   5.990  66.155  1.00  0.00    -0.140 A  
HETATM   15  C   UNL     1      -8.904   6.784  67.252  1.00  0.00    -0.118 A  
HETATM   16  S   UNL     1      -7.904   8.177  66.832  1.00  0.00    -0.096 SA 
HETATM   17  C   UNL     1      -7.576   8.954  68.382  1.00  0.00    -0.091 A  
HETATM   18  C   UNL     1      -6.910  10.193  68.305  1.00  0.00    -0.062 A  
HETATM   19  C   UNL     1      -6.516  10.876  69.450  1.00  0.00    -0.086 A  
HETATM   20  C   UNL     1      -6.739  10.300  70.689  1.00  0.00    -0.006 A  
HETATM   21  C   UNL     1      -7.399   9.072  70.774  1.00  0.00    -0.109 A  
HETATM   22  C   UNL     1      -7.897   8.405  69.628  1.00  0.00    -0.100 A  
ENDBRANCH   8   9
ENDBRANCH   6   8
TORSDOF 2
ENDMDL
MODEL      214
REMARK 921   NORMALIZED FREE ENERGY PREDICTED BY IDOCK:   -3.35 KCAL/MOL
REMARK 922        TOTAL FREE ENERGY PREDICTED BY IDOCK:   -4.14 KCAL/MOL
REMARK 923 INTER-LIGAND FREE ENERGY PREDICTED BY IDOCK:   -3.73 KCAL/MOL
REMARK 924 INTRA-LIGAND FREE ENERGY PREDICTED BY IDOCK:   -0.41 KCAL/MOL
REMARK 927      BINDING AFFINITY PREDICTED BY RF-SCORE:    0.00 PKD
ROOT
HETATM    1  C   UNL     1     -12.514  10.737  69.765  1.00  0.00    -0.162 C  
HETATM    2  N   UNL     1     -12.204  10.348  71.137  1.00  0.00    -0.368 NA 
HETATM    3  C   UNL     1     -13.326   9.696  71.818  1.00  0.00    -0.419 C  
HETATM    4  C   UNL     1     -13.585   8.269  71.334  1.00  0.00    -0.266 C  
HETATM    5  C   UNL     1     -12.324   7.414  71.415  1.00  0.00    -0.394 C  
HETATM    6  C   UNL     1     -11.122   8.090  70.719  1.00  0.00    -0.269 C  
HETATM    7  C   UNL     1     -10.982   9.542  71.220  1.00  0.00    -0.370 C  
ENDROOT
BRANCH   6   8
HETATM    8  C   UNL     1      -9.858   7.230  70.969  1.00  0.00    -0.183 C  
BRANCH   8   9
HETATM    9  C   UNL     1      -8.808   7.086  69.809  1.00  0.00    -0.142 C  
HETATM   10  C   UNL     1      -7.570   7.975  69.999  1.00  0.00    -0.082 A  
HETATM   11  C   UNL     1      -7.721   9.293  70.494  1.00  0.00    -0.160 A  
HETATM   12  C   UNL     1      -6.659  10.203  70.536  1.00  0.00    -0.112 A  
HETATM   13  C   UNL     1      -5.415   9.833  70.055  1.00  0.00    -0.037 A  
HETATM   14  C   UNL     1      -5.231   8.537  69.587  1.00  0.00    -0.030 A  
HETATM   15  C   UNL     1      -6.289   7.602  69.575  1.00  0.00    -0.031 A  
HETATM   16  S   UNL     1      -5.843   5.989  69.013  1.00  0.00    -0.020 SA 
HETATM   17  C   UNL     1      -7.346   5.069  69.111  1.00  0.00    -0.057 A  
HETATM   18  C   UNL     1      -7.225   3.689  68.855  1.00  0.00    -0.050 A  
HETATM   19  C   UNL     1      -8.338   2.859  68.816  1.00  0.00    -0.086 A  
HETATM   20  C   UNL     1      -9.597   3.411  68.984  1.00  0.00    -0.122 A  
HETATM   21  C   UNL     1      -9.726   4.778  69.238  1.00  0.00    -0.266 A  
HETATM   22  C   UNL     1      -8.601   5.626  69.380  1.00  0.00    -0.106 A  
ENDBRANCH   8   9
ENDBRANCH   6   8
TORSDOF 2
ENDMDL
MODEL      215
REMARK 921   NORMALIZED FREE ENERGY PREDICTED BY IDOCK:   -3.32 KCAL/MOL
REMARK 922        TOTAL FREE ENERGY PREDICTED BY IDOCK:   -4.11 KCAL/MOL
REMARK 923 INTER-LIGAND FREE ENERGY PREDICTED BY IDOCK:   -4.46 KCAL/MOL
REMARK 924 INTRA-LIGAND FREE ENERGY PREDICTED BY IDOCK:    0.35 KCAL/MOL
REMARK 927      BINDING AFFINITY PREDICTED BY RF-SCORE:    0.00 PKD
ROOT
HETATM    1  C   UNL     1      -7.054  15.399  69.995  1.00  0.00     0.010 C  
HETATM    2  N   UNL     1      -5.959  14.765  69.268  1.00  0.00    -0.100 NA 
HETATM    3  C   UNL     1      -5.177  13.842  70.095  1.00  0.00    -0.096 C  
HETATM    4  C   UNL     1      -5.905  12.532  70.399  1.00  0.00    -0.150 C  
HETATM    5  C   UNL     1      -6.384  11.851  69.121  1.00  0.00    -0.092 C  
HETATM    6  C   UNL     1      -7.196  12.810  68.223  1.00  0.00    -0.114 C  
HETATM    7  C   UNL     1      -6.414  14.125  68.029  1.00  0.00    -0.149 C  
ENDROOT
BRANCH   6   8
HETATM    8  C   UNL     1      -7.521  12.087  66.893  1.00  0.00    -0.051 C  
BRANCH   8   9
HETATM    9  C   UNL     1      -9.021  11.745  66.572  1.00  0.00    -0.196 C  
HETATM   10  C   UNL     1      -9.997  12.859  66.978  1.00  0.00    -0.244 A  
HETATM   11  C   UNL     1      -9.801  13.556  68.195  1.00  0.00    -0.237 A  
HETATM   12  C   UNL     1     -10.740  14.464  68.697  1.00  0.00    -0.258 A  
HETATM   13  C   UNL     1     -11.922  14.684  68.011  1.00  0.00    -0.292 A  
HETATM   14  C   UNL     1     -12.129  14.034  66.800  1.00  0.00    -0.480 A  
HETATM   15  C   UNL     1     -11.171  13.143  66.269  1.00  0.00    -0.301 A  
HETATM   16  S   UNL     1     -11.580  12.472  64.689  1.00  0.00    -0.362 SA 
HETATM   17  C   UNL     1     -10.219  11.419  64.302  1.00  0.00    -0.315 A  
HETATM   18  C   UNL     1     -10.231  10.871  63.005  1.00  0.00    -0.182 A  
HETATM   19  C   UNL     1      -9.265   9.960  62.594  1.00  0.00    -0.297 A  
HETATM   20  C   UNL     1      -8.300   9.547  63.496  1.00  0.00    -0.176 A  
HETATM   21  C   UNL     1      -8.280  10.086  64.785  1.00  0.00    -0.155 A  
HETATM   22  C   UNL     1      -9.194  11.088  65.195  1.00  0.00    -0.227 A  
ENDBRANCH   8   9
ENDBRANCH   6   8
TORSDOF 2
ENDMDL
MODEL      216
REMARK 921   NORMALIZED FREE ENERGY PREDICTED BY IDOCK:   -3.31 KCAL/MOL
REMARK 922        TOTAL FREE ENERGY PREDICTED BY IDOCK:   -4.09 KCAL/MOL
REMARK 923 INTER-LIGAND FREE ENERGY PREDICTED BY IDOCK:   -4.15 KCAL/MOL
REMARK 924 INTRA-LIGAND FREE ENERGY PREDICTED BY IDOCK:    0.06 KCAL/MOL
REMARK 927      BINDING AFFINITY PREDICTED BY RF-SCORE:    0.00 PKD
ROOT
HETATM    1  C   UNL     1     -12.342  10.099  71.178  1.00  0.00    -0.385 C  
HETATM    2  N   UNL     1     -11.515   9.179  71.952  1.00  0.00    -0.371 NA 
HETATM    3  C   UNL     1     -12.138   7.867  72.143  1.00  0.00    -0.326 C  
HETATM    4  C   UNL     1     -12.140   7.005  70.880  1.00  0.00    -0.403 C  
HETATM    5  C   UNL     1     -10.738   6.866  70.297  1.00  0.00    -0.274 C  
HETATM    6  C   UNL     1     -10.053   8.237  70.103  1.00  0.00    -0.191 C  
HETATM    7  C   UNL     1     -10.160   9.058  71.404  1.00  0.00    -0.329 C  
ENDROOT
BRANCH   6   8
HETATM    8  C   UNL     1      -8.593   8.001  69.644  1.00  0.00    -0.135 C  
BRANCH   8   9
HETATM    9  C   UNL     1      -8.038   6.531  69.636  1.00  0.00    -0.125 C  
HETATM   10  C   UNL     1      -7.987   5.895  71.033  1.00  0.00    -0.116 A  
HETATM   11  C   UNL     1      -7.578   6.672  72.144  1.00  0.00    -0.095 A  
HETATM   12  C   UNL     1      -7.355   6.112  73.407  1.00  0.00    -0.088 A  
HETATM   13  C   UNL     1      -7.508   4.749  73.594  1.00  0.00    -0.090 A  
HETATM   14  C   UNL     1      -7.934   3.966  72.528  1.00  0.00    -0.081 A  
HETATM   15  C   UNL     1      -8.194   4.529  71.259  1.00  0.00    -0.095 A  
HETATM   16  S   UNL     1      -8.796   3.388  70.053  1.00  0.00    -0.102 SA 
HETATM   17  C   UNL     1      -9.021   4.371  68.606  1.00  0.00    -0.115 A  
HETATM   18  C   UNL     1      -9.644   3.718  67.525  1.00  0.00    -0.205 A  
HETATM   19  C   UNL     1      -9.810   4.346  66.296  1.00  0.00    -0.244 A  
HETATM   20  C   UNL     1      -9.307   5.623  66.118  1.00  0.00    -0.167 A  
HETATM   21  C   UNL     1      -8.686   6.278  67.185  1.00  0.00    -0.109 A  
HETATM   22  C   UNL     1      -8.593   5.697  68.473  1.00  0.00    -0.107 A  
ENDBRANCH   8   9
ENDBRANCH   6   8
TORSDOF 2
ENDMDL
MODEL      217
REMARK 921   NORMALIZED FREE ENERGY PREDICTED BY IDOCK:   -3.31 KCAL/MOL
REMARK 922        TOTAL FREE ENERGY PREDICTED BY IDOCK:   -4.09 KCAL/MOL
REMARK 923 INTER-LIGAND FREE ENERGY PREDICTED BY IDOCK:   -3.62 KCAL/MOL
REMARK 924 INTRA-LIGAND FREE ENERGY PREDICTED BY IDOCK:   -0.47 KCAL/MOL
REMARK 927      BINDING AFFINITY PREDICTED BY RF-SCORE:    0.00 PKD
ROOT
HETATM    1  C   UNL     1      -5.860   7.794  71.768  1.00  0.00    -0.035 C  
HETATM    2  N   UNL     1      -6.688   6.659  72.160  1.00  0.00    -0.059 NA 
HETATM    3  C   UNL     1      -7.283   6.812  73.490  1.00  0.00    -0.079 C  
HETATM    4  C   UNL     1      -8.427   7.826  73.532  1.00  0.00    -0.259 C  
HETATM    5  C   UNL     1      -9.493   7.509  72.489  1.00  0.00    -0.207 C  
HETATM    6  C   UNL     1      -8.887   7.325  71.080  1.00  0.00    -0.144 C  
HETATM    7  C   UNL     1      -7.703   6.340  71.150  1.00  0.00    -0.102 C  
ENDROOT
BRANCH   6   8
HETATM    8  C   UNL     1     -10.009   6.869  70.114  1.00  0.00    -0.188 C  
BRANCH   8   9
HETATM    9  C   UNL     1     -11.059   7.932  69.629  1.00  0.00    -0.033 C  
HETATM   10  C   UNL     1     -12.149   8.227  70.670  1.00  0.00     0.039 A  
HETATM   11  C   UNL     1     -12.696   7.167  71.434  1.00  0.00    -0.433 A  
HETATM   12  C   UNL     1     -13.798   7.344  72.277  1.00  0.00     0.024 A  
HETATM   13  C   UNL     1     -14.409   8.584  72.363  1.00  0.00    -0.412 A  
HETATM   14  C   UNL     1     -13.877   9.648  71.645  1.00  0.00    -0.239 A  
HETATM   15  C   UNL     1     -12.744   9.485  70.818  1.00  0.00    -0.068 A  
HETATM   16  S   UNL     1     -12.173  10.967  70.045  1.00  0.00    -0.328 SA 
HETATM   17  C   UNL     1     -10.777  10.449  69.100  1.00  0.00    -0.234 A  
HETATM   18  C   UNL     1     -10.040  11.486  68.496  1.00  0.00    -0.211 A  
HETATM   19  C   UNL     1      -8.965  11.218  67.657  1.00  0.00    -0.142 A  
HETATM   20  C   UNL     1      -8.646   9.902  67.370  1.00  0.00    -0.125 A  
HETATM   21  C   UNL     1      -9.371   8.867  67.964  1.00  0.00    -0.153 A  
HETATM   22  C   UNL     1     -10.406   9.114  68.899  1.00  0.00    -0.232 A  
ENDBRANCH   8   9
ENDBRANCH   6   8
TORSDOF 2
ENDMDL
MODEL      218
REMARK 921   NORMALIZED FREE ENERGY PREDICTED BY IDOCK:   -3.25 KCAL/MOL
REMARK 922        TOTAL FREE ENERGY PREDICTED BY IDOCK:   -4.03 KCAL/MOL
REMARK 923 INTER-LIGAND FREE ENERGY PREDICTED BY IDOCK:   -3.28 KCAL/MOL
REMARK 924 INTRA-LIGAND FREE ENERGY PREDICTED BY IDOCK:   -0.75 KCAL/MOL
REMARK 927      BINDING AFFINITY PREDICTED BY RF-SCORE:    0.00 PKD
ROOT
HETATM    1  C   UNL     1      -7.516  14.685  69.529  1.00  0.00    -0.074 C  
HETATM    2  N   UNL     1      -6.880  13.901  68.475  1.00  0.00    -0.090 NA 
HETATM    3  C   UNL     1      -5.693  13.174  68.934  1.00  0.00    -0.074 C  
HETATM    4  C   UNL     1      -6.020  11.967  69.813  1.00  0.00    -0.136 C  
HETATM    5  C   UNL     1      -7.005  11.027  69.126  1.00  0.00    -0.104 C  
HETATM    6  C   UNL     1      -8.258  11.773  68.617  1.00  0.00    -0.091 C  
HETATM    7  C   UNL     1      -7.829  13.009  67.800  1.00  0.00    -0.157 C  
ENDROOT
BRANCH   6   8
HETATM    8  C   UNL     1      -9.133  10.780  67.813  1.00  0.00    -0.151 C  
BRANCH   8   9
HETATM    9  C   UNL     1      -8.818   9.244  67.923  1.00  0.00    -0.124 C  
HETATM   10  C   UNL     1      -9.930   8.445  68.619  1.00  0.00    -0.197 A  
HETATM   11  C   UNL     1     -10.586   8.992  69.748  1.00  0.00    -0.236 A  
HETATM   12  C   UNL     1     -11.488   8.252  70.521  1.00  0.00    -0.180 A  
HETATM   13  C   UNL     1     -11.742   6.929  70.205  1.00  0.00    -0.306 A  
HETATM   14  C   UNL     1     -11.132   6.373  69.086  1.00  0.00    -0.428 A  
HETATM   15  C   UNL     1     -10.248   7.124  68.281  1.00  0.00    -0.184 A  
HETATM   16  S   UNL     1      -9.630   6.270  66.865  1.00  0.00    -0.152 SA 
HETATM   17  C   UNL     1      -8.576   7.446  66.079  1.00  0.00    -0.151 A  
HETATM   18  C   UNL     1      -8.068   7.055  64.825  1.00  0.00    -0.096 A  
HETATM   19  C   UNL     1      -7.160   7.847  64.132  1.00  0.00    -0.075 A  
HETATM   20  C   UNL     1      -6.709   9.021  64.712  1.00  0.00    -0.076 A  
HETATM   21  C   UNL     1      -7.207   9.415  65.956  1.00  0.00    -0.092 A  
HETATM   22  C   UNL     1      -8.205   8.676  66.635  1.00  0.00    -0.107 A  
ENDBRANCH   8   9
ENDBRANCH   6   8
TORSDOF 2
ENDMDL
MODEL      219
REMARK 921   NORMALIZED FREE ENERGY PREDICTED BY IDOCK:   -3.23 KCAL/MOL
REMARK 922        TOTAL FREE ENERGY PREDICTED BY IDOCK:   -4.01 KCAL/MOL
REMARK 923 INTER-LIGAND FREE ENERGY PREDICTED BY IDOCK:   -3.24 KCAL/MOL
REMARK 924 INTRA-LIGAND FREE ENERGY PREDICTED BY IDOCK:   -0.77 KCAL/MOL
REMARK 927      BINDING AFFINITY PREDICTED BY RF-SCORE:    0.00 PKD
ROOT
HETATM    1  C   UNL     1      -7.651   6.395  66.799  1.00  0.00    -0.098 C  
HETATM    2  N   UNL     1      -7.579   7.728  66.211  1.00  0.00    -0.086 NA 
HETATM    3  C   UNL     1      -8.631   7.979  65.222  1.00  0.00    -0.086 C  
HETATM    4  C   UNL     1     -10.012   8.187  65.843  1.00  0.00     0.332 C  
HETATM    5  C   UNL     1      -9.988   9.281  66.906  1.00  0.00    -0.298 C  
HETATM    6  C   UNL     1      -8.874   9.048  67.950  1.00  0.00    -0.129 C  
HETATM    7  C   UNL     1      -7.536   8.781  67.231  1.00  0.00    -0.089 C  
ENDROOT
BRANCH   6   8
HETATM    8  C   UNL     1      -8.826  10.268  68.903  1.00  0.00    -0.157 C  
BRANCH   8   9
HETATM    9  C   UNL     1      -8.875  10.011  70.453  1.00  0.00     0.199 C  
HETATM   10  C   UNL     1     -10.225   9.460  70.934  1.00  0.00    -0.373 A  
HETATM   11  C   UNL     1     -11.427   9.968  70.384  1.00  0.00    -0.389 A  
HETATM   12  C   UNL     1     -12.685   9.627  70.892  1.00  0.00    -0.280 A  
HETATM   13  C   UNL     1     -12.782   8.786  71.988  1.00  0.00    -0.444 A  
HETATM   14  C   UNL     1     -11.619   8.251  72.531  1.00  0.00    -0.454 A  
HETATM   15  C   UNL     1     -10.348   8.564  72.002  1.00  0.00    -0.338 A  
HETATM   16  S   UNL     1      -8.998   7.732  72.779  1.00  0.00    -0.205 SA 
HETATM   17  C   UNL     1      -7.577   8.318  71.915  1.00  0.00    -0.108 A  
HETATM   18  C   UNL     1      -6.365   7.683  72.250  1.00  0.00    -0.043 A  
HETATM   19  C   UNL     1      -5.155   8.100  71.708  1.00  0.00    -0.034 A  
HETATM   20  C   UNL     1      -5.137   9.193  70.859  1.00  0.00    -0.028 A  
HETATM   21  C   UNL     1      -6.334   9.829  70.522  1.00  0.00    -0.100 A  
HETATM   22  C   UNL     1      -7.589   9.362  70.983  1.00  0.00    -0.033 A  
ENDBRANCH   8   9
ENDBRANCH   6   8
TORSDOF 2
ENDMDL
MODEL      220
REMARK 921   NORMALIZED FREE ENERGY PREDICTED BY IDOCK:   -3.14 KCAL/MOL
REMARK 922        TOTAL FREE ENERGY PREDICTED BY IDOCK:   -3.91 KCAL/MOL
REMARK 923 INTER-LIGAND FREE ENERGY PREDICTED BY IDOCK:   -3.51 KCAL/MOL
REMARK 924 INTRA-LIGAND FREE ENERGY PREDICTED BY IDOCK:   -0.40 KCAL/MOL
REMARK 927      BINDING AFFINITY PREDICTED BY RF-SCORE:    0.00 PKD
ROOT
HETATM    1  C   UNL     1     -10.057   9.031  69.771  1.00  0.00    -0.200 C  
HETATM    2  N   UNL     1     -10.159   8.781  71.204  1.00  0.00    -0.224 NA 
HETATM    3  C   UNL     1     -11.474   9.118  71.756  1.00  0.00    -0.381 C  
HETATM    4  C   UNL     1     -12.568   8.121  71.373  1.00  0.00    -0.301 C  
HETATM    5  C   UNL     1     -12.172   6.692  71.735  1.00  0.00    -0.400 C  
HETATM    6  C   UNL     1     -10.780   6.320  71.179  1.00  0.00    -0.301 C  
HETATM    7  C   UNL     1      -9.761   7.414  71.557  1.00  0.00    -0.159 C  
ENDROOT
BRANCH   6   8
HETATM    8  C   UNL     1     -10.397   4.915  71.707  1.00  0.00    -0.249 C  
BRANCH   8   9
HETATM    9  C   UNL     1      -8.998   4.320  71.309  1.00  0.00    -0.168 C  
HETATM   10  C   UNL     1      -8.735   4.351  69.796  1.00  0.00    -0.111 A  
HETATM   11  C   UNL     1      -9.782   4.045  68.894  1.00  0.00    -0.151 A  
HETATM   12  C   UNL     1      -9.567   3.898  67.519  1.00  0.00    -0.212 A  
HETATM   13  C   UNL     1      -8.288   4.026  67.004  1.00  0.00    -0.100 A  
HETATM   14  C   UNL     1      -7.245   4.352  67.863  1.00  0.00    -0.065 A  
HETATM   15  C   UNL     1      -7.460   4.536  69.246  1.00  0.00    -0.055 A  
HETATM   16  S   UNL     1      -6.029   5.018  70.160  1.00  0.00    -0.018 SA 
HETATM   17  C   UNL     1      -6.607   5.165  71.820  1.00  0.00    -0.040 A  
HETATM   18  C   UNL     1      -5.677   5.691  72.738  1.00  0.00    -0.027 A  
HETATM   19  C   UNL     1      -5.970   5.786  74.093  1.00  0.00    -0.058 A  
HETATM   20  C   UNL     1      -7.184   5.306  74.555  1.00  0.00    -0.082 A  
HETATM   21  C   UNL     1      -8.112   4.783  73.652  1.00  0.00    -0.106 A  
HETATM   22  C   UNL     1      -7.876   4.767  72.256  1.00  0.00    -0.098 A  
ENDBRANCH   8   9
ENDBRANCH   6   8
TORSDOF 2
ENDMDL
MODEL      221
REMARK 921   NORMALIZED FREE ENERGY PREDICTED BY IDOCK:   -3.12 KCAL/MOL
REMARK 922        TOTAL FREE ENERGY PREDICTED BY IDOCK:   -3.89 KCAL/MOL
REMARK 923 INTER-LIGAND FREE ENERGY PREDICTED BY IDOCK:   -3.25 KCAL/MOL
REMARK 924 INTRA-LIGAND FREE ENERGY PREDICTED BY IDOCK:   -0.63 KCAL/MOL
REMARK 927      BINDING AFFINITY PREDICTED BY RF-SCORE:    0.00 PKD
ROOT
HETATM    1  C   UNL     1     -10.038   8.666  71.898  1.00  0.00    -0.328 C  
HETATM    2  N   UNL     1     -10.205   7.261  72.252  1.00  0.00    -0.191 NA 
HETATM    3  C   UNL     1     -11.510   6.719  71.862  1.00  0.00    -0.282 C  
HETATM    4  C   UNL     1     -11.650   6.491  70.357  1.00  0.00    -0.470 C  
HETATM    5  C   UNL     1     -10.515   5.626  69.817  1.00  0.00    -0.377 C  
HETATM    6  C   UNL     1      -9.129   6.167  70.230  1.00  0.00    -0.158 C  
HETATM    7  C   UNL     1      -9.106   6.429  71.749  1.00  0.00    -0.143 C  
ENDROOT
BRANCH   6   8
HETATM    8  C   UNL     1      -8.047   5.161  69.764  1.00  0.00    -0.082 C  
BRANCH   8   9
HETATM    9  C   UNL     1      -7.306   5.431  68.405  1.00  0.00    -0.072 C  
HETATM   10  C   UNL     1      -7.990   4.770  67.200  1.00  0.00    -0.102 A  
HETATM   11  C   UNL     1      -8.530   3.466  67.326  1.00  0.00    -0.105 A  
HETATM   12  C   UNL     1      -9.018   2.749  66.228  1.00  0.00    -0.149 A  
HETATM   13  C   UNL     1      -8.957   3.303  64.960  1.00  0.00    -0.137 A  
HETATM   14  C   UNL     1      -8.457   4.591  64.811  1.00  0.00    -0.132 A  
HETATM   15  C   UNL     1      -7.994   5.334  65.919  1.00  0.00    -0.105 A  
HETATM   16  S   UNL     1      -7.465   6.975  65.539  1.00  0.00    -0.091 SA 
HETATM   17  C   UNL     1      -6.956   7.634  67.094  1.00  0.00    -0.080 A  
HETATM   18  C   UNL     1      -6.624   9.003  67.089  1.00  0.00    -0.061 A  
HETATM   19  C   UNL     1      -6.129   9.632  68.225  1.00  0.00    -0.051 A  
HETATM   20  C   UNL     1      -5.911   8.885  69.370  1.00  0.00    -0.034 A  
HETATM   21  C   UNL     1      -6.236   7.527  69.383  1.00  0.00    -0.031 A  
HETATM   22  C   UNL     1      -6.834   6.886  68.271  1.00  0.00    -0.074 A  
ENDBRANCH   8   9
ENDBRANCH   6   8
TORSDOF 2
ENDMDL
MODEL      222
REMARK 921   NORMALIZED FREE ENERGY PREDICTED BY IDOCK:   -3.10 KCAL/MOL
REMARK 922        TOTAL FREE ENERGY PREDICTED BY IDOCK:   -3.85 KCAL/MOL
REMARK 923 INTER-LIGAND FREE ENERGY PREDICTED BY IDOCK:   -3.48 KCAL/MOL
REMARK 924 INTRA-LIGAND FREE ENERGY PREDICTED BY IDOCK:   -0.38 KCAL/MOL
REMARK 927      BINDING AFFINITY PREDICTED BY RF-SCORE:    0.00 PKD
ROOT
HETATM    1  C   UNL     1      -9.853  11.780  66.320  1.00  0.00    -0.221 C  
HETATM    2  N   UNL     1      -8.978  10.905  67.094  1.00  0.00    -0.138 NA 
HETATM    3  C   UNL     1      -9.220  10.979  68.537  1.00  0.00    -0.177 C  
HETATM    4  C   UNL     1     -10.512  10.289  68.975  1.00  0.00    -0.238 C  
HETATM    5  C   UNL     1     -10.567   8.846  68.485  1.00  0.00    -0.183 C  
HETATM    6  C   UNL     1     -10.298   8.739  66.967  1.00  0.00    -0.353 C  
HETATM    7  C   UNL     1      -9.016   9.519  66.613  1.00  0.00    -0.146 C  
ENDROOT
BRANCH   6   8
HETATM    8  C   UNL     1     -10.232   7.241  66.580  1.00  0.00    -0.232 C  
BRANCH   8   9
HETATM    9  C   UNL     1      -8.947   6.423  66.965  1.00  0.00    -0.119 C  
HETATM   10  C   UNL     1      -9.209   5.352  68.035  1.00  0.00    -0.119 A  
HETATM   11  C   UNL     1     -10.069   5.641  69.122  1.00  0.00    -0.274 A  
HETATM   12  C   UNL     1     -10.219   4.772  70.209  1.00  0.00    -0.262 A  
HETATM   13  C   UNL     1      -9.491   3.596  70.257  1.00  0.00    -0.257 A  
HETATM   14  C   UNL     1      -8.658   3.274  69.191  1.00  0.00    -0.113 A  
HETATM   15  C   UNL     1      -8.528   4.130  68.075  1.00  0.00    -0.094 A  
HETATM   16  S   UNL     1      -7.482   3.517  66.792  1.00  0.00    -0.076 SA 
HETATM   17  C   UNL     1      -7.521   4.782  65.564  1.00  0.00    -0.081 A  
HETATM   18  C   UNL     1      -6.875   4.466  64.353  1.00  0.00    -0.045 A  
HETATM   19  C   UNL     1      -6.757   5.399  63.329  1.00  0.00    -0.033 A  
HETATM   20  C   UNL     1      -7.241   6.681  63.526  1.00  0.00    -0.065 A  
HETATM   21  C   UNL     1      -7.883   7.003  64.724  1.00  0.00    -0.126 A  
HETATM   22  C   UNL     1      -8.102   6.043  65.741  1.00  0.00    -0.123 A  
ENDBRANCH   8   9
ENDBRANCH   6   8
TORSDOF 2
ENDMDL
MODEL      223
REMARK 921   NORMALIZED FREE ENERGY PREDICTED BY IDOCK:   -3.09 KCAL/MOL
REMARK 922        TOTAL FREE ENERGY PREDICTED BY IDOCK:   -3.85 KCAL/MOL
REMARK 923 INTER-LIGAND FREE ENERGY PREDICTED BY IDOCK:   -3.23 KCAL/MOL
REMARK 924 INTRA-LIGAND FREE ENERGY PREDICTED BY IDOCK:   -0.62 KCAL/MOL
REMARK 927      BINDING AFFINITY PREDICTED BY RF-SCORE:    0.00 PKD
ROOT
HETATM    1  C   UNL     1     -12.274  12.178  70.020  1.00  0.00    -0.198 C  
HETATM    2  N   UNL     1     -11.902  11.967  68.624  1.00  0.00    -0.322 NA 
HETATM    3  C   UNL     1     -11.648  13.216  67.901  1.00  0.00    -0.336 C  
HETATM    4  C   UNL     1     -10.328  13.885  68.287  1.00  0.00    -0.249 C  
HETATM    5  C   UNL     1      -9.153  12.922  68.146  1.00  0.00    -0.207 C  
HETATM    6  C   UNL     1      -9.405  11.590  68.886  1.00  0.00    -0.006 C  
HETATM    7  C   UNL     1     -10.784  11.028  68.486  1.00  0.00    -0.202 C  
ENDROOT
BRANCH   6   8
HETATM    8  C   UNL     1      -8.235  10.623  68.578  1.00  0.00    -0.128 C  
BRANCH   8   9
HETATM    9  C   UNL     1      -8.520   9.078  68.572  1.00  0.00    -0.128 C  
HETATM   10  C   UNL     1      -8.183   8.405  67.233  1.00  0.00    -0.112 A  
HETATM   11  C   UNL     1      -8.492   9.064  66.018  1.00  0.00    -0.138 A  
HETATM   12  C   UNL     1      -8.360   8.439  64.773  1.00  0.00    -0.151 A  
HETATM   13  C   UNL     1      -7.942   7.121  64.704  1.00  0.00    -0.114 A  
HETATM   14  C   UNL     1      -7.607   6.458  65.879  1.00  0.00    -0.084 A  
HETATM   15  C   UNL     1      -7.704   7.093  67.136  1.00  0.00    -0.108 A  
HETATM   16  S   UNL     1      -7.166   6.114  68.504  1.00  0.00    -0.086 SA 
HETATM   17  C   UNL     1      -7.404   7.161  69.903  1.00  0.00    -0.084 A  
HETATM   18  C   UNL     1      -6.904   6.662  71.121  1.00  0.00    -0.059 A  
HETATM   19  C   UNL     1      -7.095   7.343  72.317  1.00  0.00    -0.067 A  
HETATM   20  C   UNL     1      -7.836   8.513  72.316  1.00  0.00    -0.122 A  
HETATM   21  C   UNL     1      -8.336   9.015  71.112  1.00  0.00    -0.212 A  
HETATM   22  C   UNL     1      -8.070   8.391  69.869  1.00  0.00    -0.119 A  
ENDBRANCH   8   9
ENDBRANCH   6   8
TORSDOF 2
ENDMDL
MODEL      224
REMARK 921   NORMALIZED FREE ENERGY PREDICTED BY IDOCK:   -3.05 KCAL/MOL
REMARK 922        TOTAL FREE ENERGY PREDICTED BY IDOCK:   -3.81 KCAL/MOL
REMARK 923 INTER-LIGAND FREE ENERGY PREDICTED BY IDOCK:   -3.73 KCAL/MOL
REMARK 924 INTRA-LIGAND FREE ENERGY PREDICTED BY IDOCK:   -0.08 KCAL/MOL
REMARK 927      BINDING AFFINITY PREDICTED BY RF-SCORE:    0.00 PKD
ROOT
HETATM    1  C   UNL     1     -10.236  11.819  65.386  1.00  0.00    -0.261 C  
HETATM    2  N   UNL     1      -9.752  12.540  66.559  1.00  0.00    -0.241 NA 
HETATM    3  C   UNL     1     -10.761  13.424  67.149  1.00  0.00    -0.264 C  
HETATM    4  C   UNL     1     -11.860  12.675  67.903  1.00  0.00    -0.388 C  
HETATM    5  C   UNL     1     -11.276  11.734  68.952  1.00  0.00    -0.311 C  
HETATM    6  C   UNL     1     -10.196  10.803  68.357  1.00  0.00    -0.192 C  
HETATM    7  C   UNL     1      -9.173  11.639  67.562  1.00  0.00    -0.172 C  
ENDROOT
BRANCH   6   8
HETATM    8  C   UNL     1      -9.559   9.986  69.508  1.00  0.00    -0.249 C  
BRANCH   8   9
HETATM    9  C   UNL     1      -8.592   8.803  69.142  1.00  0.00    -0.128 C  
HETATM   10  C   UNL     1      -7.622   8.440  70.275  1.00  0.00    -0.068 A  
HETATM   11  C   UNL     1      -7.027   9.467  71.047  1.00  0.00    -0.029 A  
HETATM   12  C   UNL     1      -6.017   9.213  71.981  1.00  0.00    -0.040 A  
HETATM   13  C   UNL     1      -5.547   7.922  72.154  1.00  0.00    -0.036 A  
HETATM   14  C   UNL     1      -6.131   6.889  71.429  1.00  0.00    -0.037 A  
HETATM   15  C   UNL     1      -7.175   7.134  70.510  1.00  0.00    -0.067 A  
HETATM   16  S   UNL     1      -7.836   5.689  69.740  1.00  0.00    -0.088 SA 
HETATM   17  C   UNL     1      -9.094   6.309  68.671  1.00  0.00    -0.126 A  
HETATM   18  C   UNL     1      -9.887   5.329  68.043  1.00  0.00    -0.193 A  
HETATM   19  C   UNL     1     -10.861   5.672  67.112  1.00  0.00    -0.242 A  
HETATM   20  C   UNL     1     -11.018   7.002  66.759  1.00  0.00    -0.123 A  
HETATM   21  C   UNL     1     -10.236   7.980  67.377  1.00  0.00    -0.330 A  
HETATM   22  C   UNL     1      -9.307   7.666  68.399  1.00  0.00    -0.146 A  
ENDBRANCH   8   9
ENDBRANCH   6   8
TORSDOF 2
ENDMDL
MODEL      225
REMARK 921   NORMALIZED FREE ENERGY PREDICTED BY IDOCK:   -3.02 KCAL/MOL
REMARK 922        TOTAL FREE ENERGY PREDICTED BY IDOCK:   -3.77 KCAL/MOL
REMARK 923 INTER-LIGAND FREE ENERGY PREDICTED BY IDOCK:   -3.68 KCAL/MOL
REMARK 924 INTRA-LIGAND FREE ENERGY PREDICTED BY IDOCK:   -0.08 KCAL/MOL
REMARK 927      BINDING AFFINITY PREDICTED BY RF-SCORE:    0.00 PKD
ROOT
HETATM    1  C   UNL     1     -11.957  10.125  71.098  1.00  0.00    -0.386 C  
HETATM    2  N   UNL     1     -11.120   9.056  71.632  1.00  0.00    -0.339 NA 
HETATM    3  C   UNL     1     -11.880   8.042  72.369  1.00  0.00    -0.372 C  
HETATM    4  C   UNL     1     -12.702   7.123  71.466  1.00  0.00    -0.433 C  
HETATM    5  C   UNL     1     -11.837   6.481  70.387  1.00  0.00    -0.378 C  
HETATM    6  C   UNL     1     -11.011   7.528  69.607  1.00  0.00    -0.164 C  
HETATM    7  C   UNL     1     -10.273   8.449  70.600  1.00  0.00    -0.194 C  
ENDROOT
BRANCH   6   8
HETATM    8  C   UNL     1     -10.062   6.786  68.635  1.00  0.00    -0.163 C  
BRANCH   8   9
HETATM    9  C   UNL     1      -8.517   7.058  68.740  1.00  0.00    -0.122 C  
HETATM   10  C   UNL     1      -8.122   8.481  68.319  1.00  0.00    -0.119 A  
HETATM   11  C   UNL     1      -8.749   9.082  67.201  1.00  0.00    -0.123 A  
HETATM   12  C   UNL     1      -8.322  10.304  66.670  1.00  0.00    -0.125 A  
HETATM   13  C   UNL     1      -7.232  10.954  67.225  1.00  0.00    -0.098 A  
HETATM   14  C   UNL     1      -6.613  10.400  68.340  1.00  0.00    -0.059 A  
HETATM   15  C   UNL     1      -7.061   9.184  68.902  1.00  0.00    -0.068 A  
HETATM   16  S   UNL     1      -6.197   8.678  70.356  1.00  0.00    -0.036 SA 
HETATM   17  C   UNL     1      -6.970   7.160  70.811  1.00  0.00    -0.061 A  
HETATM   18  C   UNL     1      -6.556   6.618  72.043  1.00  0.00    -0.054 A  
HETATM   19  C   UNL     1      -7.021   5.386  72.486  1.00  0.00    -0.082 A  
HETATM   20  C   UNL     1      -7.870   4.654  71.674  1.00  0.00    -0.097 A  
HETATM   21  C   UNL     1      -8.285   5.183  70.450  1.00  0.00    -0.098 A  
HETATM   22  C   UNL     1      -7.904   6.478  70.022  1.00  0.00    -0.111 A  
ENDBRANCH   8   9
ENDBRANCH   6   8
TORSDOF 2
ENDMDL
MODEL      226
REMARK 921   NORMALIZED FREE ENERGY PREDICTED BY IDOCK:   -3.01 KCAL/MOL
REMARK 922        TOTAL FREE ENERGY PREDICTED BY IDOCK:   -3.76 KCAL/MOL
REMARK 923 INTER-LIGAND FREE ENERGY PREDICTED BY IDOCK:   -3.68 KCAL/MOL
REMARK 924 INTRA-LIGAND FREE ENERGY PREDICTED BY IDOCK:   -0.08 KCAL/MOL
REMARK 927      BINDING AFFINITY PREDICTED BY RF-SCORE:    0.00 PKD
ROOT
HETATM    1  C   UNL     1     -10.480  11.041  65.118  1.00  0.00    -0.262 C  
HETATM    2  N   UNL     1      -9.476  11.120  66.174  1.00  0.00    -0.197 NA 
HETATM    3  C   UNL     1      -9.541  12.368  66.938  1.00  0.00    -0.219 C  
HETATM    4  C   UNL     1     -10.735  12.437  67.891  1.00  0.00    -0.245 C  
HETATM    5  C   UNL     1     -10.781  11.225  68.816  1.00  0.00    -0.240 C  
HETATM    6  C   UNL     1     -10.696   9.896  68.034  1.00  0.00    -0.296 C  
HETATM    7  C   UNL     1      -9.506   9.947  67.054  1.00  0.00    -0.160 C  
ENDROOT
BRANCH   6   8
HETATM    8  C   UNL     1     -10.606   8.729  69.049  1.00  0.00    -0.191 C  
BRANCH   8   9
HETATM    9  C   UNL     1      -9.398   7.731  68.939  1.00  0.00    -0.146 C  
HETATM   10  C   UNL     1      -9.452   6.849  67.683  1.00  0.00    -0.133 A  
HETATM   11  C   UNL     1     -10.692   6.321  67.248  1.00  0.00    -0.424 A  
HETATM   12  C   UNL     1     -10.784   5.385  66.212  1.00  0.00    -0.234 A  
HETATM   13  C   UNL     1      -9.634   4.924  65.595  1.00  0.00    -0.168 A  
HETATM   14  C   UNL     1      -8.405   5.444  65.983  1.00  0.00    -0.120 A  
HETATM   15  C   UNL     1      -8.307   6.415  67.004  1.00  0.00    -0.112 A  
HETATM   16  S   UNL     1      -6.672   7.008  67.306  1.00  0.00    -0.069 SA 
HETATM   17  C   UNL     1      -6.873   8.183  68.606  1.00  0.00    -0.067 A  
HETATM   18  C   UNL     1      -5.719   8.920  68.936  1.00  0.00    -0.040 A  
HETATM   19  C   UNL     1      -5.712   9.820  69.995  1.00  0.00    -0.042 A  
HETATM   20  C   UNL     1      -6.849   9.957  70.771  1.00  0.00    -0.033 A  
HETATM   21  C   UNL     1      -7.998   9.229  70.452  1.00  0.00    -0.171 A  
HETATM   22  C   UNL     1      -8.061   8.381  69.320  1.00  0.00    -0.115 A  
ENDBRANCH   8   9
ENDBRANCH   6   8
TORSDOF 2
ENDMDL
MODEL      227
REMARK 921   NORMALIZED FREE ENERGY PREDICTED BY IDOCK:   -2.99 KCAL/MOL
REMARK 922        TOTAL FREE ENERGY PREDICTED BY IDOCK:   -3.74 KCAL/MOL
REMARK 923 INTER-LIGAND FREE ENERGY PREDICTED BY IDOCK:   -4.00 KCAL/MOL
REMARK 924 INTRA-LIGAND FREE ENERGY PREDICTED BY IDOCK:    0.26 KCAL/MOL
REMARK 927      BINDING AFFINITY PREDICTED BY RF-SCORE:    0.00 PKD
ROOT
HETATM    1  C   UNL     1      -6.319  17.939  67.210  1.00  0.00    -0.163 C  
HETATM    2  N   UNL     1      -7.509  17.713  68.024  1.00  0.00    -0.217 NA 
HETATM    3  C   UNL     1      -8.748  18.124  67.358  1.00  0.00    -0.245 C  
HETATM    4  C   UNL     1      -9.178  17.180  66.236  1.00  0.00    -0.260 C  
HETATM    5  C   UNL     1      -9.272  15.738  66.724  1.00  0.00    -0.268 C  
HETATM    6  C   UNL     1      -7.983  15.287  67.446  1.00  0.00    -0.211 C  
HETATM    7  C   UNL     1      -7.592  16.332  68.510  1.00  0.00    -0.179 C  
ENDROOT
BRANCH   6   8
HETATM    8  C   UNL     1      -8.212  13.871  68.030  1.00  0.00    -0.161 C  
BRANCH   8   9
HETATM    9  C   UNL     1      -9.680  13.313  68.089  1.00  0.00    -0.227 C  
HETATM   10  C   UNL     1     -10.648  14.233  68.847  1.00  0.00    -0.252 A  
HETATM   11  C   UNL     1     -10.219  14.884  70.030  1.00  0.00     0.040 A  
HETATM   12  C   UNL     1     -11.096  15.601  70.850  1.00  0.00    -0.377 A  
HETATM   13  C   UNL     1     -12.441  15.668  70.529  1.00  0.00    -0.440 A  
HETATM   14  C   UNL     1     -12.886  15.061  69.361  1.00  0.00     0.344 A  
HETATM   15  C   UNL     1     -12.000  14.365  68.509  1.00  0.00    -0.298 A  
HETATM   16  S   UNL     1     -12.738  13.725  67.038  1.00  0.00     0.716 SA 
HETATM   17  C   UNL     1     -11.406  12.926  66.201  1.00  0.00    -0.317 A  
HETATM   18  C   UNL     1     -11.704  12.455  64.908  1.00  0.00    -0.418 A  
HETATM   19  C   UNL     1     -10.774  11.735  64.167  1.00  0.00    -0.410 A  
HETATM   20  C   UNL     1      -9.549  11.432  64.735  1.00  0.00    -0.239 A  
HETATM   21  C   UNL     1      -9.245  11.895  66.018  1.00  0.00    -0.176 A  
HETATM   22  C   UNL     1     -10.137  12.713  66.752  1.00  0.00    -0.243 A  
ENDBRANCH   8   9
ENDBRANCH   6   8
TORSDOF 2
ENDMDL
MODEL      228
REMARK 921   NORMALIZED FREE ENERGY PREDICTED BY IDOCK:   -2.99 KCAL/MOL
REMARK 922        TOTAL FREE ENERGY PREDICTED BY IDOCK:   -3.73 KCAL/MOL
REMARK 923 INTER-LIGAND FREE ENERGY PREDICTED BY IDOCK:   -3.59 KCAL/MOL
REMARK 924 INTRA-LIGAND FREE ENERGY PREDICTED BY IDOCK:   -0.14 KCAL/MOL
REMARK 927      BINDING AFFINITY PREDICTED BY RF-SCORE:    0.00 PKD
ROOT
HETATM    1  C   UNL     1      -9.779   3.668  71.901  1.00  0.00    -0.166 C  
HETATM    2  N   UNL     1     -10.706   4.794  71.912  1.00  0.00    -0.078 NA 
HETATM    3  C   UNL     1     -11.387   4.966  73.198  1.00  0.00    -0.315 C  
HETATM    4  C   UNL     1     -10.484   5.533  74.294  1.00  0.00    -0.275 C  
HETATM    5  C   UNL     1      -9.815   6.830  73.851  1.00  0.00    -0.318 C  
HETATM    6  C   UNL     1      -9.105   6.678  72.487  1.00  0.00    -0.140 C  
HETATM    7  C   UNL     1     -10.070   6.039  71.468  1.00  0.00    -0.192 C  
ENDROOT
BRANCH   6   8
HETATM    8  C   UNL     1      -8.577   8.066  72.046  1.00  0.00    -0.193 C  
BRANCH   8   9
HETATM    9  C   UNL     1      -8.015   8.226  70.588  1.00  0.00    -0.094 C  
HETATM   10  C   UNL     1      -7.221   7.003  70.106  1.00  0.00    -0.075 A  
HETATM   11  C   UNL     1      -6.351   6.334  71.001  1.00  0.00    -0.048 A  
HETATM   12  C   UNL     1      -5.482   5.320  70.582  1.00  0.00    -0.005 A  
HETATM   13  C   UNL     1      -5.435   4.960  69.246  1.00  0.00    -0.008 A  
HETATM   14  C   UNL     1      -6.297   5.582  68.350  1.00  0.00    -0.038 A  
HETATM   15  C   UNL     1      -7.201   6.582  68.771  1.00  0.00    -0.085 A  
HETATM   16  S   UNL     1      -8.263   7.201  67.504  1.00  0.00    -0.117 SA 
HETATM   17  C   UNL     1      -9.253   8.409  68.324  1.00  0.00    -0.134 A  
HETATM   18  C   UNL     1     -10.299   8.953  67.554  1.00  0.00    -0.328 A  
HETATM   19  C   UNL     1     -11.105   9.973  68.045  1.00  0.00    -0.263 A  
HETATM   20  C   UNL     1     -10.841  10.497  69.298  1.00  0.00    -0.284 A  
HETATM   21  C   UNL     1      -9.805   9.963  70.069  1.00  0.00    -0.291 A  
HETATM   22  C   UNL     1      -9.034   8.860  69.630  1.00  0.00    -0.147 A  
ENDBRANCH   8   9
ENDBRANCH   6   8
TORSDOF 2
ENDMDL
MODEL      229
REMARK 921   NORMALIZED FREE ENERGY PREDICTED BY IDOCK:   -2.91 KCAL/MOL
REMARK 922        TOTAL FREE ENERGY PREDICTED BY IDOCK:   -3.65 KCAL/MOL
REMARK 923 INTER-LIGAND FREE ENERGY PREDICTED BY IDOCK:   -2.85 KCAL/MOL
REMARK 924 INTRA-LIGAND FREE ENERGY PREDICTED BY IDOCK:   -0.80 KCAL/MOL
REMARK 927      BINDING AFFINITY PREDICTED BY RF-SCORE:    0.00 PKD
ROOT
HETATM    1  C   UNL     1     -10.576   4.723  72.190  1.00  0.00    -0.134 C  
HETATM    2  N   UNL     1      -9.920   5.941  71.726  1.00  0.00    -0.164 NA 
HETATM    3  C   UNL     1      -8.465   5.911  71.894  1.00  0.00    -0.126 C  
HETATM    4  C   UNL     1      -7.755   4.995  70.897  1.00  0.00    -0.083 C  
HETATM    5  C   UNL     1      -8.132   5.336  69.459  1.00  0.00    -0.094 C  
HETATM    6  C   UNL     1      -9.664   5.391  69.261  1.00  0.00    -0.224 C  
HETATM    7  C   UNL     1     -10.296   6.281  70.349  1.00  0.00    -0.208 C  
ENDROOT
BRANCH   6   8
HETATM    8  C   UNL     1      -9.958   5.879  67.820  1.00  0.00    -0.156 C  
BRANCH   8   9
HETATM    9  C   UNL     1      -8.773   5.934  66.790  1.00  0.00    -0.117 C  
HETATM   10  C   UNL     1      -8.874   4.865  65.692  1.00  0.00    -0.139 A  
HETATM   11  C   UNL     1      -9.305   3.557  66.023  1.00  0.00    -0.163 A  
HETATM   12  C   UNL     1      -9.263   2.501  65.106  1.00  0.00    -0.120 A  
HETATM   13  C   UNL     1      -8.761   2.713  63.833  1.00  0.00    -0.086 A  
HETATM   14  C   UNL     1      -8.356   3.992  63.472  1.00  0.00    -0.094 A  
HETATM   15  C   UNL     1      -8.428   5.071  64.381  1.00  0.00    -0.142 A  
HETATM   16  S   UNL     1      -7.937   6.632  63.718  1.00  0.00    -0.022 SA 
HETATM   17  C   UNL     1      -8.133   7.753  65.065  1.00  0.00    -0.139 A  
HETATM   18  C   UNL     1      -7.946   9.113  64.749  1.00  0.00    -0.126 A  
HETATM   19  C   UNL     1      -7.988  10.097  65.730  1.00  0.00    -0.140 A  
HETATM   20  C   UNL     1      -8.169   9.725  67.051  1.00  0.00    -0.117 A  
HETATM   21  C   UNL     1      -8.355   8.379  67.373  1.00  0.00    -0.124 A  
HETATM   22  C   UNL     1      -8.414   7.370  66.382  1.00  0.00    -0.129 A  
ENDBRANCH   8   9
ENDBRANCH   6   8
TORSDOF 2
ENDMDL
MODEL      230
REMARK 921   NORMALIZED FREE ENERGY PREDICTED BY IDOCK:   -2.91 KCAL/MOL
REMARK 922        TOTAL FREE ENERGY PREDICTED BY IDOCK:   -3.65 KCAL/MOL
REMARK 923 INTER-LIGAND FREE ENERGY PREDICTED BY IDOCK:   -4.25 KCAL/MOL
REMARK 924 INTRA-LIGAND FREE ENERGY PREDICTED BY IDOCK:    0.60 KCAL/MOL
REMARK 927      BINDING AFFINITY PREDICTED BY RF-SCORE:    0.00 PKD
ROOT
HETATM    1  C   UNL     1     -10.444  16.022  67.014  1.00  0.00    -0.307 C  
HETATM    2  N   UNL     1     -10.213  15.446  68.335  1.00  0.00    -0.219 NA 
HETATM    3  C   UNL     1     -11.445  15.262  69.107  1.00  0.00    -0.316 C  
HETATM    4  C   UNL     1     -12.308  14.102  68.610  1.00  0.00    -0.053 C  
HETATM    5  C   UNL     1     -11.509  12.804  68.536  1.00  0.00    -0.344 C  
HETATM    6  C   UNL     1     -10.196  12.977  67.742  1.00  0.00    -0.228 C  
HETATM    7  C   UNL     1      -9.430  14.207  68.269  1.00  0.00    -0.211 C  
ENDROOT
BRANCH   6   8
HETATM    8  C   UNL     1      -9.384  11.662  67.835  1.00  0.00    -0.174 C  
BRANCH   8   9
HETATM    9  C   UNL     1      -9.392  10.686  66.604  1.00  0.00    -0.189 C  
HETATM   10  C   UNL     1      -9.936  11.332  65.322  1.00  0.00    -0.301 A  
HETATM   11  C   UNL     1     -11.053  12.200  65.391  1.00  0.00    -0.362 A  
HETATM   12  C   UNL     1     -11.693  12.689  64.247  1.00  0.00    -0.446 A  
HETATM   13  C   UNL     1     -11.253  12.304  62.993  1.00  0.00    -0.001 A  
HETATM   14  C   UNL     1     -10.142  11.474  62.894  1.00  0.00    -0.221 A  
HETATM   15  C   UNL     1      -9.469  11.004  64.043  1.00  0.00    -0.246 A  
HETATM   16  S   UNL     1      -8.039  10.023  63.714  1.00  0.00    -0.163 SA 
HETATM   17  C   UNL     1      -7.433   9.595  65.314  1.00  0.00    -0.113 A  
HETATM   18  C   UNL     1      -6.193   8.927  65.330  1.00  0.00    -0.060 A  
HETATM   19  C   UNL     1      -5.637   8.459  66.514  1.00  0.00    -0.035 A  
HETATM   20  C   UNL     1      -6.342   8.609  67.696  1.00  0.00    -0.053 A  
HETATM   21  C   UNL     1      -7.572   9.270  67.689  1.00  0.00    -0.088 A  
HETATM   22  C   UNL     1      -8.113   9.842  66.512  1.00  0.00    -0.117 A  
ENDBRANCH   8   9
ENDBRANCH   6   8
TORSDOF 2
ENDMDL
MODEL      231
REMARK 921   NORMALIZED FREE ENERGY PREDICTED BY IDOCK:   -2.88 KCAL/MOL
REMARK 922        TOTAL FREE ENERGY PREDICTED BY IDOCK:   -3.61 KCAL/MOL
REMARK 923 INTER-LIGAND FREE ENERGY PREDICTED BY IDOCK:   -3.15 KCAL/MOL
REMARK 924 INTRA-LIGAND FREE ENERGY PREDICTED BY IDOCK:   -0.46 KCAL/MOL
REMARK 927      BINDING AFFINITY PREDICTED BY RF-SCORE:    0.00 PKD
ROOT
HETATM    1  C   UNL     1      -7.610   8.738  69.005  1.00  0.00    -0.090 C  
HETATM    2  N   UNL     1      -6.547   9.591  68.486  1.00  0.00    -0.053 NA 
HETATM    3  C   UNL     1      -5.958   9.086  67.243  1.00  0.00    -0.050 C  
HETATM    4  C   UNL     1      -6.866   9.258  66.025  1.00  0.00    -0.088 C  
HETATM    5  C   UNL     1      -7.320  10.705  65.867  1.00  0.00    -0.128 C  
HETATM    6  C   UNL     1      -7.929  11.266  67.171  1.00  0.00    -0.151 C  
HETATM    7  C   UNL     1      -6.975  10.988  68.350  1.00  0.00    -0.071 C  
ENDROOT
BRANCH   6   8
HETATM    8  C   UNL     1      -8.231  12.772  66.969  1.00  0.00    -0.099 C  
BRANCH   8   9
HETATM    9  C   UNL     1      -8.354  13.690  68.238  1.00  0.00    -0.165 C  
HETATM   10  C   UNL     1      -7.601  15.021  68.099  1.00  0.00    -0.113 A  
HETATM   11  C   UNL     1      -6.330  15.048  67.476  1.00  0.00    -0.089 A  
HETATM   12  C   UNL     1      -5.527  16.193  67.463  1.00  0.00    -0.154 A  
HETATM   13  C   UNL     1      -5.958  17.345  68.099  1.00  0.00    -0.154 A  
HETATM   14  C   UNL     1      -7.213  17.356  68.696  1.00  0.00    -0.237 A  
HETATM   15  C   UNL     1      -8.044  16.214  68.683  1.00  0.00    -0.203 A  
HETATM   16  S   UNL     1      -9.628  16.444  69.427  1.00  0.00    -0.058 SA 
HETATM   17  C   UNL     1     -10.415  14.874  69.258  1.00  0.00    -0.241 A  
HETATM   18  C   UNL     1     -11.768  14.834  69.646  1.00  0.00    -0.354 A  
HETATM   19  C   UNL     1     -12.488  13.645  69.643  1.00  0.00    -0.145 A  
HETATM   20  C   UNL     1     -11.845  12.468  69.299  1.00  0.00    -0.360 A  
HETATM   21  C   UNL     1     -10.503  12.499  68.914  1.00  0.00    -0.109 A  
HETATM   22  C   UNL     1      -9.777  13.710  68.814  1.00  0.00    -0.040 A  
ENDBRANCH   8   9
ENDBRANCH   6   8
TORSDOF 2
ENDMDL
MODEL      232
REMARK 921   NORMALIZED FREE ENERGY PREDICTED BY IDOCK:   -2.86 KCAL/MOL
REMARK 922        TOTAL FREE ENERGY PREDICTED BY IDOCK:   -3.60 KCAL/MOL
REMARK 923 INTER-LIGAND FREE ENERGY PREDICTED BY IDOCK:   -3.34 KCAL/MOL
REMARK 924 INTRA-LIGAND FREE ENERGY PREDICTED BY IDOCK:   -0.25 KCAL/MOL
REMARK 927      BINDING AFFINITY PREDICTED BY RF-SCORE:    0.00 PKD
ROOT
HETATM    1  C   UNL     1     -12.720  15.927  70.363  1.00  0.00     0.033 C  
HETATM    2  N   UNL     1     -11.883  14.988  71.103  1.00  0.00    -0.310 NA 
HETATM    3  C   UNL     1     -12.641  14.163  72.049  1.00  0.00    -0.262 C  
HETATM    4  C   UNL     1     -13.483  13.081  71.374  1.00  0.00    -0.062 C  
HETATM    5  C   UNL     1     -12.637  12.214  70.446  1.00  0.00    -0.111 C  
HETATM    6  C   UNL     1     -11.815  13.062  69.451  1.00  0.00    -0.380 C  
HETATM    7  C   UNL     1     -11.056  14.166  70.215  1.00  0.00     0.170 C  
ENDROOT
BRANCH   6   8
HETATM    8  C   UNL     1     -10.885  12.120  68.648  1.00  0.00    -0.268 C  
BRANCH   8   9
HETATM    9  C   UNL     1     -10.137  12.695  67.392  1.00  0.00    -0.218 C  
HETATM   10  C   UNL     1     -11.085  13.091  66.251  1.00  0.00    -0.314 A  
HETATM   11  C   UNL     1     -12.200  12.271  65.947  1.00  0.00    -0.097 A  
HETATM   12  C   UNL     1     -13.003  12.488  64.822  1.00  0.00    -0.115 A  
HETATM   13  C   UNL     1     -12.702  13.518  63.947  1.00  0.00     0.028 A  
HETATM   14  C   UNL     1     -11.630  14.354  64.234  1.00  0.00    -0.279 A  
HETATM   15  C   UNL     1     -10.835  14.163  65.386  1.00  0.00    -0.337 A  
HETATM   16  S   UNL     1      -9.567  15.369  65.618  1.00  0.00    -0.212 SA 
HETATM   17  C   UNL     1      -8.764  14.869  67.106  1.00  0.00    -0.219 A  
HETATM   18  C   UNL     1      -7.795  15.765  67.598  1.00  0.00    -0.168 A  
HETATM   19  C   UNL     1      -7.027  15.460  68.716  1.00  0.00    -0.116 A  
HETATM   20  C   UNL     1      -7.186  14.228  69.328  1.00  0.00    -0.083 A  
HETATM   21  C   UNL     1      -8.145  13.334  68.846  1.00  0.00     0.171 A  
HETATM   22  C   UNL     1      -9.006  13.661  67.771  1.00  0.00    -0.196 A  
ENDBRANCH   8   9
ENDBRANCH   6   8
TORSDOF 2
ENDMDL
MODEL      233
REMARK 921   NORMALIZED FREE ENERGY PREDICTED BY IDOCK:   -2.78 KCAL/MOL
REMARK 922        TOTAL FREE ENERGY PREDICTED BY IDOCK:   -3.50 KCAL/MOL
REMARK 923 INTER-LIGAND FREE ENERGY PREDICTED BY IDOCK:   -3.81 KCAL/MOL
REMARK 924 INTRA-LIGAND FREE ENERGY PREDICTED BY IDOCK:    0.31 KCAL/MOL
REMARK 927      BINDING AFFINITY PREDICTED BY RF-SCORE:    0.00 PKD
ROOT
HETATM    1  C   UNL     1     -10.099   7.832  73.338  1.00  0.00    -0.263 C  
HETATM    2  N   UNL     1     -11.362   7.879  72.608  1.00  0.00    -0.388 NA 
HETATM    3  C   UNL     1     -11.673   9.211  72.082  1.00  0.00    -0.235 C  
HETATM    4  C   UNL     1     -10.816   9.607  70.880  1.00  0.00    -0.409 C  
HETATM    5  C   UNL     1     -10.880   8.554  69.778  1.00  0.00    -0.177 C  
HETATM    6  C   UNL     1     -10.573   7.137  70.313  1.00  0.00    -0.245 C  
HETATM    7  C   UNL     1     -11.434   6.856  71.560  1.00  0.00    -0.277 C  
ENDROOT
BRANCH   6   8
HETATM    8  C   UNL     1     -10.797   6.118  69.169  1.00  0.00    -0.418 C  
BRANCH   8   9
HETATM    9  C   UNL     1      -9.566   5.292  68.647  1.00  0.00    -0.183 C  
HETATM   10  C   UNL     1      -9.556   5.117  67.122  1.00  0.00    -0.156 A  
HETATM   11  C   UNL     1     -10.768   4.860  66.436  1.00  0.00    -0.170 A  
HETATM   12  C   UNL     1     -10.803   4.531  65.077  1.00  0.00    -0.056 A  
HETATM   13  C   UNL     1      -9.622   4.420  64.363  1.00  0.00    -0.097 A  
HETATM   14  C   UNL     1      -8.419   4.693  65.003  1.00  0.00    -0.133 A  
HETATM   15  C   UNL     1      -8.378   5.059  66.367  1.00  0.00    -0.108 A  
HETATM   16  S   UNL     1      -6.767   5.437  66.983  1.00  0.00    -0.063 SA 
HETATM   17  C   UNL     1      -7.039   5.849  68.676  1.00  0.00    -0.081 A  
HETATM   18  C   UNL     1      -5.913   6.340  69.365  1.00  0.00    -0.021 A  
HETATM   19  C   UNL     1      -5.963   6.626  70.724  1.00  0.00    -0.027 A  
HETATM   20  C   UNL     1      -7.131   6.375  71.423  1.00  0.00    -0.077 A  
HETATM   21  C   UNL     1      -8.253   5.888  70.748  1.00  0.00    -0.124 A  
HETATM   22  C   UNL     1      -8.256   5.682  69.347  1.00  0.00    -0.103 A  
ENDBRANCH   8   9
ENDBRANCH   6   8
TORSDOF 2
ENDMDL
MODEL      234
REMARK 921   NORMALIZED FREE ENERGY PREDICTED BY IDOCK:   -2.71 KCAL/MOL
REMARK 922        TOTAL FREE ENERGY PREDICTED BY IDOCK:   -3.43 KCAL/MOL
REMARK 923 INTER-LIGAND FREE ENERGY PREDICTED BY IDOCK:   -3.34 KCAL/MOL
REMARK 924 INTRA-LIGAND FREE ENERGY PREDICTED BY IDOCK:   -0.08 KCAL/MOL
REMARK 927      BINDING AFFINITY PREDICTED BY RF-SCORE:    0.00 PKD
ROOT
HETATM    1  C   UNL     1     -10.220  12.301  63.435  1.00  0.00    -0.323 C  
HETATM    2  N   UNL     1     -10.182  10.855  63.624  1.00  0.00    -0.349 NA 
HETATM    3  C   UNL     1      -9.600  10.140  62.485  1.00  0.00    -0.138 C  
HETATM    4  C   UNL     1      -8.083  10.296  62.378  1.00  0.00    -0.180 C  
HETATM    5  C   UNL     1      -7.389   9.908  63.680  1.00  0.00    -0.126 C  
HETATM    6  C   UNL     1      -7.998  10.635  64.900  1.00  0.00     0.012 C  
HETATM    7  C   UNL     1      -9.532  10.479  64.884  1.00  0.00    -0.252 C  
ENDROOT
BRANCH   6   8
HETATM    8  C   UNL     1      -7.337  10.082  66.187  1.00  0.00    -0.109 C  
BRANCH   8   9
HETATM    9  C   UNL     1      -8.179  10.061  67.513  1.00  0.00    -0.114 C  
HETATM   10  C   UNL     1      -8.829  11.414  67.839  1.00  0.00    -0.149 A  
HETATM   11  C   UNL     1      -8.107  12.612  67.621  1.00  0.00    -0.173 A  
HETATM   12  C   UNL     1      -8.578  13.858  68.047  1.00  0.00    -0.178 A  
HETATM   13  C   UNL     1      -9.778  13.944  68.733  1.00  0.00    -0.096 A  
HETATM   14  C   UNL     1     -10.521  12.788  68.938  1.00  0.00    -0.106 A  
HETATM   15  C   UNL     1     -10.069  11.531  68.480  1.00  0.00    -0.207 A  
HETATM   16  S   UNL     1     -11.183  10.193  68.770  1.00  0.00    -0.113 SA 
HETATM   17  C   UNL     1     -10.353   8.788  68.100  1.00  0.00    -0.216 A  
HETATM   18  C   UNL     1     -11.108   7.600  68.071  1.00  0.00     0.193 A  
HETATM   19  C   UNL     1     -10.553   6.399  67.646  1.00  0.00    -0.340 A  
HETATM   20  C   UNL     1      -9.215   6.362  67.292  1.00  0.00    -0.122 A  
HETATM   21  C   UNL     1      -8.459   7.536  67.318  1.00  0.00    -0.118 A  
HETATM   22  C   UNL     1      -9.027   8.789  67.652  1.00  0.00    -0.141 A  
ENDBRANCH   8   9
ENDBRANCH   6   8
TORSDOF 2
ENDMDL
MODEL      235
REMARK 921   NORMALIZED FREE ENERGY PREDICTED BY IDOCK:   -2.68 KCAL/MOL
REMARK 922        TOTAL FREE ENERGY PREDICTED BY IDOCK:   -3.38 KCAL/MOL
REMARK 923 INTER-LIGAND FREE ENERGY PREDICTED BY IDOCK:   -4.00 KCAL/MOL
REMARK 924 INTRA-LIGAND FREE ENERGY PREDICTED BY IDOCK:    0.61 KCAL/MOL
REMARK 927      BINDING AFFINITY PREDICTED BY RF-SCORE:    0.00 PKD
ROOT
HETATM    1  C   UNL     1      -5.563  11.646  68.929  1.00  0.00    -0.049 C  
HETATM    2  N   UNL     1      -6.175  10.453  68.353  1.00  0.00    -0.047 NA 
HETATM    3  C   UNL     1      -6.251   9.333  69.294  1.00  0.00    -0.041 C  
HETATM    4  C   UNL     1      -7.318   9.516  70.374  1.00  0.00    -0.146 C  
HETATM    5  C   UNL     1      -8.684   9.812  69.764  1.00  0.00    -0.228 C  
HETATM    6  C   UNL     1      -8.626  10.979  68.754  1.00  0.00    -0.144 C  
HETATM    7  C   UNL     1      -7.481  10.739  67.749  1.00  0.00    -0.094 C  
ENDROOT
BRANCH   6   8
HETATM    8  C   UNL     1     -10.014  11.120  68.080  1.00  0.00    -0.189 C  
BRANCH   8   9
HETATM    9  C   UNL     1     -11.180  10.182  68.561  1.00  0.00    -0.226 C  
HETATM   10  C   UNL     1     -10.819   8.691  68.506  1.00  0.00     0.003 A  
HETATM   11  C   UNL     1     -10.073   8.188  67.413  1.00  0.00    -0.298 A  
HETATM   12  C   UNL     1      -9.853   6.819  67.223  1.00  0.00    -0.187 A  
HETATM   13  C   UNL     1     -10.397   5.904  68.108  1.00  0.00    -0.259 A  
HETATM   14  C   UNL     1     -11.112   6.370  69.205  1.00  0.00    -0.437 A  
HETATM   15  C   UNL     1     -11.309   7.752  69.422  1.00  0.00     0.306 A  
HETATM   16  S   UNL     1     -12.178   8.151  70.906  1.00  0.00    -0.011 SA 
HETATM   17  C   UNL     1     -12.263   9.913  70.894  1.00  0.00    -0.328 A  
HETATM   18  C   UNL     1     -12.787  10.499  72.063  1.00  0.00    -0.419 A  
HETATM   19  C   UNL     1     -12.988  11.870  72.159  1.00  0.00    -0.237 A  
HETATM   20  C   UNL     1     -12.714  12.670  71.063  1.00  0.00    -0.316 A  
HETATM   21  C   UNL     1     -12.195  12.098  69.900  1.00  0.00    -0.240 A  
HETATM   22  C   UNL     1     -11.889  10.718  69.812  1.00  0.00    -0.409 A  
ENDBRANCH   8   9
ENDBRANCH   6   8
TORSDOF 2
ENDMDL
MODEL      236
REMARK 921   NORMALIZED FREE ENERGY PREDICTED BY IDOCK:   -2.67 KCAL/MOL
REMARK 922        TOTAL FREE ENERGY PREDICTED BY IDOCK:   -3.38 KCAL/MOL
REMARK 923 INTER-LIGAND FREE ENERGY PREDICTED BY IDOCK:   -3.00 KCAL/MOL
REMARK 924 INTRA-LIGAND FREE ENERGY PREDICTED BY IDOCK:   -0.38 KCAL/MOL
REMARK 927      BINDING AFFINITY PREDICTED BY RF-SCORE:    0.00 PKD
ROOT
HETATM    1  C   UNL     1      -7.173  15.409  70.398  1.00  0.00     0.509 C  
HETATM    2  N   UNL     1      -6.018  14.941  69.639  1.00  0.00    -0.107 NA 
HETATM    3  C   UNL     1      -5.176  14.006  70.389  1.00  0.00    -0.102 C  
HETATM    4  C   UNL     1      -5.797  12.618  70.546  1.00  0.00    -0.129 C  
HETATM    5  C   UNL     1      -6.199  12.031  69.196  1.00  0.00    -0.087 C  
HETATM    6  C   UNL     1      -7.074  13.007  68.379  1.00  0.00    -0.103 C  
HETATM    7  C   UNL     1      -6.400  14.393  68.333  1.00  0.00    -0.101 C  
ENDROOT
BRANCH   6   8
HETATM    8  C   UNL     1      -7.317  12.396  66.976  1.00  0.00    -0.016 C  
BRANCH   8   9
HETATM    9  C   UNL     1      -8.713  11.738  66.677  1.00  0.00    -0.186 C  
HETATM   10  C   UNL     1      -8.666  10.204  66.648  1.00  0.00    -0.134 A  
HETATM   11  C   UNL     1      -7.565   9.545  66.048  1.00  0.00    -0.100 A  
HETATM   12  C   UNL     1      -7.541   8.161  65.846  1.00  0.00    -0.082 A  
HETATM   13  C   UNL     1      -8.631   7.391  66.213  1.00  0.00    -0.148 A  
HETATM   14  C   UNL     1      -9.714   8.007  66.829  1.00  0.00    -0.305 A  
HETATM   15  C   UNL     1      -9.732   9.399  67.068  1.00  0.00    -0.178 A  
HETATM   16  S   UNL     1     -11.160   9.984  67.924  1.00  0.00    -0.094 SA 
HETATM   17  C   UNL     1     -10.893  11.722  68.069  1.00  0.00    -0.213 A  
HETATM   18  C   UNL     1     -11.834  12.412  68.857  1.00  0.00    -0.350 A  
HETATM   19  C   UNL     1     -11.793  13.795  68.990  1.00  0.00    -0.397 A  
HETATM   20  C   UNL     1     -10.837  14.511  68.291  1.00  0.00    -0.247 A  
HETATM   21  C   UNL     1      -9.900  13.835  67.506  1.00  0.00    -0.230 A  
HETATM   22  C   UNL     1      -9.860  12.421  67.434  1.00  0.00    -0.199 A  
ENDBRANCH   8   9
ENDBRANCH   6   8
TORSDOF 2
ENDMDL
MODEL      237
REMARK 921   NORMALIZED FREE ENERGY PREDICTED BY IDOCK:   -2.56 KCAL/MOL
REMARK 922        TOTAL FREE ENERGY PREDICTED BY IDOCK:   -3.25 KCAL/MOL
REMARK 923 INTER-LIGAND FREE ENERGY PREDICTED BY IDOCK:   -4.31 KCAL/MOL
REMARK 924 INTRA-LIGAND FREE ENERGY PREDICTED BY IDOCK:    1.05 KCAL/MOL
REMARK 927      BINDING AFFINITY PREDICTED BY RF-SCORE:    0.00 PKD
ROOT
HETATM    1  C   UNL     1     -12.187  12.394  65.674  1.00  0.00    -0.250 C  
HETATM    2  N   UNL     1     -11.475  11.626  66.690  1.00  0.00    -0.467 NA 
HETATM    3  C   UNL     1     -10.906  10.377  66.175  1.00  0.00     0.081 C  
HETATM    4  C   UNL     1      -9.679  10.587  65.288  1.00  0.00    -0.328 C  
HETATM    5  C   UNL     1      -8.616  11.421  65.995  1.00  0.00    -0.094 C  
HETATM    6  C   UNL     1      -9.195  12.736  66.563  1.00  0.00    -0.190 C  
HETATM    7  C   UNL     1     -10.464  12.431  67.384  1.00  0.00    -0.215 C  
ENDROOT
BRANCH   6   8
HETATM    8  C   UNL     1      -8.091  13.451  67.381  1.00  0.00    -0.178 C  
BRANCH   8   9
HETATM    9  C   UNL     1      -8.430  14.829  68.055  1.00  0.00    -0.151 C  
HETATM   10  C   UNL     1      -7.248  15.434  68.826  1.00  0.00    -0.128 A  
HETATM   11  C   UNL     1      -6.409  14.594  69.598  1.00  0.00    -0.142 A  
HETATM   12  C   UNL     1      -5.421  15.101  70.449  1.00  0.00    -0.134 A  
HETATM   13  C   UNL     1      -5.257  16.469  70.577  1.00  0.00    -0.208 A  
HETATM   14  C   UNL     1      -6.048  17.318  69.812  1.00  0.00    -0.231 A  
HETATM   15  C   UNL     1      -7.025  16.813  68.925  1.00  0.00    -0.207 A  
HETATM   16  S   UNL     1      -7.878  18.041  67.987  1.00  0.00    -0.264 SA 
HETATM   17  C   UNL     1      -9.007  17.118  66.995  1.00  0.00    -0.230 A  
HETATM   18  C   UNL     1      -9.714  17.865  66.033  1.00  0.00    -0.142 A  
HETATM   19  C   UNL     1     -10.694  17.282  65.239  1.00  0.00    -0.019 A  
HETATM   20  C   UNL     1     -11.016  15.950  65.434  1.00  0.00    -0.293 A  
HETATM   21  C   UNL     1     -10.320  15.201  66.386  1.00  0.00    -0.292 A  
HETATM   22  C   UNL     1      -9.251  15.747  67.137  1.00  0.00    -0.224 A  
ENDBRANCH   8   9
ENDBRANCH   6   8
TORSDOF 2
ENDMDL
MODEL      238
REMARK 921   NORMALIZED FREE ENERGY PREDICTED BY IDOCK:   -2.53 KCAL/MOL
REMARK 922        TOTAL FREE ENERGY PREDICTED BY IDOCK:   -3.22 KCAL/MOL
REMARK 923 INTER-LIGAND FREE ENERGY PREDICTED BY IDOCK:   -3.16 KCAL/MOL
REMARK 924 INTRA-LIGAND FREE ENERGY PREDICTED BY IDOCK:   -0.06 KCAL/MOL
REMARK 927      BINDING AFFINITY PREDICTED BY RF-SCORE:    0.00 PKD
ROOT
HETATM    1  C   UNL     1     -11.501   7.049  70.986  1.00  0.00    -0.303 C  
HETATM    2  N   UNL     1     -10.904   7.559  69.756  1.00  0.00    -0.245 NA 
HETATM    3  C   UNL     1     -10.710   9.012  69.770  1.00  0.00    -0.225 C  
HETATM    4  C   UNL     1      -9.559   9.463  70.669  1.00  0.00    -0.331 C  
HETATM    5  C   UNL     1      -8.261   8.741  70.320  1.00  0.00    -0.120 C  
HETATM    6  C   UNL     1      -8.446   7.207  70.281  1.00  0.00    -0.138 C  
HETATM    7  C   UNL     1      -9.666   6.854  69.408  1.00  0.00    -0.157 C  
ENDROOT
BRANCH   6   8
HETATM    8  C   UNL     1      -7.128   6.563  69.785  1.00  0.00    -0.072 C  
BRANCH   8   9
HETATM    9  C   UNL     1      -7.127   5.837  68.391  1.00  0.00    -0.077 C  
HETATM   10  C   UNL     1      -7.983   4.563  68.371  1.00  0.00    -0.079 A  
HETATM   11  C   UNL     1      -7.973   3.691  69.487  1.00  0.00    -0.056 A  
HETATM   12  C   UNL     1      -8.600   2.441  69.466  1.00  0.00    -0.111 A  
HETATM   13  C   UNL     1      -9.236   2.007  68.315  1.00  0.00    -0.235 A  
HETATM   14  C   UNL     1      -9.284   2.853  67.212  1.00  0.00    -0.205 A  
HETATM   15  C   UNL     1      -8.683   4.131  67.238  1.00  0.00    -0.107 A  
HETATM   16  S   UNL     1      -8.913   5.085  65.771  1.00  0.00    -0.148 SA 
HETATM   17  C   UNL     1      -8.065   6.596  66.103  1.00  0.00    -0.118 A  
HETATM   18  C   UNL     1      -8.226   7.603  65.132  1.00  0.00    -0.130 A  
HETATM   19  C   UNL     1      -7.550   8.814  65.224  1.00  0.00    -0.091 A  
HETATM   20  C   UNL     1      -6.661   9.012  66.267  1.00  0.00    -0.066 A  
HETATM   21  C   UNL     1      -6.495   8.018  67.234  1.00  0.00    -0.057 A  
HETATM   22  C   UNL     1      -7.246   6.818  67.216  1.00  0.00    -0.085 A  
ENDBRANCH   8   9
ENDBRANCH   6   8
TORSDOF 2
ENDMDL
MODEL      239
REMARK 921   NORMALIZED FREE ENERGY PREDICTED BY IDOCK:   -2.50 KCAL/MOL
REMARK 922        TOTAL FREE ENERGY PREDICTED BY IDOCK:   -3.19 KCAL/MOL
REMARK 923 INTER-LIGAND FREE ENERGY PREDICTED BY IDOCK:   -2.64 KCAL/MOL
REMARK 924 INTRA-LIGAND FREE ENERGY PREDICTED BY IDOCK:   -0.55 KCAL/MOL
REMARK 927      BINDING AFFINITY PREDICTED BY RF-SCORE:    0.00 PKD
ROOT
HETATM    1  C   UNL     1      -9.514   6.751  72.460  1.00  0.00    -0.139 C  
HETATM    2  N   UNL     1      -9.204   8.175  72.392  1.00  0.00    -0.201 NA 
HETATM    3  C   UNL     1      -8.177   8.587  73.354  1.00  0.00     0.006 C  
HETATM    4  C   UNL     1      -6.769   8.130  72.975  1.00  0.00    -0.109 C  
HETATM    5  C   UNL     1      -6.402   8.569  71.561  1.00  0.00    -0.057 C  
HETATM    6  C   UNL     1      -7.478   8.161  70.531  1.00  0.00    -0.063 C  
HETATM    7  C   UNL     1      -8.868   8.604  71.031  1.00  0.00    -0.191 C  
ENDROOT
BRANCH   6   8
HETATM    8  C   UNL     1      -7.100   8.764  69.155  1.00  0.00    -0.063 C  
BRANCH   8   9
HETATM    9  C   UNL     1      -8.096   8.577  67.954  1.00  0.00    -0.115 C  
HETATM   10  C   UNL     1      -8.606   9.905  67.378  1.00  0.00    -0.125 A  
HETATM   11  C   UNL     1      -8.933  10.972  68.251  1.00  0.00    -0.155 A  
HETATM   12  C   UNL     1      -9.553  12.143  67.803  1.00  0.00    -0.195 A  
HETATM   13  C   UNL     1      -9.893  12.276  66.468  1.00  0.00    -0.240 A  
HETATM   14  C   UNL     1      -9.561  11.257  65.583  1.00  0.00    -0.260 A  
HETATM   15  C   UNL     1      -8.904  10.086  66.022  1.00  0.00    -0.145 A  
HETATM   16  S   UNL     1      -8.502   8.939  64.741  1.00  0.00    -0.157 SA 
HETATM   17  C   UNL     1      -7.707   7.611  65.586  1.00  0.00    -0.099 A  
HETATM   18  C   UNL     1      -7.147   6.619  64.758  1.00  0.00    -0.057 A  
HETATM   19  C   UNL     1      -6.563   5.476  65.290  1.00  0.00    -0.040 A  
HETATM   20  C   UNL     1      -6.579   5.286  66.661  1.00  0.00    -0.056 A  
HETATM   21  C   UNL     1      -7.132   6.264  67.490  1.00  0.00    -0.073 A  
HETATM   22  C   UNL     1      -7.643   7.482  66.978  1.00  0.00    -0.103 A  
ENDBRANCH   8   9
ENDBRANCH   6   8
TORSDOF 2
ENDMDL
MODEL      240
REMARK 921   NORMALIZED FREE ENERGY PREDICTED BY IDOCK:   -2.50 KCAL/MOL
REMARK 922        TOTAL FREE ENERGY PREDICTED BY IDOCK:   -3.19 KCAL/MOL
REMARK 923 INTER-LIGAND FREE ENERGY PREDICTED BY IDOCK:   -2.94 KCAL/MOL
REMARK 924 INTRA-LIGAND FREE ENERGY PREDICTED BY IDOCK:   -0.24 KCAL/MOL
REMARK 927      BINDING AFFINITY PREDICTED BY RF-SCORE:    0.00 PKD
ROOT
HETATM    1  C   UNL     1     -10.250  12.714  63.588  1.00  0.00    -0.162 C  
HETATM    2  N   UNL     1     -10.751  11.456  64.132  1.00  0.00    -0.352 NA 
HETATM    3  C   UNL     1      -9.940  10.298  63.746  1.00  0.00    -0.034 C  
HETATM    4  C   UNL     1      -8.597  10.227  64.473  1.00  0.00    -0.195 C  
HETATM    5  C   UNL     1      -8.777  10.289  65.986  1.00  0.00    -0.162 C  
HETATM    6  C   UNL     1      -9.645  11.492  66.417  1.00  0.00    -0.230 C  
HETATM    7  C   UNL     1     -10.943  11.519  65.585  1.00  0.00    -0.236 C  
ENDROOT
BRANCH   6   8
HETATM    8  C   UNL     1      -9.895  11.402  67.943  1.00  0.00    -0.188 C  
BRANCH   8   9
HETATM    9  C   UNL     1      -9.361  12.560  68.861  1.00  0.00     0.266 C  
HETATM   10  C   UNL     1      -7.987  13.091  68.428  1.00  0.00    -0.135 A  
HETATM   11  C   UNL     1      -6.992  12.187  67.983  1.00  0.00    -0.090 A  
HETATM   12  C   UNL     1      -5.675  12.588  67.731  1.00  0.00    -0.116 A  
HETATM   13  C   UNL     1      -5.303  13.905  67.942  1.00  0.00    -0.080 A  
HETATM   14  C   UNL     1      -6.265  14.820  68.353  1.00  0.00    -0.105 A  
HETATM   15  C   UNL     1      -7.604  14.430  68.576  1.00  0.00    -0.125 A  
HETATM   16  S   UNL     1      -8.693  15.746  69.023  1.00  0.00    -0.250 SA 
HETATM   17  C   UNL     1     -10.258  14.958  69.229  1.00  0.00    -0.214 A  
HETATM   18  C   UNL     1     -11.346  15.826  69.445  1.00  0.00    -0.348 A  
HETATM   19  C   UNL     1     -12.621  15.339  69.705  1.00  0.00    -0.151 A  
HETATM   20  C   UNL     1     -12.814  13.972  69.804  1.00  0.00     0.225 A  
HETATM   21  C   UNL     1     -11.741  13.103  69.592  1.00  0.00    -0.370 A  
HETATM   22  C   UNL     1     -10.455  13.572  69.228  1.00  0.00     0.108 A  
ENDBRANCH   8   9
ENDBRANCH   6   8
TORSDOF 2
ENDMDL
MODEL      241
REMARK 921   NORMALIZED FREE ENERGY PREDICTED BY IDOCK:   -2.48 KCAL/MOL
REMARK 922        TOTAL FREE ENERGY PREDICTED BY IDOCK:   -3.17 KCAL/MOL
REMARK 923 INTER-LIGAND FREE ENERGY PREDICTED BY IDOCK:   -3.44 KCAL/MOL
REMARK 924 INTRA-LIGAND FREE ENERGY PREDICTED BY IDOCK:    0.27 KCAL/MOL
REMARK 927      BINDING AFFINITY PREDICTED BY RF-SCORE:    0.00 PKD
ROOT
HETATM    1  C   UNL     1     -11.885  12.627  65.361  1.00  0.00    -0.427 C  
HETATM    2  N   UNL     1     -11.574  11.831  66.543  1.00  0.00    -0.511 NA 
HETATM    3  C   UNL     1     -10.965  10.537  66.223  1.00  0.00     0.101 C  
HETATM    4  C   UNL     1      -9.513  10.647  65.757  1.00  0.00    -0.244 C  
HETATM    5  C   UNL     1      -8.662  11.419  66.760  1.00  0.00    -0.174 C  
HETATM    6  C   UNL     1      -9.293  12.780  67.127  1.00  0.00    -0.216 C  
HETATM    7  C   UNL     1     -10.771  12.578  67.518  1.00  0.00    -0.225 C  
ENDROOT
BRANCH   6   8
HETATM    8  C   UNL     1      -8.446  13.433  68.248  1.00  0.00    -0.166 C  
BRANCH   8   9
HETATM    9  C   UNL     1      -8.832  14.876  68.736  1.00  0.00    -0.183 C  
HETATM   10  C   UNL     1      -8.434  15.978  67.744  1.00  0.00    -0.168 A  
HETATM   11  C   UNL     1      -7.192  15.899  67.067  1.00  0.00    -0.232 A  
HETATM   12  C   UNL     1      -6.702  16.946  66.279  1.00  0.00    -0.034 A  
HETATM   13  C   UNL     1      -7.426  18.120  66.164  1.00  0.00    -0.297 A  
HETATM   14  C   UNL     1      -8.660  18.216  66.796  1.00  0.00    -0.272 A  
HETATM   15  C   UNL     1      -9.178  17.150  67.565  1.00  0.00    -0.233 A  
HETATM   16  S   UNL     1     -10.789  17.432  68.229  1.00  0.00    -0.154 SA 
HETATM   17  C   UNL     1     -11.152  15.953  69.120  1.00  0.00    -0.302 A  
HETATM   18  C   UNL     1     -12.462  15.862  69.628  1.00  0.00     0.108 A  
HETATM   19  C   UNL     1     -12.861  14.791  70.419  1.00  0.00    -0.323 A  
HETATM   20  C   UNL     1     -11.934  13.819  70.754  1.00  0.00    -0.318 A  
HETATM   21  C   UNL     1     -10.632  13.901  70.254  1.00  0.00     1.013 A  
HETATM   22  C   UNL     1     -10.230  14.930  69.368  1.00  0.00    -0.180 A  
ENDBRANCH   8   9
ENDBRANCH   6   8
TORSDOF 2
ENDMDL
MODEL      242
REMARK 921   NORMALIZED FREE ENERGY PREDICTED BY IDOCK:   -2.46 KCAL/MOL
REMARK 922        TOTAL FREE ENERGY PREDICTED BY IDOCK:   -3.14 KCAL/MOL
REMARK 923 INTER-LIGAND FREE ENERGY PREDICTED BY IDOCK:   -3.83 KCAL/MOL
REMARK 924 INTRA-LIGAND FREE ENERGY PREDICTED BY IDOCK:    0.69 KCAL/MOL
REMARK 927      BINDING AFFINITY PREDICTED BY RF-SCORE:    0.00 PKD
ROOT
HETATM    1  C   UNL     1     -11.829  12.868  67.496  1.00  0.00    -0.351 C  
HETATM    2  N   UNL     1     -11.518  11.690  66.692  1.00  0.00    -0.467 NA 
HETATM    3  C   UNL     1     -10.321  11.858  65.864  1.00  0.00    -0.242 C  
HETATM    4  C   UNL     1      -9.017  11.817  66.662  1.00  0.00    -0.195 C  
HETATM    5  C   UNL     1      -8.923  10.553  67.511  1.00  0.00    -0.137 C  
HETATM    6  C   UNL     1     -10.182  10.345  68.381  1.00  0.00    -0.186 C  
HETATM    7  C   UNL     1     -11.444  10.471  67.504  1.00  0.00     0.082 C  
ENDROOT
BRANCH   6   8
HETATM    8  C   UNL     1     -10.067   8.978  69.100  1.00  0.00    -0.201 C  
BRANCH   8   9
HETATM    9  C   UNL     1      -9.602   8.956  70.601  1.00  0.00    -0.262 C  
HETATM   10  C   UNL     1     -10.038   7.690  71.352  1.00  0.00    -0.204 A  
HETATM   11  C   UNL     1     -11.328   7.149  71.128  1.00  0.00    -0.306 A  
HETATM   12  C   UNL     1     -11.842   6.098  71.896  1.00  0.00    -0.316 A  
HETATM   13  C   UNL     1     -11.093   5.572  72.934  1.00  0.00    -0.349 A  
HETATM   14  C   UNL     1      -9.813   6.065  73.160  1.00  0.00    -0.175 A  
HETATM   15  C   UNL     1      -9.273   7.102  72.366  1.00  0.00    -0.134 A  
HETATM   16  S   UNL     1      -7.609   7.543  72.758  1.00  0.00    -0.093 SA 
HETATM   17  C   UNL     1      -7.228   8.836  71.620  1.00  0.00    -0.071 A  
HETATM   18  C   UNL     1      -5.887   9.267  71.626  1.00  0.00    -0.070 A  
HETATM   19  C   UNL     1      -5.465  10.333  70.841  1.00  0.00    -0.081 A  
HETATM   20  C   UNL     1      -6.395  11.016  70.075  1.00  0.00    -0.146 A  
HETATM   21  C   UNL     1      -7.727  10.595  70.063  1.00  0.00     0.234 A  
HETATM   22  C   UNL     1      -8.160   9.452  70.778  1.00  0.00    -0.157 A  
ENDBRANCH   8   9
ENDBRANCH   6   8
TORSDOF 2
ENDMDL
MODEL      243
REMARK 921   NORMALIZED FREE ENERGY PREDICTED BY IDOCK:   -2.40 KCAL/MOL
REMARK 922        TOTAL FREE ENERGY PREDICTED BY IDOCK:   -3.07 KCAL/MOL
REMARK 923 INTER-LIGAND FREE ENERGY PREDICTED BY IDOCK:   -3.70 KCAL/MOL
REMARK 924 INTRA-LIGAND FREE ENERGY PREDICTED BY IDOCK:    0.63 KCAL/MOL
REMARK 927      BINDING AFFINITY PREDICTED BY RF-SCORE:    0.00 PKD
ROOT
HETATM    1  C   UNL     1     -10.087   8.990  66.442  1.00  0.00    -0.281 C  
HETATM    2  N   UNL     1     -10.499   8.174  67.579  1.00  0.00    -0.258 NA 
HETATM    3  C   UNL     1     -10.962   6.839  67.192  1.00  0.00    -0.388 C  
HETATM    4  C   UNL     1      -9.832   5.902  66.765  1.00  0.00    -0.191 C  
HETATM    5  C   UNL     1      -8.745   5.816  67.832  1.00  0.00    -0.103 C  
HETATM    6  C   UNL     1      -8.253   7.214  68.270  1.00  0.00    -0.124 C  
HETATM    7  C   UNL     1      -9.463   8.105  68.615  1.00  0.00    -0.147 C  
ENDROOT
BRANCH   6   8
HETATM    8  C   UNL     1      -7.261   7.042  69.447  1.00  0.00    -0.085 C  
BRANCH   8   9
HETATM    9  C   UNL     1      -7.699   6.168  70.677  1.00  0.00    -0.105 C  
HETATM   10  C   UNL     1      -8.962   6.694  71.375  1.00  0.00    -0.139 A  
HETATM   11  C   UNL     1      -9.137   8.088  71.553  1.00  0.00    -0.182 A  
HETATM   12  C   UNL     1     -10.180   8.619  72.320  1.00  0.00    -0.372 A  
HETATM   13  C   UNL     1     -11.067   7.770  72.960  1.00  0.00    -0.419 A  
HETATM   14  C   UNL     1     -10.935   6.398  72.781  1.00  0.00    -0.289 A  
HETATM   15  C   UNL     1      -9.906   5.856  71.980  1.00  0.00    -0.157 A  
HETATM   16  S   UNL     1      -9.945   4.098  71.815  1.00  0.00    -0.149 SA 
HETATM   17  C   UNL     1      -8.565   3.732  70.780  1.00  0.00    -0.071 A  
HETATM   18  C   UNL     1      -8.460   2.389  70.369  1.00  0.00    -0.086 A  
HETATM   19  C   UNL     1      -7.378   1.943  69.619  1.00  0.00    -0.039 A  
HETATM   20  C   UNL     1      -6.358   2.828  69.315  1.00  0.00    -0.029 A  
HETATM   21  C   UNL     1      -6.454   4.162  69.719  1.00  0.00    -0.032 A  
HETATM   22  C   UNL     1      -7.591   4.662  70.397  1.00  0.00    -0.054 A  
ENDBRANCH   8   9
ENDBRANCH   6   8
TORSDOF 2
ENDMDL
MODEL      244
REMARK 921   NORMALIZED FREE ENERGY PREDICTED BY IDOCK:   -2.38 KCAL/MOL
REMARK 922        TOTAL FREE ENERGY PREDICTED BY IDOCK:   -3.05 KCAL/MOL
REMARK 923 INTER-LIGAND FREE ENERGY PREDICTED BY IDOCK:   -3.40 KCAL/MOL
REMARK 924 INTRA-LIGAND FREE ENERGY PREDICTED BY IDOCK:    0.35 KCAL/MOL
REMARK 927      BINDING AFFINITY PREDICTED BY RF-SCORE:    0.00 PKD
ROOT
HETATM    1  C   UNL     1      -5.328   7.693  72.667  1.00  0.00    -0.036 C  
HETATM    2  N   UNL     1      -6.417   6.772  72.356  1.00  0.00    -0.057 NA 
HETATM    3  C   UNL     1      -6.998   6.144  73.545  1.00  0.00    -0.080 C  
HETATM    4  C   UNL     1      -7.865   7.093  74.373  1.00  0.00    -0.153 C  
HETATM    5  C   UNL     1      -8.944   7.751  73.519  1.00  0.00    -0.327 C  
HETATM    6  C   UNL     1      -8.357   8.406  72.248  1.00  0.00    -0.218 C  
HETATM    7  C   UNL     1      -7.447   7.397  71.519  1.00  0.00    -0.080 C  
ENDROOT
BRANCH   6   8
HETATM    8  C   UNL     1      -9.526   8.923  71.373  1.00  0.00    -0.344 C  
BRANCH   8   9
HETATM    9  C   UNL     1      -9.652   8.390  69.900  1.00  0.00    -0.171 C  
HETATM   10  C   UNL     1      -8.746   9.133  68.907  1.00  0.00    -0.132 A  
HETATM   11  C   UNL     1      -8.590  10.537  69.013  1.00  0.00    -0.160 A  
HETATM   12  C   UNL     1      -7.912  11.289  68.048  1.00  0.00    -0.119 A  
HETATM   13  C   UNL     1      -7.392  10.665  66.927  1.00  0.00    -0.114 A  
HETATM   14  C   UNL     1      -7.508   9.285  66.809  1.00  0.00    -0.087 A  
HETATM   15  C   UNL     1      -8.160   8.514  67.797  1.00  0.00    -0.115 A  
HETATM   16  S   UNL     1      -8.143   6.772  67.507  1.00  0.00    -0.116 SA 
HETATM   17  C   UNL     1      -9.016   6.098  68.884  1.00  0.00    -0.124 A  
HETATM   18  C   UNL     1      -9.013   4.693  68.969  1.00  0.00    -0.149 A  
HETATM   19  C   UNL     1      -9.729   4.025  69.955  1.00  0.00    -0.264 A  
HETATM   20  C   UNL     1     -10.501   4.757  70.840  1.00  0.00    -0.107 A  
HETATM   21  C   UNL     1     -10.510   6.152  70.763  1.00  0.00    -0.285 A  
HETATM   22  C   UNL     1      -9.712   6.858  69.831  1.00  0.00    -0.165 A  
ENDBRANCH   8   9
ENDBRANCH   6   8
TORSDOF 2
ENDMDL
MODEL      245
REMARK 921   NORMALIZED FREE ENERGY PREDICTED BY IDOCK:   -2.21 KCAL/MOL
REMARK 922        TOTAL FREE ENERGY PREDICTED BY IDOCK:   -2.86 KCAL/MOL
REMARK 923 INTER-LIGAND FREE ENERGY PREDICTED BY IDOCK:   -3.78 KCAL/MOL
REMARK 924 INTRA-LIGAND FREE ENERGY PREDICTED BY IDOCK:    0.92 KCAL/MOL
REMARK 927      BINDING AFFINITY PREDICTED BY RF-SCORE:    0.00 PKD
ROOT
HETATM    1  C   UNL     1      -6.094  17.910  66.591  1.00  0.00    -0.168 C  
HETATM    2  N   UNL     1      -7.181  17.618  67.518  1.00  0.00    -0.179 NA 
HETATM    3  C   UNL     1      -8.504  17.672  66.890  1.00  0.00    -0.241 C  
HETATM    4  C   UNL     1      -8.792  16.482  65.975  1.00  0.00    -0.267 C  
HETATM    5  C   UNL     1      -8.585  15.156  66.701  1.00  0.00    -0.279 C  
HETATM    6  C   UNL     1      -7.203  15.083  67.387  1.00  0.00    -0.224 C  
HETATM    7  C   UNL     1      -6.975  16.353  68.231  1.00  0.00    -0.137 C  
ENDROOT
BRANCH   6   8
HETATM    8  C   UNL     1      -7.129  13.775  68.213  1.00  0.00    -0.109 C  
BRANCH   8   9
HETATM    9  C   UNL     1      -8.226  12.674  67.974  1.00  0.00    -0.167 C  
HETATM   10  C   UNL     1      -9.659  13.207  68.112  1.00  0.00    -0.227 A  
HETATM   11  C   UNL     1      -9.969  14.133  69.138  1.00  0.00     0.015 A  
HETATM   12  C   UNL     1     -11.282  14.529  69.417  1.00  0.00    -0.312 A  
HETATM   13  C   UNL     1     -12.333  13.990  68.695  1.00  0.00    -0.043 A  
HETATM   14  C   UNL     1     -12.056  13.099  67.664  1.00  0.00    -0.281 A  
HETATM   15  C   UNL     1     -10.731  12.721  67.354  1.00  0.00    -0.230 A  
HETATM   16  S   UNL     1     -10.576  11.639  65.968  1.00  0.00    -0.265 SA 
HETATM   17  C   UNL     1      -8.840  11.354  65.836  1.00  0.00    -0.145 A  
HETATM   18  C   UNL     1      -8.434  10.629  64.699  1.00  0.00    -0.088 A  
HETATM   19  C   UNL     1      -7.107  10.263  64.510  1.00  0.00    -0.072 A  
HETATM   20  C   UNL     1      -6.175  10.574  65.486  1.00  0.00    -0.118 A  
HETATM   21  C   UNL     1      -6.570  11.292  66.617  1.00  0.00    -0.135 A  
HETATM   22  C   UNL     1      -7.895  11.762  66.785  1.00  0.00    -0.103 A  
ENDBRANCH   8   9
ENDBRANCH   6   8
TORSDOF 2
ENDMDL
MODEL      246
REMARK 921   NORMALIZED FREE ENERGY PREDICTED BY IDOCK:   -2.16 KCAL/MOL
REMARK 922        TOTAL FREE ENERGY PREDICTED BY IDOCK:   -2.81 KCAL/MOL
REMARK 923 INTER-LIGAND FREE ENERGY PREDICTED BY IDOCK:   -2.80 KCAL/MOL
REMARK 924 INTRA-LIGAND FREE ENERGY PREDICTED BY IDOCK:   -0.01 KCAL/MOL
REMARK 927      BINDING AFFINITY PREDICTED BY RF-SCORE:    0.00 PKD
ROOT
HETATM    1  C   UNL     1      -6.852   8.955  71.954  1.00  0.00    -0.001 C  
HETATM    2  N   UNL     1      -7.449   9.431  70.712  1.00  0.00    -0.212 NA 
HETATM    3  C   UNL     1      -6.872  10.694  70.242  1.00  0.00    -0.038 C  
HETATM    4  C   UNL     1      -5.467  10.541  69.659  1.00  0.00    -0.038 C  
HETATM    5  C   UNL     1      -5.430   9.481  68.563  1.00  0.00    -0.040 C  
HETATM    6  C   UNL     1      -6.050   8.145  69.029  1.00  0.00    -0.039 C  
HETATM    7  C   UNL     1      -7.431   8.408  69.661  1.00  0.00    -0.073 C  
ENDROOT
BRANCH   6   8
HETATM    8  C   UNL     1      -6.101   7.176  67.822  1.00  0.00    -0.034 C  
BRANCH   8   9
HETATM    9  C   UNL     1      -7.504   6.673  67.322  1.00  0.00    -0.092 C  
HETATM   10  C   UNL     1      -8.247   5.820  68.361  1.00  0.00    -0.108 A  
HETATM   11  C   UNL     1      -7.530   4.881  69.141  1.00  0.00    -0.053 A  
HETATM   12  C   UNL     1      -8.169   3.965  69.984  1.00  0.00    -0.071 A  
HETATM   13  C   UNL     1      -9.551   3.939  70.052  1.00  0.00    -0.269 A  
HETATM   14  C   UNL     1     -10.280   4.867  69.317  1.00  0.00    -0.205 A  
HETATM   15  C   UNL     1      -9.641   5.817  68.491  1.00  0.00    -0.126 A  
HETATM   16  S   UNL     1     -10.729   6.957  67.695  1.00  0.00    -0.278 SA 
HETATM   17  C   UNL     1      -9.655   7.993  66.755  1.00  0.00    -0.216 A  
HETATM   18  C   UNL     1     -10.273   9.096  66.135  1.00  0.00    -0.189 A  
HETATM   19  C   UNL     1      -9.563   9.949  65.298  1.00  0.00    -0.361 A  
HETATM   20  C   UNL     1      -8.232   9.677  65.030  1.00  0.00    -0.137 A  
HETATM   21  C   UNL     1      -7.611   8.585  65.641  1.00  0.00    -0.090 A  
HETATM   22  C   UNL     1      -8.287   7.761  66.574  1.00  0.00    -0.128 A  
ENDBRANCH   8   9
ENDBRANCH   6   8
TORSDOF 2
ENDMDL
MODEL      247
REMARK 921   NORMALIZED FREE ENERGY PREDICTED BY IDOCK:   -2.14 KCAL/MOL
REMARK 922        TOTAL FREE ENERGY PREDICTED BY IDOCK:   -2.79 KCAL/MOL
REMARK 923 INTER-LIGAND FREE ENERGY PREDICTED BY IDOCK:   -2.17 KCAL/MOL
REMARK 924 INTRA-LIGAND FREE ENERGY PREDICTED BY IDOCK:   -0.62 KCAL/MOL
REMARK 927      BINDING AFFINITY PREDICTED BY RF-SCORE:    0.00 PKD
ROOT
HETATM    1  C   UNL     1     -13.542  15.126  69.500  1.00  0.00     2.001 C  
HETATM    2  N   UNL     1     -12.341  14.940  70.307  1.00  0.00    -0.329 NA 
HETATM    3  C   UNL     1     -12.629  14.509  71.678  1.00  0.00    -0.348 C  
HETATM    4  C   UNL     1     -13.077  13.051  71.776  1.00  0.00    -0.469 C  
HETATM    5  C   UNL     1     -12.077  12.113  71.106  1.00  0.00     0.085 C  
HETATM    6  C   UNL     1     -11.743  12.558  69.665  1.00  0.00    -0.372 C  
HETATM    7  C   UNL     1     -11.370  14.054  69.657  1.00  0.00    -0.214 C  
ENDROOT
BRANCH   6   8
HETATM    8  C   UNL     1     -10.623  11.642  69.112  1.00  0.00    -0.147 C  
BRANCH   8   9
HETATM    9  C   UNL     1     -10.988  10.604  67.990  1.00  0.00    -0.336 C  
HETATM   10  C   UNL     1     -10.332  10.918  66.638  1.00  0.00    -0.289 A  
HETATM   11  C   UNL     1     -10.247  12.260  66.192  1.00  0.00    -0.263 A  
HETATM   12  C   UNL     1      -9.811  12.595  64.905  1.00  0.00    -0.078 A  
HETATM   13  C   UNL     1      -9.471  11.595  64.010  1.00  0.00    -0.072 A  
HETATM   14  C   UNL     1      -9.519  10.270  64.429  1.00  0.00    -0.360 A  
HETATM   15  C   UNL     1      -9.925   9.926  65.737  1.00  0.00    -0.277 A  
HETATM   16  S   UNL     1      -9.852   8.201  66.104  1.00  0.00     0.107 SA 
HETATM   17  C   UNL     1     -10.408   8.092  67.775  1.00  0.00    -0.233 A  
HETATM   18  C   UNL     1     -10.300   6.818  68.364  1.00  0.00    -0.214 A  
HETATM   19  C   UNL     1     -10.777   6.569  69.645  1.00  0.00    -0.323 A  
HETATM   20  C   UNL     1     -11.415   7.584  70.336  1.00  0.00    -0.219 A  
HETATM   21  C   UNL     1     -11.527   8.852  69.760  1.00  0.00     0.180 A  
HETATM   22  C   UNL     1     -10.963   9.155  68.497  1.00  0.00     0.003 A  
ENDBRANCH   8   9
ENDBRANCH   6   8
TORSDOF 2
ENDMDL
MODEL      248
REMARK 921   NORMALIZED FREE ENERGY PREDICTED BY IDOCK:   -2.04 KCAL/MOL
REMARK 922        TOTAL FREE ENERGY PREDICTED BY IDOCK:   -2.68 KCAL/MOL
REMARK 923 INTER-LIGAND FREE ENERGY PREDICTED BY IDOCK:   -2.80 KCAL/MOL
REMARK 924 INTRA-LIGAND FREE ENERGY PREDICTED BY IDOCK:    0.13 KCAL/MOL
REMARK 927      BINDING AFFINITY PREDICTED BY RF-SCORE:    0.00 PKD
ROOT
HETATM    1  C   UNL     1      -9.551  11.773  66.851  1.00  0.00    -0.193 C  
HETATM    2  N   UNL     1      -9.076  10.883  67.905  1.00  0.00    -0.146 NA 
HETATM    3  C   UNL     1      -9.792  11.058  69.172  1.00  0.00    -0.096 C  
HETATM    4  C   UNL     1     -11.211  10.490  69.153  1.00  0.00    -0.314 C  
HETATM    5  C   UNL     1     -11.221   9.029  68.716  1.00  0.00     0.277 C  
HETATM    6  C   UNL     1     -10.457   8.816  67.391  1.00  0.00    -0.349 C  
HETATM    7  C   UNL     1      -9.068   9.479  67.481  1.00  0.00    -0.130 C  
ENDROOT
BRANCH   6   8
HETATM    8  C   UNL     1     -10.394   7.297  67.094  1.00  0.00    -0.367 C  
BRANCH   8   9
HETATM    9  C   UNL     1      -9.150   6.484  67.604  1.00  0.00    -0.112 C  
HETATM   10  C   UNL     1      -7.871   6.767  66.803  1.00  0.00    -0.107 A  
HETATM   11  C   UNL     1      -7.940   6.913  65.396  1.00  0.00    -0.125 A  
HETATM   12  C   UNL     1      -6.796   7.010  64.596  1.00  0.00    -0.050 A  
HETATM   13  C   UNL     1      -5.541   6.935  65.176  1.00  0.00    -0.031 A  
HETATM   14  C   UNL     1      -5.443   6.818  66.557  1.00  0.00    -0.018 A  
HETATM   15  C   UNL     1      -6.593   6.755  67.375  1.00  0.00    -0.054 A  
HETATM   16  S   UNL     1      -6.265   6.682  69.108  1.00  0.00    -0.031 SA 
HETATM   17  C   UNL     1      -7.866   6.612  69.846  1.00  0.00    -0.115 A  
HETATM   18  C   UNL     1      -7.885   6.699  71.251  1.00  0.00    -0.102 A  
HETATM   19  C   UNL     1      -9.069   6.575  71.969  1.00  0.00    -0.140 A  
HETATM   20  C   UNL     1     -10.245   6.311  71.289  1.00  0.00    -0.238 A  
HETATM   21  C   UNL     1     -10.235   6.224  69.895  1.00  0.00    -0.232 A  
HETATM   22  C   UNL     1      -9.060   6.444  69.136  1.00  0.00    -0.131 A  
ENDBRANCH   8   9
ENDBRANCH   6   8
TORSDOF 2
ENDMDL
MODEL      249
REMARK 921   NORMALIZED FREE ENERGY PREDICTED BY IDOCK:   -2.03 KCAL/MOL
REMARK 922        TOTAL FREE ENERGY PREDICTED BY IDOCK:   -2.66 KCAL/MOL
REMARK 923 INTER-LIGAND FREE ENERGY PREDICTED BY IDOCK:   -2.45 KCAL/MOL
REMARK 924 INTRA-LIGAND FREE ENERGY PREDICTED BY IDOCK:   -0.21 KCAL/MOL
REMARK 927      BINDING AFFINITY PREDICTED BY RF-SCORE:    0.00 PKD
ROOT
HETATM    1  C   UNL     1      -9.875   8.291  68.689  1.00  0.00    -0.176 C  
HETATM    2  N   UNL     1     -10.096   8.246  67.248  1.00  0.00    -0.221 NA 
HETATM    3  C   UNL     1     -10.062   9.569  66.618  1.00  0.00    -0.252 C  
HETATM    4  C   UNL     1      -8.655  10.157  66.513  1.00  0.00    -0.132 C  
HETATM    5  C   UNL     1      -7.698   9.194  65.817  1.00  0.00    -0.094 C  
HETATM    6  C   UNL     1      -7.730   7.787  66.452  1.00  0.00    -0.093 C  
HETATM    7  C   UNL     1      -9.190   7.307  66.578  1.00  0.00    -0.157 C  
ENDROOT
BRANCH   6   8
HETATM    8  C   UNL     1      -6.844   6.841  65.604  1.00  0.00    -0.055 C  
BRANCH   8   9
HETATM    9  C   UNL     1      -7.032   5.289  65.768  1.00  0.00    -0.066 C  
HETATM   10  C   UNL     1      -7.066   4.834  67.233  1.00  0.00    -0.069 A  
HETATM   11  C   UNL     1      -6.183   5.420  68.172  1.00  0.00    -0.034 A  
HETATM   12  C   UNL     1      -6.052   4.938  69.479  1.00  0.00    -0.018 A  
HETATM   13  C   UNL     1      -6.782   3.833  69.883  1.00  0.00    -0.034 A  
HETATM   14  C   UNL     1      -7.676   3.253  68.991  1.00  0.00    -0.051 A  
HETATM   15  C   UNL     1      -7.839   3.756  67.681  1.00  0.00    -0.081 A  
HETATM   16  S   UNL     1      -9.072   2.934  66.722  1.00  0.00    -0.127 SA 
HETATM   17  C   UNL     1      -9.039   3.771  65.170  1.00  0.00    -0.142 A  
HETATM   18  C   UNL     1     -10.049   3.397  64.262  1.00  0.00    -0.176 A  
HETATM   19  C   UNL     1     -10.094   3.916  62.973  1.00  0.00    -0.169 A  
HETATM   20  C   UNL     1      -9.095   4.779  62.559  1.00  0.00    -0.095 A  
HETATM   21  C   UNL     1      -8.089   5.155  63.453  1.00  0.00    -0.107 A  
HETATM   22  C   UNL     1      -8.078   4.718  64.799  1.00  0.00    -0.106 A  
ENDBRANCH   8   9
ENDBRANCH   6   8
TORSDOF 2
ENDMDL
MODEL      250
REMARK 921   NORMALIZED FREE ENERGY PREDICTED BY IDOCK:   -2.02 KCAL/MOL
REMARK 922        TOTAL FREE ENERGY PREDICTED BY IDOCK:   -2.65 KCAL/MOL
REMARK 923 INTER-LIGAND FREE ENERGY PREDICTED BY IDOCK:   -2.35 KCAL/MOL
REMARK 924 INTRA-LIGAND FREE ENERGY PREDICTED BY IDOCK:   -0.30 KCAL/MOL
REMARK 927      BINDING AFFINITY PREDICTED BY RF-SCORE:    0.00 PKD
ROOT
HETATM    1  C   UNL     1      -8.145   7.139  70.649  1.00  0.00    -0.113 C  
HETATM    2  N   UNL     1      -8.631   5.778  70.850  1.00  0.00    -0.128 NA 
HETATM    3  C   UNL     1     -10.093   5.689  70.896  1.00  0.00    -0.203 C  
HETATM    4  C   UNL     1     -10.756   5.861  69.529  1.00  0.00    -0.414 C  
HETATM    5  C   UNL     1     -10.180   4.891  68.503  1.00  0.00    -0.105 C  
HETATM    6  C   UNL     1      -8.637   4.953  68.450  1.00  0.00    -0.101 C  
HETATM    7  C   UNL     1      -8.064   4.839  69.877  1.00  0.00    -0.069 C  
ENDROOT
BRANCH   6   8
HETATM    8  C   UNL     1      -8.130   3.845  67.493  1.00  0.00    -0.090 C  
BRANCH   8   9
HETATM    9  C   UNL     1      -7.623   4.261  66.065  1.00  0.00    -0.089 C  
HETATM   10  C   UNL     1      -8.567   3.824  64.936  1.00  0.00    -0.113 A  
HETATM   11  C   UNL     1      -9.188   2.552  64.992  1.00  0.00    -0.128 A  
HETATM   12  C   UNL     1      -9.926   2.032  63.923  1.00  0.00    -0.111 A  
HETATM   13  C   UNL     1     -10.044   2.757  62.749  1.00  0.00    -0.103 A  
HETATM   14  C   UNL     1      -9.467   4.019  62.675  1.00  0.00    -0.123 A  
HETATM   15  C   UNL     1      -8.750   4.566  63.763  1.00  0.00    -0.139 A  
HETATM   16  S   UNL     1      -8.154   6.208  63.506  1.00  0.00    -0.013 SA 
HETATM   17  C   UNL     1      -7.319   6.603  65.009  1.00  0.00    -0.082 A  
HETATM   18  C   UNL     1      -6.875   7.934  65.119  1.00  0.00    -0.051 A  
HETATM   19  C   UNL     1      -6.131   8.362  66.212  1.00  0.00    -0.048 A  
HETATM   20  C   UNL     1      -5.778   7.446  67.188  1.00  0.00    -0.030 A  
HETATM   21  C   UNL     1      -6.215   6.123  67.087  1.00  0.00    -0.029 A  
HETATM   22  C   UNL     1      -7.055   5.687  66.034  1.00  0.00    -0.068 A  
ENDBRANCH   8   9
ENDBRANCH   6   8
TORSDOF 2
ENDMDL
MODEL      251
REMARK 921   NORMALIZED FREE ENERGY PREDICTED BY IDOCK:   -1.98 KCAL/MOL
REMARK 922        TOTAL FREE ENERGY PREDICTED BY IDOCK:   -2.60 KCAL/MOL
REMARK 923 INTER-LIGAND FREE ENERGY PREDICTED BY IDOCK:   -2.62 KCAL/MOL
REMARK 924 INTRA-LIGAND FREE ENERGY PREDICTED BY IDOCK:    0.02 KCAL/MOL
REMARK 927      BINDING AFFINITY PREDICTED BY RF-SCORE:    0.00 PKD
ROOT
HETATM    1  C   UNL     1      -6.638   8.989  71.881  1.00  0.00     0.025 C  
HETATM    2  N   UNL     1      -6.437   7.550  71.752  1.00  0.00    -0.042 NA 
HETATM    3  C   UNL     1      -5.745   6.960  72.901  1.00  0.00    -0.042 C  
HETATM    4  C   UNL     1      -6.619   6.856  74.150  1.00  0.00    -0.078 C  
HETATM    5  C   UNL     1      -7.923   6.119  73.860  1.00  0.00    -0.100 C  
HETATM    6  C   UNL     1      -8.663   6.713  72.640  1.00  0.00    -0.127 C  
HETATM    7  C   UNL     1      -7.686   6.841  71.454  1.00  0.00    -0.093 C  
ENDROOT
BRANCH   6   8
HETATM    8  C   UNL     1      -9.894   5.826  72.329  1.00  0.00    -0.185 C  
BRANCH   8   9
HETATM    9  C   UNL     1      -9.772   4.746  71.194  1.00  0.00    -0.249 C  
HETATM   10  C   UNL     1      -9.785   5.347  69.781  1.00  0.00    -0.248 A  
HETATM   11  C   UNL     1     -10.662   6.418  69.481  1.00  0.00    -0.347 A  
HETATM   12  C   UNL     1     -10.837   6.899  68.179  1.00  0.00    -0.258 A  
HETATM   13  C   UNL     1     -10.161   6.305  67.127  1.00  0.00    -0.247 A  
HETATM   14  C   UNL     1      -9.275   5.268  67.396  1.00  0.00    -0.116 A  
HETATM   15  C   UNL     1      -9.066   4.800  68.712  1.00  0.00    -0.112 A  
HETATM   16  S   UNL     1      -7.849   3.529  68.861  1.00  0.00    -0.050 SA 
HETATM   17  C   UNL     1      -7.818   3.163  70.586  1.00  0.00    -0.043 A  
HETATM   18  C   UNL     1      -6.807   2.272  70.994  1.00  0.00    -0.032 A  
HETATM   19  C   UNL     1      -6.717   1.832  72.309  1.00  0.00    -0.015 A  
HETATM   20  C   UNL     1      -7.672   2.241  73.224  1.00  0.00    -0.042 A  
HETATM   21  C   UNL     1      -8.678   3.125  72.828  1.00  0.00    -0.091 A  
HETATM   22  C   UNL     1      -8.733   3.664  71.520  1.00  0.00    -0.129 A  
ENDBRANCH   8   9
ENDBRANCH   6   8
TORSDOF 2
ENDMDL
MODEL      252
REMARK 921   NORMALIZED FREE ENERGY PREDICTED BY IDOCK:   -1.92 KCAL/MOL
REMARK 922        TOTAL FREE ENERGY PREDICTED BY IDOCK:   -2.54 KCAL/MOL
REMARK 923 INTER-LIGAND FREE ENERGY PREDICTED BY IDOCK:   -2.92 KCAL/MOL
REMARK 924 INTRA-LIGAND FREE ENERGY PREDICTED BY IDOCK:    0.38 KCAL/MOL
REMARK 927      BINDING AFFINITY PREDICTED BY RF-SCORE:    0.00 PKD
ROOT
HETATM    1  C   UNL     1     -10.185   2.649  72.160  1.00  0.00    -0.093 C  
HETATM    2  N   UNL     1     -10.503   3.868  72.896  1.00  0.00    -0.170 NA 
HETATM    3  C   UNL     1      -9.663   4.062  74.081  1.00  0.00    -0.116 C  
HETATM    4  C   UNL     1      -8.230   4.481  73.749  1.00  0.00    -0.105 C  
HETATM    5  C   UNL     1      -8.203   5.715  72.852  1.00  0.00    -0.119 C  
HETATM    6  C   UNL     1      -9.097   5.542  71.604  1.00  0.00    -0.155 C  
HETATM    7  C   UNL     1     -10.496   5.054  72.032  1.00  0.00    -0.203 C  
ENDROOT
BRANCH   6   8
HETATM    8  C   UNL     1      -9.125   6.881  70.826  1.00  0.00    -0.154 C  
BRANCH   8   9
HETATM    9  C   UNL     1      -8.372   6.964  69.450  1.00  0.00    -0.132 C  
HETATM   10  C   UNL     1      -8.275   5.612  68.729  1.00  0.00    -0.103 A  
HETATM   11  C   UNL     1      -8.010   4.436  69.473  1.00  0.00    -0.060 A  
HETATM   12  C   UNL     1      -7.750   3.206  68.860  1.00  0.00    -0.050 A  
HETATM   13  C   UNL     1      -7.718   3.116  67.479  1.00  0.00    -0.076 A  
HETATM   14  C   UNL     1      -8.000   4.248  66.723  1.00  0.00    -0.098 A  
HETATM   15  C   UNL     1      -8.298   5.486  67.335  1.00  0.00    -0.103 A  
HETATM   16  S   UNL     1      -8.700   6.788  66.212  1.00  0.00    -0.148 SA 
HETATM   17  C   UNL     1      -9.016   8.174  67.256  1.00  0.00    -0.137 A  
HETATM   18  C   UNL     1      -9.511   9.320  66.603  1.00  0.00    -0.246 A  
HETATM   19  C   UNL     1      -9.725  10.509  67.288  1.00  0.00    -0.197 A  
HETATM   20  C   UNL     1      -9.398  10.582  68.631  1.00  0.00    -0.172 A  
HETATM   21  C   UNL     1      -8.906   9.451  69.287  1.00  0.00    -0.150 A  
HETATM   22  C   UNL     1      -8.772   8.202  68.634  1.00  0.00    -0.134 A  
ENDBRANCH   8   9
ENDBRANCH   6   8
TORSDOF 2
ENDMDL
MODEL      253
REMARK 921   NORMALIZED FREE ENERGY PREDICTED BY IDOCK:   -1.91 KCAL/MOL
REMARK 922        TOTAL FREE ENERGY PREDICTED BY IDOCK:   -2.53 KCAL/MOL
REMARK 923 INTER-LIGAND FREE ENERGY PREDICTED BY IDOCK:   -3.17 KCAL/MOL
REMARK 924 INTRA-LIGAND FREE ENERGY PREDICTED BY IDOCK:    0.64 KCAL/MOL
REMARK 927      BINDING AFFINITY PREDICTED BY RF-SCORE:    0.00 PKD
ROOT
HETATM    1  C   UNL     1     -11.928  12.213  64.946  1.00  0.00    -0.290 C  
HETATM    2  N   UNL     1     -10.544  11.792  64.758  1.00  0.00    -0.286 NA 
HETATM    3  C   UNL     1      -9.593  12.557  65.569  1.00  0.00    -0.043 C  
HETATM    4  C   UNL     1      -9.635  12.199  67.055  1.00  0.00    -0.207 C  
HETATM    5  C   UNL     1      -9.458  10.700  67.273  1.00  0.00    -0.178 C  
HETATM    6  C   UNL     1     -10.438   9.871  66.414  1.00  0.00    -0.197 C  
HETATM    7  C   UNL     1     -10.374  10.347  64.949  1.00  0.00    -0.168 C  
ENDROOT
BRANCH   6   8
HETATM    8  C   UNL     1     -10.100   8.370  66.587  1.00  0.00    -0.358 C  
BRANCH   8   9
HETATM    9  C   UNL     1      -8.707   7.981  67.202  1.00  0.00    -0.134 C  
HETATM   10  C   UNL     1      -7.532   8.739  66.568  1.00  0.00    -0.085 A  
HETATM   11  C   UNL     1      -7.513   8.965  65.171  1.00  0.00    -0.097 A  
HETATM   12  C   UNL     1      -6.401   9.502  64.514  1.00  0.00    -0.089 A  
HETATM   13  C   UNL     1      -5.256   9.805  65.232  1.00  0.00    -0.046 A  
HETATM   14  C   UNL     1      -5.255   9.618  66.609  1.00  0.00    -0.044 A  
HETATM   15  C   UNL     1      -6.386   9.109  67.283  1.00  0.00    -0.059 A  
HETATM   16  S   UNL     1      -6.219   9.010  69.038  1.00  0.00    -0.043 SA 
HETATM   17  C   UNL     1      -7.762   8.351  69.582  1.00  0.00    -0.095 A  
HETATM   18  C   UNL     1      -7.943   8.313  70.978  1.00  0.00    -0.105 A  
HETATM   19  C   UNL     1      -9.075   7.744  71.547  1.00  0.00    -0.158 A  
HETATM   20  C   UNL     1     -10.021   7.158  70.724  1.00  0.00    -0.194 A  
HETATM   21  C   UNL     1      -9.850   7.190  69.338  1.00  0.00    -0.161 A  
HETATM   22  C   UNL     1      -8.755   7.851  68.731  1.00  0.00    -0.128 A  
ENDBRANCH   8   9
ENDBRANCH   6   8
TORSDOF 2
ENDMDL
MODEL      254
REMARK 921   NORMALIZED FREE ENERGY PREDICTED BY IDOCK:   -1.87 KCAL/MOL
REMARK 922        TOTAL FREE ENERGY PREDICTED BY IDOCK:   -2.48 KCAL/MOL
REMARK 923 INTER-LIGAND FREE ENERGY PREDICTED BY IDOCK:   -2.91 KCAL/MOL
REMARK 924 INTRA-LIGAND FREE ENERGY PREDICTED BY IDOCK:    0.43 KCAL/MOL
REMARK 927      BINDING AFFINITY PREDICTED BY RF-SCORE:    0.00 PKD
ROOT
HETATM    1  C   UNL     1      -7.653   7.145  70.611  1.00  0.00    -0.092 C  
HETATM    2  N   UNL     1      -7.851   5.699  70.608  1.00  0.00    -0.097 NA 
HETATM    3  C   UNL     1      -9.043   5.279  71.349  1.00  0.00    -0.145 C  
HETATM    4  C   UNL     1     -10.352   5.590  70.622  1.00  0.00    -0.332 C  
HETATM    5  C   UNL     1     -10.355   5.016  69.209  1.00  0.00    -0.199 C  
HETATM    6  C   UNL     1      -9.098   5.430  68.413  1.00  0.00    -0.119 C  
HETATM    7  C   UNL     1      -7.836   5.142  69.251  1.00  0.00    -0.080 C  
ENDROOT
BRANCH   6   8
HETATM    8  C   UNL     1      -9.111   4.695  67.050  1.00  0.00    -0.126 C  
BRANCH   8   9
HETATM    9  C   UNL     1      -9.211   5.552  65.736  1.00  0.00    -0.132 C  
HETATM   10  C   UNL     1      -9.081   7.062  65.986  1.00  0.00    -0.105 A  
HETATM   11  C   UNL     1      -9.706   7.643  67.117  1.00  0.00    -0.239 A  
HETATM   12  C   UNL     1      -9.761   9.028  67.311  1.00  0.00    -0.232 A  
HETATM   13  C   UNL     1      -9.217   9.880  66.366  1.00  0.00    -0.195 A  
HETATM   14  C   UNL     1      -8.575   9.336  65.259  1.00  0.00    -0.188 A  
HETATM   15  C   UNL     1      -8.484   7.939  65.073  1.00  0.00    -0.055 A  
HETATM   16  S   UNL     1      -7.569   7.440  63.648  1.00  0.00    -0.126 SA 
HETATM   17  C   UNL     1      -7.634   5.678  63.690  1.00  0.00    -0.081 A  
HETATM   18  C   UNL     1      -6.841   5.023  62.728  1.00  0.00    -0.030 A  
HETATM   19  C   UNL     1      -6.860   3.640  62.593  1.00  0.00    -0.035 A  
HETATM   20  C   UNL     1      -7.715   2.897  63.388  1.00  0.00    -0.064 A  
HETATM   21  C   UNL     1      -8.505   3.538  64.345  1.00  0.00    -0.093 A  
HETATM   22  C   UNL     1      -8.430   4.934  64.568  1.00  0.00    -0.144 A  
ENDBRANCH   8   9
ENDBRANCH   6   8
TORSDOF 2
ENDMDL
MODEL      255
REMARK 921   NORMALIZED FREE ENERGY PREDICTED BY IDOCK:   -1.63 KCAL/MOL
REMARK 922        TOTAL FREE ENERGY PREDICTED BY IDOCK:   -2.22 KCAL/MOL
REMARK 923 INTER-LIGAND FREE ENERGY PREDICTED BY IDOCK:   -2.35 KCAL/MOL
REMARK 924 INTRA-LIGAND FREE ENERGY PREDICTED BY IDOCK:    0.13 KCAL/MOL
REMARK 927      BINDING AFFINITY PREDICTED BY RF-SCORE:    0.00 PKD
ROOT
HETATM    1  C   UNL     1     -11.005   8.561  71.658  1.00  0.00    -0.292 C  
HETATM    2  N   UNL     1     -10.714   7.188  72.055  1.00  0.00    -0.212 NA 
HETATM    3  C   UNL     1     -11.775   6.245  71.688  1.00  0.00    -0.284 C  
HETATM    4  C   UNL     1     -11.825   5.939  70.191  1.00  0.00     0.638 C  
HETATM    5  C   UNL     1     -10.471   5.467  69.672  1.00  0.00    -0.361 C  
HETATM    6  C   UNL     1      -9.332   6.436  70.063  1.00  0.00    -0.162 C  
HETATM    7  C   UNL     1      -9.404   6.738  71.573  1.00  0.00    -0.153 C  
ENDROOT
BRANCH   6   8
HETATM    8  C   UNL     1      -7.983   5.816  69.624  1.00  0.00    -0.100 C  
BRANCH   8   9
HETATM    9  C   UNL     1      -7.273   6.393  68.346  1.00  0.00    -0.085 C  
HETATM   10  C   UNL     1      -6.708   5.304  67.423  1.00  0.00    -0.055 A  
HETATM   11  C   UNL     1      -6.077   4.166  67.982  1.00  0.00    -0.032 A  
HETATM   12  C   UNL     1      -5.403   3.223  67.198  1.00  0.00    -0.012 A  
HETATM   13  C   UNL     1      -5.312   3.403  65.828  1.00  0.00    -0.009 A  
HETATM   14  C   UNL     1      -5.945   4.497  65.249  1.00  0.00    -0.023 A  
HETATM   15  C   UNL     1      -6.657   5.434  66.029  1.00  0.00    -0.048 A  
HETATM   16  S   UNL     1      -7.452   6.713  65.107  1.00  0.00    -0.093 SA 
HETATM   17  C   UNL     1      -8.240   7.702  66.336  1.00  0.00    -0.124 A  
HETATM   18  C   UNL     1      -9.079   8.720  65.842  1.00  0.00    -0.271 A  
HETATM   19  C   UNL     1      -9.699   9.626  66.694  1.00  0.00    -0.266 A  
HETATM   20  C   UNL     1      -9.444   9.556  68.053  1.00  0.00    -0.147 A  
HETATM   21  C   UNL     1      -8.613   8.550  68.552  1.00  0.00    -0.138 A  
HETATM   22  C   UNL     1      -8.050   7.556  67.715  1.00  0.00    -0.119 A  
ENDBRANCH   8   9
ENDBRANCH   6   8
TORSDOF 2
ENDMDL
MODEL      256
REMARK 921   NORMALIZED FREE ENERGY PREDICTED BY IDOCK:   -1.53 KCAL/MOL
REMARK 922        TOTAL FREE ENERGY PREDICTED BY IDOCK:   -2.11 KCAL/MOL
REMARK 923 INTER-LIGAND FREE ENERGY PREDICTED BY IDOCK:   -3.26 KCAL/MOL
REMARK 924 INTRA-LIGAND FREE ENERGY PREDICTED BY IDOCK:    1.15 KCAL/MOL
REMARK 927      BINDING AFFINITY PREDICTED BY RF-SCORE:    0.00 PKD
ROOT
HETATM    1  C   UNL     1      -5.899   7.113  68.916  1.00  0.00    -0.019 C  
HETATM    2  N   UNL     1      -6.494   7.546  67.656  1.00  0.00    -0.055 NA 
HETATM    3  C   UNL     1      -7.860   7.050  67.464  1.00  0.00    -0.112 C  
HETATM    4  C   UNL     1      -8.893   7.755  68.344  1.00  0.00    -0.130 C  
HETATM    5  C   UNL     1      -8.831   9.269  68.173  1.00  0.00    -0.129 C  
HETATM    6  C   UNL     1      -7.397   9.814  68.353  1.00  0.00    -0.078 C  
HETATM    7  C   UNL     1      -6.420   9.000  67.481  1.00  0.00    -0.064 C  
ENDROOT
BRANCH   6   8
HETATM    8  C   UNL     1      -7.398  11.328  68.026  1.00  0.00    -0.092 C  
BRANCH   8   9
HETATM    9  C   UNL     1      -8.283  11.836  66.831  1.00  0.00    -0.166 C  
HETATM   10  C   UNL     1      -8.235  10.912  65.606  1.00  0.00    -0.083 A  
HETATM   11  C   UNL     1      -7.008  10.321  65.218  1.00  0.00    -0.130 A  
HETATM   12  C   UNL     1      -6.866   9.604  64.025  1.00  0.00    -0.113 A  
HETATM   13  C   UNL     1      -7.943   9.479  63.164  1.00  0.00    -0.141 A  
HETATM   14  C   UNL     1      -9.167  10.026  63.531  1.00  0.00    -0.315 A  
HETATM   15  C   UNL     1      -9.327  10.721  64.750  1.00  0.00    -0.226 A  
HETATM   16  S   UNL     1     -10.970  11.280  65.073  1.00  0.00    -0.090 SA 
HETATM   17  C   UNL     1     -10.849  12.093  66.634  1.00  0.00    -0.268 A  
HETATM   18  C   UNL     1     -12.073  12.505  67.194  1.00  0.00    -0.135 A  
HETATM   19  C   UNL     1     -12.120  13.230  68.379  1.00  0.00    -0.244 A  
HETATM   20  C   UNL     1     -10.935  13.596  68.993  1.00  0.00    -0.271 A  
HETATM   21  C   UNL     1      -9.716  13.192  68.444  1.00  0.00    -0.196 A  
HETATM   22  C   UNL     1      -9.646  12.370  67.293  1.00  0.00    -0.199 A  
ENDBRANCH   8   9
ENDBRANCH   6   8
TORSDOF 2
ENDMDL
MODEL      257
REMARK 921   NORMALIZED FREE ENERGY PREDICTED BY IDOCK:   -0.94 KCAL/MOL
REMARK 922        TOTAL FREE ENERGY PREDICTED BY IDOCK:   -1.45 KCAL/MOL
REMARK 923 INTER-LIGAND FREE ENERGY PREDICTED BY IDOCK:   -1.10 KCAL/MOL
REMARK 924 INTRA-LIGAND FREE ENERGY PREDICTED BY IDOCK:   -0.35 KCAL/MOL
REMARK 927      BINDING AFFINITY PREDICTED BY RF-SCORE:    0.00 PKD
ROOT
HETATM    1  C   UNL     1      -7.593   9.557  64.771  1.00  0.00    -0.112 C  
HETATM    2  N   UNL     1      -8.108   9.827  66.109  1.00  0.00    -0.108 NA 
HETATM    3  C   UNL     1      -9.357  10.595  66.102  1.00  0.00    -0.177 C  
HETATM    4  C   UNL     1     -10.571   9.779  65.659  1.00  0.00     0.343 C  
HETATM    5  C   UNL     1     -10.717   8.504  66.485  1.00  0.00     0.264 C  
HETATM    6  C   UNL     1      -9.407   7.686  66.522  1.00  0.00    -0.241 C  
HETATM    7  C   UNL     1      -8.233   8.606  66.911  1.00  0.00    -0.105 C  
ENDROOT
BRANCH   6   8
HETATM    8  C   UNL     1      -9.598   6.491  67.489  1.00  0.00    -0.137 C  
BRANCH   8   9
HETATM    9  C   UNL     1      -9.184   6.670  68.994  1.00  0.00    -0.131 C  
HETATM   10  C   UNL     1     -10.362   7.036  69.908  1.00  0.00    -0.225 A  
HETATM   11  C   UNL     1     -11.344   7.952  69.456  1.00  0.00     0.249 A  
HETATM   12  C   UNL     1     -12.348   8.448  70.296  1.00  0.00     0.653 A  
HETATM   13  C   UNL     1     -12.386   8.066  71.626  1.00  0.00    -0.344 A  
HETATM   14  C   UNL     1     -11.450   7.148  72.090  1.00  0.00    -0.306 A  
HETATM   15  C   UNL     1     -10.456   6.616  71.240  1.00  0.00    -0.215 A  
HETATM   16  S   UNL     1      -9.406   5.412  71.993  1.00  0.00    -0.144 SA 
HETATM   17  C   UNL     1      -8.293   4.947  70.706  1.00  0.00    -0.102 A  
HETATM   18  C   UNL     1      -7.435   3.873  71.011  1.00  0.00    -0.040 A  
HETATM   19  C   UNL     1      -6.452   3.456  70.122  1.00  0.00    -0.032 A  
HETATM   20  C   UNL     1      -6.282   4.144  68.933  1.00  0.00    -0.032 A  
HETATM   21  C   UNL     1      -7.129   5.210  68.622  1.00  0.00    -0.058 A  
HETATM   22  C   UNL     1      -8.200   5.591  69.467  1.00  0.00    -0.101 A  
ENDBRANCH   8   9
ENDBRANCH   6   8
TORSDOF 2
ENDMDL
MODEL      258
REMARK 921   NORMALIZED FREE ENERGY PREDICTED BY IDOCK:   -0.68 KCAL/MOL
REMARK 922        TOTAL FREE ENERGY PREDICTED BY IDOCK:   -1.16 KCAL/MOL
REMARK 923 INTER-LIGAND FREE ENERGY PREDICTED BY IDOCK:   -1.16 KCAL/MOL
REMARK 924 INTRA-LIGAND FREE ENERGY PREDICTED BY IDOCK:    0.01 KCAL/MOL
REMARK 927      BINDING AFFINITY PREDICTED BY RF-SCORE:    0.00 PKD
ROOT
HETATM    1  C   UNL     1      -7.425  16.778  66.505  1.00  0.00    -0.287 C  
HETATM    2  N   UNL     1      -8.384  15.984  67.267  1.00  0.00    -0.169 NA 
HETATM    3  C   UNL     1      -9.551  15.579  66.479  1.00  0.00    -0.272 C  
HETATM    4  C   UNL     1      -9.248  14.476  65.465  1.00  0.00     0.464 C  
HETATM    5  C   UNL     1      -8.592  13.271  66.131  1.00  0.00     0.675 C  
HETATM    6  C   UNL     1      -7.368  13.675  66.983  1.00  0.00     0.352 C  
HETATM    7  C   UNL     1      -7.752  14.835  67.924  1.00  0.00    -0.137 C  
ENDROOT
BRANCH   6   8
HETATM    8  C   UNL     1      -6.851  12.422  67.732  1.00  0.00    -0.113 C  
BRANCH   8   9
HETATM    9  C   UNL     1      -7.438  11.018  67.339  1.00  0.00    -0.106 C  
HETATM   10  C   UNL     1      -8.877  10.804  67.831  1.00  0.00    -0.132 A  
HETATM   11  C   UNL     1      -9.255  11.260  69.118  1.00  0.00     0.095 A  
HETATM   12  C   UNL     1     -10.496  10.954  69.685  1.00  0.00    -0.133 A  
HETATM   13  C   UNL     1     -11.392  10.155  68.995  1.00  0.00    -0.188 A  
HETATM   14  C   UNL     1     -11.058   9.715  67.719  1.00  0.00    -0.089 A  
HETATM   15  C   UNL     1      -9.821  10.049  67.126  1.00  0.00    -0.185 A  
HETATM   16  S   UNL     1      -9.609   9.459  65.475  1.00  0.00    -0.204 SA 
HETATM   17  C   UNL     1      -8.002  10.025  65.019  1.00  0.00    -0.143 A  
HETATM   18  C   UNL     1      -7.648   9.809  63.673  1.00  0.00    -0.130 A  
HETATM   19  C   UNL     1      -6.383  10.130  63.196  1.00  0.00    -0.139 A  
HETATM   20  C   UNL     1      -5.436  10.625  64.077  1.00  0.00    -0.103 A  
HETATM   21  C   UNL     1      -5.779  10.842  65.413  1.00  0.00    -0.103 A  
HETATM   22  C   UNL     1      -7.089  10.616  65.900  1.00  0.00    -0.115 A  
ENDBRANCH   8   9
ENDBRANCH   6   8
TORSDOF 2
ENDMDL
MODEL      259
REMARK 921   NORMALIZED FREE ENERGY PREDICTED BY IDOCK:   -0.47 KCAL/MOL
REMARK 922        TOTAL FREE ENERGY PREDICTED BY IDOCK:   -0.92 KCAL/MOL
REMARK 923 INTER-LIGAND FREE ENERGY PREDICTED BY IDOCK:   -1.36 KCAL/MOL
REMARK 924 INTRA-LIGAND FREE ENERGY PREDICTED BY IDOCK:    0.44 KCAL/MOL
REMARK 927      BINDING AFFINITY PREDICTED BY RF-SCORE:    0.00 PKD
ROOT
HETATM    1  C   UNL     1      -8.963  15.859  66.959  1.00  0.00    -0.217 C  
HETATM    2  N   UNL     1     -10.321  15.346  67.109  1.00  0.00    -0.266 NA 
HETATM    3  C   UNL     1     -11.042  15.243  65.837  1.00  0.00    -0.287 C  
HETATM    4  C   UNL     1     -10.564  14.086  64.959  1.00  0.00    -0.426 C  
HETATM    5  C   UNL     1     -10.595  12.762  65.715  1.00  0.00    -0.295 C  
HETATM    6  C   UNL     1      -9.856  12.851  67.069  1.00  0.00    -0.233 C  
HETATM    7  C   UNL     1     -10.355  14.082  67.852  1.00  0.00    -0.239 C  
ENDROOT
BRANCH   6   8
HETATM    8  C   UNL     1     -10.055  11.517  67.830  1.00  0.00    -0.202 C  
BRANCH   8   9
HETATM    9  C   UNL     1      -8.788  10.783  68.401  1.00  0.00    -0.146 C  
HETATM   10  C   UNL     1      -9.025   9.291  68.678  1.00  0.00    -0.132 A  
HETATM   11  C   UNL     1     -10.253   8.868  69.243  1.00  0.00    -0.214 A  
HETATM   12  C   UNL     1     -10.468   7.553  69.668  1.00  0.00    -0.235 A  
HETATM   13  C   UNL     1      -9.449   6.621  69.568  1.00  0.00    -0.148 A  
HETATM   14  C   UNL     1      -8.242   7.001  68.993  1.00  0.00    -0.125 A  
HETATM   15  C   UNL     1      -8.030   8.318  68.530  1.00  0.00    -0.122 A  
HETATM   16  S   UNL     1      -6.461   8.590  67.767  1.00  0.00    -0.062 SA 
HETATM   17  C   UNL     1      -6.497  10.292  67.304  1.00  0.00    -0.067 A  
HETATM   18  C   UNL     1      -5.404  10.729  66.531  1.00  0.00    -0.075 A  
HETATM   19  C   UNL     1      -5.261  12.062  66.166  1.00  0.00     0.758 A  
HETATM   20  C   UNL     1      -6.188  12.987  66.616  1.00  0.00     1.625 A  
HETATM   21  C   UNL     1      -7.275  12.563  67.384  1.00  0.00    -0.146 A  
HETATM   22  C   UNL     1      -7.495  11.197  67.685  1.00  0.00    -0.100 A  
ENDBRANCH   8   9
ENDBRANCH   6   8
TORSDOF 2
ENDMDL
MODEL      260
REMARK 921   NORMALIZED FREE ENERGY PREDICTED BY IDOCK:    0.33 KCAL/MOL
REMARK 922        TOTAL FREE ENERGY PREDICTED BY IDOCK:   -0.03 KCAL/MOL
REMARK 923 INTER-LIGAND FREE ENERGY PREDICTED BY IDOCK:   -1.50 KCAL/MOL
REMARK 924 INTRA-LIGAND FREE ENERGY PREDICTED BY IDOCK:    1.47 KCAL/MOL
REMARK 927      BINDING AFFINITY PREDICTED BY RF-SCORE:    0.00 PKD
ROOT
HETATM    1  C   UNL     1      -9.676   8.674  66.326  1.00  0.00    -0.251 C  
HETATM    2  N   UNL     1      -9.758   7.519  67.214  1.00  0.00    -0.155 NA 
HETATM    3  C   UNL     1     -10.371   6.348  66.582  1.00  0.00    -0.155 C  
HETATM    4  C   UNL     1      -9.462   5.661  65.563  1.00  0.00     0.093 C  
HETATM    5  C   UNL     1      -8.107   5.310  66.170  1.00  0.00    -0.109 C  
HETATM    6  C   UNL     1      -7.449   6.525  66.859  1.00  0.00    -0.084 C  
HETATM    7  C   UNL     1      -8.460   7.190  67.814  1.00  0.00    -0.120 C  
ENDROOT
BRANCH   6   8
HETATM    8  C   UNL     1      -6.155   6.053  67.567  1.00  0.00    -0.018 C  
BRANCH   8   9
HETATM    9  C   UNL     1      -6.157   4.649  68.274  1.00  0.00    -0.031 C  
HETATM   10  C   UNL     1      -6.737   4.687  69.695  1.00  0.00    -0.044 A  
HETATM   11  C   UNL     1      -6.434   5.775  70.549  1.00  0.00    -0.036 A  
HETATM   12  C   UNL     1      -6.796   5.789  71.900  1.00  0.00    -0.068 A  
HETATM   13  C   UNL     1      -7.451   4.700  72.450  1.00  0.00    -0.084 A  
HETATM   14  C   UNL     1      -7.785   3.629  71.629  1.00  0.00    -0.060 A  
HETATM   15  C   UNL     1      -7.453   3.623  70.256  1.00  0.00    -0.041 A  
HETATM   16  S   UNL     1      -8.025   2.211  69.364  1.00  0.00    -0.044 SA 
HETATM   17  C   UNL     1      -7.467   2.490  67.714  1.00  0.00    -0.056 A  
HETATM   18  C   UNL     1      -7.929   1.565  66.757  1.00  0.00    -0.071 A  
HETATM   19  C   UNL     1      -7.503   1.616  65.435  1.00  0.00    -0.057 A  
HETATM   20  C   UNL     1      -6.566   2.565  65.065  1.00  0.00    -0.034 A  
HETATM   21  C   UNL     1      -6.102   3.486  66.007  1.00  0.00    -0.028 A  
HETATM   22  C   UNL     1      -6.595   3.517  67.334  1.00  0.00    -0.042 A  
ENDBRANCH   8   9
ENDBRANCH   6   8
TORSDOF 2
ENDMDL
MODEL      261
REMARK 921   NORMALIZED FREE ENERGY PREDICTED BY IDOCK:    0.48 KCAL/MOL
REMARK 922        TOTAL FREE ENERGY PREDICTED BY IDOCK:    0.15 KCAL/MOL
REMARK 923 INTER-LIGAND FREE ENERGY PREDICTED BY IDOCK:   -1.84 KCAL/MOL
REMARK 924 INTRA-LIGAND FREE ENERGY PREDICTED BY IDOCK:    1.98 KCAL/MOL
REMARK 927      BINDING AFFINITY PREDICTED BY RF-SCORE:    0.00 PKD
ROOT
HETATM    1  C   UNL     1      -7.676   9.487  64.863  1.00  0.00    -0.115 C  
HETATM    2  N   UNL     1      -8.260  10.078  66.062  1.00  0.00    -0.123 NA 
HETATM    3  C   UNL     1      -9.678  10.413  65.906  1.00  0.00    -0.217 C  
HETATM    4  C   UNL     1     -10.596   9.191  65.906  1.00  0.00     0.771 C  
HETATM    5  C   UNL     1     -10.371   8.323  67.140  1.00  0.00    -0.387 C  
HETATM    6  C   UNL     1      -8.879   7.971  67.336  1.00  0.00    -0.134 C  
HETATM    7  C   UNL     1      -8.029   9.255  67.254  1.00  0.00    -0.106 C  
ENDROOT
BRANCH   6   8
HETATM    8  C   UNL     1      -8.721   7.215  68.678  1.00  0.00    -0.127 C  
BRANCH   8   9
HETATM    9  C   UNL     1      -8.807   8.034  70.016  1.00  0.00    -0.143 C  
HETATM   10  C   UNL     1     -10.220   8.552  70.320  1.00  0.00    -0.206 A  
HETATM   11  C   UNL     1     -11.025   9.057  69.270  1.00  0.00    -0.052 A  
HETATM   12  C   UNL     1     -12.251   9.689  69.505  1.00  0.00     0.709 A  
HETATM   13  C   UNL     1     -12.700   9.863  70.803  1.00  0.00    -0.303 A  
HETATM   14  C   UNL     1     -11.943   9.355  71.852  1.00  0.00    -0.416 A  
HETATM   15  C   UNL     1     -10.722   8.685  71.621  1.00  0.00    -0.303 A  
HETATM   16  S   UNL     1      -9.942   8.047  73.071  1.00  0.00    -0.226 SA 
HETATM   17  C   UNL     1      -8.471   7.282  72.468  1.00  0.00    -0.108 A  
HETATM   18  C   UNL     1      -7.734   6.557  73.424  1.00  0.00    -0.092 A  
HETATM   19  C   UNL     1      -6.513   5.973  73.108  1.00  0.00    -0.068 A  
HETATM   20  C   UNL     1      -5.989   6.152  71.839  1.00  0.00    -0.036 A  
HETATM   21  C   UNL     1      -6.713   6.870  70.885  1.00  0.00    -0.054 A  
HETATM   22  C   UNL     1      -8.003   7.390  71.154  1.00  0.00    -0.100 A  
ENDBRANCH   8   9
ENDBRANCH   6   8
TORSDOF 2
ENDMDL
MODEL      262
REMARK 921   NORMALIZED FREE ENERGY PREDICTED BY IDOCK:    3.45 KCAL/MOL
REMARK 922        TOTAL FREE ENERGY PREDICTED BY IDOCK:    3.46 KCAL/MOL
REMARK 923 INTER-LIGAND FREE ENERGY PREDICTED BY IDOCK:    3.90 KCAL/MOL
REMARK 924 INTRA-LIGAND FREE ENERGY PREDICTED BY IDOCK:   -0.44 KCAL/MOL
REMARK 927      BINDING AFFINITY PREDICTED BY RF-SCORE:    0.00 PKD
ROOT
HETATM    1  C   UNL     1      -5.152  12.928  68.622  1.00  0.00    -0.059 C  
HETATM    2  N   UNL     1      -5.201  12.232  67.341  1.00  0.00    -0.113 NA 
HETATM    3  C   UNL     1      -5.413  10.788  67.478  1.00  0.00    -0.043 C  
HETATM    4  C   UNL     1      -6.841  10.418  67.880  1.00  0.00    -0.070 C  
HETATM    5  C   UNL     1      -7.865  11.035  66.931  1.00  0.00    -0.140 C  
HETATM    6  C   UNL     1      -7.650  12.554  66.756  1.00  0.00     0.199 C  
HETATM    7  C   UNL     1      -6.171  12.833  66.421  1.00  0.00     2.116 C  
ENDROOT
BRANCH   6   8
HETATM    8  C   UNL     1      -8.633  13.072  65.678  1.00  0.00     1.437 C  
BRANCH   8   9
HETATM    9  C   UNL     1     -10.137  13.292  66.077  1.00  0.00    -0.301 C  
HETATM   10  C   UNL     1     -10.386  14.630  66.786  1.00  0.00    -0.268 A  
HETATM   11  C   UNL     1      -9.451  15.107  67.736  1.00  0.00    -0.194 A  
HETATM   12  C   UNL     1      -9.698  16.232  68.531  1.00  0.00    -0.224 A  
HETATM   13  C   UNL     1     -10.905  16.902  68.421  1.00  0.00    -0.347 A  
HETATM   14  C   UNL     1     -11.831  16.472  67.478  1.00  0.00     0.833 A  
HETATM   15  C   UNL     1     -11.574  15.359  66.648  1.00  0.00     0.062 A  
HETATM   16  S   UNL     1     -12.837  15.011  65.465  1.00  0.00     0.771 SA 
HETATM   17  C   UNL     1     -12.238  13.597  64.598  1.00  0.00    -0.409 A  
HETATM   18  C   UNL     1     -13.005  13.203  63.484  1.00  0.00     0.476 A  
HETATM   19  C   UNL     1     -12.695  12.059  62.759  1.00  0.00     0.569 A  
HETATM   20  C   UNL     1     -11.640  11.263  63.173  1.00  0.00     0.341 A  
HETATM   21  C   UNL     1     -10.875  11.646  64.277  1.00  0.00    -0.418 A  
HETATM   22  C   UNL     1     -11.109  12.857  64.971  1.00  0.00    -0.320 A  
ENDBRANCH   8   9
ENDBRANCH   6   8
TORSDOF 2
ENDMDL
MODEL      263
REMARK 921   NORMALIZED FREE ENERGY PREDICTED BY IDOCK:    3.78 KCAL/MOL
REMARK 922        TOTAL FREE ENERGY PREDICTED BY IDOCK:    3.83 KCAL/MOL
REMARK 923 INTER-LIGAND FREE ENERGY PREDICTED BY IDOCK:    1.15 KCAL/MOL
REMARK 924 INTRA-LIGAND FREE ENERGY PREDICTED BY IDOCK:    2.68 KCAL/MOL
REMARK 927      BINDING AFFINITY PREDICTED BY RF-SCORE:    0.00 PKD
ROOT
HETATM    1  C   UNL     1      -5.168  12.913  68.621  1.00  0.00    -0.058 C  
HETATM    2  N   UNL     1      -5.231  12.108  67.406  1.00  0.00    -0.100 NA 
HETATM    3  C   UNL     1      -5.271  10.668  67.670  1.00  0.00    -0.036 C  
HETATM    4  C   UNL     1      -6.616  10.185  68.213  1.00  0.00    -0.054 C  
HETATM    5  C   UNL     1      -7.768  10.607  67.306  1.00  0.00    -0.108 C  
HETATM    6  C   UNL     1      -7.737  12.121  66.999  1.00  0.00    -0.112 C  
HETATM    7  C   UNL     1      -6.327  12.524  66.523  1.00  0.00     1.173 C  
ENDROOT
BRANCH   6   8
HETATM    8  C   UNL     1      -8.847  12.438  65.967  1.00  0.00     0.201 C  
BRANCH   8   9
HETATM    9  C   UNL     1     -10.334  12.528  66.468  1.00  0.00    -0.254 C  
HETATM   10  C   UNL     1     -10.522  12.013  67.902  1.00  0.00    -0.221 A  
HETATM   11  C   UNL     1      -9.827  10.855  68.330  1.00  0.00    -0.179 A  
HETATM   12  C   UNL     1     -10.078  10.245  69.563  1.00  0.00    -0.260 A  
HETATM   13  C   UNL     1     -11.055  10.757  70.400  1.00  0.00    -0.177 A  
HETATM   14  C   UNL     1     -11.735  11.907  70.018  1.00  0.00    -0.366 A  
HETATM   15  C   UNL     1     -11.462  12.549  68.790  1.00  0.00    -0.310 A  
HETATM   16  S   UNL     1     -12.374  14.036  68.514  1.00  0.00     0.216 SA 
HETATM   17  C   UNL     1     -11.826  14.590  66.932  1.00  0.00    -0.377 A  
HETATM   18  C   UNL     1     -12.300  15.857  66.540  1.00  0.00     1.836 A  
HETATM   19  C   UNL     1     -12.014  16.381  65.285  1.00  0.00     1.307 A  
HETATM   20  C   UNL     1     -11.291  15.619  64.384  1.00  0.00    -0.272 A  
HETATM   21  C   UNL     1     -10.817  14.361  64.765  1.00  0.00    -0.415 A  
HETATM   22  C   UNL     1     -11.011  13.847  66.070  1.00  0.00    -0.285 A  
ENDBRANCH   8   9
ENDBRANCH   6   8
TORSDOF 2
ENDMDL
MODEL      264
REMARK 921   NORMALIZED FREE ENERGY PREDICTED BY IDOCK:    7.44 KCAL/MOL
REMARK 922        TOTAL FREE ENERGY PREDICTED BY IDOCK:    7.92 KCAL/MOL
REMARK 923 INTER-LIGAND FREE ENERGY PREDICTED BY IDOCK:    5.83 KCAL/MOL
REMARK 924 INTRA-LIGAND FREE ENERGY PREDICTED BY IDOCK:    2.09 KCAL/MOL
REMARK 927      BINDING AFFINITY PREDICTED BY RF-SCORE:    0.00 PKD
ROOT
HETATM    1  C   UNL     1      -6.739   4.717  70.514  1.00  0.00    -0.036 C  
HETATM    2  N   UNL     1      -6.221   6.016  70.099  1.00  0.00    -0.030 NA 
HETATM    3  C   UNL     1      -5.126   5.917  69.131  1.00  0.00    -0.004 C  
HETATM    4  C   UNL     1      -5.586   5.509  67.731  1.00  0.00    -0.012 C  
HETATM    5  C   UNL     1      -6.690   6.428  67.217  1.00  0.00    -0.060 C  
HETATM    6  C   UNL     1      -7.849   6.562  68.229  1.00  0.00    -0.106 C  
HETATM    7  C   UNL     1      -7.283   6.908  69.622  1.00  0.00    -0.080 C  
ENDROOT
BRANCH   6   8
HETATM    8  C   UNL     1      -8.853   7.614  67.696  1.00  0.00    -0.125 C  
BRANCH   8   9
HETATM    9  C   UNL     1      -8.322   9.055  67.361  1.00  0.00    -0.112 C  
HETATM   10  C   UNL     1      -9.117   9.749  66.245  1.00  0.00    -0.192 A  
HETATM   11  C   UNL     1      -9.546   9.004  65.120  1.00  0.00     0.113 A  
HETATM   12  C   UNL     1     -10.128   9.609  64.000  1.00  0.00     1.188 A  
HETATM   13  C   UNL     1     -10.276  10.985  63.958  1.00  0.00    -0.420 A  
HETATM   14  C   UNL     1      -9.889  11.738  65.060  1.00  0.00    -0.257 A  
HETATM   15  C   UNL     1      -9.332  11.132  66.207  1.00  0.00    -0.195 A  
HETATM   16  S   UNL     1      -8.970  12.245  67.529  1.00  0.00    -0.190 SA 
HETATM   17  C   UNL     1      -8.300  11.210  68.791  1.00  0.00    -0.136 A  
HETATM   18  C   UNL     1      -8.065  11.843  70.027  1.00  0.00     2.365 A  
HETATM   19  C   UNL     1      -7.465  11.169  71.084  1.00  0.00     4.142 A  
HETATM   20  C   UNL     1      -7.044   9.863  70.899  1.00  0.00     0.124 A  
HETATM   21  C   UNL     1      -7.273   9.228  69.676  1.00  0.00    -0.063 A  
HETATM   22  C   UNL     1      -7.971   9.861  68.619  1.00  0.00    -0.087 A  
ENDBRANCH   8   9
ENDBRANCH   6   8
TORSDOF 2
ENDMDL
MODEL      265
REMARK 921   NORMALIZED FREE ENERGY PREDICTED BY IDOCK:   17.68 KCAL/MOL
REMARK 922        TOTAL FREE ENERGY PREDICTED BY IDOCK:   19.35 KCAL/MOL
REMARK 923 INTER-LIGAND FREE ENERGY PREDICTED BY IDOCK:   18.79 KCAL/MOL
REMARK 924 INTRA-LIGAND FREE ENERGY PREDICTED BY IDOCK:    0.56 KCAL/MOL
REMARK 927      BINDING AFFINITY PREDICTED BY RF-SCORE:    0.00 PKD
ROOT
HETATM    1  C   UNL     1     -10.642  17.262  64.360  1.00  0.00     2.348 C  
HETATM    2  N   UNL     1     -10.509  16.447  65.563  1.00  0.00    -0.515 NA 
HETATM    3  C   UNL     1      -9.970  15.110  65.297  1.00  0.00    -0.290 C  
HETATM    4  C   UNL     1      -8.475  15.110  64.975  1.00  0.00     4.548 C  
HETATM    5  C   UNL     1      -7.671  15.818  66.060  1.00  0.00     1.210 C  
HETATM    6  C   UNL     1      -8.231  17.223  66.372  1.00  0.00    -0.317 C  
HETATM    7  C   UNL     1      -9.751  17.133  66.615  1.00  0.00    -0.276 C  
ENDROOT
BRANCH   6   8
HETATM    8  C   UNL     1      -7.451  17.812  67.574  1.00  0.00    -0.213 C  
BRANCH   8   9
HETATM    9  C   UNL     1      -7.693  17.197  68.999  1.00  0.00    -0.164 C  
HETATM   10  C   UNL     1      -9.113  17.441  69.531  1.00  0.00     0.567 A  
HETATM   11  C   UNL     1      -9.738  18.694  69.318  1.00  0.00    -0.094 A  
HETATM   12  C   UNL     1     -10.957  19.033  69.914  1.00  0.00     2.464 A  
HETATM   13  C   UNL     1     -11.580  18.139  70.768  1.00  0.00     5.194 A  
HETATM   14  C   UNL     1     -11.003  16.891  70.975  1.00  0.00     0.720 A  
HETATM   15  C   UNL     1      -9.790  16.529  70.349  1.00  0.00     1.289 A  
HETATM   16  S   UNL     1      -9.253  14.879  70.677  1.00  0.00     2.156 SA 
HETATM   17  C   UNL     1      -7.744  14.730  69.776  1.00  0.00     0.068 A  
HETATM   18  C   UNL     1      -7.182  13.439  69.751  1.00  0.00     0.541 A  
HETATM   19  C   UNL     1      -5.954  13.195  69.148  1.00  0.00    -0.086 A  
HETATM   20  C   UNL     1      -5.246  14.254  68.606  1.00  0.00    -0.091 A  
HETATM   21  C   UNL     1      -5.796  15.538  68.626  1.00  0.00    -0.098 A  
HETATM   22  C   UNL     1      -7.088  15.794  69.146  1.00  0.00    -0.176 A  
ENDBRANCH   8   9
ENDBRANCH   6   8
TORSDOF 2
ENDMDL
MODEL      266
REMARK 921   NORMALIZED FREE ENERGY PREDICTED BY IDOCK:   29.07 KCAL/MOL
REMARK 922        TOTAL FREE ENERGY PREDICTED BY IDOCK:   32.07 KCAL/MOL
REMARK 923 INTER-LIGAND FREE ENERGY PREDICTED BY IDOCK:   31.41 KCAL/MOL
REMARK 924 INTRA-LIGAND FREE ENERGY PREDICTED BY IDOCK:    0.66 KCAL/MOL
REMARK 927      BINDING AFFINITY PREDICTED BY RF-SCORE:    0.00 PKD
ROOT
HETATM    1  C   UNL     1      -6.773  16.010  65.944  1.00  0.00     2.911 C  
HETATM    2  N   UNL     1      -8.209  16.261  66.015  1.00  0.00    -0.185 NA 
HETATM    3  C   UNL     1      -9.016  15.117  65.584  1.00  0.00     0.522 C  
HETATM    4  C   UNL     1      -9.036  13.971  66.596  1.00  0.00    -0.177 C  
HETATM    5  C   UNL     1      -9.465  14.454  67.978  1.00  0.00    -0.209 C  
HETATM    6  C   UNL     1      -8.640  15.673  68.446  1.00  0.00    -0.173 C  
HETATM    7  C   UNL     1      -8.621  16.744  67.337  1.00  0.00    -0.193 C  
ENDROOT
BRANCH   6   8
HETATM    8  C   UNL     1      -9.229  16.185  69.784  1.00  0.00     0.243 C  
BRANCH   8   9
HETATM    9  C   UNL     1      -9.947  15.156  70.730  1.00  0.00     0.742 C  
HETATM   10  C   UNL     1     -11.478  15.267  70.695  1.00  0.00    -0.353 A  
HETATM   11  C   UNL     1     -12.089  16.544  70.644  1.00  0.00     0.711 A  
HETATM   12  C   UNL     1     -13.471  16.717  70.774  1.00  0.00     5.949 A  
HETATM   13  C   UNL     1     -14.287  15.620  70.987  1.00  0.00     0.287 A  
HETATM   14  C   UNL     1     -13.718  14.352  71.016  1.00  0.00    -0.201 A  
HETATM   15  C   UNL     1     -12.328  14.165  70.851  1.00  0.00    -0.368 A  
HETATM   16  S   UNL     1     -11.804  12.480  70.843  1.00  0.00     0.695 SA 
HETATM   17  C   UNL     1     -10.056  12.573  70.625  1.00  0.00     5.328 A  
HETATM   18  C   UNL     1      -9.406  11.339  70.433  1.00  0.00     3.064 A  
HETATM   19  C   UNL     1      -8.022  11.257  70.330  1.00  0.00     2.105 A  
HETATM   20  C   UNL     1      -7.266  12.408  70.469  1.00  0.00     2.658 A  
HETATM   21  C   UNL     1      -7.903  13.636  70.660  1.00  0.00     3.461 A  
HETATM   22  C   UNL     1      -9.313  13.759  70.669  1.00  0.00     4.593 A  
ENDBRANCH   8   9
ENDBRANCH   6   8
TORSDOF 2
ENDMDL
MODEL      267
REMARK 921   NORMALIZED FREE ENERGY PREDICTED BY IDOCK:   61.03 KCAL/MOL
REMARK 922        TOTAL FREE ENERGY PREDICTED BY IDOCK:   67.77 KCAL/MOL
REMARK 923 INTER-LIGAND FREE ENERGY PREDICTED BY IDOCK:   66.95 KCAL/MOL
REMARK 924 INTRA-LIGAND FREE ENERGY PREDICTED BY IDOCK:    0.81 KCAL/MOL
REMARK 927      BINDING AFFINITY PREDICTED BY RF-SCORE:    0.00 PKD
ROOT
HETATM    1  C   UNL     1      -7.710   9.537  64.867  1.00  0.00    -0.115 C  
HETATM    2  N   UNL     1      -8.336  10.676  65.530  1.00  0.00    -0.167 NA 
HETATM    3  C   UNL     1      -9.708  10.923  65.078  1.00  0.00    -0.267 C  
HETATM    4  C   UNL     1     -10.715   9.899  65.603  1.00  0.00     0.422 C  
HETATM    5  C   UNL     1     -10.652   9.783  67.123  1.00  0.00    -0.298 C  
HETATM    6  C   UNL     1      -9.211   9.541  67.625  1.00  0.00    -0.138 C  
HETATM    7  C   UNL     1      -8.261  10.576  66.992  1.00  0.00    -0.125 C  
ENDROOT
BRANCH   6   8
HETATM    8  C   UNL     1      -9.215   9.576  69.173  1.00  0.00    -0.163 C  
BRANCH   8   9
HETATM    9  C   UNL     1      -8.809  10.913  69.894  1.00  0.00     0.813 C  
HETATM   10  C   UNL     1      -9.865  12.019  69.758  1.00  0.00     1.578 A  
HETATM   11  C   UNL     1     -10.542  12.197  68.527  1.00  0.00    -0.252 A  
HETATM   12  C   UNL     1     -11.392  13.283  68.290  1.00  0.00    -0.335 A  
HETATM   13  C   UNL     1     -11.571  14.245  69.270  1.00  0.00    -0.350 A  
HETATM   14  C   UNL     1     -10.941  14.082  70.498  1.00  0.00     0.592 A  
HETATM   15  C   UNL     1     -10.109  12.970  70.756  1.00  0.00     5.683 A  
HETATM   16  S   UNL     1      -9.456  12.900  72.395  1.00  0.00    21.402 SA 
HETATM   17  C   UNL     1      -8.479  11.431  72.407  1.00  0.00    17.010 A  
HETATM   18  C   UNL     1      -7.961  11.062  73.663  1.00  0.00    13.503 A  
HETATM   19  C   UNL     1      -7.108   9.974  73.805  1.00  0.00     2.877 A  
HETATM   20  C   UNL     1      -6.721   9.270  72.677  1.00  0.00     0.479 A  
HETATM   21  C   UNL     1      -7.230   9.629  71.427  1.00  0.00     0.418 A  
HETATM   22  C   UNL     1      -8.176  10.671  71.271  1.00  0.00     4.388 A  
ENDBRANCH   8   9
ENDBRANCH   6   8
TORSDOF 2
ENDMDL
