MODEL        1
REMARK 921   NORMALIZED FREE ENERGY PREDICTED BY IDOCK:   -6.98 KCAL/MOL
REMARK 922        TOTAL FREE ENERGY PREDICTED BY IDOCK:   -8.54 KCAL/MOL
REMARK 923 INTER-LIGAND FREE ENERGY PREDICTED BY IDOCK:   -7.79 KCAL/MOL
REMARK 924 INTRA-LIGAND FREE ENERGY PREDICTED BY IDOCK:   -0.74 KCAL/MOL
REMARK 927      BINDING AFFINITY PREDICTED BY RF-SCORE:    0.00 PKD
ROOT
HETATM    1  C   UNL     1     -10.005  19.997  66.229  1.00  0.00    -0.597 C  
HETATM    2  C   UNL     1     -10.037  18.553  66.725  1.00  0.00    -0.380 C  
HETATM    3  N   UNL     1     -10.414  17.668  65.620  1.00  0.00    -0.623 NA 
HETATM    4  H   UNL     1     -10.704  18.019  64.708  1.00  0.00     0.000 HD 
HETATM    5  C   UNL     1     -10.346  16.296  65.916  1.00  0.00    -0.365 A  
HETATM    6  C   UNL     1     -10.820  15.364  64.989  1.00  0.00    -0.462 A  
HETATM    7  C   UNL     1     -10.860  13.996  65.299  1.00  0.00    -0.347 A  
HETATM    8 CL   UNL     1     -11.445  12.945  64.061  1.00  0.00    -0.443 Cl 
HETATM    9  C   UNL     1     -10.443  13.563  66.563  1.00  0.00    -0.284 A  
HETATM   10  C   UNL     1      -9.914  14.477  67.482  1.00  0.00    -0.224 A  
HETATM   11  O   UNL     1      -8.555  16.391  69.022  1.00  0.00    -0.245 OA 
HETATM   12  C   UNL     1      -9.849  15.828  67.141  1.00  0.00    -0.227 A  
HETATM   13  N   UNL     1      -8.854  18.001  67.345  1.00  0.00    -0.244 N  
HETATM   14  C   UNL     1      -9.059  16.773  67.973  1.00  0.00    -0.228 C  
ENDROOT
BRANCH   9  15
HETATM   15  S   UNL     1     -10.566  11.873  67.047  1.00  0.00    -0.236 S  
HETATM   16  H1  UNL     1     -10.034  10.923  68.893  1.00  0.00     0.000 HD 
HETATM   17  N   UNL     1      -9.962  11.902  68.613  1.00  0.00    -0.328 N  
HETATM   18  H2  UNL     1      -9.613  12.696  69.150  1.00  0.00     0.000 HD 
HETATM   19  O   UNL     1     -11.951  11.491  67.121  1.00  0.00    -0.581 OA 
HETATM   20  O   UNL     1      -9.599  11.101  66.301  1.00  0.00    -0.194 OA 
ENDBRANCH   9  15
BRANCH  13  21
HETATM   21  C   UNL     1      -7.748  18.806  67.710  1.00  0.00    -0.237 A  
HETATM   22  C   UNL     1      -7.740  19.484  68.935  1.00  0.00    -0.369 A  
HETATM   23  C   UNL     1      -6.598  20.168  69.358  1.00  0.00    -0.300 A  
HETATM   24  C   UNL     1      -5.456  20.180  68.562  1.00  0.00    -0.256 A  
HETATM   25  C   UNL     1      -5.451  19.499  67.345  1.00  0.00    -0.168 A  
HETATM   26  C   UNL     1      -6.582  18.785  66.915  1.00  0.00    -0.202 A  
HETATM   27  C   UNL     1      -6.467  17.995  65.640  1.00  0.00    -0.253 C  
ENDBRANCH  13  21
TORSDOF 2
ENDMDL
MODEL        2
REMARK 921   NORMALIZED FREE ENERGY PREDICTED BY IDOCK:   -6.93 KCAL/MOL
REMARK 922        TOTAL FREE ENERGY PREDICTED BY IDOCK:   -8.48 KCAL/MOL
REMARK 923 INTER-LIGAND FREE ENERGY PREDICTED BY IDOCK:   -7.96 KCAL/MOL
REMARK 924 INTRA-LIGAND FREE ENERGY PREDICTED BY IDOCK:   -0.53 KCAL/MOL
REMARK 927      BINDING AFFINITY PREDICTED BY RF-SCORE:    0.00 PKD
ROOT
HETATM    1  C   UNL     1     -10.579  15.731  65.193  1.00  0.00    -0.436 C  
HETATM    2  C   UNL     1     -11.115  15.058  66.454  1.00  0.00    -0.329 C  
HETATM    3  N   UNL     1     -10.716  13.648  66.460  1.00  0.00    -0.283 NA 
HETATM    4  H   UNL     1     -10.245  13.206  65.670  1.00  0.00     0.000 HD 
HETATM    5  C   UNL     1     -11.033  12.951  67.638  1.00  0.00    -0.247 A  
HETATM    6  C   UNL     1     -10.832  11.571  67.700  1.00  0.00    -0.277 A  
HETATM    7  C   UNL     1     -11.235  10.834  68.825  1.00  0.00    -0.272 A  
HETATM    8 CL   UNL     1     -10.909   9.138  68.789  1.00  0.00    -0.152 Cl 
HETATM    9  C   UNL     1     -11.869  11.488  69.886  1.00  0.00    -0.355 A  
HETATM   10  C   UNL     1     -12.029  12.878  69.863  1.00  0.00    -0.377 A  
HETATM   11  O   UNL     1     -11.915  15.683  69.788  1.00  0.00    -0.346 OA 
HETATM   12  C   UNL     1     -11.588  13.598  68.752  1.00  0.00    -0.359 A  
HETATM   13  N   UNL     1     -10.772  15.615  67.743  1.00  0.00    -0.290 N  
HETATM   14  C   UNL     1     -11.497  15.080  68.807  1.00  0.00    -0.319 C  
ENDROOT
BRANCH   9  15
HETATM   15  S   UNL     1     -12.489  10.603  71.278  1.00  0.00    -0.413 S  
HETATM   16  H1  UNL     1     -14.056   9.145  71.400  1.00  0.00     0.000 HD 
HETATM   17  N   UNL     1     -13.698   9.657  70.595  1.00  0.00    -0.500 N  
HETATM   18  H2  UNL     1     -13.997   9.608  69.621  1.00  0.00     0.000 HD 
HETATM   19  O   UNL     1     -11.473   9.715  71.779  1.00  0.00    -0.365 OA 
HETATM   20  O   UNL     1     -13.195  11.522  72.141  1.00  0.00    -0.505 OA 
ENDBRANCH   9  15
BRANCH  13  21
HETATM   21  C   UNL     1     -10.149  16.880  67.877  1.00  0.00    -0.288 A  
HETATM   22  C   UNL     1     -10.899  18.055  67.748  1.00  0.00    -0.246 A  
HETATM   23  C   UNL     1     -10.318  19.297  68.012  1.00  0.00    -0.506 A  
HETATM   24  C   UNL     1      -8.986  19.375  68.407  1.00  0.00    -0.403 A  
HETATM   25  C   UNL     1      -8.233  18.210  68.547  1.00  0.00    -0.320 A  
HETATM   26  C   UNL     1      -8.808  16.950  68.310  1.00  0.00    -0.228 A  
HETATM   27  C   UNL     1      -7.963  15.735  68.578  1.00  0.00    -0.141 C  
ENDBRANCH  13  21
TORSDOF 2
ENDMDL
MODEL        3
REMARK 921   NORMALIZED FREE ENERGY PREDICTED BY IDOCK:   -6.87 KCAL/MOL
REMARK 922        TOTAL FREE ENERGY PREDICTED BY IDOCK:   -8.42 KCAL/MOL
REMARK 923 INTER-LIGAND FREE ENERGY PREDICTED BY IDOCK:   -7.92 KCAL/MOL
REMARK 924 INTRA-LIGAND FREE ENERGY PREDICTED BY IDOCK:   -0.50 KCAL/MOL
REMARK 927      BINDING AFFINITY PREDICTED BY RF-SCORE:    0.00 PKD
ROOT
HETATM    1  C   UNL     1      -7.693   8.770  69.810  1.00  0.00    -0.084 C  
HETATM    2  C   UNL     1      -8.724   9.676  69.141  1.00  0.00    -0.151 C  
HETATM    3  N   UNL     1      -8.473   9.713  67.697  1.00  0.00    -0.125 NA 
HETATM    4  H   UNL     1      -7.660   9.270  67.268  1.00  0.00     0.000 HD 
HETATM    5  C   UNL     1      -9.441  10.405  66.949  1.00  0.00    -0.168 A  
HETATM    6  C   UNL     1      -9.231  10.628  65.586  1.00  0.00    -0.227 A  
HETATM    7  C   UNL     1     -10.129  11.405  64.837  1.00  0.00    -0.274 A  
HETATM    8 CL   UNL     1      -9.771  11.587  63.158  1.00  0.00    -0.406 Cl 
HETATM    9  C   UNL     1     -11.235  11.983  65.471  1.00  0.00    -0.321 A  
HETATM   10  C   UNL     1     -11.488  11.723  66.822  1.00  0.00    -0.352 A  
HETATM   11  O   UNL     1     -12.016  10.785  69.416  1.00  0.00    -0.307 OA 
HETATM   12  C   UNL     1     -10.603  10.919  67.541  1.00  0.00    -0.271 A  
HETATM   13  N   UNL     1     -10.129   9.398  69.334  1.00  0.00    -0.189 N  
HETATM   14  C   UNL     1     -10.978  10.409  68.886  1.00  0.00    -0.245 C  
ENDROOT
BRANCH   9  15
HETATM   15  S   UNL     1     -12.339  13.050  64.607  1.00  0.00    -0.413 S  
HETATM   16  H1  UNL     1     -11.965  14.912  63.613  1.00  0.00     0.000 HD 
HETATM   17  N   UNL     1     -11.325  14.295  64.112  1.00  0.00    -0.608 N  
HETATM   18  H2  UNL     1     -10.324  14.405  64.271  1.00  0.00     0.000 HD 
HETATM   19  O   UNL     1     -12.826  12.390  63.425  1.00  0.00    -0.732 OA 
HETATM   20  O   UNL     1     -13.232  13.670  65.559  1.00  0.00    -0.608 OA 
ENDBRANCH   9  15
BRANCH  13  21
HETATM   21  C   UNL     1     -10.588   8.463  70.293  1.00  0.00    -0.227 A  
HETATM   22  C   UNL     1     -10.828   8.863  71.613  1.00  0.00    -0.420 A  
HETATM   23  C   UNL     1     -11.407   7.979  72.526  1.00  0.00    -0.469 A  
HETATM   24  C   UNL     1     -11.751   6.691  72.129  1.00  0.00    -0.342 A  
HETATM   25  C   UNL     1     -11.525   6.285  70.814  1.00  0.00    -0.383 A  
HETATM   26  C   UNL     1     -10.967   7.169  69.875  1.00  0.00    -0.278 A  
HETATM   27  C   UNL     1     -10.844   6.693  68.453  1.00  0.00    -0.320 C  
ENDBRANCH  13  21
TORSDOF 2
ENDMDL
MODEL        4
REMARK 921   NORMALIZED FREE ENERGY PREDICTED BY IDOCK:   -6.74 KCAL/MOL
REMARK 922        TOTAL FREE ENERGY PREDICTED BY IDOCK:   -8.27 KCAL/MOL
REMARK 923 INTER-LIGAND FREE ENERGY PREDICTED BY IDOCK:   -7.81 KCAL/MOL
REMARK 924 INTRA-LIGAND FREE ENERGY PREDICTED BY IDOCK:   -0.46 KCAL/MOL
REMARK 927      BINDING AFFINITY PREDICTED BY RF-SCORE:    0.00 PKD
ROOT
HETATM    1  C   UNL     1     -12.002  13.856  68.362  1.00  0.00    -0.391 C  
HETATM    2  C   UNL     1     -11.291  15.065  67.760  1.00  0.00    -0.330 C  
HETATM    3  N   UNL     1     -10.180  15.459  68.632  1.00  0.00    -0.212 NA 
HETATM    4  H   UNL     1     -10.015  15.027  69.541  1.00  0.00     0.000 HD 
HETATM    5  C   UNL     1      -9.361  16.478  68.117  1.00  0.00    -0.218 A  
HETATM    6  C   UNL     1      -8.361  17.033  68.920  1.00  0.00    -0.196 A  
HETATM    7  C   UNL     1      -7.597  18.120  68.469  1.00  0.00    -0.289 A  
HETATM    8 CL   UNL     1      -6.377  18.700  69.546  1.00  0.00    -0.284 Cl 
HETATM    9  C   UNL     1      -7.857  18.671  67.210  1.00  0.00    -0.232 A  
HETATM   10  C   UNL     1      -8.817  18.092  66.372  1.00  0.00    -0.255 A  
HETATM   11  O   UNL     1     -10.501  16.571  64.718  1.00  0.00    -0.617 OA 
HETATM   12  C   UNL     1      -9.542  16.988  66.824  1.00  0.00    -0.274 A  
HETATM   13  N   UNL     1     -10.778  14.975  66.412  1.00  0.00    -0.315 N  
HETATM   14  C   UNL     1     -10.365  16.194  65.875  1.00  0.00    -0.367 C  
ENDROOT
BRANCH   9  15
HETATM   15  S   UNL     1      -7.002  20.099  66.633  1.00  0.00    -0.242 S  
HETATM   16  H1  UNL     1      -7.194  21.171  64.786  1.00  0.00     0.000 HD 
HETATM   17  N   UNL     1      -7.689  20.344  65.120  1.00  0.00    -0.270 N  
HETATM   18  H2  UNL     1      -8.417  19.804  64.653  1.00  0.00     0.000 HD 
HETATM   19  O   UNL     1      -7.342  21.231  67.453  1.00  0.00    -0.484 OA 
HETATM   20  O   UNL     1      -5.630  19.743  66.352  1.00  0.00    -0.171 OA 
ENDBRANCH   9  15
BRANCH  13  21
HETATM   21  C   UNL     1     -11.103  13.898  65.552  1.00  0.00    -0.304 A  
HETATM   22  C   UNL     1     -12.114  14.037  64.594  1.00  0.00    -0.462 A  
HETATM   23  C   UNL     1     -12.346  13.027  63.657  1.00  0.00    -0.499 A  
HETATM   24  C   UNL     1     -11.569  11.873  63.670  1.00  0.00    -0.559 A  
HETATM   25  C   UNL     1     -10.554  11.728  64.614  1.00  0.00    -0.359 A  
HETATM   26  C   UNL     1     -10.290  12.744  65.547  1.00  0.00    -0.301 A  
HETATM   27  C   UNL     1      -9.116  12.559  66.469  1.00  0.00    -0.177 C  
ENDBRANCH  13  21
TORSDOF 2
ENDMDL
MODEL        5
REMARK 921   NORMALIZED FREE ENERGY PREDICTED BY IDOCK:   -6.68 KCAL/MOL
REMARK 922        TOTAL FREE ENERGY PREDICTED BY IDOCK:   -8.21 KCAL/MOL
REMARK 923 INTER-LIGAND FREE ENERGY PREDICTED BY IDOCK:   -7.58 KCAL/MOL
REMARK 924 INTRA-LIGAND FREE ENERGY PREDICTED BY IDOCK:   -0.63 KCAL/MOL
REMARK 927      BINDING AFFINITY PREDICTED BY RF-SCORE:    0.00 PKD
ROOT
HETATM    1  C   UNL     1     -11.592  12.883  63.792  1.00  0.00    -0.538 C  
HETATM    2  C   UNL     1     -10.607  13.779  64.538  1.00  0.00    -0.386 C  
HETATM    3  N   UNL     1     -11.171  15.126  64.661  1.00  0.00    -0.606 NA 
HETATM    4  H   UNL     1     -12.044  15.400  64.208  1.00  0.00     0.000 HD 
HETATM    5  C   UNL     1     -10.418  16.011  65.450  1.00  0.00    -0.392 A  
HETATM    6  C   UNL     1     -10.782  17.357  65.519  1.00  0.00    -0.081 A  
HETATM    7  C   UNL     1      -9.989  18.283  66.215  1.00  0.00    -0.357 A  
HETATM    8 CL   UNL     1     -10.559  19.913  66.244  1.00  0.00    -0.569 Cl 
HETATM    9  C   UNL     1      -8.805  17.855  66.826  1.00  0.00    -0.258 A  
HETATM   10  C   UNL     1      -8.456  16.500  66.814  1.00  0.00    -0.273 A  
HETATM   11  O   UNL     1      -8.132  13.716  66.992  1.00  0.00    -0.116 OA 
HETATM   12  C   UNL     1      -9.276  15.589  66.147  1.00  0.00    -0.379 A  
HETATM   13  N   UNL     1     -10.150  13.376  65.849  1.00  0.00    -0.291 N  
HETATM   14  C   UNL     1      -9.083  14.128  66.338  1.00  0.00    -0.114 C  
ENDROOT
BRANCH   9  15
HETATM   15  S   UNL     1      -7.718  18.987  67.625  1.00  0.00    -0.241 S  
HETATM   16  H1  UNL     1      -5.823  18.650  68.569  1.00  0.00     0.000 HD 
HETATM   17  N   UNL     1      -6.452  17.994  68.106  1.00  0.00    -0.187 N  
HETATM   18  H2  UNL     1      -6.340  16.989  67.970  1.00  0.00     0.000 HD 
HETATM   19  O   UNL     1      -7.197  19.920  66.661  1.00  0.00    -0.225 OA 
HETATM   20  O   UNL     1      -8.323  19.425  68.863  1.00  0.00    -0.368 OA 
ENDBRANCH   9  15
BRANCH  13  21
HETATM   21  C   UNL     1     -10.402  12.084  66.371  1.00  0.00    -0.216 A  
HETATM   22  C   UNL     1      -9.765  10.963  65.825  1.00  0.00    -0.270 A  
HETATM   23  C   UNL     1      -9.906   9.708  66.422  1.00  0.00    -0.309 A  
HETATM   24  C   UNL     1     -10.683   9.563  67.567  1.00  0.00    -0.311 A  
HETATM   25  C   UNL     1     -11.314  10.675  68.124  1.00  0.00    -0.354 A  
HETATM   26  C   UNL     1     -11.163  11.949  67.552  1.00  0.00    -0.359 A  
HETATM   27  C   UNL     1     -11.792  13.114  68.265  1.00  0.00    -0.384 C  
ENDBRANCH  13  21
TORSDOF 2
ENDMDL
MODEL        6
REMARK 921   NORMALIZED FREE ENERGY PREDICTED BY IDOCK:   -6.68 KCAL/MOL
REMARK 922        TOTAL FREE ENERGY PREDICTED BY IDOCK:   -8.21 KCAL/MOL
REMARK 923 INTER-LIGAND FREE ENERGY PREDICTED BY IDOCK:   -7.46 KCAL/MOL
REMARK 924 INTRA-LIGAND FREE ENERGY PREDICTED BY IDOCK:   -0.74 KCAL/MOL
REMARK 927      BINDING AFFINITY PREDICTED BY RF-SCORE:    0.00 PKD
ROOT
HETATM    1  C   UNL     1     -11.791  14.164  64.205  1.00  0.00    -0.420 C  
HETATM    2  C   UNL     1     -10.642  14.877  64.915  1.00  0.00    -0.391 C  
HETATM    3  N   UNL     1     -11.034  16.258  65.209  1.00  0.00    -0.320 NA 
HETATM    4  H   UNL     1     -11.909  16.664  64.875  1.00  0.00     0.000 HD 
HETATM    5  C   UNL     1     -10.112  16.980  65.985  1.00  0.00    -0.302 A  
HETATM    6  C   UNL     1     -10.311  18.345  66.204  1.00  0.00    -0.431 A  
HETATM    7  C   UNL     1      -9.355  19.111  66.888  1.00  0.00    -0.319 A  
HETATM    8 CL   UNL     1      -9.729  20.782  67.113  1.00  0.00    -0.561 Cl 
HETATM    9  C   UNL     1      -8.175  18.505  67.332  1.00  0.00    -0.251 A  
HETATM   10  C   UNL     1      -7.985  17.128  67.170  1.00  0.00    -0.216 A  
HETATM   11  O   UNL     1      -7.968  14.321  67.079  1.00  0.00    -0.142 OA 
HETATM   12  C   UNL     1      -8.965  16.376  66.520  1.00  0.00    -0.311 A  
HETATM   13  N   UNL     1     -10.111  14.305  66.132  1.00  0.00    -0.301 N  
HETATM   14  C   UNL     1      -8.923  14.891  66.567  1.00  0.00    -0.253 C  
ENDROOT
BRANCH   9  15
HETATM   15  S   UNL     1      -6.893  19.435  68.104  1.00  0.00    -0.276 S  
HETATM   16  H1  UNL     1      -4.977  18.808  68.831  1.00  0.00     0.000 HD 
HETATM   17  N   UNL     1      -5.719  18.269  68.384  1.00  0.00    -0.170 N  
HETATM   18  H2  UNL     1      -5.741  17.273  68.163  1.00  0.00     0.000 HD 
HETATM   19  O   UNL     1      -6.351  20.383  67.166  1.00  0.00    -0.191 OA 
HETATM   20  O   UNL     1      -7.330  19.831  69.424  1.00  0.00    -0.318 OA 
ENDBRANCH   9  15
BRANCH  13  21
HETATM   21  C   UNL     1     -10.458  13.003  66.568  1.00  0.00    -0.277 A  
HETATM   22  C   UNL     1      -9.836  11.880  66.009  1.00  0.00    -0.258 A  
HETATM   23  C   UNL     1     -10.076  10.606  66.529  1.00  0.00    -0.275 A  
HETATM   24  C   UNL     1     -10.938  10.444  67.609  1.00  0.00    -0.374 A  
HETATM   25  C   UNL     1     -11.555  11.557  68.179  1.00  0.00    -0.378 A  
HETATM   26  C   UNL     1     -11.305  12.849  67.686  1.00  0.00    -0.349 A  
HETATM   27  C   UNL     1     -11.929  14.008  68.414  1.00  0.00    -0.378 C  
ENDBRANCH  13  21
TORSDOF 2
ENDMDL
MODEL        7
REMARK 921   NORMALIZED FREE ENERGY PREDICTED BY IDOCK:   -6.57 KCAL/MOL
REMARK 922        TOTAL FREE ENERGY PREDICTED BY IDOCK:   -8.08 KCAL/MOL
REMARK 923 INTER-LIGAND FREE ENERGY PREDICTED BY IDOCK:   -7.79 KCAL/MOL
REMARK 924 INTRA-LIGAND FREE ENERGY PREDICTED BY IDOCK:   -0.29 KCAL/MOL
REMARK 927      BINDING AFFINITY PREDICTED BY RF-SCORE:    0.00 PKD
ROOT
HETATM    1  C   UNL     1     -11.842  15.491  69.371  1.00  0.00    -0.392 C  
HETATM    2  C   UNL     1     -11.412  14.037  69.551  1.00  0.00    -0.275 C  
HETATM    3  N   UNL     1     -12.398  13.338  70.379  1.00  0.00    -0.323 NA 
HETATM    4  H   UNL     1     -13.177  13.818  70.830  1.00  0.00     0.000 HD 
HETATM    5  C   UNL     1     -12.187  11.955  70.505  1.00  0.00    -0.336 A  
HETATM    6  C   UNL     1     -12.977  11.212  71.385  1.00  0.00    -0.506 A  
HETATM    7  C   UNL     1     -12.721   9.850  71.607  1.00  0.00    -0.429 A  
HETATM    8 CL   UNL     1     -13.783   9.038  72.701  1.00  0.00    -0.481 Cl 
HETATM    9  C   UNL     1     -11.645   9.235  70.958  1.00  0.00    -0.313 A  
HETATM   10  C   UNL     1     -10.879   9.952  70.032  1.00  0.00    -0.339 A  
HETATM   11  O   UNL     1      -9.714  11.444  67.958  1.00  0.00    -0.174 OA 
HETATM   12  C   UNL     1     -11.172  11.296  69.797  1.00  0.00    -0.294 A  
HETATM   13  N   UNL     1     -11.175  13.229  68.377  1.00  0.00    -0.263 N  
HETATM   14  C   UNL     1     -10.562  12.004  68.641  1.00  0.00    -0.229 C  
ENDROOT
BRANCH   9  15
HETATM   15  S   UNL     1     -11.212   7.557  71.275  1.00  0.00    -0.256 S  
HETATM   16  H1  UNL     1      -9.704   6.327  70.377  1.00  0.00     0.000 HD 
HETATM   17  N   UNL     1      -9.954   7.298  70.193  1.00  0.00    -0.183 N  
HETATM   18  H2  UNL     1      -9.544   7.948  69.522  1.00  0.00     0.000 HD 
HETATM   19  O   UNL     1     -10.674   7.440  72.605  1.00  0.00    -0.239 OA 
HETATM   20  O   UNL     1     -12.276   6.701  70.803  1.00  0.00    -0.378 OA 
ENDBRANCH   9  15
BRANCH  13  21
HETATM   21  C   UNL     1     -11.107  13.787  67.077  1.00  0.00    -0.302 A  
HETATM   22  C   UNL     1     -12.211  13.719  66.219  1.00  0.00    -0.489 A  
HETATM   23  C   UNL     1     -12.195  14.384  64.991  1.00  0.00    -0.418 A  
HETATM   24  C   UNL     1     -11.078  15.121  64.611  1.00  0.00    -0.338 A  
HETATM   25  C   UNL     1      -9.977  15.203  65.463  1.00  0.00    -0.384 A  
HETATM   26  C   UNL     1      -9.985  14.562  66.713  1.00  0.00    -0.267 A  
HETATM   27  C   UNL     1      -8.803  14.778  67.617  1.00  0.00    -0.182 C  
ENDBRANCH  13  21
TORSDOF 2
ENDMDL
MODEL        8
REMARK 921   NORMALIZED FREE ENERGY PREDICTED BY IDOCK:   -6.57 KCAL/MOL
REMARK 922        TOTAL FREE ENERGY PREDICTED BY IDOCK:   -8.08 KCAL/MOL
REMARK 923 INTER-LIGAND FREE ENERGY PREDICTED BY IDOCK:   -7.70 KCAL/MOL
REMARK 924 INTRA-LIGAND FREE ENERGY PREDICTED BY IDOCK:   -0.38 KCAL/MOL
REMARK 927      BINDING AFFINITY PREDICTED BY RF-SCORE:    0.00 PKD
ROOT
HETATM    1  C   UNL     1     -14.049   7.346  71.911  1.00  0.00    -0.429 C  
HETATM    2  C   UNL     1     -13.501   8.603  71.240  1.00  0.00    -0.141 C  
HETATM    3  N   UNL     1     -13.745   9.761  72.104  1.00  0.00    -0.464 NA 
HETATM    4  H   UNL     1     -14.295   9.702  72.961  1.00  0.00     0.000 HD 
HETATM    5  C   UNL     1     -13.164  10.961  71.659  1.00  0.00    -0.367 A  
HETATM    6  C   UNL     1     -13.451  12.155  72.322  1.00  0.00    -0.298 A  
HETATM    7  C   UNL     1     -12.968  13.382  71.839  1.00  0.00    -0.326 A  
HETATM    8 CL   UNL     1     -13.374  14.784  72.762  1.00  0.00    -0.543 Cl 
HETATM    9  C   UNL     1     -12.212  13.409  70.662  1.00  0.00    -0.350 A  
HETATM   10  C   UNL     1     -11.869  12.215  70.017  1.00  0.00    -0.383 A  
HETATM   11  O   UNL     1     -10.989   9.714  69.095  1.00  0.00    -0.218 OA 
HETATM   12  C   UNL     1     -12.328  11.003  70.534  1.00  0.00    -0.462 A  
HETATM   13  N   UNL     1     -12.110   8.636  70.848  1.00  0.00    -0.210 N  
HETATM   14  C   UNL     1     -11.771   9.718  70.037  1.00  0.00    -0.074 C  
ENDROOT
BRANCH   9  15
HETATM   15  S   UNL     1     -11.666  14.926  69.951  1.00  0.00    -0.326 S  
HETATM   16  H1  UNL     1     -12.740  16.744  69.584  1.00  0.00     0.000 HD 
HETATM   17  N   UNL     1     -13.057  15.866  69.996  1.00  0.00    -0.595 N  
HETATM   18  H2  UNL     1     -13.983  15.622  70.347  1.00  0.00     0.000 HD 
HETATM   19  O   UNL     1     -10.695  15.543  70.815  1.00  0.00    -0.318 OA 
HETATM   20  O   UNL     1     -11.416  14.720  68.543  1.00  0.00    -0.279 OA 
ENDBRANCH   9  15
BRANCH  13  21
HETATM   21  C   UNL     1     -11.296   7.477  70.856  1.00  0.00    -0.277 A  
HETATM   22  C   UNL     1     -11.403   6.529  69.832  1.00  0.00    -0.469 A  
HETATM   23  C   UNL     1     -10.511   5.456  69.764  1.00  0.00    -0.378 A  
HETATM   24  C   UNL     1      -9.507   5.322  70.718  1.00  0.00    -0.221 A  
HETATM   25  C   UNL     1      -9.387   6.265  71.737  1.00  0.00    -0.155 A  
HETATM   26  C   UNL     1     -10.258   7.365  71.806  1.00  0.00    -0.212 A  
HETATM   27  C   UNL     1     -10.004   8.393  72.875  1.00  0.00    -0.209 C  
ENDBRANCH  13  21
TORSDOF 2
ENDMDL
MODEL        9
REMARK 921   NORMALIZED FREE ENERGY PREDICTED BY IDOCK:   -6.49 KCAL/MOL
REMARK 922        TOTAL FREE ENERGY PREDICTED BY IDOCK:   -7.99 KCAL/MOL
REMARK 923 INTER-LIGAND FREE ENERGY PREDICTED BY IDOCK:   -7.59 KCAL/MOL
REMARK 924 INTRA-LIGAND FREE ENERGY PREDICTED BY IDOCK:   -0.40 KCAL/MOL
REMARK 927      BINDING AFFINITY PREDICTED BY RF-SCORE:    0.00 PKD
ROOT
HETATM    1  C   UNL     1     -12.118   9.805  71.677  1.00  0.00    -0.475 C  
HETATM    2  C   UNL     1     -12.014  10.370  70.262  1.00  0.00    -0.302 C  
HETATM    3  N   UNL     1     -11.815  11.821  70.333  1.00  0.00    -0.499 NA 
HETATM    4  H   UNL     1     -11.854  12.340  71.210  1.00  0.00     0.000 HD 
HETATM    5  C   UNL     1     -11.566  12.441  69.097  1.00  0.00    -0.314 A  
HETATM    6  C   UNL     1     -11.506  13.835  69.022  1.00  0.00    -0.349 A  
HETATM    7  C   UNL     1     -11.362  14.484  67.787  1.00  0.00    -0.317 A  
HETATM    8 CL   UNL     1     -11.278  16.209  67.831  1.00  0.00    -0.294 Cl 
HETATM    9  C   UNL     1     -11.305  13.727  66.612  1.00  0.00    -0.328 A  
HETATM   10  C   UNL     1     -11.309  12.329  66.674  1.00  0.00    -0.398 A  
HETATM   11  O   UNL     1     -10.958   9.567  67.040  1.00  0.00    -0.138 OA 
HETATM   12  C   UNL     1     -11.415  11.700  67.916  1.00  0.00    -0.381 A  
HETATM   13  N   UNL     1     -11.013   9.835  69.368  1.00  0.00    -0.230 N  
HETATM   14  C   UNL     1     -11.155  10.242  68.042  1.00  0.00    -0.274 C  
ENDROOT
BRANCH   9  15
HETATM   15  S   UNL     1     -11.229  14.489  65.025  1.00  0.00    -0.404 S  
HETATM   16  H1  UNL     1     -10.359  13.786  63.196  1.00  0.00     0.000 HD 
HETATM   17  N   UNL     1     -10.403  13.345  64.115  1.00  0.00    -0.638 N  
HETATM   18  H2  UNL     1     -10.038  12.438  64.406  1.00  0.00     0.000 HD 
HETATM   19  O   UNL     1     -12.556  14.604  64.480  1.00  0.00    -0.626 OA 
HETATM   20  O   UNL     1     -10.329  15.617  65.090  1.00  0.00    -0.383 OA 
ENDBRANCH   9  15
BRANCH  13  21
HETATM   21  C   UNL     1     -10.280   8.662  69.671  1.00  0.00    -0.208 A  
HETATM   22  C   UNL     1     -10.896   7.406  69.610  1.00  0.00    -0.222 A  
HETATM   23  C   UNL     1     -10.145   6.240  69.776  1.00  0.00    -0.217 A  
HETATM   24  C   UNL     1      -8.775   6.319  70.005  1.00  0.00    -0.141 A  
HETATM   25  C   UNL     1      -8.150   7.565  70.058  1.00  0.00    -0.127 A  
HETATM   26  C   UNL     1      -8.885   8.747  69.868  1.00  0.00    -0.143 A  
HETATM   27  C   UNL     1      -8.126  10.046  69.842  1.00  0.00    -0.180 C  
ENDBRANCH  13  21
TORSDOF 2
ENDMDL
MODEL       10
REMARK 921   NORMALIZED FREE ENERGY PREDICTED BY IDOCK:   -6.40 KCAL/MOL
REMARK 922        TOTAL FREE ENERGY PREDICTED BY IDOCK:   -7.90 KCAL/MOL
REMARK 923 INTER-LIGAND FREE ENERGY PREDICTED BY IDOCK:   -7.36 KCAL/MOL
REMARK 924 INTRA-LIGAND FREE ENERGY PREDICTED BY IDOCK:   -0.53 KCAL/MOL
REMARK 927      BINDING AFFINITY PREDICTED BY RF-SCORE:    0.00 PKD
ROOT
HETATM    1  C   UNL     1     -10.411  12.829  64.201  1.00  0.00    -0.437 C  
HETATM    2  C   UNL     1     -10.963  12.539  65.595  1.00  0.00    -0.288 C  
HETATM    3  N   UNL     1     -10.523  11.209  66.025  1.00  0.00    -0.257 NA 
HETATM    4  H   UNL     1     -10.017  10.572  65.411  1.00  0.00     0.000 HD 
HETATM    5  C   UNL     1     -10.852  10.880  67.351  1.00  0.00    -0.279 A  
HETATM    6  C   UNL     1     -10.612   9.588  67.823  1.00  0.00    -0.318 A  
HETATM    7  C   UNL     1     -11.024   9.202  69.108  1.00  0.00    -0.033 A  
HETATM    8 CL   UNL     1     -10.648   7.584  69.582  1.00  0.00    -0.238 Cl 
HETATM    9  C   UNL     1     -11.708  10.117  69.916  1.00  0.00    -0.179 A  
HETATM   10  C   UNL     1     -11.908  11.431  69.480  1.00  0.00    -0.426 A  
HETATM   11  O   UNL     1     -11.875  14.091  68.579  1.00  0.00    -0.332 OA 
HETATM   12  C   UNL     1     -11.457  11.806  68.213  1.00  0.00    -0.370 A  
HETATM   13  N   UNL     1     -10.674  13.464  66.667  1.00  0.00    -0.280 N  
HETATM   14  C   UNL     1     -11.412  13.241  67.829  1.00  0.00    -0.317 C  
ENDROOT
BRANCH   9  15
HETATM   15  S   UNL     1     -12.341   9.660  71.496  1.00  0.00    -0.415 S  
HETATM   16  H1  UNL     1     -13.905   8.288  72.012  1.00  0.00     0.000 HD 
HETATM   17  N   UNL     1     -13.539   8.553  71.098  1.00  0.00    -0.559 N  
HETATM   18  H2  UNL     1     -13.828   8.227  70.175  1.00  0.00     0.000 HD 
HETATM   19  O   UNL     1     -11.328   8.957  72.238  1.00  0.00    -0.345 OA 
HETATM   20  O   UNL     1     -13.058  10.782  72.056  1.00  0.00    -0.483 OA 
ENDBRANCH   9  15
BRANCH  13  21
HETATM   21  C   UNL     1     -10.093  14.734  66.432  1.00  0.00    -0.280 A  
HETATM   22  C   UNL     1     -10.888  15.812  66.027  1.00  0.00    -0.256 A  
HETATM   23  C   UNL     1     -10.344  17.094  65.925  1.00  0.00    -0.294 A  
HETATM   24  C   UNL     1      -9.002  17.309  66.227  1.00  0.00    -0.250 A  
HETATM   25  C   UNL     1      -8.204  16.243  66.640  1.00  0.00    -0.316 A  
HETATM   26  C   UNL     1      -8.740  14.952  66.773  1.00  0.00    -0.278 A  
HETATM   27  C   UNL     1      -7.843  13.874  67.318  1.00  0.00    -0.134 C  
ENDBRANCH  13  21
TORSDOF 2
ENDMDL
MODEL       11
REMARK 921   NORMALIZED FREE ENERGY PREDICTED BY IDOCK:   -6.30 KCAL/MOL
REMARK 922        TOTAL FREE ENERGY PREDICTED BY IDOCK:   -7.78 KCAL/MOL
REMARK 923 INTER-LIGAND FREE ENERGY PREDICTED BY IDOCK:   -7.53 KCAL/MOL
REMARK 924 INTRA-LIGAND FREE ENERGY PREDICTED BY IDOCK:   -0.26 KCAL/MOL
REMARK 927      BINDING AFFINITY PREDICTED BY RF-SCORE:    0.00 PKD
ROOT
HETATM    1  C   UNL     1     -10.196  19.623  65.733  1.00  0.00    -0.446 C  
HETATM    2  C   UNL     1     -10.108  18.178  66.218  1.00  0.00    -0.371 C  
HETATM    3  N   UNL     1     -10.772  17.300  65.250  1.00  0.00    -0.617 NA 
HETATM    4  H   UNL     1     -11.290  17.657  64.448  1.00  0.00     0.000 HD 
HETATM    5  C   UNL     1     -10.639  15.926  65.514  1.00  0.00    -0.401 A  
HETATM    6  C   UNL     1     -11.349  15.002  64.744  1.00  0.00    -0.409 A  
HETATM    7  C   UNL     1     -11.316  13.633  65.051  1.00  0.00    -0.329 A  
HETATM    8 CL   UNL     1     -12.218  12.592  64.009  1.00  0.00    -0.530 Cl 
HETATM    9  C   UNL     1     -10.584  13.191  66.158  1.00  0.00    -0.279 A  
HETATM   10  C   UNL     1      -9.823  14.097  66.906  1.00  0.00    -0.265 A  
HETATM   11  O   UNL     1      -8.088  15.995  68.034  1.00  0.00    -0.142 OA 
HETATM   12  C   UNL     1      -9.839  15.450  66.563  1.00  0.00    -0.288 A  
HETATM   13  N   UNL     1      -8.808  17.614  66.500  1.00  0.00    -0.265 N  
HETATM   14  C   UNL     1      -8.848  16.385  67.157  1.00  0.00    -0.195 C  
ENDROOT
BRANCH   9  15
HETATM   15  S   UNL     1     -10.588  11.501  66.653  1.00  0.00    -0.263 S  
HETATM   16  H1  UNL     1      -9.447  10.503  68.169  1.00  0.00     0.000 HD 
HETATM   17  N   UNL     1      -9.444  11.482  67.882  1.00  0.00    -0.172 N  
HETATM   18  H2  UNL     1      -8.888  12.253  68.250  1.00  0.00     0.000 HD 
HETATM   19  O   UNL     1     -11.861  11.171  67.237  1.00  0.00    -0.525 OA 
HETATM   20  O   UNL     1     -10.000  10.703  65.601  1.00  0.00    -0.239 OA 
ENDBRANCH   9  15
BRANCH  13  21
HETATM   21  C   UNL     1      -7.637  18.409  66.561  1.00  0.00    -0.240 A  
HETATM   22  C   UNL     1      -6.749  18.445  65.479  1.00  0.00    -0.255 A  
HETATM   23  C   UNL     1      -5.667  19.329  65.481  1.00  0.00    -0.202 A  
HETATM   24  C   UNL     1      -5.465  20.183  66.561  1.00  0.00    -0.185 A  
HETATM   25  C   UNL     1      -6.350  20.161  67.639  1.00  0.00    -0.260 A  
HETATM   26  C   UNL     1      -7.458  19.297  67.643  1.00  0.00    -0.271 A  
HETATM   27  C   UNL     1      -8.421  19.401  68.793  1.00  0.00    -0.377 C  
ENDBRANCH  13  21
TORSDOF 2
ENDMDL
MODEL       12
REMARK 921   NORMALIZED FREE ENERGY PREDICTED BY IDOCK:   -6.28 KCAL/MOL
REMARK 922        TOTAL FREE ENERGY PREDICTED BY IDOCK:   -7.76 KCAL/MOL
REMARK 923 INTER-LIGAND FREE ENERGY PREDICTED BY IDOCK:   -7.02 KCAL/MOL
REMARK 924 INTRA-LIGAND FREE ENERGY PREDICTED BY IDOCK:   -0.74 KCAL/MOL
REMARK 927      BINDING AFFINITY PREDICTED BY RF-SCORE:    0.00 PKD
ROOT
HETATM    1  C   UNL     1     -11.475   9.115  71.922  1.00  0.00    -0.423 C  
HETATM    2  C   UNL     1     -11.554   9.629  70.487  1.00  0.00    -0.272 C  
HETATM    3  N   UNL     1     -11.497  11.094  70.492  1.00  0.00    -0.448 NA 
HETATM    4  H   UNL     1     -11.511  11.642  71.352  1.00  0.00     0.000 HD 
HETATM    5  C   UNL     1     -11.423  11.685  69.219  1.00  0.00    -0.300 A  
HETATM    6  C   UNL     1     -11.510  13.073  69.095  1.00  0.00    -0.353 A  
HETATM    7  C   UNL     1     -11.542  13.683  67.831  1.00  0.00    -0.341 A  
HETATM    8 CL   UNL     1     -11.628  15.407  67.812  1.00  0.00    -0.292 Cl 
HETATM    9  C   UNL     1     -11.513  12.887  66.681  1.00  0.00    -0.343 A  
HETATM   10  C   UNL     1     -11.370  11.498  66.788  1.00  0.00    -0.309 A  
HETATM   11  O   UNL     1     -10.711   8.801  67.208  1.00  0.00    -0.276 OA 
HETATM   12  C   UNL     1     -11.302  10.914  68.053  1.00  0.00    -0.382 A  
HETATM   13  N   UNL     1     -10.588   9.158  69.521  1.00  0.00    -0.222 N  
HETATM   14  C   UNL     1     -10.887   9.495  68.202  1.00  0.00    -0.156 C  
ENDROOT
BRANCH   9  15
HETATM   15  S   UNL     1     -11.655  13.586  65.070  1.00  0.00    -0.343 S  
HETATM   16  H1  UNL     1     -11.636  12.640  63.147  1.00  0.00     0.000 HD 
HETATM   17  N   UNL     1     -11.554  12.235  64.079  1.00  0.00    -0.382 N  
HETATM   18  H2  UNL     1     -11.440  11.256  64.342  1.00  0.00     0.000 HD 
HETATM   19  O   UNL     1     -12.967  14.152  64.902  1.00  0.00    -0.705 OA 
HETATM   20  O   UNL     1     -10.455  14.338  64.778  1.00  0.00    -0.431 OA 
ENDBRANCH   9  15
BRANCH  13  21
HETATM   21  C   UNL     1      -9.716   8.075  69.793  1.00  0.00    -0.176 A  
HETATM   22  C   UNL     1     -10.137   6.757  69.584  1.00  0.00    -0.197 A  
HETATM   23  C   UNL     1      -9.239   5.696  69.722  1.00  0.00    -0.165 A  
HETATM   24  C   UNL     1      -7.915   5.944  70.069  1.00  0.00    -0.105 A  
HETATM   25  C   UNL     1      -7.483   7.254  70.271  1.00  0.00    -0.084 A  
HETATM   26  C   UNL     1      -8.366   8.335  70.112  1.00  0.00    -0.124 A  
HETATM   27  C   UNL     1      -7.803   9.723  70.249  1.00  0.00    -0.190 C  
ENDBRANCH  13  21
TORSDOF 2
ENDMDL
MODEL       13
REMARK 921   NORMALIZED FREE ENERGY PREDICTED BY IDOCK:   -6.23 KCAL/MOL
REMARK 922        TOTAL FREE ENERGY PREDICTED BY IDOCK:   -7.70 KCAL/MOL
REMARK 923 INTER-LIGAND FREE ENERGY PREDICTED BY IDOCK:   -6.96 KCAL/MOL
REMARK 924 INTRA-LIGAND FREE ENERGY PREDICTED BY IDOCK:   -0.74 KCAL/MOL
REMARK 927      BINDING AFFINITY PREDICTED BY RF-SCORE:    0.00 PKD
ROOT
HETATM    1  C   UNL     1     -12.175  13.042  65.809  1.00  0.00    -0.511 C  
HETATM    2  C   UNL     1     -10.984  13.858  66.306  1.00  0.00    -0.298 C  
HETATM    3  N   UNL     1     -11.261  15.285  66.121  1.00  0.00    -0.280 NA 
HETATM    4  H   UNL     1     -12.090  15.626  65.633  1.00  0.00     0.000 HD 
HETATM    5  C   UNL     1     -10.296  16.148  66.667  1.00  0.00    -0.296 A  
HETATM    6  C   UNL     1     -10.381  17.521  66.425  1.00  0.00    -0.334 A  
HETATM    7  C   UNL     1      -9.376  18.394  66.870  1.00  0.00    -0.290 A  
HETATM    8 CL   UNL     1      -9.609  20.071  66.528  1.00  0.00    -0.513 Cl 
HETATM    9  C   UNL     1      -8.262  17.878  67.541  1.00  0.00    -0.227 A  
HETATM   10  C   UNL     1      -8.189  16.512  67.839  1.00  0.00    -0.172 A  
HETATM   11  O   UNL     1      -8.412  13.836  68.657  1.00  0.00    -0.141 OA 
HETATM   12  C   UNL     1      -9.217  15.666  67.421  1.00  0.00    -0.205 A  
HETATM   13  N   UNL     1     -10.529  13.674  67.665  1.00  0.00    -0.237 N  
HETATM   14  C   UNL     1      -9.304  14.278  67.944  1.00  0.00    -0.198 C  
ENDROOT
BRANCH   9  15
HETATM   15  S   UNL     1      -6.921  18.909  68.032  1.00  0.00    -0.236 S  
HETATM   16  H1  UNL     1      -5.109  18.419  69.068  1.00  0.00     0.000 HD 
HETATM   17  N   UNL     1      -5.885  17.821  68.784  1.00  0.00    -0.178 N  
HETATM   18  H2  UNL     1      -6.003  16.817  68.921  1.00  0.00     0.000 HD 
HETATM   19  O   UNL     1      -6.248  19.416  66.866  1.00  0.00    -0.181 OA 
HETATM   20  O   UNL     1      -7.364  19.780  69.097  1.00  0.00    -0.336 OA 
ENDBRANCH   9  15
BRANCH  13  21
HETATM   21  C   UNL     1     -10.997  12.614  68.480  1.00  0.00    -0.261 A  
HETATM   22  C   UNL     1     -10.496  11.317  68.311  1.00  0.00    -0.220 A  
HETATM   23  C   UNL     1     -10.853  10.300  69.198  1.00  0.00    -0.270 A  
HETATM   24  C   UNL     1     -11.711  10.569  70.260  1.00  0.00    -0.420 A  
HETATM   25  C   UNL     1     -12.208  11.859  70.443  1.00  0.00    -0.399 A  
HETATM   26  C   UNL     1     -11.839  12.901  69.575  1.00  0.00    -0.383 A  
HETATM   27  C   UNL     1     -12.336  14.284  69.894  1.00  0.00    -0.377 C  
ENDBRANCH  13  21
TORSDOF 2
ENDMDL
MODEL       14
REMARK 921   NORMALIZED FREE ENERGY PREDICTED BY IDOCK:   -6.17 KCAL/MOL
REMARK 922        TOTAL FREE ENERGY PREDICTED BY IDOCK:   -7.63 KCAL/MOL
REMARK 923 INTER-LIGAND FREE ENERGY PREDICTED BY IDOCK:   -7.33 KCAL/MOL
REMARK 924 INTRA-LIGAND FREE ENERGY PREDICTED BY IDOCK:   -0.31 KCAL/MOL
REMARK 927      BINDING AFFINITY PREDICTED BY RF-SCORE:    0.00 PKD
ROOT
HETATM    1  C   UNL     1     -11.172   8.879  71.865  1.00  0.00    -0.447 C  
HETATM    2  C   UNL     1     -11.329   9.449  70.457  1.00  0.00    -0.274 C  
HETATM    3  N   UNL     1     -11.327  10.913  70.523  1.00  0.00    -0.450 NA 
HETATM    4  H   UNL     1     -11.326  11.424  71.406  1.00  0.00     0.000 HD 
HETATM    5  C   UNL     1     -11.327  11.558  69.275  1.00  0.00    -0.288 A  
HETATM    6  C   UNL     1     -11.472  12.946  69.214  1.00  0.00    -0.341 A  
HETATM    7  C   UNL     1     -11.579  13.606  67.980  1.00  0.00    -0.333 A  
HETATM    8 CL   UNL     1     -11.731  15.325  68.039  1.00  0.00    -0.328 Cl 
HETATM    9  C   UNL     1     -11.567  12.860  66.796  1.00  0.00    -0.360 A  
HETATM   10  C   UNL     1     -11.367  11.475  66.838  1.00  0.00    -0.324 A  
HETATM   11  O   UNL     1     -10.590   8.791  67.116  1.00  0.00    -0.291 OA 
HETATM   12  C   UNL     1     -11.225  10.842  68.073  1.00  0.00    -0.378 A  
HETATM   13  N   UNL     1     -10.385   9.056  69.435  1.00  0.00    -0.208 N  
HETATM   14  C   UNL     1     -10.751   9.436  68.144  1.00  0.00    -0.178 C  
ENDROOT
BRANCH   9  15
HETATM   15  S   UNL     1     -11.800  13.619  65.224  1.00  0.00    -0.370 S  
HETATM   16  H1  UNL     1     -11.840  12.753  63.263  1.00  0.00     0.000 HD 
HETATM   17  N   UNL     1     -11.705  12.313  64.174  1.00  0.00    -0.372 N  
HETATM   18  H2  UNL     1     -11.551  11.328  64.390  1.00  0.00     0.000 HD 
HETATM   19  O   UNL     1     -13.135  14.151  65.137  1.00  0.00    -0.757 OA 
HETATM   20  O   UNL     1     -10.637  14.419  64.912  1.00  0.00    -0.405 OA 
ENDBRANCH   9  15
BRANCH  13  21
HETATM   21  C   UNL     1      -9.463   7.999  69.627  1.00  0.00    -0.163 A  
HETATM   22  C   UNL     1      -8.138   8.271  69.989  1.00  0.00    -0.116 A  
HETATM   23  C   UNL     1      -7.263   7.231  70.309  1.00  0.00    -0.067 A  
HETATM   24  C   UNL     1      -7.704   5.912  70.270  1.00  0.00    -0.096 A  
HETATM   25  C   UNL     1      -9.024   5.630  69.920  1.00  0.00    -0.142 A  
HETATM   26  C   UNL     1      -9.925   6.665  69.620  1.00  0.00    -0.191 A  
HETATM   27  C   UNL     1     -11.356   6.290  69.347  1.00  0.00    -0.448 C  
ENDBRANCH  13  21
TORSDOF 2
ENDMDL
MODEL       15
REMARK 921   NORMALIZED FREE ENERGY PREDICTED BY IDOCK:   -6.16 KCAL/MOL
REMARK 922        TOTAL FREE ENERGY PREDICTED BY IDOCK:   -7.62 KCAL/MOL
REMARK 923 INTER-LIGAND FREE ENERGY PREDICTED BY IDOCK:   -7.40 KCAL/MOL
REMARK 924 INTRA-LIGAND FREE ENERGY PREDICTED BY IDOCK:   -0.22 KCAL/MOL
REMARK 927      BINDING AFFINITY PREDICTED BY RF-SCORE:    0.00 PKD
ROOT
HETATM    1  C   UNL     1      -8.923  13.752  67.003  1.00  0.00    -0.247 C  
HETATM    2  C   UNL     1      -9.468  12.565  67.795  1.00  0.00    -0.197 C  
HETATM    3  N   UNL     1     -10.495  13.036  68.729  1.00  0.00    -0.384 NA 
HETATM    4  H   UNL     1     -10.702  14.025  68.868  1.00  0.00     0.000 HD 
HETATM    5  C   UNL     1     -11.172  12.017  69.421  1.00  0.00    -0.196 A  
HETATM    6  C   UNL     1     -12.067  12.351  70.440  1.00  0.00    -0.381 A  
HETATM    7  C   UNL     1     -12.679  11.354  71.216  1.00  0.00    -0.393 A  
HETATM    8 CL   UNL     1     -13.783  11.894  72.429  1.00  0.00    -0.105 Cl 
HETATM    9  C   UNL     1     -12.368  10.010  70.981  1.00  0.00    -0.360 A  
HETATM   10  C   UNL     1     -11.517   9.657  69.928  1.00  0.00    -0.144 A  
HETATM   11  O   UNL     1     -10.098   9.146  67.560  1.00  0.00    -0.197 OA 
HETATM   12  C   UNL     1     -10.947  10.661  69.145  1.00  0.00    -0.296 A  
HETATM   13  N   UNL     1     -10.015  11.438  67.076  1.00  0.00    -0.198 N  
HETATM   14  C   UNL     1     -10.262  10.319  67.870  1.00  0.00    -0.183 C  
ENDROOT
BRANCH   9  15
HETATM   15  S   UNL     1     -13.024   8.722  71.988  1.00  0.00    -0.419 S  
HETATM   16  H1  UNL     1     -13.602   6.723  71.471  1.00  0.00     0.000 HD 
HETATM   17  N   UNL     1     -13.223   7.469  70.888  1.00  0.00    -0.591 N  
HETATM   18  H2  UNL     1     -13.016   7.456  69.889  1.00  0.00     0.000 HD 
HETATM   19  O   UNL     1     -12.035   8.306  72.947  1.00  0.00    -0.316 OA 
HETATM   20  O   UNL     1     -14.370   9.073  72.381  1.00  0.00    -0.499 OA 
ENDBRANCH   9  15
BRANCH  13  21
HETATM   21  C   UNL     1      -9.863  11.290  65.675  1.00  0.00    -0.234 A  
HETATM   22  C   UNL     1      -8.809  10.530  65.154  1.00  0.00    -0.206 A  
HETATM   23  C   UNL     1      -8.734  10.270  63.784  1.00  0.00    -0.211 A  
HETATM   24  C   UNL     1      -9.709  10.768  62.925  1.00  0.00    -0.337 A  
HETATM   25  C   UNL     1     -10.768  11.518  63.435  1.00  0.00    -0.444 A  
HETATM   26  C   UNL     1     -10.874  11.767  64.814  1.00  0.00    -0.358 A  
HETATM   27  C   UNL     1     -12.095  12.499  65.300  1.00  0.00    -0.500 C  
ENDBRANCH  13  21
TORSDOF 2
ENDMDL
MODEL       16
REMARK 921   NORMALIZED FREE ENERGY PREDICTED BY IDOCK:   -6.08 KCAL/MOL
REMARK 922        TOTAL FREE ENERGY PREDICTED BY IDOCK:   -7.53 KCAL/MOL
REMARK 923 INTER-LIGAND FREE ENERGY PREDICTED BY IDOCK:   -6.90 KCAL/MOL
REMARK 924 INTRA-LIGAND FREE ENERGY PREDICTED BY IDOCK:   -0.64 KCAL/MOL
REMARK 927      BINDING AFFINITY PREDICTED BY RF-SCORE:    0.00 PKD
ROOT
HETATM    1  C   UNL     1      -9.969  10.804  63.655  1.00  0.00    -0.405 C  
HETATM    2  C   UNL     1     -10.369  10.502  65.097  1.00  0.00    -0.240 C  
HETATM    3  N   UNL     1      -9.325   9.692  65.732  1.00  0.00    -0.208 NA 
HETATM    4  H   UNL     1      -8.525   9.324  65.217  1.00  0.00     0.000 HD 
HETATM    5  C   UNL     1      -9.511   9.463  67.105  1.00  0.00    -0.145 A  
HETATM    6  C   UNL     1      -8.660   8.587  67.782  1.00  0.00    -0.134 A  
HETATM    7  C   UNL     1      -8.884   8.259  69.128  1.00  0.00    -0.143 A  
HETATM    8 CL   UNL     1      -7.747   7.183  69.857  1.00  0.00    -0.105 Cl 
HETATM    9  C   UNL     1      -9.992   8.798  69.793  1.00  0.00    -0.190 A  
HETATM   10  C   UNL     1     -10.822   9.720  69.146  1.00  0.00    -0.231 A  
HETATM   11  O   UNL     1     -12.131  11.810  67.804  1.00  0.00    -0.595 OA 
HETATM   12  C   UNL     1     -10.561  10.061  67.818  1.00  0.00    -0.311 A  
HETATM   13  N   UNL     1     -10.669  11.602  65.984  1.00  0.00    -0.272 N  
HETATM   14  C   UNL     1     -11.249  11.220  67.193  1.00  0.00    -0.275 C  
ENDROOT
BRANCH   9  15
HETATM   15  S   UNL     1     -10.384   8.344  71.449  1.00  0.00    -0.241 S  
HETATM   16  H1  UNL     1     -11.964   9.022  72.729  1.00  0.00     0.000 HD 
HETATM   17  N   UNL     1     -11.737   9.285  71.770  1.00  0.00    -0.380 N  
HETATM   18  H2  UNL     1     -12.212   9.951  71.161  1.00  0.00     0.000 HD 
HETATM   19  O   UNL     1     -10.793   6.965  71.489  1.00  0.00    -0.226 OA 
HETATM   20  O   UNL     1      -9.365   8.864  72.332  1.00  0.00    -0.342 OA 
ENDBRANCH   9  15
BRANCH  13  21
HETATM   21  C   UNL     1     -10.824  12.929  65.514  1.00  0.00    -0.274 A  
HETATM   22  C   UNL     1     -11.940  13.282  64.746  1.00  0.00    -0.431 A  
HETATM   23  C   UNL     1     -12.165  14.615  64.396  1.00  0.00    -0.473 A  
HETATM   24  C   UNL     1     -11.279  15.605  64.810  1.00  0.00    -0.391 A  
HETATM   25  C   UNL     1     -10.169  15.265  65.583  1.00  0.00    -0.398 A  
HETATM   26  C   UNL     1      -9.941  13.933  65.967  1.00  0.00    -0.325 A  
HETATM   27  C   UNL     1      -8.779  13.658  66.882  1.00  0.00    -0.162 C  
ENDBRANCH  13  21
TORSDOF 2
ENDMDL
MODEL       17
REMARK 921   NORMALIZED FREE ENERGY PREDICTED BY IDOCK:   -6.03 KCAL/MOL
REMARK 922        TOTAL FREE ENERGY PREDICTED BY IDOCK:   -7.48 KCAL/MOL
REMARK 923 INTER-LIGAND FREE ENERGY PREDICTED BY IDOCK:   -7.22 KCAL/MOL
REMARK 924 INTRA-LIGAND FREE ENERGY PREDICTED BY IDOCK:   -0.25 KCAL/MOL
REMARK 927      BINDING AFFINITY PREDICTED BY RF-SCORE:    0.00 PKD
ROOT
HETATM    1  C   UNL     1     -10.304  11.813  64.598  1.00  0.00    -0.336 C  
HETATM    2  C   UNL     1     -10.890  11.497  65.972  1.00  0.00    -0.276 C  
HETATM    3  N   UNL     1     -10.317  10.242  66.468  1.00  0.00    -0.228 NA 
HETATM    4  H   UNL     1      -9.707   9.653  65.900  1.00  0.00     0.000 HD 
HETATM    5  C   UNL     1     -10.674   9.912  67.786  1.00  0.00    -0.277 A  
HETATM    6  C   UNL     1     -10.307   8.672  68.312  1.00  0.00    -0.252 A  
HETATM    7  C   UNL     1     -10.737   8.274  69.587  1.00  0.00    -0.194 A  
HETATM    8 CL   UNL     1     -10.196   6.727  70.133  1.00  0.00    -0.208 Cl 
HETATM    9  C   UNL     1     -11.566   9.121  70.330  1.00  0.00    -0.146 A  
HETATM   10  C   UNL     1     -11.898  10.390  69.841  1.00  0.00    -0.314 A  
HETATM   11  O   UNL     1     -12.135  13.008  68.855  1.00  0.00    -0.286 OA 
HETATM   12  C   UNL     1     -11.429  10.782  68.586  1.00  0.00    -0.365 A  
HETATM   13  N   UNL     1     -10.769  12.479  67.026  1.00  0.00    -0.239 N  
HETATM   14  C   UNL     1     -11.535  12.201  68.157  1.00  0.00    -0.317 C  
ENDROOT
BRANCH   9  15
HETATM   15  S   UNL     1     -12.222   8.634  71.892  1.00  0.00    -0.383 S  
HETATM   16  H1  UNL     1     -13.369   9.752  73.316  1.00  0.00     0.000 HD 
HETATM   17  N   UNL     1     -12.990  10.034  72.413  1.00  0.00    -0.435 N  
HETATM   18  H2  UNL     1     -13.060  10.937  71.944  1.00  0.00     0.000 HD 
HETATM   19  O   UNL     1     -13.233   7.629  71.700  1.00  0.00    -0.343 OA 
HETATM   20  O   UNL     1     -11.131   8.454  72.822  1.00  0.00    -0.327 OA 
ENDBRANCH   9  15
BRANCH  13  21
HETATM   21  C   UNL     1     -10.331  13.803  66.777  1.00  0.00    -0.272 A  
HETATM   22  C   UNL     1      -9.016  14.181  67.071  1.00  0.00    -0.251 A  
HETATM   23  C   UNL     1      -8.543  15.442  66.703  1.00  0.00    -0.318 A  
HETATM   24  C   UNL     1      -9.379  16.335  66.040  1.00  0.00    -0.361 A  
HETATM   25  C   UNL     1     -10.688  15.965  65.734  1.00  0.00    -0.325 A  
HETATM   26  C   UNL     1     -11.173  14.690  66.073  1.00  0.00    -0.342 A  
HETATM   27  C   UNL     1     -12.562  14.328  65.623  1.00  0.00    -0.429 C  
ENDBRANCH  13  21
TORSDOF 2
ENDMDL
MODEL       18
REMARK 921   NORMALIZED FREE ENERGY PREDICTED BY IDOCK:   -6.01 KCAL/MOL
REMARK 922        TOTAL FREE ENERGY PREDICTED BY IDOCK:   -7.45 KCAL/MOL
REMARK 923 INTER-LIGAND FREE ENERGY PREDICTED BY IDOCK:   -6.83 KCAL/MOL
REMARK 924 INTRA-LIGAND FREE ENERGY PREDICTED BY IDOCK:   -0.62 KCAL/MOL
REMARK 927      BINDING AFFINITY PREDICTED BY RF-SCORE:    0.00 PKD
ROOT
HETATM    1  C   UNL     1     -10.487   8.384  67.302  1.00  0.00    -0.373 C  
HETATM    2  C   UNL     1     -10.772   9.846  67.636  1.00  0.00    -0.281 C  
HETATM    3  N   UNL     1     -11.439   9.926  68.938  1.00  0.00    -0.484 NA 
HETATM    4  H   UNL     1     -11.739   9.099  69.455  1.00  0.00     0.000 HD 
HETATM    5  C   UNL     1     -11.632  11.231  69.422  1.00  0.00    -0.321 A  
HETATM    6  C   UNL     1     -12.383  11.435  70.581  1.00  0.00    -0.466 A  
HETATM    7  C   UNL     1     -12.679  12.732  71.029  1.00  0.00    -0.243 A  
HETATM    8 CL   UNL     1     -13.597  12.850  72.487  1.00  0.00    -0.602 Cl 
HETATM    9  C   UNL     1     -12.237  13.835  70.289  1.00  0.00    -0.359 A  
HETATM   10  C   UNL     1     -11.436  13.648  69.156  1.00  0.00    -0.346 A  
HETATM   11  O   UNL     1      -9.554  13.075  67.153  1.00  0.00    -0.217 OA 
HETATM   12  C   UNL     1     -11.122  12.351  68.748  1.00  0.00    -0.307 A  
HETATM   13  N   UNL     1      -9.676  10.787  67.646  1.00  0.00    -0.164 N  
HETATM   14  C   UNL     1     -10.070  12.122  67.724  1.00  0.00    -0.199 C  
ENDROOT
BRANCH   9  15
HETATM   15  S   UNL     1     -12.664  15.482  70.744  1.00  0.00    -0.415 S  
HETATM   16  H1  UNL     1     -12.588  17.294  69.600  1.00  0.00     0.000 HD 
HETATM   17  N   UNL     1     -12.341  16.340  69.337  1.00  0.00    -0.334 N  
HETATM   18  H2  UNL     1     -11.987  15.995  68.444  1.00  0.00     0.000 HD 
HETATM   19  O   UNL     1     -14.079  15.565  70.989  1.00  0.00    -0.513 OA 
HETATM   20  O   UNL     1     -11.693  15.972  71.696  1.00  0.00    -0.444 OA 
ENDBRANCH   9  15
BRANCH  13  21
HETATM   21  C   UNL     1      -8.393  10.457  67.145  1.00  0.00    -0.126 A  
HETATM   22  C   UNL     1      -8.138  10.498  65.769  1.00  0.00    -0.158 A  
HETATM   23  C   UNL     1      -6.844  10.306  65.283  1.00  0.00    -0.131 A  
HETATM   24  C   UNL     1      -5.794  10.070  66.166  1.00  0.00    -0.063 A  
HETATM   25  C   UNL     1      -6.036  10.036  67.539  1.00  0.00    -0.054 A  
HETATM   26  C   UNL     1      -7.327  10.253  68.048  1.00  0.00    -0.086 A  
HETATM   27  C   UNL     1      -7.491  10.300  69.542  1.00  0.00    -0.142 C  
ENDBRANCH  13  21
TORSDOF 2
ENDMDL
MODEL       19
REMARK 921   NORMALIZED FREE ENERGY PREDICTED BY IDOCK:   -6.00 KCAL/MOL
REMARK 922        TOTAL FREE ENERGY PREDICTED BY IDOCK:   -7.44 KCAL/MOL
REMARK 923 INTER-LIGAND FREE ENERGY PREDICTED BY IDOCK:   -7.39 KCAL/MOL
REMARK 924 INTRA-LIGAND FREE ENERGY PREDICTED BY IDOCK:   -0.05 KCAL/MOL
REMARK 927      BINDING AFFINITY PREDICTED BY RF-SCORE:    0.00 PKD
ROOT
HETATM    1  C   UNL     1     -11.983  12.300  68.431  1.00  0.00    -0.266 C  
HETATM    2  C   UNL     1     -11.684  13.625  67.734  1.00  0.00    -0.362 C  
HETATM    3  N   UNL     1     -11.237  14.607  68.727  1.00  0.00    -0.254 NA 
HETATM    4  H   UNL     1     -11.244  14.418  69.729  1.00  0.00     0.000 HD 
HETATM    5  C   UNL     1     -10.799  15.829  68.190  1.00  0.00    -0.307 A  
HETATM    6  C   UNL     1     -10.489  16.889  69.046  1.00  0.00    -0.341 A  
HETATM    7  C   UNL     1     -10.149  18.151  68.535  1.00  0.00    -0.400 A  
HETATM    8 CL   UNL     1      -9.764  19.370  69.696  1.00  0.00    -0.085 Cl 
HETATM    9  C   UNL     1     -10.146  18.357  67.152  1.00  0.00    -0.353 A  
HETATM   10  C   UNL     1     -10.401  17.292  66.280  1.00  0.00    -0.323 A  
HETATM   11  O   UNL     1     -10.569  14.966  64.717  1.00  0.00    -0.407 OA 
HETATM   12  C   UNL     1     -10.701  16.035  66.806  1.00  0.00    -0.259 A  
HETATM   13  N   UNL     1     -10.735  13.643  66.644  1.00  0.00    -0.279 N  
HETATM   14  C   UNL     1     -10.712  14.838  65.926  1.00  0.00    -0.316 C  
ENDROOT
BRANCH   9  15
HETATM   15  S   UNL     1      -9.829  19.944  66.456  1.00  0.00    -0.483 S  
HETATM   16  H1  UNL     1      -8.016  20.764  65.656  1.00  0.00     0.000 HD 
HETATM   17  N   UNL     1      -8.200  19.845  66.058  1.00  0.00    -0.441 N  
HETATM   18  H2  UNL     1      -7.557  19.064  66.187  1.00  0.00     0.000 HD 
HETATM   19  O   UNL     1     -10.567  20.092  65.230  1.00  0.00    -0.295 OA 
HETATM   20  O   UNL     1      -9.884  20.936  67.505  1.00  0.00    -0.414 OA 
ENDBRANCH   9  15
BRANCH  13  21
HETATM   21  C   UNL     1     -10.243  12.454  66.053  1.00  0.00    -0.245 A  
HETATM   22  C   UNL     1     -10.885  11.898  64.940  1.00  0.00    -0.356 A  
HETATM   23  C   UNL     1     -10.328  10.805  64.274  1.00  0.00    -0.401 A  
HETATM   24  C   UNL     1      -9.125  10.259  64.713  1.00  0.00    -0.256 A  
HETATM   25  C   UNL     1      -8.472  10.811  65.814  1.00  0.00    -0.174 A  
HETATM   26  C   UNL     1      -9.005  11.927  66.481  1.00  0.00    -0.199 A  
HETATM   27  C   UNL     1      -8.196  12.527  67.598  1.00  0.00    -0.172 C  
ENDBRANCH  13  21
TORSDOF 2
ENDMDL
MODEL       20
REMARK 921   NORMALIZED FREE ENERGY PREDICTED BY IDOCK:   -5.94 KCAL/MOL
REMARK 922        TOTAL FREE ENERGY PREDICTED BY IDOCK:   -7.38 KCAL/MOL
REMARK 923 INTER-LIGAND FREE ENERGY PREDICTED BY IDOCK:   -6.91 KCAL/MOL
REMARK 924 INTRA-LIGAND FREE ENERGY PREDICTED BY IDOCK:   -0.47 KCAL/MOL
REMARK 927      BINDING AFFINITY PREDICTED BY RF-SCORE:    0.00 PKD
ROOT
HETATM    1  C   UNL     1      -7.581   7.186  66.999  1.00  0.00    -0.099 C  
HETATM    2  C   UNL     1      -8.327   8.508  67.167  1.00  0.00    -0.111 C  
HETATM    3  N   UNL     1      -8.904   8.907  65.880  1.00  0.00    -0.167 NA 
HETATM    4  H   UNL     1      -8.718   8.402  65.013  1.00  0.00     0.000 HD 
HETATM    5  C   UNL     1      -9.734  10.039  65.933  1.00  0.00    -0.247 A  
HETATM    6  C   UNL     1     -10.221  10.595  64.747  1.00  0.00    -0.401 A  
HETATM    7  C   UNL     1     -10.965  11.785  64.763  1.00  0.00    -0.303 A  
HETATM    8 CL   UNL     1     -11.529  12.357  63.234  1.00  0.00    -0.486 Cl 
HETATM    9  C   UNL     1     -11.201  12.436  65.979  1.00  0.00    -0.335 A  
HETATM   10  C   UNL     1     -10.767  11.863  67.180  1.00  0.00    -0.280 A  
HETATM   11  O   UNL     1     -10.147  10.375  69.479  1.00  0.00    -0.229 OA 
HETATM   12  C   UNL     1     -10.060  10.660  67.147  1.00  0.00    -0.248 A  
HETATM   13  N   UNL     1      -9.372   8.599  68.161  1.00  0.00    -0.137 N  
HETATM   14  C   UNL     1      -9.822   9.896  68.400  1.00  0.00    -0.151 C  
ENDROOT
BRANCH   9  15
HETATM   15  S   UNL     1     -12.039  13.984  66.050  1.00  0.00    -0.456 S  
HETATM   16  H1  UNL     1     -12.862  15.032  67.729  1.00  0.00     0.000 HD 
HETATM   17  N   UNL     1     -12.376  14.136  67.688  1.00  0.00    -0.552 N  
HETATM   18  H2  UNL     1     -12.153  13.495  68.450  1.00  0.00     0.000 HD 
HETATM   19  O   UNL     1     -11.132  15.042  65.693  1.00  0.00    -0.337 OA 
HETATM   20  O   UNL     1     -13.335  13.844  65.427  1.00  0.00    -0.710 OA 
ENDBRANCH   9  15
BRANCH  13  21
HETATM   21  C   UNL     1      -9.578   7.589  69.133  1.00  0.00    -0.157 A  
HETATM   22  C   UNL     1      -9.022   7.713  70.412  1.00  0.00    -0.152 A  
HETATM   23  C   UNL     1      -9.333   6.790  71.412  1.00  0.00    -0.157 A  
HETATM   24  C   UNL     1     -10.203   5.737  71.144  1.00  0.00    -0.275 A  
HETATM   25  C   UNL     1     -10.770   5.610  69.876  1.00  0.00    -0.399 A  
HETATM   26  C   UNL     1     -10.488   6.544  68.865  1.00  0.00    -0.249 A  
HETATM   27  C   UNL     1     -11.214   6.397  67.556  1.00  0.00    -0.278 C  
ENDBRANCH  13  21
TORSDOF 2
ENDMDL
MODEL       21
REMARK 921   NORMALIZED FREE ENERGY PREDICTED BY IDOCK:   -5.90 KCAL/MOL
REMARK 922        TOTAL FREE ENERGY PREDICTED BY IDOCK:   -7.33 KCAL/MOL
REMARK 923 INTER-LIGAND FREE ENERGY PREDICTED BY IDOCK:   -6.60 KCAL/MOL
REMARK 924 INTRA-LIGAND FREE ENERGY PREDICTED BY IDOCK:   -0.73 KCAL/MOL
REMARK 927      BINDING AFFINITY PREDICTED BY RF-SCORE:    0.00 PKD
ROOT
HETATM    1  C   UNL     1      -9.624  10.019  64.739  1.00  0.00    -0.374 C  
HETATM    2  C   UNL     1     -10.176   9.691  66.124  1.00  0.00    -0.205 C  
HETATM    3  N   UNL     1      -9.221   8.839  66.839  1.00  0.00    -0.149 NA 
HETATM    4  H   UNL     1      -8.381   8.464  66.398  1.00  0.00     0.000 HD 
HETATM    5  C   UNL     1      -9.553   8.580  68.180  1.00  0.00    -0.143 A  
HETATM    6  C   UNL     1      -8.795   7.666  68.915  1.00  0.00    -0.135 A  
HETATM    7  C   UNL     1      -9.164   7.311  70.221  1.00  0.00    -0.155 A  
HETATM    8 CL   UNL     1      -8.132   6.188  71.032  1.00  0.00    -0.119 Cl 
HETATM    9  C   UNL     1     -10.321   7.860  70.785  1.00  0.00    -0.203 A  
HETATM   10  C   UNL     1     -11.060   8.819  70.082  1.00  0.00    -0.214 A  
HETATM   11  O   UNL     1     -12.177  10.975  68.672  1.00  0.00    -0.571 OA 
HETATM   12  C   UNL     1     -10.656   9.186  68.798  1.00  0.00    -0.208 A  
HETATM   13  N   UNL     1     -10.541  10.776  67.006  1.00  0.00    -0.248 N  
HETATM   14  C   UNL     1     -11.250  10.378  68.138  1.00  0.00    -0.268 C  
ENDROOT
BRANCH   9  15
HETATM   15  S   UNL     1     -10.891   7.375  72.379  1.00  0.00    -0.286 S  
HETATM   16  H1  UNL     1     -12.629   7.993  73.471  1.00  0.00     0.000 HD 
HETATM   17  N   UNL     1     -12.299   8.274  72.548  1.00  0.00    -0.557 N  
HETATM   18  H2  UNL     1     -12.719   8.935  71.893  1.00  0.00     0.000 HD 
HETATM   19  O   UNL     1     -11.263   5.985  72.358  1.00  0.00    -0.262 OA 
HETATM   20  O   UNL     1      -9.998   7.912  73.380  1.00  0.00    -0.314 OA 
ENDBRANCH   9  15
BRANCH  13  21
HETATM   21  C   UNL     1     -10.617  12.118  66.559  1.00  0.00    -0.237 A  
HETATM   22  C   UNL     1     -11.790  12.602  65.969  1.00  0.00    -0.492 A  
HETATM   23  C   UNL     1     -11.916  13.956  65.652  1.00  0.00    -0.409 A  
HETATM   24  C   UNL     1     -10.872  14.836  65.921  1.00  0.00    -0.331 A  
HETATM   25  C   UNL     1      -9.703  14.365  66.516  1.00  0.00    -0.305 A  
HETATM   26  C   UNL     1      -9.568  13.011  66.866  1.00  0.00    -0.243 A  
HETATM   27  C   UNL     1      -8.319  12.598  67.594  1.00  0.00    -0.174 C  
ENDBRANCH  13  21
TORSDOF 2
ENDMDL
MODEL       22
REMARK 921   NORMALIZED FREE ENERGY PREDICTED BY IDOCK:   -5.87 KCAL/MOL
REMARK 922        TOTAL FREE ENERGY PREDICTED BY IDOCK:   -7.30 KCAL/MOL
REMARK 923 INTER-LIGAND FREE ENERGY PREDICTED BY IDOCK:   -7.03 KCAL/MOL
REMARK 924 INTRA-LIGAND FREE ENERGY PREDICTED BY IDOCK:   -0.27 KCAL/MOL
REMARK 927      BINDING AFFINITY PREDICTED BY RF-SCORE:    0.00 PKD
ROOT
HETATM    1  C   UNL     1     -13.477   8.681  72.538  1.00  0.00    -0.336 C  
HETATM    2  C   UNL     1     -12.821   9.477  71.413  1.00  0.00    -0.358 C  
HETATM    3  N   UNL     1     -13.049  10.908  71.635  1.00  0.00    -0.443 NA 
HETATM    4  H   UNL     1     -13.649  11.261  72.380  1.00  0.00     0.000 HD 
HETATM    5  C   UNL     1     -12.376  11.757  70.739  1.00  0.00    -0.337 A  
HETATM    6  C   UNL     1     -12.632  13.130  70.763  1.00  0.00    -0.338 A  
HETATM    7  C   UNL     1     -12.053  13.987  69.814  1.00  0.00    -0.348 A  
HETATM    8 CL   UNL     1     -12.430  15.665  69.965  1.00  0.00    -0.331 Cl 
HETATM    9  C   UNL     1     -11.230  13.454  68.816  1.00  0.00    -0.275 A  
HETATM   10  C   UNL     1     -10.919  12.090  68.812  1.00  0.00    -0.282 A  
HETATM   11  O   UNL     1     -10.131   9.422  69.198  1.00  0.00    -0.181 OA 
HETATM   12  C   UNL     1     -11.475  11.259  69.786  1.00  0.00    -0.386 A  
HETATM   13  N   UNL     1     -11.411   9.294  71.158  1.00  0.00    -0.311 N  
HETATM   14  C   UNL     1     -10.964   9.876  69.973  1.00  0.00    -0.291 C  
ENDROOT
BRANCH   9  15
HETATM   15  S   UNL     1     -10.559  14.464  67.537  1.00  0.00    -0.267 S  
HETATM   16  H1  UNL     1      -9.110  13.998  66.027  1.00  0.00     0.000 HD 
HETATM   17  N   UNL     1      -9.499  13.414  66.767  1.00  0.00    -0.255 N  
HETATM   18  H2  UNL     1      -9.295  12.438  66.984  1.00  0.00     0.000 HD 
HETATM   19  O   UNL     1     -11.593  14.805  66.597  1.00  0.00    -0.360 OA 
HETATM   20  O   UNL     1      -9.705  15.467  68.132  1.00  0.00    -0.209 OA 
ENDBRANCH   9  15
BRANCH  13  21
HETATM   21  C   UNL     1     -10.666   8.247  71.755  1.00  0.00    -0.266 A  
HETATM   22  C   UNL     1      -9.872   8.497  72.881  1.00  0.00    -0.125 A  
HETATM   23  C   UNL     1      -9.244   7.445  73.551  1.00  0.00    -0.275 A  
HETATM   24  C   UNL     1      -9.405   6.137  73.104  1.00  0.00    -0.138 A  
HETATM   25  C   UNL     1     -10.201   5.877  71.990  1.00  0.00    -0.237 A  
HETATM   26  C   UNL     1     -10.861   6.920  71.318  1.00  0.00    -0.263 A  
HETATM   27  C   UNL     1     -11.780   6.551  70.186  1.00  0.00    -0.419 C  
ENDBRANCH  13  21
TORSDOF 2
ENDMDL
MODEL       23
REMARK 921   NORMALIZED FREE ENERGY PREDICTED BY IDOCK:   -5.84 KCAL/MOL
REMARK 922        TOTAL FREE ENERGY PREDICTED BY IDOCK:   -7.27 KCAL/MOL
REMARK 923 INTER-LIGAND FREE ENERGY PREDICTED BY IDOCK:   -7.03 KCAL/MOL
REMARK 924 INTRA-LIGAND FREE ENERGY PREDICTED BY IDOCK:   -0.25 KCAL/MOL
REMARK 927      BINDING AFFINITY PREDICTED BY RF-SCORE:    0.00 PKD
ROOT
HETATM    1  C   UNL     1     -11.909  11.445  70.512  1.00  0.00    -0.394 C  
HETATM    2  C   UNL     1     -11.700  12.478  69.407  1.00  0.00    -0.322 C  
HETATM    3  N   UNL     1     -11.288  13.751  70.005  1.00  0.00    -0.481 NA 
HETATM    4  H   UNL     1     -11.263  13.904  71.013  1.00  0.00     0.000 HD 
HETATM    5  C   UNL     1     -10.931  14.747  69.080  1.00  0.00    -0.248 A  
HETATM    6  C   UNL     1     -10.662  16.042  69.528  1.00  0.00    -0.298 A  
HETATM    7  C   UNL     1     -10.404  17.080  68.618  1.00  0.00    -0.351 A  
HETATM    8 CL   UNL     1     -10.064  18.630  69.299  1.00  0.00    -0.212 Cl 
HETATM    9  C   UNL     1     -10.442  16.818  67.244  1.00  0.00    -0.310 A  
HETATM   10  C   UNL     1     -10.655  15.514  66.781  1.00  0.00    -0.307 A  
HETATM   11  O   UNL     1     -10.726  12.797  66.077  1.00  0.00    -0.267 OA 
HETATM   12  C   UNL     1     -10.874  14.489  67.702  1.00  0.00    -0.275 A  
HETATM   13  N   UNL     1     -10.777  12.178  68.337  1.00  0.00    -0.220 N  
HETATM   14  C   UNL     1     -10.836  13.069  67.266  1.00  0.00    -0.252 C  
ENDROOT
BRANCH   9  15
HETATM   15  S   UNL     1     -10.229  18.099  66.054  1.00  0.00    -0.244 S  
HETATM   16  H1  UNL     1     -11.028  20.088  66.008  1.00  0.00     0.000 HD 
HETATM   17  N   UNL     1     -11.152  19.346  66.697  1.00  0.00    -0.216 N  
HETATM   18  H2  UNL     1     -11.697  19.359  67.559  1.00  0.00     0.000 HD 
HETATM   19  O   UNL     1      -8.856  18.531  66.049  1.00  0.00    -0.493 OA 
HETATM   20  O   UNL     1     -10.919  17.730  64.839  1.00  0.00    -0.866 OA 
ENDBRANCH   9  15
BRANCH  13  21
HETATM   21  C   UNL     1     -10.232  10.885  68.150  1.00  0.00    -0.176 A  
HETATM   22  C   UNL     1     -11.028   9.845  67.657  1.00  0.00    -0.263 A  
HETATM   23  C   UNL     1     -10.463   8.607  67.345  1.00  0.00    -0.351 A  
HETATM   24  C   UNL     1      -9.099   8.397  67.523  1.00  0.00    -0.145 A  
HETATM   25  C   UNL     1      -8.295   9.429  68.006  1.00  0.00    -0.119 A  
HETATM   26  C   UNL     1      -8.842  10.690  68.300  1.00  0.00    -0.139 A  
HETATM   27  C   UNL     1      -7.896  11.781  68.722  1.00  0.00    -0.076 C  
ENDBRANCH  13  21
TORSDOF 2
ENDMDL
MODEL       24
REMARK 921   NORMALIZED FREE ENERGY PREDICTED BY IDOCK:   -5.73 KCAL/MOL
REMARK 922        TOTAL FREE ENERGY PREDICTED BY IDOCK:   -7.15 KCAL/MOL
REMARK 923 INTER-LIGAND FREE ENERGY PREDICTED BY IDOCK:   -6.86 KCAL/MOL
REMARK 924 INTRA-LIGAND FREE ENERGY PREDICTED BY IDOCK:   -0.29 KCAL/MOL
REMARK 927      BINDING AFFINITY PREDICTED BY RF-SCORE:    0.00 PKD
ROOT
HETATM    1  C   UNL     1      -8.103   7.116  68.586  1.00  0.00    -0.124 C  
HETATM    2  C   UNL     1      -8.775   8.473  68.388  1.00  0.00    -0.143 C  
HETATM    3  N   UNL     1      -9.068   8.666  66.965  1.00  0.00    -0.134 NA 
HETATM    4  H   UNL     1      -8.757   8.014  66.245  1.00  0.00     0.000 HD 
HETATM    5  C   UNL     1      -9.813   9.820  66.669  1.00  0.00    -0.215 A  
HETATM    6  C   UNL     1     -10.026  10.183  65.337  1.00  0.00    -0.377 A  
HETATM    7  C   UNL     1     -10.676  11.384  65.013  1.00  0.00    -0.277 A  
HETATM    8 CL   UNL     1     -10.900  11.706  63.331  1.00  0.00    -0.462 Cl 
HETATM    9  C   UNL     1     -11.093  12.241  66.037  1.00  0.00    -0.309 A  
HETATM   10  C   UNL     1     -10.936  11.866  67.377  1.00  0.00    -0.315 A  
HETATM   11  O   UNL     1     -10.867  10.773  69.962  1.00  0.00    -0.252 OA 
HETATM   12  C   UNL     1     -10.320  10.651  67.679  1.00  0.00    -0.246 A  
HETATM   13  N   UNL     1      -9.980   8.770  69.127  1.00  0.00    -0.185 N  
HETATM   14  C   UNL     1     -10.377  10.105  69.060  1.00  0.00    -0.212 C  
ENDROOT
BRANCH   9  15
HETATM   15  S   UNL     1     -11.820  13.808  65.692  1.00  0.00    -0.387 S  
HETATM   16  H1  UNL     1     -12.474  15.352  67.027  1.00  0.00     0.000 HD 
HETATM   17  N   UNL     1     -12.053  14.445  67.228  1.00  0.00    -0.573 N  
HETATM   18  H2  UNL     1     -11.829  14.030  68.133  1.00  0.00     0.000 HD 
HETATM   19  O   UNL     1     -10.867  14.645  65.013  1.00  0.00    -0.365 OA 
HETATM   20  O   UNL     1     -13.157  13.601  65.181  1.00  0.00    -0.750 OA 
ENDBRANCH   9  15
BRANCH  13  21
HETATM   21  C   UNL     1     -10.436   7.950  70.188  1.00  0.00    -0.231 A  
HETATM   22  C   UNL     1     -11.465   7.024  69.976  1.00  0.00    -0.262 A  
HETATM   23  C   UNL     1     -11.824   6.123  70.979  1.00  0.00    -0.094 A  
HETATM   24  C   UNL     1     -11.160   6.138  72.202  1.00  0.00    -0.321 A  
HETATM   25  C   UNL     1     -10.128   7.050  72.421  1.00  0.00    -0.193 A  
HETATM   26  C   UNL     1      -9.736   7.948  71.413  1.00  0.00    -0.199 A  
HETATM   27  C   UNL     1      -8.551   8.833  71.688  1.00  0.00    -0.228 C  
ENDBRANCH  13  21
TORSDOF 2
ENDMDL
MODEL       25
REMARK 921   NORMALIZED FREE ENERGY PREDICTED BY IDOCK:   -5.73 KCAL/MOL
REMARK 922        TOTAL FREE ENERGY PREDICTED BY IDOCK:   -7.14 KCAL/MOL
REMARK 923 INTER-LIGAND FREE ENERGY PREDICTED BY IDOCK:   -6.40 KCAL/MOL
REMARK 924 INTRA-LIGAND FREE ENERGY PREDICTED BY IDOCK:   -0.75 KCAL/MOL
REMARK 927      BINDING AFFINITY PREDICTED BY RF-SCORE:    0.00 PKD
ROOT
HETATM    1  C   UNL     1      -7.489  11.587  66.380  1.00  0.00     0.047 C  
HETATM    2  C   UNL     1      -8.712  11.045  67.117  1.00  0.00    -0.135 C  
HETATM    3  N   UNL     1      -8.306  10.552  68.436  1.00  0.00    -0.121 NA 
HETATM    4  H   UNL     1      -7.330  10.502  68.728  1.00  0.00     0.000 HD 
HETATM    5  C   UNL     1      -9.366  10.152  69.267  1.00  0.00    -0.215 A  
HETATM    6  C   UNL     1      -9.091   9.531  70.488  1.00  0.00    -0.276 A  
HETATM    7  C   UNL     1     -10.127   9.029  71.290  1.00  0.00    -0.314 A  
HETATM    8 CL   UNL     1      -9.658   8.305  72.786  1.00  0.00    -0.346 Cl 
HETATM    9  C   UNL     1     -11.451   9.129  70.848  1.00  0.00    -0.296 A  
HETATM   10  C   UNL     1     -11.747   9.797  69.654  1.00  0.00     0.049 A  
HETATM   11  O   UNL     1     -12.154  11.481  67.444  1.00  0.00    -0.593 OA 
HETATM   12  C   UNL     1     -10.705  10.322  68.888  1.00  0.00    -0.256 A  
HETATM   13  N   UNL     1      -9.854  11.910  67.306  1.00  0.00    -0.186 N  
HETATM   14  C   UNL     1     -10.995  11.256  67.770  1.00  0.00    -0.252 C  
ENDROOT
BRANCH   9  15
HETATM   15  S   UNL     1     -12.784   8.427  71.761  1.00  0.00    -0.355 S  
HETATM   16  H1  UNL     1     -14.891   8.445  71.364  1.00  0.00     0.000 HD 
HETATM   17  N   UNL     1     -14.119   8.852  70.835  1.00  0.00    -0.521 N  
HETATM   18  H2  UNL     1     -14.151   9.383  69.965  1.00  0.00     0.000 HD 
HETATM   19  O   UNL     1     -12.681   6.991  71.742  1.00  0.00    -0.349 OA 
HETATM   20  O   UNL     1     -12.949   9.165  72.992  1.00  0.00    -0.232 OA 
ENDBRANCH   9  15
BRANCH  13  21
HETATM   21  C   UNL     1      -9.973  13.157  66.646  1.00  0.00    -0.270 A  
HETATM   22  C   UNL     1     -10.415  13.216  65.318  1.00  0.00    -0.319 A  
HETATM   23  C   UNL     1     -10.662  14.448  64.709  1.00  0.00    -0.423 A  
HETATM   24  C   UNL     1     -10.471  15.629  65.419  1.00  0.00    -0.435 A  
HETATM   25  C   UNL     1     -10.041  15.581  66.745  1.00  0.00    -0.268 A  
HETATM   26  C   UNL     1      -9.812  14.350  67.382  1.00  0.00    -0.224 A  
HETATM   27  C   UNL     1      -9.445  14.375  68.841  1.00  0.00    -0.107 C  
ENDBRANCH  13  21
TORSDOF 2
ENDMDL
MODEL       26
REMARK 921   NORMALIZED FREE ENERGY PREDICTED BY IDOCK:   -5.71 KCAL/MOL
REMARK 922        TOTAL FREE ENERGY PREDICTED BY IDOCK:   -7.12 KCAL/MOL
REMARK 923 INTER-LIGAND FREE ENERGY PREDICTED BY IDOCK:   -6.70 KCAL/MOL
REMARK 924 INTRA-LIGAND FREE ENERGY PREDICTED BY IDOCK:   -0.42 KCAL/MOL
REMARK 927      BINDING AFFINITY PREDICTED BY RF-SCORE:    0.00 PKD
ROOT
HETATM    1  C   UNL     1      -9.939  11.818  63.510  1.00  0.00    -0.430 C  
HETATM    2  C   UNL     1     -10.417  11.277  64.855  1.00  0.00    -0.314 C  
HETATM    3  N   UNL     1      -9.697  10.038  65.163  1.00  0.00    -0.296 NA 
HETATM    4  H   UNL     1      -9.063   9.591  64.501  1.00  0.00     0.000 HD 
HETATM    5  C   UNL     1      -9.949   9.514  66.442  1.00  0.00    -0.269 A  
HETATM    6  C   UNL     1      -9.433   8.263  66.791  1.00  0.00    -0.256 A  
HETATM    7  C   UNL     1      -9.754   7.670  68.022  1.00  0.00    -0.152 A  
HETATM    8 CL   UNL     1      -9.034   6.133  68.343  1.00  0.00    -0.116 Cl 
HETATM    9  C   UNL     1     -10.622   8.328  68.899  1.00  0.00    -0.139 A  
HETATM   10  C   UNL     1     -11.103   9.605  68.589  1.00  0.00    -0.085 A  
HETATM   11  O   UNL     1     -11.650  12.285  67.955  1.00  0.00    -0.312 OA 
HETATM   12  C   UNL     1     -10.743  10.195  67.376  1.00  0.00    -0.336 A  
HETATM   13  N   UNL     1     -10.338  12.130  66.019  1.00  0.00    -0.231 N  
HETATM   14  C   UNL     1     -11.012  11.636  67.135  1.00  0.00    -0.280 C  
ENDROOT
BRANCH   9  15
HETATM   15  S   UNL     1     -11.142   7.588  70.411  1.00  0.00    -0.246 S  
HETATM   16  H1  UNL     1     -12.630   8.222  71.819  1.00  0.00     0.000 HD 
HETATM   17  N   UNL     1     -12.329   8.650  70.944  1.00  0.00    -0.485 N  
HETATM   18  H2  UNL     1     -12.664   9.507  70.503  1.00  0.00     0.000 HD 
HETATM   19  O   UNL     1     -11.778   6.326  70.138  1.00  0.00    -0.398 OA 
HETATM   20  O   UNL     1     -10.082   7.715  71.384  1.00  0.00    -0.182 OA 
ENDBRANCH   9  15
BRANCH  13  21
HETATM   21  C   UNL     1     -10.048  13.513  65.923  1.00  0.00    -0.303 A  
HETATM   22  C   UNL     1     -10.908  14.370  65.227  1.00  0.00    -0.370 A  
HETATM   23  C   UNL     1     -10.698  15.750  65.244  1.00  0.00    -0.446 A  
HETATM   24  C   UNL     1      -9.628  16.285  65.956  1.00  0.00    -0.371 A  
HETATM   25  C   UNL     1      -8.771  15.441  66.660  1.00  0.00    -0.332 A  
HETATM   26  C   UNL     1      -8.982  14.052  66.676  1.00  0.00    -0.177 A  
HETATM   27  C   UNL     1      -8.076  13.216  67.538  1.00  0.00    -0.181 C  
ENDBRANCH  13  21
TORSDOF 2
ENDMDL
MODEL       27
REMARK 921   NORMALIZED FREE ENERGY PREDICTED BY IDOCK:   -5.71 KCAL/MOL
REMARK 922        TOTAL FREE ENERGY PREDICTED BY IDOCK:   -7.12 KCAL/MOL
REMARK 923 INTER-LIGAND FREE ENERGY PREDICTED BY IDOCK:   -7.20 KCAL/MOL
REMARK 924 INTRA-LIGAND FREE ENERGY PREDICTED BY IDOCK:    0.08 KCAL/MOL
REMARK 927      BINDING AFFINITY PREDICTED BY RF-SCORE:    0.00 PKD
ROOT
HETATM    1  C   UNL     1      -8.903   8.910  71.295  1.00  0.00    -0.298 C  
HETATM    2  C   UNL     1      -9.413   9.648  70.060  1.00  0.00    -0.240 C  
HETATM    3  N   UNL     1      -8.652   9.215  68.886  1.00  0.00    -0.129 NA 
HETATM    4  H   UNL     1      -7.845   8.593  68.951  1.00  0.00     0.000 HD 
HETATM    5  C   UNL     1      -9.119   9.721  67.661  1.00  0.00    -0.131 A  
HETATM    6  C   UNL     1      -8.387   9.493  66.494  1.00  0.00    -0.119 A  
HETATM    7  C   UNL     1      -8.773  10.073  65.276  1.00  0.00    -0.163 A  
HETATM    8 CL   UNL     1      -7.798   9.696  63.902  1.00  0.00    -0.129 Cl 
HETATM    9  C   UNL     1      -9.893  10.912  65.237  1.00  0.00    -0.265 A  
HETATM   10  C   UNL     1     -10.669  11.106  66.385  1.00  0.00    -0.303 A  
HETATM   11  O   UNL     1     -12.283  11.066  68.682  1.00  0.00    -0.571 OA 
HETATM   12  C   UNL     1     -10.288  10.491  67.579  1.00  0.00    -0.265 A  
HETATM   13  N   UNL     1     -10.817   9.565  69.727  1.00  0.00    -0.237 N  
HETATM   14  C   UNL     1     -11.222  10.457  68.734  1.00  0.00    -0.241 C  
ENDROOT
BRANCH   9  15
HETATM   15  S   UNL     1     -10.366  11.750  63.761  1.00  0.00    -0.456 S  
HETATM   16  H1  UNL     1     -10.535  13.849  63.359  1.00  0.00     0.000 HD 
HETATM   17  N   UNL     1     -10.261  13.364  64.213  1.00  0.00    -0.669 N  
HETATM   18  H2  UNL     1      -9.991  13.760  65.114  1.00  0.00     0.000 HD 
HETATM   19  O   UNL     1      -9.383  11.520  62.736  1.00  0.00    -0.374 OA 
HETATM   20  O   UNL     1     -11.776  11.532  63.530  1.00  0.00    -0.379 OA 
ENDBRANCH   9  15
BRANCH  13  21
HETATM   21  C   UNL     1     -11.773   9.016  70.616  1.00  0.00    -0.198 A  
HETATM   22  C   UNL     1     -12.518   9.850  71.458  1.00  0.00    -0.506 A  
HETATM   23  C   UNL     1     -13.553   9.328  72.236  1.00  0.00    -0.544 A  
HETATM   24  C   UNL     1     -13.851   7.970  72.180  1.00  0.00    -0.268 A  
HETATM   25  C   UNL     1     -13.121   7.132  71.338  1.00  0.00    -0.408 A  
HETATM   26  C   UNL     1     -12.094   7.644  70.528  1.00  0.00     0.022 A  
HETATM   27  C   UNL     1     -11.418   6.698  69.574  1.00  0.00    -0.323 C  
ENDBRANCH  13  21
TORSDOF 2
ENDMDL
MODEL       28
REMARK 921   NORMALIZED FREE ENERGY PREDICTED BY IDOCK:   -5.70 KCAL/MOL
REMARK 922        TOTAL FREE ENERGY PREDICTED BY IDOCK:   -7.11 KCAL/MOL
REMARK 923 INTER-LIGAND FREE ENERGY PREDICTED BY IDOCK:   -6.72 KCAL/MOL
REMARK 924 INTRA-LIGAND FREE ENERGY PREDICTED BY IDOCK:   -0.39 KCAL/MOL
REMARK 927      BINDING AFFINITY PREDICTED BY RF-SCORE:    0.00 PKD
ROOT
HETATM    1  C   UNL     1      -9.931   9.154  66.468  1.00  0.00    -0.359 C  
HETATM    2  C   UNL     1      -9.543  10.617  66.665  1.00  0.00    -0.175 C  
HETATM    3  N   UNL     1     -10.399  11.463  65.828  1.00  0.00    -0.247 NA 
HETATM    4  H   UNL     1     -11.064  11.079  65.156  1.00  0.00     0.000 HD 
HETATM    5  C   UNL     1     -10.233  12.845  66.023  1.00  0.00    -0.284 A  
HETATM    6  C   UNL     1     -10.889  13.745  65.180  1.00  0.00    -0.349 A  
HETATM    7  C   UNL     1     -10.661  15.126  65.286  1.00  0.00    -0.411 A  
HETATM    8 CL   UNL     1     -11.550  16.136  64.202  1.00  0.00    -0.210 Cl 
HETATM    9  C   UNL     1      -9.745  15.604  66.229  1.00  0.00    -0.301 A  
HETATM   10  C   UNL     1      -9.122  14.719  67.117  1.00  0.00    -0.231 A  
HETATM   11  O   UNL     1      -8.274  12.843  69.026  1.00  0.00     0.166 OA 
HETATM   12  C   UNL     1      -9.390  13.353  67.021  1.00  0.00    -0.243 A  
HETATM   13  N   UNL     1      -9.554  11.170  68.000  1.00  0.00    -0.171 N  
HETATM   14  C   UNL     1      -8.961  12.428  68.102  1.00  0.00    -0.196 C  
ENDROOT
BRANCH   9  15
HETATM   15  S   UNL     1      -9.340  17.315  66.339  1.00  0.00    -0.238 S  
HETATM   16  H1  UNL     1      -8.833  18.507  68.047  1.00  0.00     0.000 HD 
HETATM   17  N   UNL     1      -9.067  17.517  67.983  1.00  0.00    -0.262 N  
HETATM   18  H2  UNL     1      -9.121  16.824  68.730  1.00  0.00     0.000 HD 
HETATM   19  O   UNL     1      -8.098  17.563  65.657  1.00  0.00    -0.508 OA 
HETATM   20  O   UNL     1     -10.527  18.095  66.072  1.00  0.00    -0.440 OA 
ENDBRANCH   9  15
BRANCH  13  21
HETATM   21  C   UNL     1      -9.690  10.357  69.152  1.00  0.00    -0.220 A  
HETATM   22  C   UNL     1      -8.571   9.729  69.712  1.00  0.00    -0.215 A  
HETATM   23  C   UNL     1      -8.678   9.039  70.921  1.00  0.00    -0.280 A  
HETATM   24  C   UNL     1      -9.902   8.971  71.580  1.00  0.00    -0.366 A  
HETATM   25  C   UNL     1     -11.020   9.602  71.036  1.00  0.00    -0.431 A  
HETATM   26  C   UNL     1     -10.926  10.322  69.833  1.00  0.00    -0.358 A  
HETATM   27  C   UNL     1     -12.150  11.057  69.360  1.00  0.00    -0.389 C  
ENDBRANCH  13  21
TORSDOF 2
ENDMDL
MODEL       29
REMARK 921   NORMALIZED FREE ENERGY PREDICTED BY IDOCK:   -5.70 KCAL/MOL
REMARK 922        TOTAL FREE ENERGY PREDICTED BY IDOCK:   -7.11 KCAL/MOL
REMARK 923 INTER-LIGAND FREE ENERGY PREDICTED BY IDOCK:   -6.87 KCAL/MOL
REMARK 924 INTRA-LIGAND FREE ENERGY PREDICTED BY IDOCK:   -0.23 KCAL/MOL
REMARK 927      BINDING AFFINITY PREDICTED BY RF-SCORE:    0.00 PKD
ROOT
HETATM    1  C   UNL     1     -11.443  12.829  68.075  1.00  0.00    -0.364 C  
HETATM    2  C   UNL     1     -10.882  14.180  67.636  1.00  0.00    -0.260 C  
HETATM    3  N   UNL     1      -9.727  14.521  68.471  1.00  0.00    -0.220 NA 
HETATM    4  H   UNL     1      -9.446  13.962  69.276  1.00  0.00     0.000 HD 
HETATM    5  C   UNL     1      -9.037  15.680  68.075  1.00  0.00    -0.183 A  
HETATM    6  C   UNL     1      -8.011  16.181  68.879  1.00  0.00    -0.223 A  
HETATM    7  C   UNL     1      -7.375  17.392  68.563  1.00  0.00    -0.237 A  
HETATM    8 CL   UNL     1      -6.106  17.892  69.623  1.00  0.00    -0.248 Cl 
HETATM    9  C   UNL     1      -7.792  18.118  67.442  1.00  0.00    -0.218 A  
HETATM   10  C   UNL     1      -8.781  17.602  66.596  1.00  0.00    -0.286 A  
HETATM   11  O   UNL     1     -10.494  16.231  64.845  1.00  0.00    -0.624 OA 
HETATM   12  C   UNL     1      -9.376  16.379  66.908  1.00  0.00    -0.244 A  
HETATM   13  N   UNL     1     -10.493  14.360  66.256  1.00  0.00    -0.284 N  
HETATM   14  C   UNL     1     -10.223  15.682  65.905  1.00  0.00    -0.351 C  
ENDROOT
BRANCH   9  15
HETATM   15  S   UNL     1      -7.103  19.692  67.053  1.00  0.00    -0.212 S  
HETATM   16  H1  UNL     1      -7.748  21.172  65.643  1.00  0.00     0.000 HD 
HETATM   17  N   UNL     1      -8.148  20.261  65.868  1.00  0.00    -0.550 N  
HETATM   18  H2  UNL     1      -8.973  19.809  65.473  1.00  0.00     0.000 HD 
HETATM   19  O   UNL     1      -7.219  20.566  68.191  1.00  0.00    -0.244 OA 
HETATM   20  O   UNL     1      -5.848  19.497  66.364  1.00  0.00    -0.165 OA 
ENDBRANCH   9  15
BRANCH  13  21
HETATM   21  C   UNL     1     -10.816  13.415  65.252  1.00  0.00    -0.309 A  
HETATM   22  C   UNL     1      -9.862  12.485  64.820  1.00  0.00    -0.084 A  
HETATM   23  C   UNL     1     -10.215  11.468  63.931  1.00  0.00    -0.411 A  
HETATM   24  C   UNL     1     -11.523  11.372  63.466  1.00  0.00    -0.190 A  
HETATM   25  C   UNL     1     -12.483  12.286  63.896  1.00  0.00    -0.586 A  
HETATM   26  C   UNL     1     -12.152  13.300  64.811  1.00  0.00    -0.456 A  
HETATM   27  C   UNL     1     -13.262  14.187  65.304  1.00  0.00     0.074 C  
ENDBRANCH  13  21
TORSDOF 2
ENDMDL
MODEL       30
REMARK 921   NORMALIZED FREE ENERGY PREDICTED BY IDOCK:   -5.69 KCAL/MOL
REMARK 922        TOTAL FREE ENERGY PREDICTED BY IDOCK:   -7.10 KCAL/MOL
REMARK 923 INTER-LIGAND FREE ENERGY PREDICTED BY IDOCK:   -7.03 KCAL/MOL
REMARK 924 INTRA-LIGAND FREE ENERGY PREDICTED BY IDOCK:   -0.06 KCAL/MOL
REMARK 927      BINDING AFFINITY PREDICTED BY RF-SCORE:    0.00 PKD
ROOT
HETATM    1  C   UNL     1     -12.353   9.587  72.078  1.00  0.00    -0.404 C  
HETATM    2  C   UNL     1     -12.103   9.779  70.584  1.00  0.00    -0.230 C  
HETATM    3  N   UNL     1     -12.168  11.207  70.260  1.00  0.00    -0.337 NA 
HETATM    4  H   UNL     1     -12.446  11.914  70.941  1.00  0.00     0.000 HD 
HETATM    5  C   UNL     1     -11.818  11.527  68.938  1.00  0.00    -0.341 A  
HETATM    6  C   UNL     1     -11.983  12.835  68.476  1.00  0.00    -0.265 A  
HETATM    7  C   UNL     1     -11.739  13.161  67.133  1.00  0.00    -0.377 A  
HETATM    8 CL   UNL     1     -11.957  14.817  66.693  1.00  0.00    -0.272 Cl 
HETATM    9  C   UNL     1     -11.352  12.157  66.239  1.00  0.00    -0.357 A  
HETATM   10  C   UNL     1     -11.129  10.853  66.697  1.00  0.00    -0.155 A  
HETATM   11  O   UNL     1     -10.383   8.416  67.877  1.00  0.00    -0.211 OA 
HETATM   12  C   UNL     1     -11.341  10.557  68.045  1.00  0.00    -0.319 A  
HETATM   13  N   UNL     1     -10.886   9.255  70.007  1.00  0.00    -0.233 N  
HETATM   14  C   UNL     1     -10.863   9.269  68.613  1.00  0.00    -0.078 C  
ENDROOT
BRANCH   9  15
HETATM   15  S   UNL     1     -11.132  12.484  64.522  1.00  0.00    -0.340 S  
HETATM   16  H1  UNL     1     -12.574  12.982  63.016  1.00  0.00     0.000 HD 
HETATM   17  N   UNL     1     -12.701  12.793  64.010  1.00  0.00    -0.707 N  
HETATM   18  H2  UNL     1     -13.564  12.792  64.555  1.00  0.00     0.000 HD 
HETATM   19  O   UNL     1     -10.373  13.694  64.353  1.00  0.00    -0.428 OA 
HETATM   20  O   UNL     1     -10.770  11.255  63.853  1.00  0.00    -0.363 OA 
ENDBRANCH   9  15
BRANCH  13  21
HETATM   21  C   UNL     1     -10.029   8.381  70.718  1.00  0.00    -0.189 A  
HETATM   22  C   UNL     1      -8.917   8.884  71.405  1.00  0.00    -0.300 A  
HETATM   23  C   UNL     1      -8.149   8.047  72.217  1.00  0.00    -0.179 A  
HETATM   24  C   UNL     1      -8.484   6.703  72.349  1.00  0.00    -0.117 A  
HETATM   25  C   UNL     1      -9.594   6.194  71.677  1.00  0.00    -0.166 A  
HETATM   26  C   UNL     1     -10.394   7.027  70.876  1.00  0.00    -0.214 A  
HETATM   27  C   UNL     1     -11.630   6.429  70.262  1.00  0.00    -0.451 C  
ENDBRANCH  13  21
TORSDOF 2
ENDMDL
MODEL       31
REMARK 921   NORMALIZED FREE ENERGY PREDICTED BY IDOCK:   -5.65 KCAL/MOL
REMARK 922        TOTAL FREE ENERGY PREDICTED BY IDOCK:   -7.05 KCAL/MOL
REMARK 923 INTER-LIGAND FREE ENERGY PREDICTED BY IDOCK:   -6.32 KCAL/MOL
REMARK 924 INTRA-LIGAND FREE ENERGY PREDICTED BY IDOCK:   -0.73 KCAL/MOL
REMARK 927      BINDING AFFINITY PREDICTED BY RF-SCORE:    0.00 PKD
ROOT
HETATM    1  C   UNL     1     -11.518  13.331  65.241  1.00  0.00    -0.319 C  
HETATM    2  C   UNL     1     -11.600  12.506  66.523  1.00  0.00    -0.388 C  
HETATM    3  N   UNL     1     -10.962  11.205  66.306  1.00  0.00    -0.215 NA 
HETATM    4  H   UNL     1     -10.624  10.904  65.391  1.00  0.00     0.000 HD 
HETATM    5  C   UNL     1     -10.850  10.405  67.455  1.00  0.00    -0.301 A  
HETATM    6  C   UNL     1     -10.392   9.090  67.341  1.00  0.00    -0.335 A  
HETATM    7  C   UNL     1     -10.368   8.236  68.454  1.00  0.00    -0.199 A  
HETATM    8 CL   UNL     1      -9.757   6.643  68.187  1.00  0.00    -0.130 Cl 
HETATM    9  C   UNL     1     -10.834   8.700  69.689  1.00  0.00    -0.157 A  
HETATM   10  C   UNL     1     -11.245  10.030  69.832  1.00  0.00    -0.327 A  
HETATM   11  O   UNL     1     -11.666  12.802  69.995  1.00  0.00    -0.288 OA 
HETATM   12  C   UNL     1     -11.227  10.875  68.722  1.00  0.00    -0.329 A  
HETATM   13  N   UNL     1     -11.062  13.059  67.745  1.00  0.00    -0.252 N  
HETATM   14  C   UNL     1     -11.397  12.341  68.892  1.00  0.00    -0.287 C  
ENDROOT
BRANCH   9  15
HETATM   15  S   UNL     1     -10.926   7.645  71.096  1.00  0.00    -0.250 S  
HETATM   16  H1  UNL     1     -11.612   8.053  73.086  1.00  0.00     0.000 HD 
HETATM   17  N   UNL     1     -11.559   8.664  72.271  1.00  0.00    -0.368 N  
HETATM   18  H2  UNL     1     -11.824   9.646  72.191  1.00  0.00     0.000 HD 
HETATM   19  O   UNL     1     -11.890   6.603  70.859  1.00  0.00    -0.359 OA 
HETATM   20  O   UNL     1      -9.586   7.356  71.554  1.00  0.00    -0.153 OA 
ENDBRANCH   9  15
BRANCH  13  21
HETATM   21  C   UNL     1     -10.667  14.415  67.850  1.00  0.00    -0.244 A  
HETATM   22  C   UNL     1     -11.603  15.402  68.179  1.00  0.00    -0.331 A  
HETATM   23  C   UNL     1     -11.193  16.716  68.415  1.00  0.00    -0.239 A  
HETATM   24  C   UNL     1      -9.846  17.054  68.324  1.00  0.00    -0.278 A  
HETATM   25  C   UNL     1      -8.905  16.076  68.006  1.00  0.00    -0.175 A  
HETATM   26  C   UNL     1      -9.295  14.744  67.791  1.00  0.00    -0.199 A  
HETATM   27  C   UNL     1      -8.213  13.728  67.549  1.00  0.00    -0.194 C  
ENDBRANCH  13  21
TORSDOF 2
ENDMDL
MODEL       32
REMARK 921   NORMALIZED FREE ENERGY PREDICTED BY IDOCK:   -5.55 KCAL/MOL
REMARK 922        TOTAL FREE ENERGY PREDICTED BY IDOCK:   -6.95 KCAL/MOL
REMARK 923 INTER-LIGAND FREE ENERGY PREDICTED BY IDOCK:   -6.61 KCAL/MOL
REMARK 924 INTRA-LIGAND FREE ENERGY PREDICTED BY IDOCK:   -0.34 KCAL/MOL
REMARK 927      BINDING AFFINITY PREDICTED BY RF-SCORE:    0.00 PKD
ROOT
HETATM    1  C   UNL     1     -12.165  14.623  66.086  1.00  0.00    -0.167 C  
HETATM    2  C   UNL     1     -11.988  13.196  66.599  1.00  0.00    -0.389 C  
HETATM    3  N   UNL     1     -11.010  12.496  65.762  1.00  0.00    -0.283 NA 
HETATM    4  H   UNL     1     -10.615  12.907  64.916  1.00  0.00     0.000 HD 
HETATM    5  C   UNL     1     -10.657  11.214  66.216  1.00  0.00    -0.253 A  
HETATM    6  C   UNL     1      -9.845  10.399  65.423  1.00  0.00    -0.347 A  
HETATM    7  C   UNL     1      -9.562   9.078  65.802  1.00  0.00    -0.217 A  
HETATM    8 CL   UNL     1      -8.528   8.181  64.748  1.00  0.00    -0.112 Cl 
HETATM    9  C   UNL     1     -10.121   8.562  66.976  1.00  0.00    -0.277 A  
HETATM   10  C   UNL     1     -10.891   9.382  67.809  1.00  0.00    -0.223 A  
HETATM   11  O   UNL     1     -12.080  11.277  69.507  1.00  0.00    -0.321 OA 
HETATM   12  C   UNL     1     -11.131  10.705  67.433  1.00  0.00    -0.341 A  
HETATM   13  N   UNL     1     -11.610  12.990  67.979  1.00  0.00    -0.321 N  
HETATM   14  C   UNL     1     -11.709  11.667  68.407  1.00  0.00    -0.307 C  
ENDROOT
BRANCH   9  15
HETATM   15  S   UNL     1      -9.886   6.882  67.450  1.00  0.00    -0.156 S  
HETATM   16  H1  UNL     1     -10.753   5.089  66.656  1.00  0.00     0.000 HD 
HETATM   17  N   UNL     1     -10.889   6.062  66.382  1.00  0.00    -0.653 N  
HETATM   18  H2  UNL     1     -11.484   6.440  65.644  1.00  0.00     0.000 HD 
HETATM   19  O   UNL     1      -8.532   6.484  67.169  1.00  0.00    -0.112 OA 
HETATM   20  O   UNL     1     -10.491   6.671  68.746  1.00  0.00    -0.183 OA 
ENDBRANCH   9  15
BRANCH  13  21
HETATM   21  C   UNL     1     -11.615  14.042  68.927  1.00  0.00    -0.315 A  
HETATM   22  C   UNL     1     -12.741  14.270  69.726  1.00  0.00    -0.003 A  
HETATM   23  C   UNL     1     -12.702  15.216  70.752  1.00  0.00    -0.463 A  
HETATM   24  C   UNL     1     -11.538  15.942  70.988  1.00  0.00    -0.465 A  
HETATM   25  C   UNL     1     -10.408  15.716  70.203  1.00  0.00    -0.268 A  
HETATM   26  C   UNL     1     -10.421  14.750  69.184  1.00  0.00    -0.243 A  
HETATM   27  C   UNL     1      -9.135  14.494  68.446  1.00  0.00    -0.191 C  
ENDBRANCH  13  21
TORSDOF 2
ENDMDL
MODEL       33
REMARK 921   NORMALIZED FREE ENERGY PREDICTED BY IDOCK:   -5.53 KCAL/MOL
REMARK 922        TOTAL FREE ENERGY PREDICTED BY IDOCK:   -6.93 KCAL/MOL
REMARK 923 INTER-LIGAND FREE ENERGY PREDICTED BY IDOCK:   -6.32 KCAL/MOL
REMARK 924 INTRA-LIGAND FREE ENERGY PREDICTED BY IDOCK:   -0.60 KCAL/MOL
REMARK 927      BINDING AFFINITY PREDICTED BY RF-SCORE:    0.00 PKD
ROOT
HETATM    1  C   UNL     1      -8.077  12.722  67.209  1.00  0.00    -0.172 C  
HETATM    2  C   UNL     1      -8.474  11.289  67.555  1.00  0.00    -0.131 C  
HETATM    3  N   UNL     1      -8.513  11.134  69.012  1.00  0.00    -0.345 NA 
HETATM    4  H   UNL     1      -8.210  11.868  69.652  1.00  0.00     0.000 HD 
HETATM    5  C   UNL     1      -9.000   9.894  69.459  1.00  0.00    -0.211 A  
HETATM    6  C   UNL     1      -8.946   9.580  70.819  1.00  0.00    -0.152 A  
HETATM    7  C   UNL     1      -9.329   8.311  71.280  1.00  0.00    -0.173 A  
HETATM    8 CL   UNL     1      -9.239   8.055  72.986  1.00  0.00    -0.311 Cl 
HETATM    9  C   UNL     1      -9.745   7.340  70.363  1.00  0.00    -0.172 A  
HETATM   10  C   UNL     1      -9.857   7.656  69.004  1.00  0.00    -0.168 A  
HETATM   11  O   UNL     1     -10.363   8.595  66.406  1.00  0.00    -0.262 OA 
HETATM   12  C   UNL     1      -9.506   8.935  68.569  1.00  0.00    -0.152 A  
HETATM   13  N   UNL     1      -9.710  10.759  67.025  1.00  0.00    -0.173 N  
HETATM   14  C   UNL     1      -9.862   9.384  67.198  1.00  0.00    -0.187 C  
ENDROOT
BRANCH   9  15
HETATM   15  S   UNL     1     -10.139   5.700  70.870  1.00  0.00    -0.213 S  
HETATM   16  H1  UNL     1     -10.735   4.000  69.707  1.00  0.00     0.000 HD 
HETATM   17  N   UNL     1     -10.507   4.950  69.413  1.00  0.00    -0.074 N  
HETATM   18  H2  UNL     1     -10.503   5.344  68.472  1.00  0.00     0.000 HD 
HETATM   19  O   UNL     1      -8.964   5.063  71.403  1.00  0.00    -0.131 OA 
HETATM   20  O   UNL     1     -11.391   5.720  71.591  1.00  0.00    -0.242 OA 
ENDBRANCH   9  15
BRANCH  13  21
HETATM   21  C   UNL     1     -10.451  11.432  66.024  1.00  0.00    -0.255 A  
HETATM   22  C   UNL     1     -10.261  11.121  64.672  1.00  0.00    -0.376 A  
HETATM   23  C   UNL     1     -11.083  11.683  63.694  1.00  0.00    -0.506 A  
HETATM   24  C   UNL     1     -12.101  12.560  64.057  1.00  0.00    -0.557 A  
HETATM   25  C   UNL     1     -12.305  12.869  65.401  1.00  0.00    -0.538 A  
HETATM   26  C   UNL     1     -11.504  12.293  66.401  1.00  0.00    -0.434 A  
HETATM   27  C   UNL     1     -11.847  12.598  67.834  1.00  0.00    -0.388 C  
ENDBRANCH  13  21
TORSDOF 2
ENDMDL
MODEL       34
REMARK 921   NORMALIZED FREE ENERGY PREDICTED BY IDOCK:   -5.46 KCAL/MOL
REMARK 922        TOTAL FREE ENERGY PREDICTED BY IDOCK:   -6.85 KCAL/MOL
REMARK 923 INTER-LIGAND FREE ENERGY PREDICTED BY IDOCK:   -6.22 KCAL/MOL
REMARK 924 INTRA-LIGAND FREE ENERGY PREDICTED BY IDOCK:   -0.63 KCAL/MOL
REMARK 927      BINDING AFFINITY PREDICTED BY RF-SCORE:    0.00 PKD
ROOT
HETATM    1  C   UNL     1     -13.356   6.504  72.096  1.00  0.00     0.141 C  
HETATM    2  C   UNL     1     -12.857   7.674  71.252  1.00  0.00    -0.260 C  
HETATM    3  N   UNL     1     -13.200   8.934  71.917  1.00  0.00    -0.366 NA 
HETATM    4  H   UNL     1     -13.777   8.973  72.758  1.00  0.00     0.000 HD 
HETATM    5  C   UNL     1     -12.674  10.085  71.306  1.00  0.00    -0.399 A  
HETATM    6  C   UNL     1     -13.054  11.347  71.766  1.00  0.00    -0.523 A  
HETATM    7  C   UNL     1     -12.625  12.512  71.111  1.00  0.00    -0.253 A  
HETATM    8 CL   UNL     1     -13.145  14.012  71.791  1.00  0.00    -0.425 Cl 
HETATM    9  C   UNL     1     -11.828  12.405  69.965  1.00  0.00    -0.288 A  
HETATM   10  C   UNL     1     -11.394  11.150  69.524  1.00  0.00    -0.359 A  
HETATM   11  O   UNL     1     -10.336   8.596  69.029  1.00  0.00    -0.208 OA 
HETATM   12  C   UNL     1     -11.800  10.005  70.211  1.00  0.00    -0.291 A  
HETATM   13  N   UNL     1     -11.457   7.733  70.898  1.00  0.00    -0.279 N  
HETATM   14  C   UNL     1     -11.151   8.697  69.938  1.00  0.00    -0.116 C  
ENDROOT
BRANCH   9  15
HETATM   15  S   UNL     1     -11.346  13.825  69.041  1.00  0.00    -0.306 S  
HETATM   16  H1  UNL     1      -9.794  14.060  67.581  1.00  0.00     0.000 HD 
HETATM   17  N   UNL     1     -10.073  13.238  68.116  1.00  0.00    -0.235 N  
HETATM   18  H2  UNL     1      -9.679  12.297  68.094  1.00  0.00     0.000 HD 
HETATM   19  O   UNL     1     -12.403  14.198  68.139  1.00  0.00    -0.227 OA 
HETATM   20  O   UNL     1     -10.731  14.779  69.935  1.00  0.00    -0.207 OA 
ENDBRANCH   9  15
BRANCH  13  21
HETATM   21  C   UNL     1     -10.578   6.643  71.110  1.00  0.00    -0.228 A  
HETATM   22  C   UNL     1     -10.531   5.584  70.196  1.00  0.00    -0.370 A  
HETATM   23  C   UNL     1      -9.573   4.576  70.330  1.00  0.00    -0.263 A  
HETATM   24  C   UNL     1      -8.656   4.619  71.376  1.00  0.00    -0.123 A  
HETATM   25  C   UNL     1      -8.689   5.675  72.286  1.00  0.00    -0.132 A  
HETATM   26  C   UNL     1      -9.629   6.711  72.152  1.00  0.00    -0.149 A  
HETATM   27  C   UNL     1      -9.539   7.864  73.113  1.00  0.00    -0.352 C  
ENDBRANCH  13  21
TORSDOF 2
ENDMDL
MODEL       35
REMARK 921   NORMALIZED FREE ENERGY PREDICTED BY IDOCK:   -5.45 KCAL/MOL
REMARK 922        TOTAL FREE ENERGY PREDICTED BY IDOCK:   -6.84 KCAL/MOL
REMARK 923 INTER-LIGAND FREE ENERGY PREDICTED BY IDOCK:   -6.55 KCAL/MOL
REMARK 924 INTRA-LIGAND FREE ENERGY PREDICTED BY IDOCK:   -0.29 KCAL/MOL
REMARK 927      BINDING AFFINITY PREDICTED BY RF-SCORE:    0.00 PKD
ROOT
HETATM    1  C   UNL     1     -12.165  13.301  65.599  1.00  0.00    -0.514 C  
HETATM    2  C   UNL     1     -10.932  14.121  65.973  1.00  0.00    -0.304 C  
HETATM    3  N   UNL     1     -11.270  15.547  65.942  1.00  0.00    -0.195 NA 
HETATM    4  H   UNL     1     -12.172  15.892  65.613  1.00  0.00     0.000 HD 
HETATM    5  C   UNL     1     -10.255  16.402  66.403  1.00  0.00    -0.316 A  
HETATM    6  C   UNL     1     -10.409  17.785  66.284  1.00  0.00    -0.358 A  
HETATM    7  C   UNL     1      -9.370  18.659  66.639  1.00  0.00    -0.315 A  
HETATM    8 CL   UNL     1      -9.694  20.347  66.468  1.00  0.00    -0.501 Cl 
HETATM    9  C   UNL     1      -8.154  18.136  67.094  1.00  0.00    -0.221 A  
HETATM   10  C   UNL     1      -8.003  16.756  67.270  1.00  0.00    -0.197 A  
HETATM   11  O   UNL     1      -8.032  14.021  67.902  1.00  0.00    -0.130 OA 
HETATM   12  C   UNL     1      -9.061  15.906  66.946  1.00  0.00    -0.255 A  
HETATM   13  N   UNL     1     -10.271  13.855  67.230  1.00  0.00    -0.248 N  
HETATM   14  C   UNL     1      -9.033  14.481  67.368  1.00  0.00    -0.200 C  
ENDROOT
BRANCH   9  15
HETATM   15  S   UNL     1      -6.780  19.177  67.456  1.00  0.00    -0.198 S  
HETATM   16  H1  UNL     1      -4.873  18.699  68.311  1.00  0.00     0.000 HD 
HETATM   17  N   UNL     1      -5.669  18.096  68.101  1.00  0.00    -0.160 N  
HETATM   18  H2  UNL     1      -5.765  17.091  68.247  1.00  0.00     0.000 HD 
HETATM   19  O   UNL     1      -6.226  19.692  66.232  1.00  0.00    -0.172 OA 
HETATM   20  O   UNL     1      -7.125  20.042  68.561  1.00  0.00    -0.308 OA 
ENDBRANCH   9  15
BRANCH  13  21
HETATM   21  C   UNL     1     -10.582  12.722  68.021  1.00  0.00    -0.226 A  
HETATM   22  C   UNL     1     -11.468  12.833  69.099  1.00  0.00    -0.361 A  
HETATM   23  C   UNL     1     -11.881  11.695  69.796  1.00  0.00    -0.428 A  
HETATM   24  C   UNL     1     -11.413  10.439  69.422  1.00  0.00    -0.292 A  
HETATM   25  C   UNL     1     -10.537  10.317  68.344  1.00  0.00    -0.247 A  
HETATM   26  C   UNL     1     -10.131  11.448  67.615  1.00  0.00    -0.200 A  
HETATM   27  C   UNL     1      -9.265  11.226  66.405  1.00  0.00    -0.206 C  
ENDBRANCH  13  21
TORSDOF 2
ENDMDL
MODEL       36
REMARK 921   NORMALIZED FREE ENERGY PREDICTED BY IDOCK:   -5.45 KCAL/MOL
REMARK 922        TOTAL FREE ENERGY PREDICTED BY IDOCK:   -6.83 KCAL/MOL
REMARK 923 INTER-LIGAND FREE ENERGY PREDICTED BY IDOCK:   -6.30 KCAL/MOL
REMARK 924 INTRA-LIGAND FREE ENERGY PREDICTED BY IDOCK:   -0.54 KCAL/MOL
REMARK 927      BINDING AFFINITY PREDICTED BY RF-SCORE:    0.00 PKD
ROOT
HETATM    1  C   UNL     1     -12.129  15.559  69.708  1.00  0.00    -0.372 C  
HETATM    2  C   UNL     1     -10.940  14.789  69.138  1.00  0.00    -0.267 C  
HETATM    3  N   UNL     1     -11.406  13.511  68.591  1.00  0.00    -0.268 NA 
HETATM    4  H   UNL     1     -12.368  13.186  68.694  1.00  0.00     0.000 HD 
HETATM    5  C   UNL     1     -10.425  12.769  67.912  1.00  0.00    -0.220 A  
HETATM    6  C   UNL     1     -10.717  11.474  67.476  1.00  0.00    -0.267 A  
HETATM    7  C   UNL     1      -9.726  10.672  66.888  1.00  0.00    -0.179 A  
HETATM    8 CL   UNL     1     -10.219   9.100  66.370  1.00  0.00    -0.336 Cl 
HETATM    9  C   UNL     1      -8.424  11.167  66.761  1.00  0.00    -0.153 A  
HETATM   10  C   UNL     1      -8.129  12.481  67.142  1.00  0.00    -0.156 A  
HETATM   11  O   UNL     1      -7.837  15.234  67.616  1.00  0.00    -0.133 OA 
HETATM   12  C   UNL     1      -9.136  13.276  67.691  1.00  0.00    -0.204 A  
HETATM   13  N   UNL     1     -10.115  15.420  68.134  1.00  0.00    -0.221 N  
HETATM   14  C   UNL     1      -8.931  14.739  67.856  1.00  0.00    -0.172 C  
ENDROOT
BRANCH   9  15
HETATM   15  S   UNL     1      -7.116  10.172  66.127  1.00  0.00    -0.121 S  
HETATM   16  H1  UNL     1      -5.069  10.671  65.730  1.00  0.00     0.000 HD 
HETATM   17  N   UNL     1      -5.826  11.247  66.097  1.00  0.00    -0.289 N  
HETATM   18  H2  UNL     1      -5.804  12.228  66.376  1.00  0.00     0.000 HD 
HETATM   19  O   UNL     1      -6.796   9.134  67.071  1.00  0.00    -0.078 OA 
HETATM   20  O   UNL     1      -7.378   9.885  64.735  1.00  0.00    -0.125 OA 
ENDBRANCH   9  15
BRANCH  13  21
HETATM   21  C   UNL     1     -10.228  16.797  67.821  1.00  0.00    -0.303 A  
HETATM   22  C   UNL     1      -9.893  17.768  68.772  1.00  0.00    -0.343 A  
HETATM   23  C   UNL     1      -9.874  19.121  68.425  1.00  0.00    -0.473 A  
HETATM   24  C   UNL     1     -10.188  19.513  67.127  1.00  0.00    -0.542 A  
HETATM   25  C   UNL     1     -10.514  18.553  66.170  1.00  0.00    -0.447 A  
HETATM   26  C   UNL     1     -10.513  17.186  66.495  1.00  0.00    -0.255 A  
HETATM   27  C   UNL     1     -10.777  16.204  65.386  1.00  0.00    -0.374 C  
ENDBRANCH  13  21
TORSDOF 2
ENDMDL
MODEL       37
REMARK 921   NORMALIZED FREE ENERGY PREDICTED BY IDOCK:   -5.44 KCAL/MOL
REMARK 922        TOTAL FREE ENERGY PREDICTED BY IDOCK:   -6.82 KCAL/MOL
REMARK 923 INTER-LIGAND FREE ENERGY PREDICTED BY IDOCK:   -6.12 KCAL/MOL
REMARK 924 INTRA-LIGAND FREE ENERGY PREDICTED BY IDOCK:   -0.70 KCAL/MOL
REMARK 927      BINDING AFFINITY PREDICTED BY RF-SCORE:    0.00 PKD
ROOT
HETATM    1  C   UNL     1     -12.286  13.749  66.010  1.00  0.00    -0.499 C  
HETATM    2  C   UNL     1     -11.996  12.495  66.830  1.00  0.00    -0.236 C  
HETATM    3  N   UNL     1     -11.131  11.599  66.057  1.00  0.00    -0.295 NA 
HETATM    4  H   UNL     1     -10.877  11.781  65.086  1.00  0.00     0.000 HD 
HETATM    5  C   UNL     1     -10.679  10.468  66.758  1.00  0.00    -0.188 A  
HETATM    6  C   UNL     1      -9.969   9.473  66.082  1.00  0.00    -0.342 A  
HETATM    7  C   UNL     1      -9.595   8.287  66.732  1.00  0.00    -0.224 A  
HETATM    8 CL   UNL     1      -8.702   7.145  65.792  1.00  0.00    -0.151 Cl 
HETATM    9  C   UNL     1      -9.961   8.087  68.067  1.00  0.00    -0.179 A  
HETATM   10  C   UNL     1     -10.623   9.097  68.775  1.00  0.00    -0.208 A  
HETATM   11  O   UNL     1     -11.604  11.367  70.104  1.00  0.00    -0.309 OA 
HETATM   12  C   UNL     1     -10.954  10.285  68.121  1.00  0.00    -0.328 A  
HETATM   13  N   UNL     1     -11.413  12.639  68.145  1.00  0.00    -0.290 N  
HETATM   14  C   UNL     1     -11.410  11.466  68.900  1.00  0.00    -0.270 C  
ENDROOT
BRANCH   9  15
HETATM   15  S   UNL     1      -9.611   6.578  68.905  1.00  0.00    -0.127 S  
HETATM   16  H1  UNL     1     -10.233   5.895  70.839  1.00  0.00     0.000 HD 
HETATM   17  N   UNL     1     -10.436   6.769  70.355  1.00  0.00    -0.202 N  
HETATM   18  H2  UNL     1     -10.999   7.559  70.671  1.00  0.00     0.000 HD 
HETATM   19  O   UNL     1     -10.218   5.480  68.199  1.00  0.00    -0.166 OA 
HETATM   20  O   UNL     1      -8.216   6.564  69.283  1.00  0.00    -0.119 OA 
ENDBRANCH   9  15
BRANCH  13  21
HETATM   21  C   UNL     1     -11.309  13.895  68.790  1.00  0.00    -0.277 A  
HETATM   22  C   UNL     1     -12.375  14.391  69.550  1.00  0.00    -0.263 A  
HETATM   23  C   UNL     1     -12.228  15.562  70.296  1.00  0.00    -0.432 A  
HETATM   24  C   UNL     1     -11.016  16.246  70.290  1.00  0.00    -0.314 A  
HETATM   25  C   UNL     1      -9.945  15.755  69.544  1.00  0.00    -0.283 A  
HETATM   26  C   UNL     1     -10.067  14.565  68.808  1.00  0.00    -0.239 A  
HETATM   27  C   UNL     1      -8.840  14.047  68.108  1.00  0.00    -0.182 C  
ENDBRANCH  13  21
TORSDOF 2
ENDMDL
MODEL       38
REMARK 921   NORMALIZED FREE ENERGY PREDICTED BY IDOCK:   -5.43 KCAL/MOL
REMARK 922        TOTAL FREE ENERGY PREDICTED BY IDOCK:   -6.81 KCAL/MOL
REMARK 923 INTER-LIGAND FREE ENERGY PREDICTED BY IDOCK:   -6.50 KCAL/MOL
REMARK 924 INTRA-LIGAND FREE ENERGY PREDICTED BY IDOCK:   -0.31 KCAL/MOL
REMARK 927      BINDING AFFINITY PREDICTED BY RF-SCORE:    0.00 PKD
ROOT
HETATM    1  C   UNL     1      -7.308  11.470  66.933  1.00  0.00    -0.140 C  
HETATM    2  C   UNL     1      -8.581  10.931  67.581  1.00  0.00    -0.124 C  
HETATM    3  N   UNL     1      -8.252  10.346  68.884  1.00  0.00    -0.123 NA 
HETATM    4  H   UNL     1      -7.293  10.243  69.215  1.00  0.00     0.000 HD 
HETATM    5  C   UNL     1      -9.363   9.937  69.643  1.00  0.00    -0.228 A  
HETATM    6  C   UNL     1      -9.165   9.236  70.834  1.00  0.00    -0.300 A  
HETATM    7  C   UNL     1     -10.254   8.726  71.559  1.00  0.00    -0.300 A  
HETATM    8 CL   UNL     1      -9.879   7.899  73.027  1.00  0.00    -0.337 Cl 
HETATM    9  C   UNL     1     -11.552   8.901  71.066  1.00  0.00    -0.293 A  
HETATM   10  C   UNL     1     -11.770   9.648  69.903  1.00  0.00    -0.009 A  
HETATM   11  O   UNL     1     -12.017  11.473  67.784  1.00  0.00    -0.623 OA 
HETATM   12  C   UNL     1     -10.677  10.178  69.217  1.00  0.00    -0.259 A  
HETATM   13  N   UNL     1      -9.700  11.824  67.772  1.00  0.00    -0.179 N  
HETATM   14  C   UNL     1     -10.883  11.187  68.145  1.00  0.00    -0.219 C  
ENDROOT
BRANCH   9  15
HETATM   15  S   UNL     1     -12.949   8.195  71.876  1.00  0.00    -0.317 S  
HETATM   16  H1  UNL     1     -15.027   8.267  71.357  1.00  0.00     0.000 HD 
HETATM   17  N   UNL     1     -14.219   8.675  70.888  1.00  0.00    -0.537 N  
HETATM   18  H2  UNL     1     -14.190   9.233  70.035  1.00  0.00     0.000 HD 
HETATM   19  O   UNL     1     -12.869   6.760  71.816  1.00  0.00    -0.358 OA 
HETATM   20  O   UNL     1     -13.174   8.897  73.119  1.00  0.00    -0.221 OA 
ENDBRANCH   9  15
BRANCH  13  21
HETATM   21  C   UNL     1      -9.746  13.112  67.184  1.00  0.00    -0.235 A  
HETATM   22  C   UNL     1      -9.379  14.242  67.924  1.00  0.00    -0.198 A  
HETATM   23  C   UNL     1      -9.294  15.493  67.310  1.00  0.00    -0.220 A  
HETATM   24  C   UNL     1      -9.574  15.626  65.954  1.00  0.00    -0.385 A  
HETATM   25  C   UNL     1      -9.932  14.505  65.205  1.00  0.00    -0.322 A  
HETATM   26  C   UNL     1      -9.997  13.234  65.800  1.00  0.00    -0.261 A  
HETATM   27  C   UNL     1     -10.293  12.059  64.909  1.00  0.00    -0.316 C  
ENDBRANCH  13  21
TORSDOF 2
ENDMDL
MODEL       39
REMARK 921   NORMALIZED FREE ENERGY PREDICTED BY IDOCK:   -5.39 KCAL/MOL
REMARK 922        TOTAL FREE ENERGY PREDICTED BY IDOCK:   -6.76 KCAL/MOL
REMARK 923 INTER-LIGAND FREE ENERGY PREDICTED BY IDOCK:   -6.50 KCAL/MOL
REMARK 924 INTRA-LIGAND FREE ENERGY PREDICTED BY IDOCK:   -0.26 KCAL/MOL
REMARK 927      BINDING AFFINITY PREDICTED BY RF-SCORE:    0.00 PKD
ROOT
HETATM    1  C   UNL     1     -11.982  14.392  69.040  1.00  0.00    -0.342 C  
HETATM    2  C   UNL     1     -11.157  13.113  69.156  1.00  0.00    -0.196 C  
HETATM    3  N   UNL     1     -11.817  12.192  70.086  1.00  0.00    -0.485 NA 
HETATM    4  H   UNL     1     -12.641  12.454  70.627  1.00  0.00     0.000 HD 
HETATM    5  C   UNL     1     -11.227  10.920  70.174  1.00  0.00    -0.237 A  
HETATM    6  C   UNL     1     -11.682  10.011  71.132  1.00  0.00    -0.472 A  
HETATM    7  C   UNL     1     -11.043   8.774  71.311  1.00  0.00    -0.278 A  
HETATM    8 CL   UNL     1     -11.716   7.730  72.512  1.00  0.00    -0.394 Cl 
HETATM    9  C   UNL     1      -9.921   8.459  70.538  1.00  0.00    -0.185 A  
HETATM   10  C   UNL     1      -9.487   9.334  69.536  1.00  0.00    -0.178 A  
HETATM   11  O   UNL     1      -9.011  11.039  67.356  1.00  0.00    -0.140 OA 
HETATM   12  C   UNL     1     -10.157  10.544  69.348  1.00  0.00    -0.233 A  
HETATM   13  N   UNL     1     -10.843  12.372  67.956  1.00  0.00    -0.212 N  
HETATM   14  C   UNL     1      -9.896  11.365  68.137  1.00  0.00    -0.191 C  
ENDROOT
BRANCH   9  15
HETATM   15  S   UNL     1      -9.017   6.968  70.788  1.00  0.00    -0.150 S  
HETATM   16  H1  UNL     1      -7.195   6.289  69.885  1.00  0.00     0.000 HD 
HETATM   17  N   UNL     1      -7.718   7.152  69.740  1.00  0.00    -0.106 N  
HETATM   18  H2  UNL     1      -7.506   7.931  69.115  1.00  0.00     0.000 HD 
HETATM   19  O   UNL     1      -8.493   6.938  72.128  1.00  0.00    -0.113 OA 
HETATM   20  O   UNL     1      -9.771   5.864  70.238  1.00  0.00    -0.162 OA 
ENDBRANCH   9  15
BRANCH  13  21
HETATM   21  C   UNL     1     -11.076  12.898  66.662  1.00  0.00    -0.284 A  
HETATM   22  C   UNL     1     -12.192  12.492  65.922  1.00  0.00    -0.310 A  
HETATM   23  C   UNL     1     -12.498  13.107  64.706  1.00  0.00    -0.460 A  
HETATM   24  C   UNL     1     -11.692  14.132  64.220  1.00  0.00    -0.365 A  
HETATM   25  C   UNL     1     -10.583  14.551  64.954  1.00  0.00    -0.450 A  
HETATM   26  C   UNL     1     -10.275  13.961  66.191  1.00  0.00    -0.307 A  
HETATM   27  C   UNL     1      -9.122  14.533  66.970  1.00  0.00    -0.254 C  
ENDBRANCH  13  21
TORSDOF 2
ENDMDL
MODEL       40
REMARK 921   NORMALIZED FREE ENERGY PREDICTED BY IDOCK:   -5.39 KCAL/MOL
REMARK 922        TOTAL FREE ENERGY PREDICTED BY IDOCK:   -6.76 KCAL/MOL
REMARK 923 INTER-LIGAND FREE ENERGY PREDICTED BY IDOCK:   -6.26 KCAL/MOL
REMARK 924 INTRA-LIGAND FREE ENERGY PREDICTED BY IDOCK:   -0.50 KCAL/MOL
REMARK 927      BINDING AFFINITY PREDICTED BY RF-SCORE:    0.00 PKD
ROOT
HETATM    1  C   UNL     1     -13.131  13.938  65.205  1.00  0.00    -0.205 C  
HETATM    2  C   UNL     1     -12.243  12.753  65.579  1.00  0.00    -0.463 C  
HETATM    3  N   UNL     1     -11.509  12.302  64.394  1.00  0.00    -0.336 NA 
HETATM    4  H   UNL     1     -11.679  12.684  63.463  1.00  0.00     0.000 HD 
HETATM    5  C   UNL     1     -10.552  11.303  64.638  1.00  0.00    -0.327 A  
HETATM    6  C   UNL     1      -9.897  10.696  63.565  1.00  0.00    -0.384 A  
HETATM    7  C   UNL     1      -9.014   9.625  63.773  1.00  0.00    -0.217 A  
HETATM    8 CL   UNL     1      -8.249   8.976  62.366  1.00  0.00    -0.158 Cl 
HETATM    9  C   UNL     1      -8.807   9.143  65.070  1.00  0.00    -0.189 A  
HETATM   10  C   UNL     1      -9.414   9.776  66.161  1.00  0.00    -0.261 A  
HETATM   11  O   UNL     1     -10.416  11.400  68.221  1.00  0.00    -0.184 OA 
HETATM   12  C   UNL     1     -10.260  10.863  65.937  1.00  0.00    -0.314 A  
HETATM   13  N   UNL     1     -11.287  12.908  66.652  1.00  0.00    -0.301 N  
HETATM   14  C   UNL     1     -10.701  11.715  67.072  1.00  0.00    -0.253 C  
ENDROOT
BRANCH   9  15
HETATM   15  S   UNL     1      -7.792   7.738  65.382  1.00  0.00    -0.121 S  
HETATM   16  H1  UNL     1      -6.835   7.100  67.191  1.00  0.00     0.000 HD 
HETATM   17  N   UNL     1      -7.423   7.914  67.011  1.00  0.00    -0.090 N  
HETATM   18  H2  UNL     1      -7.713   8.648  67.657  1.00  0.00     0.000 HD 
HETATM   19  O   UNL     1      -8.571   6.536  65.240  1.00  0.00    -0.123 OA 
HETATM   20  O   UNL     1      -6.528   7.913  64.705  1.00  0.00    -0.048 OA 
ENDBRANCH   9  15
BRANCH  13  21
HETATM   21  C   UNL     1     -11.295  14.032  67.513  1.00  0.00    -0.321 A  
HETATM   22  C   UNL     1     -12.027  14.005  68.707  1.00  0.00    -0.382 A  
HETATM   23  C   UNL     1     -11.930  15.056  69.621  1.00  0.00    -0.356 A  
HETATM   24  C   UNL     1     -11.102  16.142  69.351  1.00  0.00    -0.335 A  
HETATM   25  C   UNL     1     -10.362  16.174  68.170  1.00  0.00    -0.269 A  
HETATM   26  C   UNL     1     -10.428  15.114  67.251  1.00  0.00    -0.271 A  
HETATM   27  C   UNL     1      -9.526  15.175  66.048  1.00  0.00    -0.358 C  
ENDBRANCH  13  21
TORSDOF 2
ENDMDL
MODEL       41
REMARK 921   NORMALIZED FREE ENERGY PREDICTED BY IDOCK:   -5.38 KCAL/MOL
REMARK 922        TOTAL FREE ENERGY PREDICTED BY IDOCK:   -6.76 KCAL/MOL
REMARK 923 INTER-LIGAND FREE ENERGY PREDICTED BY IDOCK:   -6.54 KCAL/MOL
REMARK 924 INTRA-LIGAND FREE ENERGY PREDICTED BY IDOCK:   -0.22 KCAL/MOL
REMARK 927      BINDING AFFINITY PREDICTED BY RF-SCORE:    0.00 PKD
ROOT
HETATM    1  C   UNL     1      -8.099  12.608  67.244  1.00  0.00    -0.178 C  
HETATM    2  C   UNL     1      -8.560  11.199  67.606  1.00  0.00    -0.126 C  
HETATM    3  N   UNL     1      -8.648  11.076  69.064  1.00  0.00    -0.328 NA 
HETATM    4  H   UNL     1      -8.338  11.813  69.698  1.00  0.00     0.000 HD 
HETATM    5  C   UNL     1      -9.195   9.865  69.521  1.00  0.00    -0.223 A  
HETATM    6  C   UNL     1      -9.194   9.578  70.888  1.00  0.00    -0.125 A  
HETATM    7  C   UNL     1      -9.638   8.335  71.363  1.00  0.00    -0.177 A  
HETATM    8 CL   UNL     1      -9.609   8.112  73.076  1.00  0.00    -0.348 Cl 
HETATM    9  C   UNL     1     -10.062   7.360  70.453  1.00  0.00    -0.192 A  
HETATM   10  C   UNL     1     -10.121   7.651  69.085  1.00  0.00    -0.194 A  
HETATM   11  O   UNL     1     -10.513   8.552  66.455  1.00  0.00    -0.256 OA 
HETATM   12  C   UNL     1      -9.710   8.907  68.636  1.00  0.00    -0.169 A  
HETATM   13  N   UNL     1      -9.798  10.703  67.050  1.00  0.00    -0.180 N  
HETATM   14  C   UNL     1     -10.007   9.339  67.245  1.00  0.00    -0.207 C  
ENDROOT
BRANCH   9  15
HETATM   15  S   UNL     1     -10.532   5.747  70.981  1.00  0.00    -0.254 S  
HETATM   16  H1  UNL     1      -9.576   4.411  72.358  1.00  0.00     0.000 HD 
HETATM   17  N   UNL     1      -9.303   5.345  72.052  1.00  0.00    -0.144 N  
HETATM   18  H2  UNL     1      -8.490   5.895  72.328  1.00  0.00     0.000 HD 
HETATM   19  O   UNL     1     -11.758   5.821  71.732  1.00  0.00    -0.172 OA 
HETATM   20  O   UNL     1     -10.366   4.826  69.880  1.00  0.00    -0.238 OA 
ENDBRANCH   9  15
BRANCH  13  21
HETATM   21  C   UNL     1     -10.484  11.382  66.013  1.00  0.00    -0.255 A  
HETATM   22  C   UNL     1     -10.270  11.030  64.674  1.00  0.00    -0.392 A  
HETATM   23  C   UNL     1     -11.041  11.601  63.660  1.00  0.00    -0.506 A  
HETATM   24  C   UNL     1     -12.031  12.528  63.974  1.00  0.00    -0.536 A  
HETATM   25  C   UNL     1     -12.258  12.878  65.305  1.00  0.00    -0.524 A  
HETATM   26  C   UNL     1     -11.509  12.294  66.340  1.00  0.00    -0.434 A  
HETATM   27  C   UNL     1     -11.878  12.648  67.755  1.00  0.00    -0.381 C  
ENDBRANCH  13  21
TORSDOF 2
ENDMDL
MODEL       42
REMARK 921   NORMALIZED FREE ENERGY PREDICTED BY IDOCK:   -5.38 KCAL/MOL
REMARK 922        TOTAL FREE ENERGY PREDICTED BY IDOCK:   -6.75 KCAL/MOL
REMARK 923 INTER-LIGAND FREE ENERGY PREDICTED BY IDOCK:   -6.48 KCAL/MOL
REMARK 924 INTRA-LIGAND FREE ENERGY PREDICTED BY IDOCK:   -0.27 KCAL/MOL
REMARK 927      BINDING AFFINITY PREDICTED BY RF-SCORE:    0.00 PKD
ROOT
HETATM    1  C   UNL     1     -12.083   9.949  70.399  1.00  0.00    -0.230 C  
HETATM    2  C   UNL     1     -11.818  10.982  69.306  1.00  0.00    -0.340 C  
HETATM    3  N   UNL     1     -11.524  12.278  69.924  1.00  0.00    -0.510 NA 
HETATM    4  H   UNL     1     -11.601  12.440  70.928  1.00  0.00     0.000 HD 
HETATM    5  C   UNL     1     -11.126  13.282  69.024  1.00  0.00    -0.244 A  
HETATM    6  C   UNL     1     -10.961  14.592  69.480  1.00  0.00    -0.269 A  
HETATM    7  C   UNL     1     -10.666  15.633  68.586  1.00  0.00    -0.256 A  
HETATM    8 CL   UNL     1     -10.464  17.204  69.276  1.00  0.00    -0.323 Cl 
HETATM    9  C   UNL     1     -10.562  15.359  67.218  1.00  0.00    -0.294 A  
HETATM   10  C   UNL     1     -10.670  14.043  66.753  1.00  0.00    -0.285 A  
HETATM   11  O   UNL     1     -10.548  11.320  66.079  1.00  0.00    -0.258 OA 
HETATM   12  C   UNL     1     -10.927  13.016  67.662  1.00  0.00    -0.277 A  
HETATM   13  N   UNL     1     -10.784  10.718  68.331  1.00  0.00    -0.201 N  
HETATM   14  C   UNL     1     -10.783  11.596  67.248  1.00  0.00    -0.238 C  
ENDROOT
BRANCH   9  15
HETATM   15  S   UNL     1     -10.296  16.639  66.037  1.00  0.00    -0.307 S  
HETATM   16  H1  UNL     1      -8.470  17.533  65.357  1.00  0.00     0.000 HD 
HETATM   17  N   UNL     1      -8.624  16.791  66.040  1.00  0.00    -0.254 N  
HETATM   18  H2  UNL     1      -7.935  16.274  66.587  1.00  0.00     0.000 HD 
HETATM   19  O   UNL     1     -10.689  16.182  64.730  1.00  0.00    -0.648 OA 
HETATM   20  O   UNL     1     -10.773  17.888  66.585  1.00  0.00    -0.268 OA 
ENDBRANCH   9  15
BRANCH  13  21
HETATM   21  C   UNL     1     -10.165   9.450  68.214  1.00  0.00    -0.196 A  
HETATM   22  C   UNL     1     -10.739   8.452  67.417  1.00  0.00    -0.225 A  
HETATM   23  C   UNL     1     -10.065   7.251  67.190  1.00  0.00    -0.306 A  
HETATM   24  C   UNL     1      -8.812   7.036  67.757  1.00  0.00    -0.123 A  
HETATM   25  C   UNL     1      -8.227   8.027  68.545  1.00  0.00    -0.126 A  
HETATM   26  C   UNL     1      -8.880   9.252  68.762  1.00  0.00    -0.132 A  
HETATM   27  C   UNL     1      -8.144  10.308  69.540  1.00  0.00    -0.170 C  
ENDBRANCH  13  21
TORSDOF 2
ENDMDL
MODEL       43
REMARK 921   NORMALIZED FREE ENERGY PREDICTED BY IDOCK:   -5.35 KCAL/MOL
REMARK 922        TOTAL FREE ENERGY PREDICTED BY IDOCK:   -6.72 KCAL/MOL
REMARK 923 INTER-LIGAND FREE ENERGY PREDICTED BY IDOCK:   -6.21 KCAL/MOL
REMARK 924 INTRA-LIGAND FREE ENERGY PREDICTED BY IDOCK:   -0.51 KCAL/MOL
REMARK 927      BINDING AFFINITY PREDICTED BY RF-SCORE:    0.00 PKD
ROOT
HETATM    1  C   UNL     1      -5.926  17.478  67.903  1.00  0.00    -0.151 C  
HETATM    2  C   UNL     1      -6.865  16.436  67.300  1.00  0.00    -0.187 C  
HETATM    3  N   UNL     1      -6.859  15.233  68.138  1.00  0.00    -0.119 NA 
HETATM    4  H   UNL     1      -6.227  15.118  68.931  1.00  0.00     0.000 HD 
HETATM    5  C   UNL     1      -7.790  14.250  67.764  1.00  0.00    -0.165 A  
HETATM    6  C   UNL     1      -7.775  13.006  68.398  1.00  0.00    -0.137 A  
HETATM    7  C   UNL     1      -8.624  11.971  67.976  1.00  0.00    -0.170 A  
HETATM    8 CL   UNL     1      -8.525  10.489  68.856  1.00  0.00    -0.143 Cl 
HETATM    9  C   UNL     1      -9.478  12.181  66.888  1.00  0.00    -0.210 A  
HETATM   10  C   UNL     1      -9.545  13.439  66.277  1.00  0.00    -0.245 A  
HETATM   11  O   UNL     1      -9.796  16.109  65.444  1.00  0.00    -0.474 OA 
HETATM   12  C   UNL     1      -8.719  14.466  66.736  1.00  0.00    -0.187 A  
HETATM   13  N   UNL     1      -8.245  16.794  67.061  1.00  0.00    -0.180 N  
HETATM   14  C   UNL     1      -8.951  15.867  66.296  1.00  0.00    -0.346 C  
ENDROOT
BRANCH   9  15
HETATM   15  S   UNL     1     -10.490  10.890  66.246  1.00  0.00    -0.220 S  
HETATM   16  H1  UNL     1     -11.692  10.830  64.472  1.00  0.00     0.000 HD 
HETATM   17  N   UNL     1     -11.106  11.577  64.843  1.00  0.00    -0.256 N  
HETATM   18  H2  UNL     1     -10.936  12.507  64.458  1.00  0.00     0.000 HD 
HETATM   19  O   UNL     1      -9.667   9.776  65.860  1.00  0.00    -0.225 OA 
HETATM   20  O   UNL     1     -11.643  10.729  67.104  1.00  0.00    -0.385 OA 
ENDBRANCH   9  15
BRANCH  13  21
HETATM   21  C   UNL     1      -8.703  18.131  67.152  1.00  0.00    -0.248 A  
HETATM   22  C   UNL     1      -8.244  19.100  66.252  1.00  0.00    -0.309 A  
HETATM   23  C   UNL     1      -8.793  20.384  66.253  1.00  0.00    -0.122 A  
HETATM   24  C   UNL     1      -9.805  20.710  67.150  1.00  0.00    -0.497 A  
HETATM   25  C   UNL     1     -10.277  19.749  68.044  1.00  0.00    -0.581 A  
HETATM   26  C   UNL     1      -9.754  18.445  68.041  1.00  0.00    -0.336 A  
HETATM   27  C   UNL     1     -10.381  17.438  68.965  1.00  0.00    -0.319 C  
ENDBRANCH  13  21
TORSDOF 2
ENDMDL
MODEL       44
REMARK 921   NORMALIZED FREE ENERGY PREDICTED BY IDOCK:   -5.34 KCAL/MOL
REMARK 922        TOTAL FREE ENERGY PREDICTED BY IDOCK:   -6.71 KCAL/MOL
REMARK 923 INTER-LIGAND FREE ENERGY PREDICTED BY IDOCK:   -6.20 KCAL/MOL
REMARK 924 INTRA-LIGAND FREE ENERGY PREDICTED BY IDOCK:   -0.52 KCAL/MOL
REMARK 927      BINDING AFFINITY PREDICTED BY RF-SCORE:    0.00 PKD
ROOT
HETATM    1  C   UNL     1     -10.448   7.379  68.277  1.00  0.00    -0.231 C  
HETATM    2  C   UNL     1      -9.977   8.807  68.011  1.00  0.00    -0.182 C  
HETATM    3  N   UNL     1     -11.080   9.583  67.438  1.00  0.00    -0.362 NA 
HETATM    4  H   UNL     1     -11.972   9.163  67.177  1.00  0.00     0.000 HD 
HETATM    5  C   UNL     1     -10.813  10.953  67.275  1.00  0.00    -0.287 A  
HETATM    6  C   UNL     1     -11.734  11.762  66.607  1.00  0.00    -0.174 A  
HETATM    7  C   UNL     1     -11.448  13.110  66.339  1.00  0.00    -0.334 A  
HETATM    8 CL   UNL     1     -12.679  14.009  65.526  1.00  0.00    -0.554 Cl 
HETATM    9  C   UNL     1     -10.213  13.643  66.725  1.00  0.00    -0.268 A  
HETATM   10  C   UNL     1      -9.302  12.861  67.444  1.00  0.00    -0.194 A  
HETATM   11  O   UNL     1      -7.791  11.255  69.183  1.00  0.00    -0.108 OA 
HETATM   12  C   UNL     1      -9.621  11.533  67.733  1.00  0.00    -0.177 A  
HETATM   13  N   UNL     1      -9.423   9.575  69.103  1.00  0.00    -0.157 N  
HETATM   14  C   UNL     1      -8.809  10.764  68.711  1.00  0.00    -0.163 C  
ENDROOT
BRANCH   9  15
HETATM   15  S   UNL     1      -9.756  15.297  66.326  1.00  0.00    -0.323 S  
HETATM   16  H1  UNL     1      -7.839  16.254  66.392  1.00  0.00     0.000 HD 
HETATM   17  N   UNL     1      -8.104  15.296  66.623  1.00  0.00    -0.344 N  
HETATM   18  H2  UNL     1      -7.513  14.532  66.952  1.00  0.00     0.000 HD 
HETATM   19  O   UNL     1      -9.945  15.525  64.917  1.00  0.00    -0.311 OA 
HETATM   20  O   UNL     1     -10.302  16.188  67.324  1.00  0.00    -0.276 OA 
ENDBRANCH   9  15
BRANCH  13  21
HETATM   21  C   UNL     1      -9.093   8.986  70.348  1.00  0.00    -0.210 A  
HETATM   22  C   UNL     1      -7.793   8.529  70.593  1.00  0.00    -0.091 A  
HETATM   23  C   UNL     1      -7.430   8.073  71.862  1.00  0.00    -0.093 A  
HETATM   24  C   UNL     1      -8.362   8.070  72.896  1.00  0.00    -0.229 A  
HETATM   25  C   UNL     1      -9.657   8.532  72.664  1.00  0.00    -0.294 A  
HETATM   26  C   UNL     1     -10.033   9.019  71.401  1.00  0.00    -0.388 A  
HETATM   27  C   UNL     1     -11.416   9.591  71.255  1.00  0.00    -0.447 C  
ENDBRANCH  13  21
TORSDOF 2
ENDMDL
MODEL       45
REMARK 921   NORMALIZED FREE ENERGY PREDICTED BY IDOCK:   -5.34 KCAL/MOL
REMARK 922        TOTAL FREE ENERGY PREDICTED BY IDOCK:   -6.71 KCAL/MOL
REMARK 923 INTER-LIGAND FREE ENERGY PREDICTED BY IDOCK:   -6.27 KCAL/MOL
REMARK 924 INTRA-LIGAND FREE ENERGY PREDICTED BY IDOCK:   -0.44 KCAL/MOL
REMARK 927      BINDING AFFINITY PREDICTED BY RF-SCORE:    0.00 PKD
ROOT
HETATM    1  C   UNL     1     -11.818  14.978  69.549  1.00  0.00    -0.360 C  
HETATM    2  C   UNL     1     -10.980  13.740  69.243  1.00  0.00    -0.163 C  
HETATM    3  N   UNL     1     -11.632  12.558  69.813  1.00  0.00    -0.471 NA 
HETATM    4  H   UNL     1     -12.461  12.619  70.405  1.00  0.00     0.000 HD 
HETATM    5  C   UNL     1     -11.028  11.334  69.480  1.00  0.00    -0.191 A  
HETATM    6  C   UNL     1     -11.475  10.156  70.082  1.00  0.00    -0.368 A  
HETATM    7  C   UNL     1     -10.824   8.935  69.848  1.00  0.00    -0.211 A  
HETATM    8 CL   UNL     1     -11.488   7.547  70.633  1.00  0.00    -0.302 Cl 
HETATM    9  C   UNL     1      -9.696   8.903  69.020  1.00  0.00    -0.171 A  
HETATM   10  C   UNL     1      -9.269  10.064  68.366  1.00  0.00    -0.131 A  
HETATM   11  O   UNL     1      -8.806  12.396  66.873  1.00  0.00    -0.200 OA 
HETATM   12  C   UNL     1      -9.952  11.261  68.583  1.00  0.00    -0.210 A  
HETATM   13  N   UNL     1     -10.655  13.439  67.867  1.00  0.00    -0.240 N  
HETATM   14  C   UNL     1      -9.697  12.438  67.712  1.00  0.00    -0.201 C  
ENDROOT
BRANCH   9  15
HETATM   15  S   UNL     1      -8.776   7.421  68.771  1.00  0.00    -0.127 S  
HETATM   16  H1  UNL     1      -6.985   7.081  67.643  1.00  0.00     0.000 HD 
HETATM   17  N   UNL     1      -7.517   7.939  67.788  1.00  0.00    -0.095 N  
HETATM   18  H2  UNL     1      -7.331   8.875  67.427  1.00  0.00     0.000 HD 
HETATM   19  O   UNL     1      -8.205   6.990  70.019  1.00  0.00    -0.128 OA 
HETATM   20  O   UNL     1      -9.544   6.528  67.933  1.00  0.00    -0.120 OA 
ENDBRANCH   9  15
BRANCH  13  21
HETATM   21  C   UNL     1     -10.889  14.361  66.818  1.00  0.00    -0.301 A  
HETATM   22  C   UNL     1     -10.242  15.602  66.808  1.00  0.00    -0.278 A  
HETATM   23  C   UNL     1     -10.366  16.456  65.710  1.00  0.00    -0.388 A  
HETATM   24  C   UNL     1     -11.136  16.078  64.614  1.00  0.00    -0.346 A  
HETATM   25  C   UNL     1     -11.777  14.839  64.610  1.00  0.00    -0.426 A  
HETATM   26  C   UNL     1     -11.643  13.957  65.695  1.00  0.00    -0.338 A  
HETATM   27  C   UNL     1     -12.283  12.600  65.576  1.00  0.00    -0.501 C  
ENDBRANCH  13  21
TORSDOF 2
ENDMDL
MODEL       46
REMARK 921   NORMALIZED FREE ENERGY PREDICTED BY IDOCK:   -5.28 KCAL/MOL
REMARK 922        TOTAL FREE ENERGY PREDICTED BY IDOCK:   -6.64 KCAL/MOL
REMARK 923 INTER-LIGAND FREE ENERGY PREDICTED BY IDOCK:   -5.90 KCAL/MOL
REMARK 924 INTRA-LIGAND FREE ENERGY PREDICTED BY IDOCK:   -0.75 KCAL/MOL
REMARK 927      BINDING AFFINITY PREDICTED BY RF-SCORE:    0.00 PKD
ROOT
HETATM    1  C   UNL     1     -10.628   6.485  68.527  1.00  0.00    -0.291 C  
HETATM    2  C   UNL     1     -10.721   7.758  67.689  1.00  0.00    -0.157 C  
HETATM    3  N   UNL     1     -11.057   8.888  68.560  1.00  0.00    -0.442 NA 
HETATM    4  H   UNL     1     -11.288   8.773  69.547  1.00  0.00     0.000 HD 
HETATM    5  C   UNL     1     -11.037  10.144  67.929  1.00  0.00    -0.238 A  
HETATM    6  C   UNL     1     -11.481  11.273  68.621  1.00  0.00    -0.362 A  
HETATM    7  C   UNL     1     -11.569  12.520  67.984  1.00  0.00    -0.342 A  
HETATM    8 CL   UNL     1     -12.109  13.842  68.955  1.00  0.00    -0.389 Cl 
HETATM    9  C   UNL     1     -11.233  12.627  66.629  1.00  0.00    -0.300 A  
HETATM   10  C   UNL     1     -10.735  11.518  65.937  1.00  0.00    -0.325 A  
HETATM   11  O   UNL     1      -9.419   9.291  64.844  1.00  0.00    -0.178 OA 
HETATM   12  C   UNL     1     -10.620  10.295  66.598  1.00  0.00    -0.232 A  
HETATM   13  N   UNL     1      -9.588   8.149  66.883  1.00  0.00    -0.190 N  
HETATM   14  C   UNL     1      -9.855   9.179  65.983  1.00  0.00    -0.272 C  
ENDROOT
BRANCH   9  15
HETATM   15  S   UNL     1     -11.422  14.142  65.749  1.00  0.00    -0.335 S  
HETATM   16  H1  UNL     1     -10.945  14.626  63.716  1.00  0.00     0.000 HD 
HETATM   17  N   UNL     1     -10.836  13.749  64.225  1.00  0.00    -0.583 N  
HETATM   18  H2  UNL     1     -10.465  12.859  63.893  1.00  0.00     0.000 HD 
HETATM   19  O   UNL     1     -12.820  14.451  65.611  1.00  0.00    -0.404 OA 
HETATM   20  O   UNL     1     -10.473  15.104  66.263  1.00  0.00    -0.287 OA 
ENDBRANCH   9  15
BRANCH  13  21
HETATM   21  C   UNL     1      -8.485   7.288  66.665  1.00  0.00    -0.124 A  
HETATM   22  C   UNL     1      -8.545   6.296  65.678  1.00  0.00    -0.143 A  
HETATM   23  C   UNL     1      -7.416   5.536  65.368  1.00  0.00    -0.074 A  
HETATM   24  C   UNL     1      -6.218   5.760  66.040  1.00  0.00    -0.034 A  
HETATM   25  C   UNL     1      -6.145   6.751  67.018  1.00  0.00    -0.032 A  
HETATM   26  C   UNL     1      -7.264   7.542  67.325  1.00  0.00    -0.086 A  
HETATM   27  C   UNL     1      -7.081   8.656  68.320  1.00  0.00    -0.078 C  
ENDBRANCH  13  21
TORSDOF 2
ENDMDL
MODEL       47
REMARK 921   NORMALIZED FREE ENERGY PREDICTED BY IDOCK:   -5.24 KCAL/MOL
REMARK 922        TOTAL FREE ENERGY PREDICTED BY IDOCK:   -6.60 KCAL/MOL
REMARK 923 INTER-LIGAND FREE ENERGY PREDICTED BY IDOCK:   -5.93 KCAL/MOL
REMARK 924 INTRA-LIGAND FREE ENERGY PREDICTED BY IDOCK:   -0.67 KCAL/MOL
REMARK 927      BINDING AFFINITY PREDICTED BY RF-SCORE:    0.00 PKD
ROOT
HETATM    1  C   UNL     1      -7.271   6.523  70.098  1.00  0.00    -0.080 C  
HETATM    2  C   UNL     1      -8.019   7.796  69.704  1.00  0.00    -0.116 C  
HETATM    3  N   UNL     1      -8.189   7.828  68.249  1.00  0.00    -0.123 NA 
HETATM    4  H   UNL     1      -7.764   7.139  67.629  1.00  0.00     0.000 HD 
HETATM    5  C   UNL     1      -8.985   8.885  67.773  1.00  0.00    -0.135 A  
HETATM    6  C   UNL     1      -9.097   9.100  66.398  1.00  0.00    -0.211 A  
HETATM    7  C   UNL     1      -9.799  10.208  65.898  1.00  0.00    -0.245 A  
HETATM    8 CL   UNL     1      -9.885  10.350  64.179  1.00  0.00    -0.390 Cl 
HETATM    9  C   UNL     1     -10.372  11.121  66.790  1.00  0.00    -0.241 A  
HETATM   10  C   UNL     1     -10.316  10.890  68.169  1.00  0.00    -0.202 A  
HETATM   11  O   UNL     1     -10.413  10.055  70.848  1.00  0.00    -0.228 OA 
HETATM   12  C   UNL     1      -9.644   9.763  68.645  1.00  0.00    -0.155 A  
HETATM   13  N   UNL     1      -9.307   8.062  70.302  1.00  0.00    -0.159 N  
HETATM   14  C   UNL     1      -9.792   9.347  70.065  1.00  0.00    -0.221 C  
ENDROOT
BRANCH   9  15
HETATM   15  S   UNL     1     -11.176  12.583  66.224  1.00  0.00    -0.334 S  
HETATM   16  H1  UNL     1     -12.252  14.080  67.319  1.00  0.00     0.000 HD 
HETATM   17  N   UNL     1     -11.786  13.233  67.647  1.00  0.00    -0.360 N  
HETATM   18  H2  UNL     1     -11.710  12.874  68.598  1.00  0.00     0.000 HD 
HETATM   19  O   UNL     1     -10.199  13.504  65.708  1.00  0.00    -0.286 OA 
HETATM   20  O   UNL     1     -12.349  12.209  65.466  1.00  0.00    -0.548 OA 
ENDBRANCH   9  15
BRANCH  13  21
HETATM   21  C   UNL     1      -9.801   7.312  71.397  1.00  0.00    -0.186 A  
HETATM   22  C   UNL     1      -9.527   7.712  72.710  1.00  0.00    -0.243 A  
HETATM   23  C   UNL     1     -10.122   7.055  73.789  1.00  0.00    -0.390 A  
HETATM   24  C   UNL     1     -10.994   5.994  73.566  1.00  0.00    -0.140 A  
HETATM   25  C   UNL     1     -11.281   5.594  72.261  1.00  0.00    -0.317 A  
HETATM   26  C   UNL     1     -10.712   6.259  71.163  1.00  0.00    -0.301 A  
HETATM   27  C   UNL     1     -11.145   5.835  69.786  1.00  0.00    -0.318 C  
ENDBRANCH  13  21
TORSDOF 2
ENDMDL
MODEL       48
REMARK 921   NORMALIZED FREE ENERGY PREDICTED BY IDOCK:   -5.22 KCAL/MOL
REMARK 922        TOTAL FREE ENERGY PREDICTED BY IDOCK:   -6.57 KCAL/MOL
REMARK 923 INTER-LIGAND FREE ENERGY PREDICTED BY IDOCK:   -6.49 KCAL/MOL
REMARK 924 INTRA-LIGAND FREE ENERGY PREDICTED BY IDOCK:   -0.08 KCAL/MOL
REMARK 927      BINDING AFFINITY PREDICTED BY RF-SCORE:    0.00 PKD
ROOT
HETATM    1  C   UNL     1      -7.781   7.318  64.585  1.00  0.00    -0.116 C  
HETATM    2  C   UNL     1      -8.472   8.515  65.235  1.00  0.00    -0.174 C  
HETATM    3  N   UNL     1      -9.226   9.252  64.216  1.00  0.00    -0.425 NA 
HETATM    4  H   UNL     1      -9.178   9.023  63.223  1.00  0.00     0.000 HD 
HETATM    5  C   UNL     1     -10.020  10.299  64.714  1.00  0.00    -0.321 A  
HETATM    6  C   UNL     1     -10.666  11.160  63.824  1.00  0.00    -0.399 A  
HETATM    7  C   UNL     1     -11.380  12.275  64.290  1.00  0.00    -0.352 A  
HETATM    8 CL   UNL     1     -12.154  13.248  63.091  1.00  0.00    -0.455 Cl 
HETATM    9  C   UNL     1     -11.422  12.541  65.663  1.00  0.00    -0.359 A  
HETATM   10  C   UNL     1     -10.827  11.658  66.571  1.00  0.00    -0.328 A  
HETATM   11  O   UNL     1      -9.899   9.589  68.227  1.00  0.00    -0.148 OA 
HETATM   12  C   UNL     1     -10.152  10.535  66.090  1.00  0.00    -0.306 A  
HETATM   13  N   UNL     1      -9.357   8.288  66.354  1.00  0.00    -0.200 N  
HETATM   14  C   UNL     1      -9.745   9.450  67.020  1.00  0.00    -0.178 C  
ENDROOT
BRANCH   9  15
HETATM   15  S   UNL     1     -12.215  13.980  66.300  1.00  0.00    -0.437 S  
HETATM   16  H1  UNL     1     -11.663  16.045  66.139  1.00  0.00     0.000 HD 
HETATM   17  N   UNL     1     -11.205  15.213  65.770  1.00  0.00    -0.321 N  
HETATM   18  H2  UNL     1     -10.349  15.146  65.219  1.00  0.00     0.000 HD 
HETATM   19  O   UNL     1     -13.490  14.155  65.657  1.00  0.00    -0.576 OA 
HETATM   20  O   UNL     1     -12.076  13.994  67.739  1.00  0.00    -0.371 OA 
ENDBRANCH   9  15
BRANCH  13  21
HETATM   21  C   UNL     1      -9.435   7.037  67.013  1.00  0.00    -0.149 A  
HETATM   22  C   UNL     1     -10.448   6.127  66.686  1.00  0.00    -0.267 A  
HETATM   23  C   UNL     1     -10.449   4.842  67.234  1.00  0.00    -0.099 A  
HETATM   24  C   UNL     1      -9.439   4.457  68.111  1.00  0.00    -0.207 A  
HETATM   25  C   UNL     1      -8.421   5.353  68.436  1.00  0.00    -0.096 A  
HETATM   26  C   UNL     1      -8.390   6.640  67.874  1.00  0.00    -0.119 A  
HETATM   27  C   UNL     1      -7.208   7.514  68.194  1.00  0.00    -0.090 C  
ENDBRANCH  13  21
TORSDOF 2
ENDMDL
MODEL       49
REMARK 921   NORMALIZED FREE ENERGY PREDICTED BY IDOCK:   -5.18 KCAL/MOL
REMARK 922        TOTAL FREE ENERGY PREDICTED BY IDOCK:   -6.53 KCAL/MOL
REMARK 923 INTER-LIGAND FREE ENERGY PREDICTED BY IDOCK:   -6.06 KCAL/MOL
REMARK 924 INTRA-LIGAND FREE ENERGY PREDICTED BY IDOCK:   -0.47 KCAL/MOL
REMARK 927      BINDING AFFINITY PREDICTED BY RF-SCORE:    0.00 PKD
ROOT
HETATM    1  C   UNL     1      -7.973  12.890  67.331  1.00  0.00    -0.178 C  
HETATM    2  C   UNL     1      -8.514  11.613  67.970  1.00  0.00    -0.151 C  
HETATM    3  N   UNL     1      -9.673  11.941  68.805  1.00  0.00    -0.394 NA 
HETATM    4  H   UNL     1      -9.968  12.901  68.985  1.00  0.00     0.000 HD 
HETATM    5  C   UNL     1     -10.346  10.830  69.340  1.00  0.00    -0.179 A  
HETATM    6  C   UNL     1     -11.373  11.024  70.266  1.00  0.00    -0.291 A  
HETATM    7  C   UNL     1     -11.993   9.932  70.894  1.00  0.00    -0.345 A  
HETATM    8 CL   UNL     1     -13.265  10.303  72.002  1.00  0.00    -0.559 Cl 
HETATM    9  C   UNL     1     -11.557   8.633  70.608  1.00  0.00    -0.200 A  
HETATM   10  C   UNL     1     -10.567   8.420  69.642  1.00  0.00    -0.219 A  
HETATM   11  O   UNL     1      -8.853   8.187  67.429  1.00  0.00    -0.126 OA 
HETATM   12  C   UNL     1      -9.989   9.516  69.001  1.00  0.00    -0.185 A  
HETATM   13  N   UNL     1      -8.889  10.509  67.116  1.00  0.00    -0.136 N  
HETATM   14  C   UNL     1      -9.140   9.319  67.797  1.00  0.00    -0.126 C  
ENDROOT
BRANCH   9  15
HETATM   15  S   UNL     1     -12.224   7.231  71.439  1.00  0.00    -0.365 S  
HETATM   16  H1  UNL     1     -12.324   6.786  73.534  1.00  0.00     0.000 HD 
HETATM   17  N   UNL     1     -11.937   7.598  73.053  1.00  0.00    -0.563 N  
HETATM   18  H2  UNL     1     -11.490   8.424  73.451  1.00  0.00     0.000 HD 
HETATM   19  O   UNL     1     -13.650   7.189  71.249  1.00  0.00    -0.353 OA 
HETATM   20  O   UNL     1     -11.384   6.086  71.175  1.00  0.00    -0.292 OA 
ENDBRANCH   9  15
BRANCH  13  21
HETATM   21  C   UNL     1      -8.568  10.480  65.737  1.00  0.00    -0.173 A  
HETATM   22  C   UNL     1      -7.348   9.945  65.305  1.00  0.00    -0.131 A  
HETATM   23  C   UNL     1      -7.086   9.790  63.942  1.00  0.00    -0.122 A  
HETATM   24  C   UNL     1      -8.038  10.168  63.001  1.00  0.00    -0.152 A  
HETATM   25  C   UNL     1      -9.260  10.693  63.420  1.00  0.00    -0.289 A  
HETATM   26  C   UNL     1      -9.551  10.832  64.788  1.00  0.00    -0.314 A  
HETATM   27  C   UNL     1     -10.926  11.313  65.164  1.00  0.00    -0.216 C  
ENDBRANCH  13  21
TORSDOF 2
ENDMDL
MODEL       50
REMARK 921   NORMALIZED FREE ENERGY PREDICTED BY IDOCK:   -5.14 KCAL/MOL
REMARK 922        TOTAL FREE ENERGY PREDICTED BY IDOCK:   -6.49 KCAL/MOL
REMARK 923 INTER-LIGAND FREE ENERGY PREDICTED BY IDOCK:   -6.11 KCAL/MOL
REMARK 924 INTRA-LIGAND FREE ENERGY PREDICTED BY IDOCK:   -0.38 KCAL/MOL
REMARK 927      BINDING AFFINITY PREDICTED BY RF-SCORE:    0.00 PKD
ROOT
HETATM    1  C   UNL     1      -7.168  12.657  67.192  1.00  0.00    -0.040 C  
HETATM    2  C   UNL     1      -8.482  12.663  67.968  1.00  0.00    -0.177 C  
HETATM    3  N   UNL     1      -8.634  13.948  68.657  1.00  0.00    -0.309 NA 
HETATM    4  H   UNL     1      -7.898  14.655  68.671  1.00  0.00     0.000 HD 
HETATM    5  C   UNL     1      -9.871  14.131  69.297  1.00  0.00     0.180 A  
HETATM    6  C   UNL     1     -10.073  15.252  70.104  1.00  0.00    -0.116 A  
HETATM    7  C   UNL     1     -11.260  15.408  70.837  1.00  0.00    -0.358 A  
HETATM    8 CL   UNL     1     -11.397  16.849  71.779  1.00  0.00     0.218 Cl 
HETATM    9  C   UNL     1     -12.242  14.414  70.777  1.00  0.00    -0.343 A  
HETATM   10  C   UNL     1     -12.079  13.311  69.931  1.00  0.00    -0.377 A  
HETATM   11  O   UNL     1     -11.726  11.391  67.912  1.00  0.00    -0.510 OA 
HETATM   12  C   UNL     1     -10.907  13.193  69.182  1.00  0.00    -0.139 A  
HETATM   13  N   UNL     1      -9.714  12.399  67.259  1.00  0.00    -0.198 N  
HETATM   14  C   UNL     1     -10.816  12.191  68.087  1.00  0.00    -0.222 C  
ENDROOT
BRANCH   9  15
HETATM   15  S   UNL     1     -13.706  14.503  71.753  1.00  0.00    -0.458 S  
HETATM   16  H1  UNL     1     -13.942  14.655  73.879  1.00  0.00     0.000 HD 
HETATM   17  N   UNL     1     -13.094  14.603  73.314  1.00  0.00    -0.488 N  
HETATM   18  H2  UNL     1     -12.121  14.610  73.620  1.00  0.00     0.000 HD 
HETATM   19  O   UNL     1     -14.398  15.735  71.477  1.00  0.00    -0.456 OA 
HETATM   20  O   UNL     1     -14.377  13.224  71.710  1.00  0.00     0.113 OA 
ENDBRANCH   9  15
BRANCH  13  21
HETATM   21  C   UNL     1      -9.729  11.917  65.928  1.00  0.00    -0.238 A  
HETATM   22  C   UNL     1      -9.279  10.623  65.638  1.00  0.00    -0.227 A  
HETATM   23  C   UNL     1      -9.418  10.097  64.352  1.00  0.00    -0.368 A  
HETATM   24  C   UNL     1     -10.007  10.858  63.346  1.00  0.00    -0.414 A  
HETATM   25  C   UNL     1     -10.467  12.143  63.627  1.00  0.00    -0.495 A  
HETATM   26  C   UNL     1     -10.359  12.680  64.921  1.00  0.00    -0.330 A  
HETATM   27  C   UNL     1     -10.967  14.033  65.170  1.00  0.00    -0.357 C  
ENDBRANCH  13  21
TORSDOF 2
ENDMDL
MODEL       51
REMARK 921   NORMALIZED FREE ENERGY PREDICTED BY IDOCK:   -5.09 KCAL/MOL
REMARK 922        TOTAL FREE ENERGY PREDICTED BY IDOCK:   -6.43 KCAL/MOL
REMARK 923 INTER-LIGAND FREE ENERGY PREDICTED BY IDOCK:   -6.24 KCAL/MOL
REMARK 924 INTRA-LIGAND FREE ENERGY PREDICTED BY IDOCK:   -0.20 KCAL/MOL
REMARK 927      BINDING AFFINITY PREDICTED BY RF-SCORE:    0.00 PKD
ROOT
HETATM    1  C   UNL     1      -8.603  12.942  67.151  1.00  0.00    -0.198 C  
HETATM    2  C   UNL     1      -8.868  11.473  67.473  1.00  0.00    -0.155 C  
HETATM    3  N   UNL     1      -8.970  11.304  68.925  1.00  0.00    -0.354 NA 
HETATM    4  H   UNL     1      -8.780  12.061  69.582  1.00  0.00     0.000 HD 
HETATM    5  C   UNL     1      -9.350  10.017  69.342  1.00  0.00    -0.223 A  
HETATM    6  C   UNL     1      -9.338   9.700  70.703  1.00  0.00    -0.171 A  
HETATM    7  C   UNL     1      -9.613   8.395  71.140  1.00  0.00    -0.177 A  
HETATM    8 CL   UNL     1      -9.590   8.138  72.848  1.00  0.00    -0.345 Cl 
HETATM    9  C   UNL     1      -9.875   7.393  70.200  1.00  0.00    -0.180 A  
HETATM   10  C   UNL     1      -9.945   7.706  68.837  1.00  0.00    -0.178 A  
HETATM   11  O   UNL     1     -10.402   8.607  66.217  1.00  0.00    -0.214 OA 
HETATM   12  C   UNL     1      -9.705   9.018  68.425  1.00  0.00    -0.170 A  
HETATM   13  N   UNL     1     -10.011  10.822  66.875  1.00  0.00    -0.193 N  
HETATM   14  C   UNL     1     -10.029   9.437  67.036  1.00  0.00    -0.221 C  
ENDROOT
BRANCH   9  15
HETATM   15  S   UNL     1     -10.124   5.717  70.682  1.00  0.00    -0.216 S  
HETATM   16  H1  UNL     1     -10.502   3.978  69.486  1.00  0.00     0.000 HD 
HETATM   17  N   UNL     1     -10.358   4.949  69.207  1.00  0.00    -0.141 N  
HETATM   18  H2  UNL     1     -10.356   5.350  68.269  1.00  0.00     0.000 HD 
HETATM   19  O   UNL     1      -8.914   5.194  71.258  1.00  0.00    -0.135 OA 
HETATM   20  O   UNL     1     -11.400   5.607  71.352  1.00  0.00    -0.173 OA 
ENDBRANCH   9  15
BRANCH  13  21
HETATM   21  C   UNL     1     -10.763  11.422  65.835  1.00  0.00    -0.255 A  
HETATM   22  C   UNL     1     -11.884  12.206  66.134  1.00  0.00    -0.327 A  
HETATM   23  C   UNL     1     -12.546  12.908  65.124  1.00  0.00    -0.536 A  
HETATM   24  C   UNL     1     -12.094  12.833  63.810  1.00  0.00    -0.596 A  
HETATM   25  C   UNL     1     -10.973  12.062  63.504  1.00  0.00    -0.514 A  
HETATM   26  C   UNL     1     -10.279  11.370  64.510  1.00  0.00    -0.352 A  
HETATM   27  C   UNL     1      -9.023  10.641  64.119  1.00  0.00    -0.214 C  
ENDBRANCH  13  21
TORSDOF 2
ENDMDL
MODEL       52
REMARK 921   NORMALIZED FREE ENERGY PREDICTED BY IDOCK:   -5.09 KCAL/MOL
REMARK 922        TOTAL FREE ENERGY PREDICTED BY IDOCK:   -6.43 KCAL/MOL
REMARK 923 INTER-LIGAND FREE ENERGY PREDICTED BY IDOCK:   -5.70 KCAL/MOL
REMARK 924 INTRA-LIGAND FREE ENERGY PREDICTED BY IDOCK:   -0.73 KCAL/MOL
REMARK 927      BINDING AFFINITY PREDICTED BY RF-SCORE:    0.00 PKD
ROOT
HETATM    1  C   UNL     1     -11.791  12.431  68.755  1.00  0.00    -0.358 C  
HETATM    2  C   UNL     1     -10.777  11.527  68.059  1.00  0.00    -0.202 C  
HETATM    3  N   UNL     1     -11.302  10.159  68.005  1.00  0.00    -0.572 NA 
HETATM    4  H   UNL     1     -12.167   9.883  68.469  1.00  0.00     0.000 HD 
HETATM    5  C   UNL     1     -10.519   9.257  67.264  1.00  0.00    -0.264 A  
HETATM    6  C   UNL     1     -10.844   7.899  67.265  1.00  0.00    -0.189 A  
HETATM    7  C   UNL     1     -10.022   6.962  66.619  1.00  0.00    -0.143 A  
HETATM    8 CL   UNL     1     -10.544   5.317  66.673  1.00  0.00    -0.348 Cl 
HETATM    9  C   UNL     1      -8.849   7.393  65.989  1.00  0.00    -0.146 A  
HETATM   10  C   UNL     1      -8.539   8.756  65.933  1.00  0.00    -0.174 A  
HETATM   11  O   UNL     1      -8.296  11.535  65.612  1.00  0.00     0.064 OA 
HETATM   12  C   UNL     1      -9.388   9.676  66.549  1.00  0.00    -0.212 A  
HETATM   13  N   UNL     1     -10.327  11.875  66.731  1.00  0.00    -0.206 N  
HETATM   14  C   UNL     1      -9.237  11.131  66.283  1.00  0.00    -0.195 C  
ENDROOT
BRANCH   9  15
HETATM   15  S   UNL     1      -7.725   6.253  65.252  1.00  0.00    -0.103 S  
HETATM   16  H1  UNL     1      -5.833   6.596  64.306  1.00  0.00     0.000 HD 
HETATM   17  N   UNL     1      -6.483   7.256  64.732  1.00  0.00    -0.037 N  
HETATM   18  H2  UNL     1      -6.399   8.269  64.821  1.00  0.00     0.000 HD 
HETATM   19  O   UNL     1      -7.187   5.382  66.263  1.00  0.00    -0.074 OA 
HETATM   20  O   UNL     1      -8.309   5.741  64.034  1.00  0.00    -0.116 OA 
ENDBRANCH   9  15
BRANCH  13  21
HETATM   21  C   UNL     1     -10.615  13.131  66.142  1.00  0.00    -0.279 A  
HETATM   22  C   UNL     1      -9.885  14.268  66.507  1.00  0.00    -0.299 A  
HETATM   23  C   UNL     1     -10.073  15.477  65.834  1.00  0.00    -0.374 A  
HETATM   24  C   UNL     1     -10.990  15.559  64.790  1.00  0.00    -0.416 A  
HETATM   25  C   UNL     1     -11.716  14.429  64.412  1.00  0.00    -0.390 A  
HETATM   26  C   UNL     1     -11.521  13.199  65.061  1.00  0.00    -0.335 A  
HETATM   27  C   UNL     1     -12.266  12.004  64.533  1.00  0.00    -0.329 C  
ENDBRANCH  13  21
TORSDOF 2
ENDMDL
MODEL       53
REMARK 921   NORMALIZED FREE ENERGY PREDICTED BY IDOCK:   -5.09 KCAL/MOL
REMARK 922        TOTAL FREE ENERGY PREDICTED BY IDOCK:   -6.43 KCAL/MOL
REMARK 923 INTER-LIGAND FREE ENERGY PREDICTED BY IDOCK:   -6.05 KCAL/MOL
REMARK 924 INTRA-LIGAND FREE ENERGY PREDICTED BY IDOCK:   -0.38 KCAL/MOL
REMARK 927      BINDING AFFINITY PREDICTED BY RF-SCORE:    0.00 PKD
ROOT
HETATM    1  C   UNL     1      -8.809   8.437  72.057  1.00  0.00    -0.277 C  
HETATM    2  C   UNL     1      -8.982   8.944  70.627  1.00  0.00    -0.199 C  
HETATM    3  N   UNL     1      -8.143   8.151  69.725  1.00  0.00    -0.114 NA 
HETATM    4  H   UNL     1      -7.483   7.449  70.061  1.00  0.00     0.000 HD 
HETATM    5  C   UNL     1      -8.319   8.430  68.359  1.00  0.00    -0.131 A  
HETATM    6  C   UNL     1      -7.472   7.841  67.418  1.00  0.00    -0.093 A  
HETATM    7  C   UNL     1      -7.557   8.181  66.059  1.00  0.00    -0.082 A  
HETATM    8 CL   UNL     1      -6.470   7.366  64.994  1.00  0.00    -0.037 Cl 
HETATM    9  C   UNL     1      -8.486   9.143  65.646  1.00  0.00    -0.139 A  
HETATM   10  C   UNL     1      -9.378   9.702  66.568  1.00  0.00    -0.212 A  
HETATM   11  O   UNL     1     -11.303  10.416  68.484  1.00  0.00    -0.264 OA 
HETATM   12  C   UNL     1      -9.302   9.323  67.909  1.00  0.00    -0.143 A  
HETATM   13  N   UNL     1     -10.310   8.993  70.059  1.00  0.00    -0.198 N  
HETATM   14  C   UNL     1     -10.391   9.687  68.853  1.00  0.00    -0.203 C  
ENDROOT
BRANCH   9  15
HETATM   15  S   UNL     1      -8.569   9.686  63.972  1.00  0.00    -0.215 S  
HETATM   16  H1  UNL     1      -8.801   8.558  62.164  1.00  0.00     0.000 HD 
HETATM   17  N   UNL     1      -8.753   8.243  63.133  1.00  0.00    -0.400 N  
HETATM   18  H2  UNL     1      -8.803   7.293  63.499  1.00  0.00     0.000 HD 
HETATM   19  O   UNL     1      -9.766  10.460  63.774  1.00  0.00    -0.295 OA 
HETATM   20  O   UNL     1      -7.269  10.173  63.572  1.00  0.00    -0.136 OA 
ENDBRANCH   9  15
BRANCH  13  21
HETATM   21  C   UNL     1     -11.474   8.803  70.844  1.00  0.00    -0.284 A  
HETATM   22  C   UNL     1     -12.087   9.892  71.476  1.00  0.00    -0.496 A  
HETATM   23  C   UNL     1     -13.306   9.732  72.138  1.00  0.00    -0.527 A  
HETATM   24  C   UNL     1     -13.922   8.485  72.173  1.00  0.00    -0.464 A  
HETATM   25  C   UNL     1     -13.325   7.396  71.539  1.00  0.00    -0.435 A  
HETATM   26  C   UNL     1     -12.112   7.544  70.847  1.00  0.00    -0.254 A  
HETATM   27  C   UNL     1     -11.579   6.349  70.105  1.00  0.00    -0.449 C  
ENDBRANCH  13  21
TORSDOF 2
ENDMDL
MODEL       54
REMARK 921   NORMALIZED FREE ENERGY PREDICTED BY IDOCK:   -5.08 KCAL/MOL
REMARK 922        TOTAL FREE ENERGY PREDICTED BY IDOCK:   -6.41 KCAL/MOL
REMARK 923 INTER-LIGAND FREE ENERGY PREDICTED BY IDOCK:   -6.07 KCAL/MOL
REMARK 924 INTRA-LIGAND FREE ENERGY PREDICTED BY IDOCK:   -0.34 KCAL/MOL
REMARK 927      BINDING AFFINITY PREDICTED BY RF-SCORE:    0.00 PKD
ROOT
HETATM    1  C   UNL     1      -6.548  12.575  67.694  1.00  0.00    -0.136 C  
HETATM    2  C   UNL     1      -7.277  13.904  67.881  1.00  0.00    -0.158 C  
HETATM    3  N   UNL     1      -6.677  14.915  67.006  1.00  0.00    -0.291 NA 
HETATM    4  H   UNL     1      -5.837  14.737  66.456  1.00  0.00     0.000 HD 
HETATM    5  C   UNL     1      -7.349  16.149  66.985  1.00  0.00    -0.231 A  
HETATM    6  C   UNL     1      -6.787  17.230  66.302  1.00  0.00    -0.283 A  
HETATM    7  C   UNL     1      -7.383  18.500  66.350  1.00  0.00    -0.247 A  
HETATM    8 CL   UNL     1      -6.605  19.748  65.445  1.00  0.00    -0.292 Cl 
HETATM    9  C   UNL     1      -8.540  18.690  67.114  1.00  0.00    -0.269 A  
HETATM   10  C   UNL     1      -9.145  17.606  67.759  1.00  0.00    -0.247 A  
HETATM   11  O   UNL     1     -10.394  15.256  68.656  1.00  0.00    -0.222 OA 
HETATM   12  C   UNL     1      -8.558  16.343  67.669  1.00  0.00    -0.181 A  
HETATM   13  N   UNL     1      -8.708  13.950  67.685  1.00  0.00    -0.175 N  
HETATM   14  C   UNL     1      -9.305  15.136  68.109  1.00  0.00    -0.192 C  
ENDROOT
BRANCH   9  15
HETATM   15  S   UNL     1      -9.274  20.281  67.296  1.00  0.00    -0.395 S  
HETATM   16  H1  UNL     1     -10.338  21.482  65.874  1.00  0.00     0.000 HD 
HETATM   17  N   UNL     1      -9.913  20.561  65.769  1.00  0.00    -0.519 N  
HETATM   18  H2  UNL     1      -9.884  19.962  64.944  1.00  0.00     0.000 HD 
HETATM   19  O   UNL     1     -10.374  20.204  68.221  1.00  0.00    -0.401 OA 
HETATM   20  O   UNL     1      -8.227  21.268  67.435  1.00  0.00    -0.151 OA 
ENDBRANCH   9  15
BRANCH  13  21
HETATM   21  C   UNL     1      -9.488  12.776  67.547  1.00  0.00    -0.187 A  
HETATM   22  C   UNL     1      -9.671  11.915  68.635  1.00  0.00    -0.116 A  
HETATM   23  C   UNL     1     -10.547  10.831  68.541  1.00  0.00    -0.223 A  
HETATM   24  C   UNL     1     -11.247  10.600  67.361  1.00  0.00    -0.280 A  
HETATM   25  C   UNL     1     -11.079  11.457  66.274  1.00  0.00    -0.281 A  
HETATM   26  C   UNL     1     -10.222  12.566  66.359  1.00  0.00    -0.260 A  
HETATM   27  C   UNL     1     -10.168  13.500  65.181  1.00  0.00    -0.334 C  
ENDBRANCH  13  21
TORSDOF 2
ENDMDL
MODEL       55
REMARK 921   NORMALIZED FREE ENERGY PREDICTED BY IDOCK:   -5.07 KCAL/MOL
REMARK 922        TOTAL FREE ENERGY PREDICTED BY IDOCK:   -6.41 KCAL/MOL
REMARK 923 INTER-LIGAND FREE ENERGY PREDICTED BY IDOCK:   -5.92 KCAL/MOL
REMARK 924 INTRA-LIGAND FREE ENERGY PREDICTED BY IDOCK:   -0.49 KCAL/MOL
REMARK 927      BINDING AFFINITY PREDICTED BY RF-SCORE:    0.00 PKD
ROOT
HETATM    1  C   UNL     1      -7.597   9.868  70.264  1.00  0.00    -0.172 C  
HETATM    2  C   UNL     1      -8.702  10.154  69.250  1.00  0.00    -0.179 C  
HETATM    3  N   UNL     1      -8.474  11.467  68.640  1.00  0.00    -0.263 NA 
HETATM    4  H   UNL     1      -7.737  12.099  68.954  1.00  0.00     0.000 HD 
HETATM    5  C   UNL     1      -9.348  11.788  67.587  1.00  0.00    -0.180 A  
HETATM    6  C   UNL     1      -9.318  13.068  67.029  1.00  0.00    -0.236 A  
HETATM    7  C   UNL     1     -10.248  13.448  66.049  1.00  0.00    -0.300 A  
HETATM    8 CL   UNL     1     -10.091  15.050  65.422  1.00  0.00    -0.391 Cl 
HETATM    9  C   UNL     1     -11.234  12.542  65.646  1.00  0.00    -0.317 A  
HETATM   10  C   UNL     1     -11.244  11.238  66.155  1.00  0.00    -0.133 A  
HETATM   11  O   UNL     1     -10.865   8.590  67.009  1.00  0.00    -0.211 OA 
HETATM   12  C   UNL     1     -10.288  10.867  67.102  1.00  0.00    -0.262 A  
HETATM   13  N   UNL     1      -8.932   9.209  68.181  1.00  0.00    -0.129 N  
HETATM   14  C   UNL     1     -10.103   9.436  67.459  1.00  0.00    -0.215 C  
ENDROOT
BRANCH   9  15
HETATM   15  S   UNL     1     -12.491  12.995  64.497  1.00  0.00    -0.333 S  
HETATM   16  H1  UNL     1     -12.338  13.561  62.435  1.00  0.00     0.000 HD 
HETATM   17  N   UNL     1     -11.610  13.298  63.100  1.00  0.00    -0.658 N  
HETATM   18  H2  UNL     1     -10.603  13.235  62.953  1.00  0.00     0.000 HD 
HETATM   19  O   UNL     1     -13.342  11.864  64.239  1.00  0.00    -0.610 OA 
HETATM   20  O   UNL     1     -13.026  14.284  64.873  1.00  0.00    -0.682 OA 
ENDBRANCH   9  15
BRANCH  13  21
HETATM   21  C   UNL     1      -8.329   7.928  68.164  1.00  0.00    -0.124 A  
HETATM   22  C   UNL     1      -8.881   6.876  68.906  1.00  0.00    -0.129 A  
HETATM   23  C   UNL     1      -8.371   5.582  68.786  1.00  0.00    -0.102 A  
HETATM   24  C   UNL     1      -7.306   5.328  67.927  1.00  0.00    -0.076 A  
HETATM   25  C   UNL     1      -6.755   6.366  67.177  1.00  0.00    -0.060 A  
HETATM   26  C   UNL     1      -7.273   7.670  67.265  1.00  0.00    -0.090 A  
HETATM   27  C   UNL     1      -6.691   8.715  66.353  1.00  0.00    -0.070 C  
ENDBRANCH  13  21
TORSDOF 2
ENDMDL
MODEL       56
REMARK 921   NORMALIZED FREE ENERGY PREDICTED BY IDOCK:   -5.01 KCAL/MOL
REMARK 922        TOTAL FREE ENERGY PREDICTED BY IDOCK:   -6.34 KCAL/MOL
REMARK 923 INTER-LIGAND FREE ENERGY PREDICTED BY IDOCK:   -6.67 KCAL/MOL
REMARK 924 INTRA-LIGAND FREE ENERGY PREDICTED BY IDOCK:    0.33 KCAL/MOL
REMARK 927      BINDING AFFINITY PREDICTED BY RF-SCORE:    0.00 PKD
ROOT
HETATM    1  C   UNL     1     -12.942  12.164  72.271  1.00  0.00    -0.091 C  
HETATM    2  C   UNL     1     -12.731  12.348  70.770  1.00  0.00    -0.123 C  
HETATM    3  N   UNL     1     -12.199  13.690  70.515  1.00  0.00    -0.358 NA 
HETATM    4  H   UNL     1     -12.103  14.392  71.249  1.00  0.00     0.000 HD 
HETATM    5  C   UNL     1     -11.832  13.935  69.181  1.00  0.00    -0.358 A  
HETATM    6  C   UNL     1     -11.451  15.221  68.794  1.00  0.00    -0.345 A  
HETATM    7  C   UNL     1     -11.179  15.518  67.449  1.00  0.00    -0.248 A  
HETATM    8 CL   UNL     1     -10.695  17.139  67.103  1.00  0.00    -0.238 Cl 
HETATM    9  C   UNL     1     -11.318  14.517  66.481  1.00  0.00    -0.352 A  
HETATM   10  C   UNL     1     -11.646  13.210  66.860  1.00  0.00    -0.417 A  
HETATM   11  O   UNL     1     -11.941  10.603  67.859  1.00  0.00    -0.420 OA 
HETATM   12  C   UNL     1     -11.876  12.927  68.207  1.00  0.00    -0.372 A  
HETATM   13  N   UNL     1     -11.897  11.406  70.060  1.00  0.00    -0.333 N  
HETATM   14  C   UNL     1     -11.961  11.518  68.672  1.00  0.00    -0.246 C  
ENDROOT
BRANCH   9  15
HETATM   15  S   UNL     1     -11.092  14.854  64.766  1.00  0.00    -0.355 S  
HETATM   16  H1  UNL     1     -10.800  13.510  63.122  1.00  0.00     0.000 HD 
HETATM   17  N   UNL     1     -10.931  13.315  64.114  1.00  0.00    -0.492 N  
HETATM   18  H2  UNL     1     -10.958  12.413  64.590  1.00  0.00     0.000 HD 
HETATM   19  O   UNL     1     -12.292  15.433  64.224  1.00  0.00    -0.528 OA 
HETATM   20  O   UNL     1      -9.795  15.463  64.576  1.00  0.00     0.107 OA 
ENDBRANCH   9  15
BRANCH  13  21
HETATM   21  C   UNL     1     -11.452  10.198  70.652  1.00  0.00    -0.349 A  
HETATM   22  C   UNL     1     -10.093  10.004  70.930  1.00  0.00     0.245 A  
HETATM   23  C   UNL     1      -9.669   8.875  71.633  1.00  0.00    -0.379 A  
HETATM   24  C   UNL     1     -10.597   7.932  72.065  1.00  0.00    -0.296 A  
HETATM   25  C   UNL     1     -11.953   8.120  71.801  1.00  0.00    -0.348 A  
HETATM   26  C   UNL     1     -12.401   9.263  71.117  1.00  0.00    -0.363 A  
HETATM   27  C   UNL     1     -13.885   9.445  70.957  1.00  0.00    -0.011 C  
ENDBRANCH  13  21
TORSDOF 2
ENDMDL
MODEL       57
REMARK 921   NORMALIZED FREE ENERGY PREDICTED BY IDOCK:   -5.00 KCAL/MOL
REMARK 922        TOTAL FREE ENERGY PREDICTED BY IDOCK:   -6.33 KCAL/MOL
REMARK 923 INTER-LIGAND FREE ENERGY PREDICTED BY IDOCK:   -6.37 KCAL/MOL
REMARK 924 INTRA-LIGAND FREE ENERGY PREDICTED BY IDOCK:    0.03 KCAL/MOL
REMARK 927      BINDING AFFINITY PREDICTED BY RF-SCORE:    0.00 PKD
ROOT
HETATM    1  C   UNL     1      -9.040   8.191  72.358  1.00  0.00    -0.281 C  
HETATM    2  C   UNL     1      -9.199   7.776  70.897  1.00  0.00    -0.152 C  
HETATM    3  N   UNL     1      -9.085   6.318  70.792  1.00  0.00    -0.147 NA 
HETATM    4  H   UNL     1      -8.833   5.727  71.584  1.00  0.00     0.000 HD 
HETATM    5  C   UNL     1      -9.351   5.798  69.514  1.00  0.00    -0.130 A  
HETATM    6  C   UNL     1      -9.132   4.442  69.261  1.00  0.00    -0.174 A  
HETATM    7  C   UNL     1      -9.290   3.916  67.969  1.00  0.00    -0.174 A  
HETATM    8 CL   UNL     1      -9.013   2.221  67.791  1.00  0.00    -0.170 Cl 
HETATM    9  C   UNL     1      -9.645   4.767  66.917  1.00  0.00    -0.172 A  
HETATM   10  C   UNL     1      -9.921   6.117  67.164  1.00  0.00    -0.188 A  
HETATM   11  O   UNL     1     -10.784   8.677  67.928  1.00  0.00    -0.194 OA 
HETATM   12  C   UNL     1      -9.794   6.613  68.463  1.00  0.00    -0.139 A  
HETATM   13  N   UNL     1     -10.390   8.174  70.183  1.00  0.00    -0.211 N  
HETATM   14  C   UNL     1     -10.331   7.956  68.807  1.00  0.00    -0.203 C  
ENDROOT
BRANCH   9  15
HETATM   15  S   UNL     1      -9.757   4.186  65.257  1.00  0.00    -0.208 S  
HETATM   16  H1  UNL     1     -11.456   4.032  63.960  1.00  0.00     0.000 HD 
HETATM   17  N   UNL     1     -11.392   4.369  64.920  1.00  0.00    -0.839 N  
HETATM   18  H2  UNL     1     -12.133   4.726  65.523  1.00  0.00     0.000 HD 
HETATM   19  O   UNL     1      -9.031   5.071  64.385  1.00  0.00    -0.128 OA 
HETATM   20  O   UNL     1      -9.544   2.757  65.246  1.00  0.00    -0.085 OA 
ENDBRANCH   9  15
BRANCH  13  21
HETATM   21  C   UNL     1     -11.305   9.118  70.709  1.00  0.00    -0.280 A  
HETATM   22  C   UNL     1     -11.179  10.477  70.398  1.00  0.00    -0.378 A  
HETATM   23  C   UNL     1     -12.155  11.389  70.804  1.00  0.00    -0.433 A  
HETATM   24  C   UNL     1     -13.264  10.953  71.522  1.00  0.00    -0.420 A  
HETATM   25  C   UNL     1     -13.404   9.600  71.829  1.00  0.00    -0.505 A  
HETATM   26  C   UNL     1     -12.445   8.663  71.407  1.00  0.00    -0.337 A  
HETATM   27  C   UNL     1     -12.715   7.211  71.689  1.00  0.00    -0.415 C  
ENDBRANCH  13  21
TORSDOF 2
ENDMDL
MODEL       58
REMARK 921   NORMALIZED FREE ENERGY PREDICTED BY IDOCK:   -4.99 KCAL/MOL
REMARK 922        TOTAL FREE ENERGY PREDICTED BY IDOCK:   -6.32 KCAL/MOL
REMARK 923 INTER-LIGAND FREE ENERGY PREDICTED BY IDOCK:   -5.58 KCAL/MOL
REMARK 924 INTRA-LIGAND FREE ENERGY PREDICTED BY IDOCK:   -0.74 KCAL/MOL
REMARK 927      BINDING AFFINITY PREDICTED BY RF-SCORE:    0.00 PKD
ROOT
HETATM    1  C   UNL     1      -6.653  10.850  66.395  1.00  0.00    -0.134 C  
HETATM    2  C   UNL     1      -7.742  10.085  67.143  1.00  0.00    -0.092 C  
HETATM    3  N   UNL     1      -7.412  10.040  68.570  1.00  0.00    -0.084 NA 
HETATM    4  H   UNL     1      -6.528  10.388  68.942  1.00  0.00     0.000 HD 
HETATM    5  C   UNL     1      -8.409   9.481  69.388  1.00  0.00    -0.140 A  
HETATM    6  C   UNL     1      -8.146   9.254  70.740  1.00  0.00    -0.194 A  
HETATM    7  C   UNL     1      -9.084   8.602  71.557  1.00  0.00    -0.239 A  
HETATM    8 CL   UNL     1      -8.650   8.403  73.216  1.00  0.00    -0.264 Cl 
HETATM    9  C   UNL     1     -10.287   8.152  71.001  1.00  0.00    -0.195 A  
HETATM   10  C   UNL     1     -10.588   8.420  69.661  1.00  0.00    -0.219 A  
HETATM   11  O   UNL     1     -11.154   9.377  67.082  1.00  0.00    -0.048 OA 
HETATM   12  C   UNL     1      -9.658   9.102  68.875  1.00  0.00    -0.152 A  
HETATM   13  N   UNL     1      -9.113  10.527  67.025  1.00  0.00    -0.143 N  
HETATM   14  C   UNL     1     -10.048   9.633  67.543  1.00  0.00    -0.197 C  
ENDROOT
BRANCH   9  15
HETATM   15  S   UNL     1     -11.456   7.238  71.949  1.00  0.00    -0.277 S  
HETATM   16  H1  UNL     1     -13.383   6.474  71.402  1.00  0.00     0.000 HD 
HETATM   17  N   UNL     1     -12.706   7.003  70.852  1.00  0.00    -0.555 N  
HETATM   18  H2  UNL     1     -12.771   7.311  69.882  1.00  0.00     0.000 HD 
HETATM   19  O   UNL     1     -10.913   5.946  72.274  1.00  0.00    -0.238 OA 
HETATM   20  O   UNL     1     -12.021   8.105  72.959  1.00  0.00    -0.269 OA 
ENDBRANCH   9  15
BRANCH  13  21
HETATM   21  C   UNL     1      -9.513  11.497  66.073  1.00  0.00    -0.229 A  
HETATM   22  C   UNL     1      -9.724  11.133  64.738  1.00  0.00    -0.303 A  
HETATM   23  C   UNL     1     -10.247  12.053  63.827  1.00  0.00    -0.447 A  
HETATM   24  C   UNL     1     -10.565  13.343  64.243  1.00  0.00    -0.358 A  
HETATM   25  C   UNL     1     -10.368  13.712  65.573  1.00  0.00    -0.319 A  
HETATM   26  C   UNL     1      -9.867  12.792  66.509  1.00  0.00    -0.258 A  
HETATM   27  C   UNL     1      -9.775  13.233  67.944  1.00  0.00    -0.224 C  
ENDBRANCH  13  21
TORSDOF 2
ENDMDL
MODEL       59
REMARK 921   NORMALIZED FREE ENERGY PREDICTED BY IDOCK:   -4.99 KCAL/MOL
REMARK 922        TOTAL FREE ENERGY PREDICTED BY IDOCK:   -6.32 KCAL/MOL
REMARK 923 INTER-LIGAND FREE ENERGY PREDICTED BY IDOCK:   -5.58 KCAL/MOL
REMARK 924 INTRA-LIGAND FREE ENERGY PREDICTED BY IDOCK:   -0.74 KCAL/MOL
REMARK 927      BINDING AFFINITY PREDICTED BY RF-SCORE:    0.00 PKD
ROOT
HETATM    1  C   UNL     1     -12.872   8.634  72.579  1.00  0.00    -0.352 C  
HETATM    2  C   UNL     1     -12.271   8.629  71.175  1.00  0.00    -0.238 C  
HETATM    3  N   UNL     1     -11.997  10.007  70.759  1.00  0.00    -0.313 NA 
HETATM    4  H   UNL     1     -12.280  10.816  71.313  1.00  0.00     0.000 HD 
HETATM    5  C   UNL     1     -11.314  10.129  69.538  1.00  0.00    -0.206 A  
HETATM    6  C   UNL     1     -11.127  11.392  68.972  1.00  0.00    -0.300 A  
HETATM    7  C   UNL     1     -10.541  11.535  67.705  1.00  0.00    -0.192 A  
HETATM    8 CL   UNL     1     -10.345  13.150  67.127  1.00  0.00    -0.246 Cl 
HETATM    9  C   UNL     1     -10.162  10.394  66.989  1.00  0.00    -0.225 A  
HETATM   10  C   UNL     1     -10.291   9.125  67.564  1.00  0.00    -0.324 A  
HETATM   11  O   UNL     1     -10.288   6.730  69.030  1.00  0.00    -0.176 OA 
HETATM   12  C   UNL     1     -10.843   9.007  68.840  1.00  0.00    -0.075 A  
HETATM   13  N   UNL     1     -11.078   7.853  70.929  1.00  0.00    -0.251 N  
HETATM   14  C   UNL     1     -10.749   7.721  69.581  1.00  0.00    -0.223 C  
ENDROOT
BRANCH   9  15
HETATM   15  S   UNL     1      -9.516  10.504  65.353  1.00  0.00    -0.245 S  
HETATM   16  H1  UNL     1      -8.763   8.969  64.060  1.00  0.00     0.000 HD 
HETATM   17  N   UNL     1      -9.137   8.905  65.007  1.00  0.00    -0.419 N  
HETATM   18  H2  UNL     1      -9.252   8.079  65.594  1.00  0.00     0.000 HD 
HETATM   19  O   UNL     1     -10.558  10.911  64.448  1.00  0.00    -0.360 OA 
HETATM   20  O   UNL     1      -8.238  11.176  65.398  1.00  0.00    -0.013 OA 
ENDBRANCH   9  15
BRANCH  13  21
HETATM   21  C   UNL     1     -10.574   6.924  71.873  1.00  0.00    -0.211 A  
HETATM   22  C   UNL     1     -11.110   5.633  71.951  1.00  0.00    -0.278 A  
HETATM   23  C   UNL     1     -10.528   4.675  72.784  1.00  0.00    -0.261 A  
HETATM   24  C   UNL     1      -9.408   4.997  73.543  1.00  0.00    -0.134 A  
HETATM   25  C   UNL     1      -8.861   6.277  73.465  1.00  0.00    -0.127 A  
HETATM   26  C   UNL     1      -9.417   7.247  72.614  1.00  0.00    -0.186 A  
HETATM   27  C   UNL     1      -8.713   8.572  72.509  1.00  0.00    -0.226 C  
ENDBRANCH  13  21
TORSDOF 2
ENDMDL
MODEL       60
REMARK 921   NORMALIZED FREE ENERGY PREDICTED BY IDOCK:   -4.98 KCAL/MOL
REMARK 922        TOTAL FREE ENERGY PREDICTED BY IDOCK:   -6.30 KCAL/MOL
REMARK 923 INTER-LIGAND FREE ENERGY PREDICTED BY IDOCK:   -6.09 KCAL/MOL
REMARK 924 INTRA-LIGAND FREE ENERGY PREDICTED BY IDOCK:   -0.22 KCAL/MOL
REMARK 927      BINDING AFFINITY PREDICTED BY RF-SCORE:    0.00 PKD
ROOT
HETATM    1  C   UNL     1      -7.325  16.904  66.091  1.00  0.00    -0.159 C  
HETATM    2  C   UNL     1      -8.227  15.742  66.500  1.00  0.00    -0.243 C  
HETATM    3  N   UNL     1      -7.428  14.729  67.196  1.00  0.00    -0.281 NA 
HETATM    4  H   UNL     1      -6.413  14.789  67.276  1.00  0.00     0.000 HD 
HETATM    5  C   UNL     1      -8.170  13.670  67.745  1.00  0.00    -0.179 A  
HETATM    6  C   UNL     1      -7.505  12.576  68.304  1.00  0.00    -0.122 A  
HETATM    7  C   UNL     1      -8.218  11.459  68.765  1.00  0.00    -0.107 A  
HETATM    8 CL   UNL     1      -7.281  10.183  69.456  1.00  0.00    -0.099 Cl 
HETATM    9  C   UNL     1      -9.611  11.429  68.640  1.00  0.00    -0.173 A  
HETATM   10  C   UNL     1     -10.296  12.540  68.133  1.00  0.00    -0.236 A  
HETATM   11  O   UNL     1     -11.494  14.985  67.447  1.00  0.00    -0.341 OA 
HETATM   12  C   UNL     1      -9.572  13.656  67.714  1.00  0.00    -0.224 A  
HETATM   13  N   UNL     1      -9.392  16.013  67.310  1.00  0.00    -0.209 N  
HETATM   14  C   UNL     1     -10.270  14.937  67.426  1.00  0.00    -0.234 C  
ENDROOT
BRANCH   9  15
HETATM   15  S   UNL     1     -10.550  10.013  69.106  1.00  0.00    -0.230 S  
HETATM   16  H1  UNL     1     -12.662   9.791  69.393  1.00  0.00     0.000 HD 
HETATM   17  N   UNL     1     -12.119  10.611  69.123  1.00  0.00    -0.536 N  
HETATM   18  H2  UNL     1     -12.447  11.554  68.916  1.00  0.00     0.000 HD 
HETATM   19  O   UNL     1     -10.474   9.020  68.068  1.00  0.00    -0.220 OA 
HETATM   20  O   UNL     1     -10.268   9.698  70.488  1.00  0.00    -0.264 OA 
ENDBRANCH   9  15
BRANCH  13  21
HETATM   21  C   UNL     1      -9.854  17.330  67.551  1.00  0.00    -0.275 A  
HETATM   22  C   UNL     1      -9.494  18.003  68.725  1.00  0.00    -0.279 A  
HETATM   23  C   UNL     1      -9.834  19.346  68.904  1.00  0.00    -0.523 A  
HETATM   24  C   UNL     1     -10.535  20.027  67.913  1.00  0.00    -0.459 A  
HETATM   25  C   UNL     1     -10.889  19.368  66.736  1.00  0.00    -0.490 A  
HETATM   26  C   UNL     1     -10.534  18.025  66.527  1.00  0.00    -0.341 A  
HETATM   27  C   UNL     1     -10.864  17.413  65.194  1.00  0.00     0.136 C  
ENDBRANCH  13  21
TORSDOF 2
ENDMDL
MODEL       61
REMARK 921   NORMALIZED FREE ENERGY PREDICTED BY IDOCK:   -4.96 KCAL/MOL
REMARK 922        TOTAL FREE ENERGY PREDICTED BY IDOCK:   -6.28 KCAL/MOL
REMARK 923 INTER-LIGAND FREE ENERGY PREDICTED BY IDOCK:   -6.30 KCAL/MOL
REMARK 924 INTRA-LIGAND FREE ENERGY PREDICTED BY IDOCK:    0.01 KCAL/MOL
REMARK 927      BINDING AFFINITY PREDICTED BY RF-SCORE:    0.00 PKD
ROOT
HETATM    1  C   UNL     1     -11.960  14.483  67.414  1.00  0.00    -0.367 C  
HETATM    2  C   UNL     1     -11.760  13.115  68.062  1.00  0.00    -0.355 C  
HETATM    3  N   UNL     1     -10.482  12.550  67.620  1.00  0.00    -0.215 NA 
HETATM    4  H   UNL     1      -9.901  12.993  66.907  1.00  0.00     0.000 HD 
HETATM    5  C   UNL     1     -10.117  11.351  68.254  1.00  0.00    -0.196 A  
HETATM    6  C   UNL     1      -8.994  10.648  67.812  1.00  0.00    -0.140 A  
HETATM    7  C   UNL     1      -8.666   9.397  68.357  1.00  0.00    -0.124 A  
HETATM    8 CL   UNL     1      -7.241   8.640  67.741  1.00  0.00    -0.086 Cl 
HETATM    9  C   UNL     1      -9.490   8.836  69.339  1.00  0.00    -0.161 A  
HETATM   10  C   UNL     1     -10.587   9.551  69.832  1.00  0.00    -0.269 A  
HETATM   11  O   UNL     1     -12.497  11.289  70.937  1.00  0.00    -0.365 OA 
HETATM   12  C   UNL     1     -10.875  10.810  69.303  1.00  0.00    -0.287 A  
HETATM   13  N   UNL     1     -11.810  13.010  69.502  1.00  0.00    -0.321 N  
HETATM   14  C   UNL     1     -11.856  11.700  69.978  1.00  0.00    -0.355 C  
ENDROOT
BRANCH   9  15
HETATM   15  S   UNL     1      -9.188   7.225  69.987  1.00  0.00    -0.147 S  
HETATM   16  H1  UNL     1     -10.355   6.040  71.340  1.00  0.00     0.000 HD 
HETATM   17  N   UNL     1     -10.530   6.972  70.965  1.00  0.00    -0.212 N  
HETATM   18  H2  UNL     1     -11.320   7.593  71.140  1.00  0.00     0.000 HD 
HETATM   19  O   UNL     1      -9.237   6.258  68.923  1.00  0.00    -0.124 OA 
HETATM   20  O   UNL     1      -8.077   7.292  70.909  1.00  0.00    -0.104 OA 
ENDBRANCH   9  15
BRANCH  13  21
HETATM   21  C   UNL     1     -12.256  14.075  70.321  1.00  0.00    -0.361 A  
HETATM   22  C   UNL     1     -13.500  14.005  70.959  1.00  0.00    -0.178 A  
HETATM   23  C   UNL     1     -13.885  14.989  71.872  1.00  0.00    -0.575 A  
HETATM   24  C   UNL     1     -13.030  16.050  72.155  1.00  0.00    -0.364 A  
HETATM   25  C   UNL     1     -11.784  16.124  71.533  1.00  0.00    -0.533 A  
HETATM   26  C   UNL     1     -11.370  15.130  70.631  1.00  0.00    -0.330 A  
HETATM   27  C   UNL     1      -9.976  15.226  70.076  1.00  0.00    -0.125 C  
ENDBRANCH  13  21
TORSDOF 2
ENDMDL
MODEL       62
REMARK 921   NORMALIZED FREE ENERGY PREDICTED BY IDOCK:   -4.91 KCAL/MOL
REMARK 922        TOTAL FREE ENERGY PREDICTED BY IDOCK:   -6.23 KCAL/MOL
REMARK 923 INTER-LIGAND FREE ENERGY PREDICTED BY IDOCK:   -5.81 KCAL/MOL
REMARK 924 INTRA-LIGAND FREE ENERGY PREDICTED BY IDOCK:   -0.42 KCAL/MOL
REMARK 927      BINDING AFFINITY PREDICTED BY RF-SCORE:    0.00 PKD
ROOT
HETATM    1  C   UNL     1     -10.468   7.409  67.964  1.00  0.00    -0.253 C  
HETATM    2  C   UNL     1     -10.611   8.924  68.083  1.00  0.00    -0.157 C  
HETATM    3  N   UNL     1     -11.369   9.247  69.295  1.00  0.00    -0.431 NA 
HETATM    4  H   UNL     1     -11.804   8.532  69.879  1.00  0.00     0.000 HD 
HETATM    5  C   UNL     1     -11.451  10.618  69.591  1.00  0.00    -0.291 A  
HETATM    6  C   UNL     1     -12.268  11.052  70.638  1.00  0.00    -0.481 A  
HETATM    7  C   UNL     1     -12.450  12.421  70.889  1.00  0.00    -0.274 A  
HETATM    8 CL   UNL     1     -13.465  12.827  72.226  1.00  0.00    -0.656 Cl 
HETATM    9  C   UNL     1     -11.825  13.362  70.064  1.00  0.00    -0.294 A  
HETATM   10  C   UNL     1     -10.960  12.944  69.047  1.00  0.00    -0.244 A  
HETATM   11  O   UNL     1      -8.996  11.917  67.323  1.00  0.00    -0.166 OA 
HETATM   12  C   UNL     1     -10.763  11.578  68.836  1.00  0.00    -0.245 A  
HETATM   13  N   UNL     1      -9.419   9.741  68.083  1.00  0.00    -0.135 N  
HETATM   14  C   UNL     1      -9.663  11.107  67.955  1.00  0.00    -0.174 C  
ENDROOT
BRANCH   9  15
HETATM   15  S   UNL     1     -12.097  15.091  70.266  1.00  0.00    -0.355 S  
HETATM   16  H1  UNL     1     -11.329  16.447  71.739  1.00  0.00     0.000 HD 
HETATM   17  N   UNL     1     -11.171  15.446  71.622  1.00  0.00    -0.444 N  
HETATM   18  H2  UNL     1     -10.596  14.820  72.186  1.00  0.00     0.000 HD 
HETATM   19  O   UNL     1     -11.529  15.804  69.153  1.00  0.00    -0.330 OA 
HETATM   20  O   UNL     1     -13.460  15.304  70.695  1.00  0.00    -0.339 OA 
ENDBRANCH   9  15
BRANCH  13  21
HETATM   21  C   UNL     1      -8.145   9.216  67.754  1.00  0.00    -0.105 A  
HETATM   22  C   UNL     1      -7.785   9.018  66.415  1.00  0.00    -0.099 A  
HETATM   23  C   UNL     1      -6.486   8.630  66.081  1.00  0.00    -0.057 A  
HETATM   24  C   UNL     1      -5.537   8.437  67.080  1.00  0.00    -0.038 A  
HETATM   25  C   UNL     1      -5.882   8.641  68.416  1.00  0.00    -0.042 A  
HETATM   26  C   UNL     1      -7.177   9.056  68.769  1.00  0.00    -0.075 A  
HETATM   27  C   UNL     1      -7.446   9.351  70.219  1.00  0.00    -0.131 C  
ENDBRANCH  13  21
TORSDOF 2
ENDMDL
MODEL       63
REMARK 921   NORMALIZED FREE ENERGY PREDICTED BY IDOCK:   -4.74 KCAL/MOL
REMARK 922        TOTAL FREE ENERGY PREDICTED BY IDOCK:   -6.04 KCAL/MOL
REMARK 923 INTER-LIGAND FREE ENERGY PREDICTED BY IDOCK:   -5.74 KCAL/MOL
REMARK 924 INTRA-LIGAND FREE ENERGY PREDICTED BY IDOCK:   -0.30 KCAL/MOL
REMARK 927      BINDING AFFINITY PREDICTED BY RF-SCORE:    0.00 PKD
ROOT
HETATM    1  C   UNL     1     -11.365   4.830  73.378  1.00  0.00    -0.397 C  
HETATM    2  C   UNL     1     -11.142   5.787  72.209  1.00  0.00    -0.276 C  
HETATM    3  N   UNL     1     -11.675   7.108  72.555  1.00  0.00    -0.460 NA 
HETATM    4  H   UNL     1     -12.198   7.283  73.414  1.00  0.00     0.000 HD 
HETATM    5  C   UNL     1     -11.408   8.116  71.613  1.00  0.00    -0.264 A  
HETATM    6  C   UNL     1     -11.988   9.377  71.767  1.00  0.00    -0.452 A  
HETATM    7  C   UNL     1     -11.823  10.370  70.788  1.00  0.00    -0.368 A  
HETATM    8 CL   UNL     1     -12.571  11.893  71.106  1.00  0.00    -0.446 Cl 
HETATM    9  C   UNL     1     -11.088  10.083  69.632  1.00  0.00    -0.259 A  
HETATM   10  C   UNL     1     -10.455   8.843  69.489  1.00  0.00    -0.229 A  
HETATM   11  O   UNL     1      -8.972   6.460  69.567  1.00  0.00    -0.135 OA 
HETATM   12  C   UNL     1     -10.601   7.882  70.491  1.00  0.00    -0.223 A  
HETATM   13  N   UNL     1      -9.801   5.975  71.705  1.00  0.00    -0.169 N  
HETATM   14  C   UNL     1      -9.737   6.673  70.500  1.00  0.00    -0.176 C  
ENDROOT
BRANCH   9  15
HETATM   15  S   UNL     1     -10.933  11.252  68.324  1.00  0.00    -0.247 S  
HETATM   16  H1  UNL     1      -9.945  11.081  66.429  1.00  0.00     0.000 HD 
HETATM   17  N   UNL     1     -10.035  10.404  67.186  1.00  0.00    -0.187 N  
HETATM   18  H2  UNL     1      -9.672   9.452  67.239  1.00  0.00     0.000 HD 
HETATM   19  O   UNL     1     -12.227  11.512  67.751  1.00  0.00    -0.560 OA 
HETATM   20  O   UNL     1     -10.058  12.320  68.751  1.00  0.00    -0.175 OA 
ENDBRANCH   9  15
BRANCH  13  21
HETATM   21  C   UNL     1      -8.724   5.144  72.099  1.00  0.00    -0.129 A  
HETATM   22  C   UNL     1      -7.850   5.551  73.114  1.00  0.00    -0.101 A  
HETATM   23  C   UNL     1      -6.872   4.680  73.597  1.00  0.00    -0.069 A  
HETATM   24  C   UNL     1      -6.758   3.397  73.071  1.00  0.00    -0.034 A  
HETATM   25  C   UNL     1      -7.629   2.978  72.066  1.00  0.00    -0.053 A  
HETATM   26  C   UNL     1      -8.637   3.832  71.586  1.00  0.00    -0.113 A  
HETATM   27  C   UNL     1      -9.600   3.276  70.572  1.00  0.00    -0.218 C  
ENDBRANCH  13  21
TORSDOF 2
ENDMDL
MODEL       64
REMARK 921   NORMALIZED FREE ENERGY PREDICTED BY IDOCK:   -4.72 KCAL/MOL
REMARK 922        TOTAL FREE ENERGY PREDICTED BY IDOCK:   -6.02 KCAL/MOL
REMARK 923 INTER-LIGAND FREE ENERGY PREDICTED BY IDOCK:   -5.49 KCAL/MOL
REMARK 924 INTRA-LIGAND FREE ENERGY PREDICTED BY IDOCK:   -0.52 KCAL/MOL
REMARK 927      BINDING AFFINITY PREDICTED BY RF-SCORE:    0.00 PKD
ROOT
HETATM    1  C   UNL     1      -8.032   8.933  70.352  1.00  0.00    -0.120 C  
HETATM    2  C   UNL     1      -8.803  10.061  69.671  1.00  0.00    -0.199 C  
HETATM    3  N   UNL     1      -7.875  11.141  69.322  1.00  0.00    -0.343 NA 
HETATM    4  H   UNL     1      -6.895  11.138  69.606  1.00  0.00     0.000 HD 
HETATM    5  C   UNL     1      -8.440  12.181  68.564  1.00  0.00    -0.083 A  
HETATM    6  C   UNL     1      -7.691  13.329  68.298  1.00  0.00    -0.141 A  
HETATM    7  C   UNL     1      -8.263  14.425  67.634  1.00  0.00    -0.176 A  
HETATM    8 CL   UNL     1      -7.225  15.774  67.345  1.00  0.00    -0.213 Cl 
HETATM    9  C   UNL     1      -9.609  14.376  67.257  1.00  0.00    -0.227 A  
HETATM   10  C   UNL     1     -10.358  13.212  67.467  1.00  0.00    -0.225 A  
HETATM   11  O   UNL     1     -11.564  10.682  67.638  1.00  0.00    -0.492 OA 
HETATM   12  C   UNL     1      -9.761  12.119  68.096  1.00  0.00    -0.208 A  
HETATM   13  N   UNL     1      -9.587   9.761  68.495  1.00  0.00    -0.147 N  
HETATM   14  C   UNL     1     -10.433  10.794  68.094  1.00  0.00    -0.185 C  
ENDROOT
BRANCH   9  15
HETATM   15  S   UNL     1     -10.410  15.758  66.514  1.00  0.00    -0.302 S  
HETATM   16  H1  UNL     1     -12.229  15.856  65.384  1.00  0.00     0.000 HD 
HETATM   17  N   UNL     1     -11.766  15.056  65.814  1.00  0.00    -0.185 N  
HETATM   18  H2  UNL     1     -12.054  14.077  65.818  1.00  0.00     0.000 HD 
HETATM   19  O   UNL     1     -10.867  16.661  67.537  1.00  0.00    -0.305 OA 
HETATM   20  O   UNL     1      -9.619  16.211  65.392  1.00  0.00    -0.428 OA 
ENDBRANCH   9  15
BRANCH  13  21
HETATM   21  C   UNL     1      -9.849   8.432  68.082  1.00  0.00    -0.169 A  
HETATM   22  C   UNL     1     -10.730   7.625  68.812  1.00  0.00    -0.106 A  
HETATM   23  C   UNL     1     -11.095   6.364  68.335  1.00  0.00    -0.374 A  
HETATM   24  C   UNL     1     -10.584   5.900  67.127  1.00  0.00    -0.373 A  
HETATM   25  C   UNL     1      -9.714   6.700  66.387  1.00  0.00    -0.128 A  
HETATM   26  C   UNL     1      -9.356   7.982  66.839  1.00  0.00    -0.209 A  
HETATM   27  C   UNL     1      -8.492   8.824  65.940  1.00  0.00    -0.154 C  
ENDBRANCH  13  21
TORSDOF 2
ENDMDL
MODEL       65
REMARK 921   NORMALIZED FREE ENERGY PREDICTED BY IDOCK:   -4.72 KCAL/MOL
REMARK 922        TOTAL FREE ENERGY PREDICTED BY IDOCK:   -6.01 KCAL/MOL
REMARK 923 INTER-LIGAND FREE ENERGY PREDICTED BY IDOCK:   -5.83 KCAL/MOL
REMARK 924 INTRA-LIGAND FREE ENERGY PREDICTED BY IDOCK:   -0.18 KCAL/MOL
REMARK 927      BINDING AFFINITY PREDICTED BY RF-SCORE:    0.00 PKD
ROOT
HETATM    1  C   UNL     1     -13.979   9.143  71.940  1.00  0.00    -0.405 C  
HETATM    2  C   UNL     1     -12.580   8.596  72.215  1.00  0.00    -0.395 C  
HETATM    3  N   UNL     1     -12.614   7.131  72.171  1.00  0.00    -0.512 NA 
HETATM    4  H   UNL     1     -13.482   6.603  72.073  1.00  0.00     0.000 HD 
HETATM    5  C   UNL     1     -11.358   6.510  72.273  1.00  0.00    -0.282 A  
HETATM    6  C   UNL     1     -11.281   5.120  72.388  1.00  0.00    -0.176 A  
HETATM    7  C   UNL     1     -10.049   4.482  72.595  1.00  0.00    -0.174 A  
HETATM    8 CL   UNL     1     -10.085   2.758  72.697  1.00  0.00    -0.220 Cl 
HETATM    9  C   UNL     1      -8.886   5.250  72.714  1.00  0.00    -0.122 A  
HETATM   10  C   UNL     1      -8.938   6.638  72.546  1.00  0.00    -0.136 A  
HETATM   11  O   UNL     1      -9.199   9.337  71.813  1.00  0.00    -0.306 OA 
HETATM   12  C   UNL     1     -10.168   7.251  72.304  1.00  0.00    -0.225 A  
HETATM   13  N   UNL     1     -11.483   9.033  71.383  1.00  0.00    -0.302 N  
HETATM   14  C   UNL     1     -10.224   8.669  71.860  1.00  0.00    -0.334 C  
ENDROOT
BRANCH   9  15
HETATM   15  S   UNL     1      -7.326   4.514  73.077  1.00  0.00    -0.082 S  
HETATM   16  H1  UNL     1      -5.345   5.304  72.867  1.00  0.00     0.000 HD 
HETATM   17  N   UNL     1      -6.247   5.730  72.657  1.00  0.00    -0.047 N  
HETATM   18  H2  UNL     1      -6.444   6.660  72.286  1.00  0.00     0.000 HD 
HETATM   19  O   UNL     1      -7.211   4.300  74.495  1.00  0.00    -0.068 OA 
HETATM   20  O   UNL     1      -7.072   3.460  72.121  1.00  0.00    -0.039 OA 
ENDBRANCH   9  15
BRANCH  13  21
HETATM   21  C   UNL     1     -11.609  10.111  70.474  1.00  0.00    -0.329 A  
HETATM   22  C   UNL     1     -11.995  11.379  70.927  1.00  0.00    -0.271 A  
HETATM   23  C   UNL     1     -11.989  12.473  70.059  1.00  0.00    -0.372 A  
HETATM   24  C   UNL     1     -11.598  12.310  68.733  1.00  0.00    -0.380 A  
HETATM   25  C   UNL     1     -11.203  11.054  68.274  1.00  0.00    -0.340 A  
HETATM   26  C   UNL     1     -11.178   9.947  69.140  1.00  0.00    -0.151 A  
HETATM   27  C   UNL     1     -10.646   8.648  68.598  1.00  0.00    -0.165 C  
ENDBRANCH  13  21
TORSDOF 2
ENDMDL
MODEL       66
REMARK 921   NORMALIZED FREE ENERGY PREDICTED BY IDOCK:   -4.72 KCAL/MOL
REMARK 922        TOTAL FREE ENERGY PREDICTED BY IDOCK:   -6.01 KCAL/MOL
REMARK 923 INTER-LIGAND FREE ENERGY PREDICTED BY IDOCK:   -6.28 KCAL/MOL
REMARK 924 INTRA-LIGAND FREE ENERGY PREDICTED BY IDOCK:    0.26 KCAL/MOL
REMARK 927      BINDING AFFINITY PREDICTED BY RF-SCORE:    0.00 PKD
ROOT
HETATM    1  C   UNL     1      -7.100  11.793  68.606  1.00  0.00    -0.101 C  
HETATM    2  C   UNL     1      -7.972  12.996  68.254  1.00  0.00    -0.151 C  
HETATM    3  N   UNL     1      -7.126  14.072  67.730  1.00  0.00    -0.158 NA 
HETATM    4  H   UNL     1      -6.107  14.017  67.722  1.00  0.00     0.000 HD 
HETATM    5  C   UNL     1      -7.828  15.187  67.241  1.00  0.00    -0.211 A  
HETATM    6  C   UNL     1      -7.125  16.330  66.853  1.00  0.00    -0.246 A  
HETATM    7  C   UNL     1      -7.804  17.493  66.458  1.00  0.00    -0.276 A  
HETATM    8 CL   UNL     1      -6.822  18.830  65.979  1.00  0.00    -0.269 Cl 
HETATM    9  C   UNL     1      -9.203  17.516  66.480  1.00  0.00    -0.267 A  
HETATM   10  C   UNL     1      -9.922  16.362  66.813  1.00  0.00    -0.277 A  
HETATM   11  O   UNL     1     -11.160  13.864  67.145  1.00  0.00    -0.290 OA 
HETATM   12  C   UNL     1      -9.228  15.204  67.167  1.00  0.00    -0.226 A  
HETATM   13  N   UNL     1      -9.071  12.816  67.334  1.00  0.00    -0.184 N  
HETATM   14  C   UNL     1      -9.942  13.904  67.265  1.00  0.00    -0.242 C  
ENDROOT
BRANCH   9  15
HETATM   15  S   UNL     1     -10.109  18.977  66.095  1.00  0.00    -0.370 S  
HETATM   16  H1  UNL     1     -11.651  19.976  67.199  1.00  0.00     0.000 HD 
HETATM   17  N   UNL     1     -11.127  19.130  67.422  1.00  0.00    -0.320 N  
HETATM   18  H2  UNL     1     -11.203  18.529  68.242  1.00  0.00     0.000 HD 
HETATM   19  O   UNL     1      -9.221  20.110  66.095  1.00  0.00    -0.342 OA 
HETATM   20  O   UNL     1     -10.996  18.701  64.989  1.00  0.00    -0.559 OA 
ENDBRANCH   9  15
BRANCH  13  21
HETATM   21  C   UNL     1      -9.509  11.534  66.921  1.00  0.00    -0.182 A  
HETATM   22  C   UNL     1      -9.074  10.995  65.705  1.00  0.00    -0.223 A  
HETATM   23  C   UNL     1      -9.393   9.681  65.358  1.00  0.00    -0.320 A  
HETATM   24  C   UNL     1     -10.149   8.895  66.223  1.00  0.00    -0.284 A  
HETATM   25  C   UNL     1     -10.579   9.419  67.441  1.00  0.00    -0.326 A  
HETATM   26  C   UNL     1     -10.245  10.731  67.818  1.00  0.00    -0.212 A  
HETATM   27  C   UNL     1     -10.661  11.192  69.188  1.00  0.00    -0.238 C  
ENDBRANCH  13  21
TORSDOF 2
ENDMDL
MODEL       67
REMARK 921   NORMALIZED FREE ENERGY PREDICTED BY IDOCK:   -4.68 KCAL/MOL
REMARK 922        TOTAL FREE ENERGY PREDICTED BY IDOCK:   -5.97 KCAL/MOL
REMARK 923 INTER-LIGAND FREE ENERGY PREDICTED BY IDOCK:   -5.85 KCAL/MOL
REMARK 924 INTRA-LIGAND FREE ENERGY PREDICTED BY IDOCK:   -0.12 KCAL/MOL
REMARK 927      BINDING AFFINITY PREDICTED BY RF-SCORE:    0.00 PKD
ROOT
HETATM    1  C   UNL     1     -10.611   6.513  67.475  1.00  0.00    -0.345 C  
HETATM    2  C   UNL     1     -10.170   7.915  67.888  1.00  0.00    -0.209 C  
HETATM    3  N   UNL     1     -10.975   8.909  67.173  1.00  0.00    -0.317 NA 
HETATM    4  H   UNL     1     -11.642   8.655  66.444  1.00  0.00     0.000 HD 
HETATM    5  C   UNL     1     -10.758  10.239  67.571  1.00  0.00    -0.294 A  
HETATM    6  C   UNL     1     -11.362  11.280  66.861  1.00  0.00    -0.231 A  
HETATM    7  C   UNL     1     -11.081  12.620  67.171  1.00  0.00    -0.280 A  
HETATM    8 CL   UNL     1     -11.908  13.813  66.236  1.00  0.00    -0.397 Cl 
HETATM    9  C   UNL     1     -10.165  12.916  68.186  1.00  0.00    -0.239 A  
HETATM   10  C   UNL     1      -9.594  11.886  68.942  1.00  0.00     0.068 A  
HETATM   11  O   UNL     1      -8.857   9.717  70.567  1.00  0.00    -0.182 OA 
HETATM   12  C   UNL     1      -9.914  10.561  68.643  1.00  0.00    -0.188 A  
HETATM   13  N   UNL     1     -10.183   8.267  69.290  1.00  0.00    -0.201 N  
HETATM   14  C   UNL     1      -9.543   9.470  69.583  1.00  0.00    -0.202 C  
ENDROOT
BRANCH   9  15
HETATM   15  S   UNL     1      -9.694  14.574  68.550  1.00  0.00    -0.225 S  
HETATM   16  H1  UNL     1      -7.970  15.326  69.578  1.00  0.00     0.000 HD 
HETATM   17  N   UNL     1      -8.242  14.366  69.368  1.00  0.00    -0.362 N  
HETATM   18  H2  UNL     1      -7.755  13.499  69.596  1.00  0.00     0.000 HD 
HETATM   19  O   UNL     1      -9.408  15.276  67.327  1.00  0.00    -0.199 OA 
HETATM   20  O   UNL     1     -10.595  15.109  69.545  1.00  0.00    -0.248 OA 
ENDBRANCH   9  15
BRANCH  13  21
HETATM   21  C   UNL     1     -10.374   7.302  70.308  1.00  0.00    -0.210 A  
HETATM   22  C   UNL     1      -9.519   6.197  70.406  1.00  0.00    -0.179 A  
HETATM   23  C   UNL     1      -9.619   5.317  71.485  1.00  0.00    -0.201 A  
HETATM   24  C   UNL     1     -10.572   5.533  72.476  1.00  0.00    -0.272 A  
HETATM   25  C   UNL     1     -11.422   6.636  72.393  1.00  0.00    -0.300 A  
HETATM   26  C   UNL     1     -11.319   7.545  71.327  1.00  0.00    -0.284 A  
HETATM   27  C   UNL     1     -12.203   8.762  71.359  1.00  0.00    -0.359 C  
ENDBRANCH  13  21
TORSDOF 2
ENDMDL
MODEL       68
REMARK 921   NORMALIZED FREE ENERGY PREDICTED BY IDOCK:   -4.67 KCAL/MOL
REMARK 922        TOTAL FREE ENERGY PREDICTED BY IDOCK:   -5.97 KCAL/MOL
REMARK 923 INTER-LIGAND FREE ENERGY PREDICTED BY IDOCK:   -6.20 KCAL/MOL
REMARK 924 INTRA-LIGAND FREE ENERGY PREDICTED BY IDOCK:    0.24 KCAL/MOL
REMARK 927      BINDING AFFINITY PREDICTED BY RF-SCORE:    0.00 PKD
ROOT
HETATM    1  C   UNL     1      -8.882  13.484  66.757  1.00  0.00    -0.146 C  
HETATM    2  C   UNL     1      -9.259  12.182  67.459  1.00  0.00    -0.182 C  
HETATM    3  N   UNL     1     -10.280  12.456  68.474  1.00  0.00    -0.279 NA 
HETATM    4  H   UNL     1     -10.581  13.401  68.711  1.00  0.00     0.000 HD 
HETATM    5  C   UNL     1     -10.811  11.314  69.098  1.00  0.00    -0.222 A  
HETATM    6  C   UNL     1     -11.682  11.459  70.179  1.00  0.00    -0.414 A  
HETATM    7  C   UNL     1     -12.147  10.339  70.886  1.00  0.00    -0.368 A  
HETATM    8 CL   UNL     1     -13.237  10.650  72.188  1.00  0.00    -0.507 Cl 
HETATM    9  C   UNL     1     -11.710   9.062  70.517  1.00  0.00    -0.126 A  
HETATM   10  C   UNL     1     -10.881   8.895  69.402  1.00  0.00    -0.133 A  
HETATM   11  O   UNL     1      -9.539   8.748  66.939  1.00  0.00    -0.161 OA 
HETATM   12  C   UNL     1     -10.459  10.019  68.690  1.00  0.00    -0.228 A  
HETATM   13  N   UNL     1      -9.721  11.068  66.663  1.00  0.00    -0.191 N  
HETATM   14  C   UNL     1      -9.809   9.865  67.362  1.00  0.00    -0.179 C  
ENDROOT
BRANCH   9  15
HETATM   15  S   UNL     1     -12.175   7.628  71.429  1.00  0.00    -0.330 S  
HETATM   16  H1  UNL     1     -14.120   6.914  71.981  1.00  0.00     0.000 HD 
HETATM   17  N   UNL     1     -13.850   7.744  71.453  1.00  0.00    -0.566 N  
HETATM   18  H2  UNL     1     -14.448   8.462  71.043  1.00  0.00     0.000 HD 
HETATM   19  O   UNL     1     -11.832   6.447  70.682  1.00  0.00    -0.367 OA 
HETATM   20  O   UNL     1     -11.782   7.801  72.808  1.00  0.00    -0.337 OA 
ENDBRANCH   9  15
BRANCH  13  21
HETATM   21  C   UNL     1      -9.626  11.059  65.250  1.00  0.00    -0.227 A  
HETATM   22  C   UNL     1     -10.663  11.580  64.468  1.00  0.00    -0.390 A  
HETATM   23  C   UNL     1     -10.516  11.696  63.084  1.00  0.00    -0.368 A  
HETATM   24  C   UNL     1      -9.333  11.294  62.471  1.00  0.00    -0.223 A  
HETATM   25  C   UNL     1      -8.291  10.782  63.243  1.00  0.00    -0.026 A  
HETATM   26  C   UNL     1      -8.411  10.682  64.639  1.00  0.00    -0.088 A  
HETATM   27  C   UNL     1      -7.209  10.213  65.413  1.00  0.00    -0.144 C  
ENDBRANCH  13  21
TORSDOF 2
ENDMDL
MODEL       69
REMARK 921   NORMALIZED FREE ENERGY PREDICTED BY IDOCK:   -4.66 KCAL/MOL
REMARK 922        TOTAL FREE ENERGY PREDICTED BY IDOCK:   -5.95 KCAL/MOL
REMARK 923 INTER-LIGAND FREE ENERGY PREDICTED BY IDOCK:   -5.85 KCAL/MOL
REMARK 924 INTRA-LIGAND FREE ENERGY PREDICTED BY IDOCK:   -0.10 KCAL/MOL
REMARK 927      BINDING AFFINITY PREDICTED BY RF-SCORE:    0.00 PKD
ROOT
HETATM    1  C   UNL     1     -12.781  13.846  65.880  1.00  0.00    -0.466 C  
HETATM    2  C   UNL     1     -11.537  12.994  66.118  1.00  0.00    -0.366 C  
HETATM    3  N   UNL     1     -11.290  12.157  64.941  1.00  0.00    -0.322 NA 
HETATM    4  H   UNL     1     -11.936  12.109  64.153  1.00  0.00     0.000 HD 
HETATM    5  C   UNL     1     -10.091  11.425  64.981  1.00  0.00    -0.274 A  
HETATM    6  C   UNL     1      -9.821  10.485  63.983  1.00  0.00    -0.387 A  
HETATM    7  C   UNL     1      -8.682   9.667  64.053  1.00  0.00    -0.219 A  
HETATM    8 CL   UNL     1      -8.449   8.563  62.746  1.00  0.00    -0.156 Cl 
HETATM    9  C   UNL     1      -7.821   9.777  65.150  1.00  0.00    -0.126 A  
HETATM   10  C   UNL     1      -8.048  10.751  66.130  1.00  0.00    -0.160 A  
HETATM   11  O   UNL     1      -8.469  12.990  67.770  1.00  0.00    -0.162 OA 
HETATM   12  C   UNL     1      -9.166  11.579  66.023  1.00  0.00    -0.229 A  
HETATM   13  N   UNL     1     -10.295  13.650  66.458  1.00  0.00    -0.278 N  
HETATM   14  C   UNL     1      -9.290  12.783  66.886  1.00  0.00    -0.234 C  
ENDROOT
BRANCH   9  15
HETATM   15  S   UNL     1      -6.434   8.708  65.345  1.00  0.00    -0.063 S  
HETATM   16  H1  UNL     1      -6.356   6.581  65.605  1.00  0.00     0.000 HD 
HETATM   17  N   UNL     1      -7.159   7.200  65.492  1.00  0.00    -0.063 N  
HETATM   18  H2  UNL     1      -8.151   6.963  65.473  1.00  0.00     0.000 HD 
HETATM   19  O   UNL     1      -5.655   8.701  64.135  1.00  0.00    -0.062 OA 
HETATM   20  O   UNL     1      -5.836   8.948  66.638  1.00  0.00    -0.050 OA 
ENDBRANCH   9  15
BRANCH  13  21
HETATM   21  C   UNL     1     -10.236  15.023  66.797  1.00  0.00    -0.260 A  
HETATM   22  C   UNL     1      -9.871  15.975  65.837  1.00  0.00    -0.380 A  
HETATM   23  C   UNL     1      -9.941  17.338  66.129  1.00  0.00    -0.288 A  
HETATM   24  C   UNL     1     -10.377  17.762  67.381  1.00  0.00    -0.370 A  
HETATM   25  C   UNL     1     -10.752  16.823  68.341  1.00  0.00    -0.362 A  
HETATM   26  C   UNL     1     -10.712  15.448  68.056  1.00  0.00    -0.279 A  
HETATM   27  C   UNL     1     -11.225  14.501  69.106  1.00  0.00    -0.294 C  
ENDBRANCH  13  21
TORSDOF 2
ENDMDL
MODEL       70
REMARK 921   NORMALIZED FREE ENERGY PREDICTED BY IDOCK:   -4.65 KCAL/MOL
REMARK 922        TOTAL FREE ENERGY PREDICTED BY IDOCK:   -5.93 KCAL/MOL
REMARK 923 INTER-LIGAND FREE ENERGY PREDICTED BY IDOCK:   -5.34 KCAL/MOL
REMARK 924 INTRA-LIGAND FREE ENERGY PREDICTED BY IDOCK:   -0.59 KCAL/MOL
REMARK 927      BINDING AFFINITY PREDICTED BY RF-SCORE:    0.00 PKD
ROOT
HETATM    1  C   UNL     1     -12.234  10.931  69.626  1.00  0.00    -0.354 C  
HETATM    2  C   UNL     1     -11.220   9.934  70.182  1.00  0.00    -0.289 C  
HETATM    3  N   UNL     1     -11.931   8.797  70.773  1.00  0.00    -0.455 NA 
HETATM    4  H   UNL     1     -12.947   8.772  70.869  1.00  0.00     0.000 HD 
HETATM    5  C   UNL     1     -11.106   7.742  71.198  1.00  0.00    -0.248 A  
HETATM    6  C   UNL     1     -11.659   6.673  71.906  1.00  0.00    -0.344 A  
HETATM    7  C   UNL     1     -10.843   5.658  72.432  1.00  0.00    -0.248 A  
HETATM    8 CL   UNL     1     -11.651   4.380  73.267  1.00  0.00    -0.303 Cl 
HETATM    9  C   UNL     1      -9.456   5.734  72.266  1.00  0.00    -0.144 A  
HETATM   10  C   UNL     1      -8.891   6.769  71.513  1.00  0.00    -0.137 A  
HETATM   11  O   UNL     1      -8.003   8.696  69.674  1.00  0.00    -0.092 OA 
HETATM   12  C   UNL     1      -9.722   7.748  70.967  1.00  0.00    -0.174 A  
HETATM   13  N   UNL     1     -10.205   9.404  69.300  1.00  0.00    -0.194 N  
HETATM   14  C   UNL     1      -9.195   8.697  69.952  1.00  0.00    -0.155 C  
ENDROOT
BRANCH   9  15
HETATM   15  S   UNL     1      -8.375   4.547  72.991  1.00  0.00    -0.099 S  
HETATM   16  H1  UNL     1      -6.238   4.389  72.901  1.00  0.00     0.000 HD 
HETATM   17  N   UNL     1      -6.864   5.076  72.481  1.00  0.00    -0.067 N  
HETATM   18  H2  UNL     1      -6.632   5.881  71.900  1.00  0.00     0.000 HD 
HETATM   19  O   UNL     1      -8.416   4.665  74.424  1.00  0.00    -0.103 OA 
HETATM   20  O   UNL     1      -8.556   3.278  72.323  1.00  0.00    -0.081 OA 
ENDBRANCH   9  15
BRANCH  13  21
HETATM   21  C   UNL     1      -9.975   9.938  68.009  1.00  0.00    -0.152 A  
HETATM   22  C   UNL     1      -9.450  11.227  67.859  1.00  0.00    -0.179 A  
HETATM   23  C   UNL     1      -9.095  11.705  66.596  1.00  0.00    -0.196 A  
HETATM   24  C   UNL     1      -9.262  10.899  65.473  1.00  0.00    -0.232 A  
HETATM   25  C   UNL     1      -9.775   9.610  65.613  1.00  0.00    -0.363 A  
HETATM   26  C   UNL     1     -10.113   9.104  66.879  1.00  0.00    -0.328 A  
HETATM   27  C   UNL     1     -10.566   7.672  66.961  1.00  0.00    -0.406 C  
ENDBRANCH  13  21
TORSDOF 2
ENDMDL
MODEL       71
REMARK 921   NORMALIZED FREE ENERGY PREDICTED BY IDOCK:   -4.62 KCAL/MOL
REMARK 922        TOTAL FREE ENERGY PREDICTED BY IDOCK:   -5.91 KCAL/MOL
REMARK 923 INTER-LIGAND FREE ENERGY PREDICTED BY IDOCK:   -5.33 KCAL/MOL
REMARK 924 INTRA-LIGAND FREE ENERGY PREDICTED BY IDOCK:   -0.58 KCAL/MOL
REMARK 927      BINDING AFFINITY PREDICTED BY RF-SCORE:    0.00 PKD
ROOT
HETATM    1  C   UNL     1      -8.006  13.394  67.397  1.00  0.00    -0.170 C  
HETATM    2  C   UNL     1      -8.327  11.914  67.203  1.00  0.00    -0.174 C  
HETATM    3  N   UNL     1      -8.206  11.218  68.487  1.00  0.00    -0.145 NA 
HETATM    4  H   UNL     1      -7.856  11.675  69.330  1.00  0.00     0.000 HD 
HETATM    5  C   UNL     1      -8.610   9.873  68.468  1.00  0.00    -0.117 A  
HETATM    6  C   UNL     1      -8.404   9.073  69.595  1.00  0.00    -0.125 A  
HETATM    7  C   UNL     1      -8.703   7.702  69.569  1.00  0.00    -0.136 A  
HETATM    8 CL   UNL     1      -8.425   6.828  71.032  1.00  0.00    -0.131 Cl 
HETATM    9  C   UNL     1      -9.189   7.124  68.391  1.00  0.00    -0.133 A  
HETATM   10  C   UNL     1      -9.452   7.922  67.271  1.00  0.00    -0.188 A  
HETATM   11  O   UNL     1     -10.256   9.736  65.285  1.00  0.00    -0.216 OA 
HETATM   12  C   UNL     1      -9.184   9.290  67.329  1.00  0.00    -0.149 A  
HETATM   13  N   UNL     1      -9.597  11.544  66.623  1.00  0.00    -0.193 N  
HETATM   14  C   UNL     1      -9.695  10.199  66.270  1.00  0.00    -0.218 C  
ENDROOT
BRANCH   9  15
HETATM   15  S   UNL     1      -9.483   5.392  68.266  1.00  0.00    -0.124 S  
HETATM   16  H1  UNL     1     -10.551   4.276  66.779  1.00  0.00     0.000 HD 
HETATM   17  N   UNL     1     -10.381   5.279  66.851  1.00  0.00    -0.242 N  
HETATM   18  H2  UNL     1     -10.679   6.025  66.222  1.00  0.00     0.000 HD 
HETATM   19  O   UNL     1      -8.239   4.703  68.048  1.00  0.00    -0.091 OA 
HETATM   20  O   UNL     1     -10.403   4.996  69.308  1.00  0.00    -0.213 OA 
ENDBRANCH   9  15
BRANCH  13  21
HETATM   21  C   UNL     1     -10.459  12.496  66.024  1.00  0.00    -0.258 A  
HETATM   22  C   UNL     1     -10.367  12.771  64.654  1.00  0.00    -0.362 A  
HETATM   23  C   UNL     1     -11.300  13.605  64.036  1.00  0.00    -0.247 A  
HETATM   24  C   UNL     1     -12.332  14.171  64.780  1.00  0.00    -0.436 A  
HETATM   25  C   UNL     1     -12.437  13.896  66.143  1.00  0.00    -0.478 A  
HETATM   26  C   UNL     1     -11.523  13.038  66.776  1.00  0.00    -0.392 A  
HETATM   27  C   UNL     1     -11.759  12.711  68.225  1.00  0.00    -0.389 C  
ENDBRANCH  13  21
TORSDOF 2
ENDMDL
MODEL       72
REMARK 921   NORMALIZED FREE ENERGY PREDICTED BY IDOCK:   -4.60 KCAL/MOL
REMARK 922        TOTAL FREE ENERGY PREDICTED BY IDOCK:   -5.88 KCAL/MOL
REMARK 923 INTER-LIGAND FREE ENERGY PREDICTED BY IDOCK:   -5.70 KCAL/MOL
REMARK 924 INTRA-LIGAND FREE ENERGY PREDICTED BY IDOCK:   -0.19 KCAL/MOL
REMARK 927      BINDING AFFINITY PREDICTED BY RF-SCORE:    0.00 PKD
ROOT
HETATM    1  C   UNL     1      -7.526  13.796  68.383  1.00  0.00    -0.119 C  
HETATM    2  C   UNL     1      -8.325  12.509  68.196  1.00  0.00    -0.175 C  
HETATM    3  N   UNL     1      -7.868  11.508  69.165  1.00  0.00    -0.346 NA 
HETATM    4  H   UNL     1      -7.066  11.661  69.777  1.00  0.00     0.000 HD 
HETATM    5  C   UNL     1      -8.621  10.322  69.186  1.00  0.00    -0.164 A  
HETATM    6  C   UNL     1      -8.192   9.245  69.965  1.00  0.00    -0.160 A  
HETATM    7  C   UNL     1      -8.866   8.014  69.925  1.00  0.00    -0.144 A  
HETATM    8 CL   UNL     1      -8.251   6.768  70.951  1.00  0.00    -0.122 Cl 
HETATM    9  C   UNL     1      -9.967   7.858  69.075  1.00  0.00    -0.187 A  
HETATM   10  C   UNL     1     -10.442   8.944  68.331  1.00  0.00    -0.230 A  
HETATM   11  O   UNL     1     -11.451  11.318  67.222  1.00  0.00    -0.464 OA 
HETATM   12  C   UNL     1      -9.780  10.170  68.412  1.00  0.00    -0.157 A  
HETATM   13  N   UNL     1      -9.767  12.564  68.271  1.00  0.00    -0.224 N  
HETATM   14  C   UNL     1     -10.406  11.397  67.854  1.00  0.00    -0.182 C  
ENDROOT
BRANCH   9  15
HETATM   15  S   UNL     1     -10.789   6.309  68.905  1.00  0.00    -0.358 S  
HETATM   16  H1  UNL     1     -12.130   5.618  67.382  1.00  0.00     0.000 HD 
HETATM   17  N   UNL     1     -11.654   6.514  67.480  1.00  0.00    -0.610 N  
HETATM   18  H2  UNL     1     -11.693   7.329  66.867  1.00  0.00     0.000 HD 
HETATM   19  O   UNL     1      -9.820   5.269  68.680  1.00  0.00    -0.136 OA 
HETATM   20  O   UNL     1     -11.803   6.202  69.930  1.00  0.00    -0.236 OA 
ENDBRANCH   9  15
BRANCH  13  21
HETATM   21  C   UNL     1     -10.475  13.790  68.288  1.00  0.00    -0.248 A  
HETATM   22  C   UNL     1     -10.911  14.340  69.499  1.00  0.00    -0.206 A  
HETATM   23  C   UNL     1     -11.489  15.611  69.532  1.00  0.00    -0.349 A  
HETATM   24  C   UNL     1     -11.635  16.342  68.357  1.00  0.00    -0.154 A  
HETATM   25  C   UNL     1     -11.196  15.807  67.147  1.00  0.00    -0.110 A  
HETATM   26  C   UNL     1     -10.588  14.541  67.098  1.00  0.00    -0.274 A  
HETATM   27  C   UNL     1     -10.051  14.074  65.773  1.00  0.00    -0.345 C  
ENDBRANCH  13  21
TORSDOF 2
ENDMDL
MODEL       73
REMARK 921   NORMALIZED FREE ENERGY PREDICTED BY IDOCK:   -4.58 KCAL/MOL
REMARK 922        TOTAL FREE ENERGY PREDICTED BY IDOCK:   -5.86 KCAL/MOL
REMARK 923 INTER-LIGAND FREE ENERGY PREDICTED BY IDOCK:   -5.85 KCAL/MOL
REMARK 924 INTRA-LIGAND FREE ENERGY PREDICTED BY IDOCK:   -0.02 KCAL/MOL
REMARK 927      BINDING AFFINITY PREDICTED BY RF-SCORE:    0.00 PKD
ROOT
HETATM    1  C   UNL     1     -13.120  10.725  71.243  1.00  0.00    -0.427 C  
HETATM    2  C   UNL     1     -11.784  10.083  70.877  1.00  0.00    -0.374 C  
HETATM    3  N   UNL     1     -11.975   8.644  70.678  1.00  0.00    -0.478 NA 
HETATM    4  H   UNL     1     -12.860   8.174  70.869  1.00  0.00     0.000 HD 
HETATM    5  C   UNL     1     -10.843   7.961  70.201  1.00  0.00    -0.243 A  
HETATM    6  C   UNL     1     -10.864   6.567  70.112  1.00  0.00    -0.336 A  
HETATM    7  C   UNL     1      -9.715   5.852  69.739  1.00  0.00    -0.160 A  
HETATM    8 CL   UNL     1      -9.876   4.135  69.644  1.00  0.00    -0.269 Cl 
HETATM    9  C   UNL     1      -8.527   6.544  69.478  1.00  0.00    -0.131 A  
HETATM   10  C   UNL     1      -8.504   7.943  69.510  1.00  0.00    -0.133 A  
HETATM   11  O   UNL     1      -8.763  10.728  69.263  1.00  0.00    -0.131 OA 
HETATM   12  C   UNL     1      -9.667   8.637  69.847  1.00  0.00    -0.175 A  
HETATM   13  N   UNL     1     -11.055  10.590  69.737  1.00  0.00    -0.275 N  
HETATM   14  C   UNL     1      -9.752  10.105  69.632  1.00  0.00    -0.221 C  
ENDROOT
BRANCH   9  15
HETATM   15  S   UNL     1      -7.028   5.696  69.107  1.00  0.00    -0.065 S  
HETATM   16  H1  UNL     1      -5.077   6.468  68.665  1.00  0.00     0.000 HD 
HETATM   17  N   UNL     1      -5.945   6.959  68.880  1.00  0.00    -0.025 N  
HETATM   18  H2  UNL     1      -6.112   7.964  68.942  1.00  0.00     0.000 HD 
HETATM   19  O   UNL     1      -6.594   4.952  70.260  1.00  0.00    -0.033 OA 
HETATM   20  O   UNL     1      -7.146   5.084  67.803  1.00  0.00    -0.064 OA 
ENDBRANCH   9  15
BRANCH  13  21
HETATM   21  C   UNL     1     -11.416  11.794  69.085  1.00  0.00    -0.297 A  
HETATM   22  C   UNL     1     -11.597  12.971  69.821  1.00  0.00    -0.286 A  
HETATM   23  C   UNL     1     -11.819  14.186  69.170  1.00  0.00    -0.380 A  
HETATM   24  C   UNL     1     -11.863  14.235  67.780  1.00  0.00    -0.414 A  
HETATM   25  C   UNL     1     -11.674  13.071  67.037  1.00  0.00    -0.441 A  
HETATM   26  C   UNL     1     -11.423  11.844  67.675  1.00  0.00    -0.387 A  
HETATM   27  C   UNL     1     -11.132  10.651  66.806  1.00  0.00    -0.103 C  
ENDBRANCH  13  21
TORSDOF 2
ENDMDL
MODEL       74
REMARK 921   NORMALIZED FREE ENERGY PREDICTED BY IDOCK:   -4.55 KCAL/MOL
REMARK 922        TOTAL FREE ENERGY PREDICTED BY IDOCK:   -5.82 KCAL/MOL
REMARK 923 INTER-LIGAND FREE ENERGY PREDICTED BY IDOCK:   -5.73 KCAL/MOL
REMARK 924 INTRA-LIGAND FREE ENERGY PREDICTED BY IDOCK:   -0.10 KCAL/MOL
REMARK 927      BINDING AFFINITY PREDICTED BY RF-SCORE:    0.00 PKD
ROOT
HETATM    1  C   UNL     1      -8.417   8.810  70.906  1.00  0.00    -0.209 C  
HETATM    2  C   UNL     1      -9.296   9.340  69.776  1.00  0.00    -0.188 C  
HETATM    3  N   UNL     1      -8.933  10.731  69.490  1.00  0.00    -0.402 NA 
HETATM    4  H   UNL     1      -8.265  11.253  70.057  1.00  0.00     0.000 HD 
HETATM    5  C   UNL     1      -9.578  11.290  68.374  1.00  0.00    -0.195 A  
HETATM    6  C   UNL     1      -9.421  12.649  68.094  1.00  0.00    -0.218 A  
HETATM    7  C   UNL     1     -10.134  13.256  67.049  1.00  0.00    -0.242 A  
HETATM    8 CL   UNL     1      -9.835  14.937  66.789  1.00  0.00    -0.244 Cl 
HETATM    9  C   UNL     1     -11.034  12.494  66.294  1.00  0.00    -0.277 A  
HETATM   10  C   UNL     1     -11.161  11.120  66.527  1.00  0.00    -0.151 A  
HETATM   11  O   UNL     1     -10.993   8.342  66.901  1.00  0.00    -0.086 OA 
HETATM   12  C   UNL     1     -10.416  10.528  67.547  1.00  0.00    -0.284 A  
HETATM   13  N   UNL     1      -9.322   8.628  68.519  1.00  0.00    -0.138 N  
HETATM   14  C   UNL     1     -10.324   9.048  67.645  1.00  0.00    -0.257 C  
ENDROOT
BRANCH   9  15
HETATM   15  S   UNL     1     -12.032  13.222  65.038  1.00  0.00    -0.397 S  
HETATM   16  H1  UNL     1     -13.529  14.750  65.177  1.00  0.00     0.000 HD 
HETATM   17  N   UNL     1     -12.951  14.329  65.904  1.00  0.00    -0.436 N  
HETATM   18  H2  UNL     1     -12.936  14.530  66.904  1.00  0.00     0.000 HD 
HETATM   19  O   UNL     1     -11.201  13.964  64.128  1.00  0.00    -0.314 OA 
HETATM   20  O   UNL     1     -12.989  12.243  64.575  1.00  0.00    -0.738 OA 
ENDBRANCH   9  15
BRANCH  13  21
HETATM   21  C   UNL     1      -8.745   7.343  68.367  1.00  0.00    -0.123 A  
HETATM   22  C   UNL     1      -7.468   7.202  67.812  1.00  0.00    -0.098 A  
HETATM   23  C   UNL     1      -6.842   5.954  67.785  1.00  0.00    -0.060 A  
HETATM   24  C   UNL     1      -7.486   4.838  68.311  1.00  0.00    -0.073 A  
HETATM   25  C   UNL     1      -8.754   4.970  68.875  1.00  0.00    -0.100 A  
HETATM   26  C   UNL     1      -9.389   6.222  68.934  1.00  0.00    -0.128 A  
HETATM   27  C   UNL     1     -10.712   6.303  69.645  1.00  0.00    -0.367 C  
ENDBRANCH  13  21
TORSDOF 2
ENDMDL
MODEL       75
REMARK 921   NORMALIZED FREE ENERGY PREDICTED BY IDOCK:   -4.54 KCAL/MOL
REMARK 922        TOTAL FREE ENERGY PREDICTED BY IDOCK:   -5.82 KCAL/MOL
REMARK 923 INTER-LIGAND FREE ENERGY PREDICTED BY IDOCK:   -5.52 KCAL/MOL
REMARK 924 INTRA-LIGAND FREE ENERGY PREDICTED BY IDOCK:   -0.30 KCAL/MOL
REMARK 927      BINDING AFFINITY PREDICTED BY RF-SCORE:    0.00 PKD
ROOT
HETATM    1  C   UNL     1     -11.599  12.905  69.227  1.00  0.00    -0.368 C  
HETATM    2  C   UNL     1     -10.665  11.775  68.801  1.00  0.00    -0.221 C  
HETATM    3  N   UNL     1     -11.164  10.505  69.334  1.00  0.00    -0.251 NA 
HETATM    4  H   UNL     1     -11.957  10.450  69.973  1.00  0.00     0.000 HD 
HETATM    5  C   UNL     1     -10.466   9.367  68.895  1.00  0.00    -0.216 A  
HETATM    6  C   UNL     1     -10.759   8.119  69.449  1.00  0.00    -0.164 A  
HETATM    7  C   UNL     1     -10.008   6.984  69.106  1.00  0.00    -0.165 A  
HETATM    8 CL   UNL     1     -10.486   5.496  69.841  1.00  0.00    -0.366 Cl 
HETATM    9  C   UNL     1      -8.935   7.110  68.217  1.00  0.00    -0.125 A  
HETATM   10  C   UNL     1      -8.663   8.342  67.611  1.00  0.00    -0.137 A  
HETATM   11  O   UNL     1      -8.520  10.788  66.238  1.00  0.00    -0.150 OA 
HETATM   12  C   UNL     1      -9.445   9.452  67.937  1.00  0.00    -0.150 A  
HETATM   13  N   UNL     1     -10.397  11.584  67.394  1.00  0.00    -0.202 N  
HETATM   14  C   UNL     1      -9.358  10.694  67.126  1.00  0.00    -0.155 C  
ENDROOT
BRANCH   9  15
HETATM   15  S   UNL     1      -7.893   5.744  67.828  1.00  0.00    -0.098 S  
HETATM   16  H1  UNL     1      -6.188   5.633  66.534  1.00  0.00     0.000 HD 
HETATM   17  N   UNL     1      -6.791   6.424  66.759  1.00  0.00    -0.064 N  
HETATM   18  H2  UNL     1      -6.738   7.384  66.420  1.00  0.00     0.000 HD 
HETATM   19  O   UNL     1      -7.167   5.339  69.003  1.00  0.00    -0.059 OA 
HETATM   20  O   UNL     1      -8.638   4.800  67.026  1.00  0.00    -0.106 OA 
ENDBRANCH   9  15
BRANCH  13  21
HETATM   21  C   UNL     1     -10.784  12.533  66.416  1.00  0.00    -0.249 A  
HETATM   22  C   UNL     1     -11.978  12.370  65.704  1.00  0.00    -0.449 A  
HETATM   23  C   UNL     1     -12.428  13.370  64.839  1.00  0.00    -0.447 A  
HETATM   24  C   UNL     1     -11.691  14.539  64.679  1.00  0.00    -0.438 A  
HETATM   25  C   UNL     1     -10.505  14.715  65.390  1.00  0.00    -0.400 A  
HETATM   26  C   UNL     1     -10.049  13.732  66.284  1.00  0.00    -0.304 A  
HETATM   27  C   UNL     1      -8.816  14.036  67.089  1.00  0.00    -0.239 C  
ENDBRANCH  13  21
TORSDOF 2
ENDMDL
MODEL       76
REMARK 921   NORMALIZED FREE ENERGY PREDICTED BY IDOCK:   -4.45 KCAL/MOL
REMARK 922        TOTAL FREE ENERGY PREDICTED BY IDOCK:   -5.71 KCAL/MOL
REMARK 923 INTER-LIGAND FREE ENERGY PREDICTED BY IDOCK:   -5.44 KCAL/MOL
REMARK 924 INTRA-LIGAND FREE ENERGY PREDICTED BY IDOCK:   -0.28 KCAL/MOL
REMARK 927      BINDING AFFINITY PREDICTED BY RF-SCORE:    0.00 PKD
ROOT
HETATM    1  C   UNL     1      -9.758   6.949  66.661  1.00  0.00    -0.221 C  
HETATM    2  C   UNL     1      -9.631   8.373  67.197  1.00  0.00    -0.179 C  
HETATM    3  N   UNL     1     -10.635   9.226  66.554  1.00  0.00    -0.123 NA 
HETATM    4  H   UNL     1     -11.232   8.897  65.795  1.00  0.00     0.000 HD 
HETATM    5  C   UNL     1     -10.711  10.533  67.064  1.00  0.00    -0.250 A  
HETATM    6  C   UNL     1     -11.527  11.475  66.434  1.00  0.00    -0.150 A  
HETATM    7  C   UNL     1     -11.544  12.812  66.858  1.00  0.00    -0.366 A  
HETATM    8 CL   UNL     1     -12.612  13.873  66.012  1.00  0.00    -0.495 Cl 
HETATM    9  C   UNL     1     -10.713  13.212  67.910  1.00  0.00    -0.235 A  
HETATM   10  C   UNL     1      -9.931  12.270  68.588  1.00  0.00    -0.127 A  
HETATM   11  O   UNL     1      -8.738  10.183  70.038  1.00  0.00    -0.148 OA 
HETATM   12  C   UNL     1      -9.955  10.937  68.174  1.00  0.00    -0.188 A  
HETATM   13  N   UNL     1      -9.719   8.594  68.623  1.00  0.00    -0.160 N  
HETATM   14  C   UNL     1      -9.355   9.878  69.026  1.00  0.00    -0.174 C  
ENDROOT
BRANCH   9  15
HETATM   15  S   UNL     1     -10.613  14.896  68.419  1.00  0.00    -0.250 S  
HETATM   16  H1  UNL     1      -9.341  15.827  69.871  1.00  0.00     0.000 HD 
HETATM   17  N   UNL     1      -9.398  14.852  69.577  1.00  0.00    -0.426 N  
HETATM   18  H2  UNL     1      -8.854  14.053  69.903  1.00  0.00     0.000 HD 
HETATM   19  O   UNL     1     -10.144  15.705  67.325  1.00  0.00    -0.248 OA 
HETATM   20  O   UNL     1     -11.807  15.233  69.161  1.00  0.00    -0.316 OA 
ENDBRANCH   9  15
BRANCH  13  21
HETATM   21  C   UNL     1      -9.694   7.527  69.554  1.00  0.00    -0.164 A  
HETATM   22  C   UNL     1     -10.888   6.991  70.050  1.00  0.00    -0.290 A  
HETATM   23  C   UNL     1     -10.871   5.855  70.862  1.00  0.00    -0.347 A  
HETATM   24  C   UNL     1      -9.663   5.245  71.184  1.00  0.00    -0.232 A  
HETATM   25  C   UNL     1      -8.468   5.765  70.687  1.00  0.00    -0.128 A  
HETATM   26  C   UNL     1      -8.468   6.892  69.848  1.00  0.00    -0.140 A  
HETATM   27  C   UNL     1      -7.151   7.334  69.272  1.00  0.00    -0.079 C  
ENDBRANCH  13  21
TORSDOF 2
ENDMDL
MODEL       77
REMARK 921   NORMALIZED FREE ENERGY PREDICTED BY IDOCK:   -4.41 KCAL/MOL
REMARK 922        TOTAL FREE ENERGY PREDICTED BY IDOCK:   -5.67 KCAL/MOL
REMARK 923 INTER-LIGAND FREE ENERGY PREDICTED BY IDOCK:   -5.90 KCAL/MOL
REMARK 924 INTRA-LIGAND FREE ENERGY PREDICTED BY IDOCK:    0.23 KCAL/MOL
REMARK 927      BINDING AFFINITY PREDICTED BY RF-SCORE:    0.00 PKD
ROOT
HETATM    1  C   UNL     1     -11.409   6.470  70.398  1.00  0.00    -0.443 C  
HETATM    2  C   UNL     1     -11.389   7.919  69.917  1.00  0.00     0.042 C  
HETATM    3  N   UNL     1     -11.912   8.790  70.974  1.00  0.00    -0.366 NA 
HETATM    4  H   UNL     1     -12.313   8.425  71.838  1.00  0.00     0.000 HD 
HETATM    5  C   UNL     1     -11.817  10.165  70.704  1.00  0.00    -0.342 A  
HETATM    6  C   UNL     1     -12.413  11.083  71.572  1.00  0.00    -0.389 A  
HETATM    7  C   UNL     1     -12.424  12.454  71.275  1.00  0.00    -0.170 A  
HETATM    8 CL   UNL     1     -13.172  13.487  72.439  1.00  0.00    -0.576 Cl 
HETATM    9  C   UNL     1     -11.852  12.905  70.080  1.00  0.00    -0.286 A  
HETATM   10  C   UNL     1     -11.203  12.006  69.226  1.00  0.00    -0.291 A  
HETATM   11  O   UNL     1      -9.642  10.118  67.853  1.00  0.00    -0.147 OA 
HETATM   12  C   UNL     1     -11.171  10.650  69.558  1.00  0.00    -0.331 A  
HETATM   13  N   UNL     1     -10.141   8.487  69.460  1.00  0.00    -0.195 N  
HETATM   14  C   UNL     1     -10.273   9.720  68.824  1.00  0.00    -0.194 C  
ENDROOT
BRANCH   9  15
HETATM   15  S   UNL     1     -11.926  14.599  69.603  1.00  0.00    -0.324 S  
HETATM   16  H1  UNL     1     -13.365  16.110  70.092  1.00  0.00     0.000 HD 
HETATM   17  N   UNL     1     -13.323  15.129  70.368  1.00  0.00    -0.675 N  
HETATM   18  H2  UNL     1     -13.966  14.604  70.960  1.00  0.00     0.000 HD 
HETATM   19  O   UNL     1     -10.816  15.312  70.178  1.00  0.00    -0.266 OA 
HETATM   20  O   UNL     1     -12.235  14.676  68.193  1.00  0.00    -0.216 OA 
ENDBRANCH   9  15
BRANCH  13  21
HETATM   21  C   UNL     1      -8.990   7.693  69.231  1.00  0.00    -0.135 A  
HETATM   22  C   UNL     1      -8.702   7.218  67.946  1.00  0.00    -0.123 A  
HETATM   23  C   UNL     1      -7.502   6.551  67.690  1.00  0.00    -0.097 A  
HETATM   24  C   UNL     1      -6.581   6.354  68.715  1.00  0.00    -0.051 A  
HETATM   25  C   UNL     1      -6.854   6.832  69.996  1.00  0.00    -0.057 A  
HETATM   26  C   UNL     1      -8.044   7.528  70.266  1.00  0.00    -0.112 A  
HETATM   27  C   UNL     1      -8.223   8.098  71.646  1.00  0.00    -0.156 C  
ENDBRANCH  13  21
TORSDOF 2
ENDMDL
MODEL       78
REMARK 921   NORMALIZED FREE ENERGY PREDICTED BY IDOCK:   -4.39 KCAL/MOL
REMARK 922        TOTAL FREE ENERGY PREDICTED BY IDOCK:   -5.65 KCAL/MOL
REMARK 923 INTER-LIGAND FREE ENERGY PREDICTED BY IDOCK:   -5.78 KCAL/MOL
REMARK 924 INTRA-LIGAND FREE ENERGY PREDICTED BY IDOCK:    0.14 KCAL/MOL
REMARK 927      BINDING AFFINITY PREDICTED BY RF-SCORE:    0.00 PKD
ROOT
HETATM    1  C   UNL     1      -9.695   8.112  66.489  1.00  0.00    -0.309 C  
HETATM    2  C   UNL     1      -9.518   9.628  66.549  1.00  0.00    -0.181 C  
HETATM    3  N   UNL     1     -10.595  10.273  65.792  1.00  0.00    -0.073 NA 
HETATM    4  H   UNL     1     -11.272   9.746  65.240  1.00  0.00     0.000 HD 
HETATM    5  C   UNL     1     -10.623  11.675  65.886  1.00  0.00    -0.271 A  
HETATM    6  C   UNL     1     -11.512  12.403  65.093  1.00  0.00    -0.379 A  
HETATM    7  C   UNL     1     -11.490  13.807  65.090  1.00  0.00    -0.321 A  
HETATM    8 CL   UNL     1     -12.656  14.590  64.085  1.00  0.00    -0.234 Cl 
HETATM    9  C   UNL     1     -10.547  14.483  65.871  1.00  0.00    -0.309 A  
HETATM   10  C   UNL     1      -9.686  13.770  66.712  1.00  0.00    -0.277 A  
HETATM   11  O   UNL     1      -8.320  12.188  68.587  1.00  0.00    -0.116 OA 
HETATM   12  C   UNL     1      -9.748  12.375  66.729  1.00  0.00    -0.226 A  
HETATM   13  N   UNL     1      -9.445  10.272  67.840  1.00  0.00    -0.141 N  
HETATM   14  C   UNL     1      -9.047  11.607  67.791  1.00  0.00    -0.175 C  
ENDROOT
BRANCH   9  15
HETATM   15  S   UNL     1     -10.403  16.239  65.829  1.00  0.00    -0.355 S  
HETATM   16  H1  UNL     1      -8.657  17.482  65.842  1.00  0.00     0.000 HD 
HETATM   17  N   UNL     1      -8.740  16.465  65.866  1.00  0.00    -0.224 N  
HETATM   18  H2  UNL     1      -8.000  15.764  65.903  1.00  0.00     0.000 HD 
HETATM   19  O   UNL     1     -10.882  16.734  64.565  1.00  0.00    -0.886 OA 
HETATM   20  O   UNL     1     -10.869  16.777  67.087  1.00  0.00    -0.236 OA 
ENDBRANCH   9  15
BRANCH  13  21
HETATM   21  C   UNL     1      -9.305   9.538  69.043  1.00  0.00    -0.155 A  
HETATM   22  C   UNL     1     -10.420   9.286  69.852  1.00  0.00    -0.247 A  
HETATM   23  C   UNL     1     -10.311   8.450  70.966  1.00  0.00    -0.244 A  
HETATM   24  C   UNL     1      -9.091   7.859  71.279  1.00  0.00    -0.161 A  
HETATM   25  C   UNL     1      -7.978   8.096  70.474  1.00  0.00    -0.095 A  
HETATM   26  C   UNL     1      -8.074   8.913  69.335  1.00  0.00    -0.105 A  
HETATM   27  C   UNL     1      -6.856   9.042  68.462  1.00  0.00    -0.064 C  
ENDBRANCH  13  21
TORSDOF 2
ENDMDL
MODEL       79
REMARK 921   NORMALIZED FREE ENERGY PREDICTED BY IDOCK:   -4.38 KCAL/MOL
REMARK 922        TOTAL FREE ENERGY PREDICTED BY IDOCK:   -5.64 KCAL/MOL
REMARK 923 INTER-LIGAND FREE ENERGY PREDICTED BY IDOCK:   -5.11 KCAL/MOL
REMARK 924 INTRA-LIGAND FREE ENERGY PREDICTED BY IDOCK:   -0.53 KCAL/MOL
REMARK 927      BINDING AFFINITY PREDICTED BY RF-SCORE:    0.00 PKD
ROOT
HETATM    1  C   UNL     1     -10.016  10.317  65.555  1.00  0.00    -0.364 C  
HETATM    2  C   UNL     1      -9.319  11.470  66.273  1.00  0.00    -0.213 C  
HETATM    3  N   UNL     1      -9.895  12.741  65.823  1.00  0.00    -0.361 NA 
HETATM    4  H   UNL     1     -10.579  12.799  65.069  1.00  0.00     0.000 HD 
HETATM    5  C   UNL     1      -9.432  13.874  66.513  1.00  0.00    -0.274 A  
HETATM    6  C   UNL     1      -9.801  15.148  66.076  1.00  0.00    -0.349 A  
HETATM    7  C   UNL     1      -9.271  16.299  66.681  1.00  0.00    -0.244 A  
HETATM    8 CL   UNL     1      -9.824  17.814  66.065  1.00  0.00    -0.231 Cl 
HETATM    9  C   UNL     1      -8.342  16.166  67.719  1.00  0.00    -0.154 A  
HETATM   10  C   UNL     1      -8.004  14.898  68.205  1.00  0.00    -0.130 A  
HETATM   11  O   UNL     1      -7.750  12.312  69.269  1.00  0.00     0.171 OA 
HETATM   12  C   UNL     1      -8.570  13.767  67.614  1.00  0.00    -0.187 A  
HETATM   13  N   UNL     1      -9.301  11.485  67.718  1.00  0.00    -0.164 N  
HETATM   14  C   UNL     1      -8.445  12.438  68.268  1.00  0.00    -0.170 C  
ENDROOT
BRANCH   9  15
HETATM   15  S   UNL     1      -7.566  17.570  68.447  1.00  0.00    -0.262 S  
HETATM   16  H1  UNL     1      -6.213  18.997  67.594  1.00  0.00     0.000 HD 
HETATM   17  N   UNL     1      -6.662  18.185  67.172  1.00  0.00    -0.184 N  
HETATM   18  H2  UNL     1      -6.583  17.835  66.217  1.00  0.00     0.000 HD 
HETATM   19  O   UNL     1      -8.562  18.551  68.788  1.00  0.00    -0.311 OA 
HETATM   20  O   UNL     1      -6.580  17.117  69.403  1.00  0.00    -0.234 OA 
ENDBRANCH   9  15
BRANCH  13  21
HETATM   21  C   UNL     1      -9.703  10.368  68.489  1.00  0.00    -0.168 A  
HETATM   22  C   UNL     1      -8.796   9.340  68.773  1.00  0.00    -0.132 A  
HETATM   23  C   UNL     1      -9.148   8.305  69.642  1.00  0.00    -0.154 A  
HETATM   24  C   UNL     1     -10.407   8.290  70.235  1.00  0.00    -0.211 A  
HETATM   25  C   UNL     1     -11.314   9.314  69.966  1.00  0.00    -0.137 A  
HETATM   26  C   UNL     1     -10.969  10.376  69.114  1.00  0.00    -0.285 A  
HETATM   27  C   UNL     1     -11.962  11.493  68.950  1.00  0.00    -0.364 C  
ENDBRANCH  13  21
TORSDOF 2
ENDMDL
MODEL       80
REMARK 921   NORMALIZED FREE ENERGY PREDICTED BY IDOCK:   -4.37 KCAL/MOL
REMARK 922        TOTAL FREE ENERGY PREDICTED BY IDOCK:   -5.63 KCAL/MOL
REMARK 923 INTER-LIGAND FREE ENERGY PREDICTED BY IDOCK:   -5.81 KCAL/MOL
REMARK 924 INTRA-LIGAND FREE ENERGY PREDICTED BY IDOCK:    0.18 KCAL/MOL
REMARK 927      BINDING AFFINITY PREDICTED BY RF-SCORE:    0.00 PKD
ROOT
HETATM    1  C   UNL     1     -12.644  14.221  67.167  1.00  0.00     0.259 C  
HETATM    2  C   UNL     1     -11.309  14.854  67.551  1.00  0.00    -0.342 C  
HETATM    3  N   UNL     1     -11.135  16.108  66.812  1.00  0.00    -0.071 NA 
HETATM    4  H   UNL     1     -11.784  16.414  66.087  1.00  0.00     0.000 HD 
HETATM    5  C   UNL     1     -10.005  16.857  67.181  1.00  0.00    -0.276 A  
HETATM    6  C   UNL     1      -9.660  17.994  66.448  1.00  0.00    -0.301 A  
HETATM    7  C   UNL     1      -8.480  18.702  66.729  1.00  0.00    -0.286 A  
HETATM    8 CL   UNL     1      -8.178  20.104  65.766  1.00  0.00    -0.173 Cl 
HETATM    9  C   UNL     1      -7.627  18.246  67.739  1.00  0.00    -0.227 A  
HETATM   10  C   UNL     1      -7.986  17.140  68.519  1.00  0.00    -0.259 A  
HETATM   11  O   UNL     1      -9.056  15.155  70.192  1.00  0.00     0.112 OA 
HETATM   12  C   UNL     1      -9.181  16.472  68.249  1.00  0.00    -0.214 A  
HETATM   13  N   UNL     1     -11.039  15.126  68.944  1.00  0.00    -0.256 N  
HETATM   14  C   UNL     1      -9.716  15.476  69.212  1.00  0.00    -0.272 C  
ENDROOT
BRANCH   9  15
HETATM   15  S   UNL     1      -6.084  19.031  68.068  1.00  0.00    -0.220 S  
HETATM   16  H1  UNL     1      -4.243  18.207  68.794  1.00  0.00     0.000 HD 
HETATM   17  N   UNL     1      -5.136  17.752  68.603  1.00  0.00    -0.150 N  
HETATM   18  H2  UNL     1      -5.388  16.770  68.710  1.00  0.00     0.000 HD 
HETATM   19  O   UNL     1      -5.513  19.511  66.838  1.00  0.00    -0.165 OA 
HETATM   20  O   UNL     1      -6.229  19.882  69.227  1.00  0.00    -0.281 OA 
ENDBRANCH   9  15
BRANCH  13  21
HETATM   21  C   UNL     1     -11.863  14.628  69.983  1.00  0.00    -0.308 A  
HETATM   22  C   UNL     1     -12.728  15.485  70.673  1.00  0.00    -0.487 A  
HETATM   23  C   UNL     1     -13.637  14.975  71.603  1.00  0.00    -0.530 A  
HETATM   24  C   UNL     1     -13.688  13.606  71.850  1.00  0.00    -0.496 A  
HETATM   25  C   UNL     1     -12.837  12.743  71.162  1.00  0.00    -0.315 A  
HETATM   26  C   UNL     1     -11.934  13.235  70.204  1.00  0.00    -0.388 A  
HETATM   27  C   UNL     1     -11.119  12.235  69.432  1.00  0.00    -0.166 C  
ENDBRANCH  13  21
TORSDOF 2
ENDMDL
MODEL       81
REMARK 921   NORMALIZED FREE ENERGY PREDICTED BY IDOCK:   -4.36 KCAL/MOL
REMARK 922        TOTAL FREE ENERGY PREDICTED BY IDOCK:   -5.61 KCAL/MOL
REMARK 923 INTER-LIGAND FREE ENERGY PREDICTED BY IDOCK:   -4.92 KCAL/MOL
REMARK 924 INTRA-LIGAND FREE ENERGY PREDICTED BY IDOCK:   -0.69 KCAL/MOL
REMARK 927      BINDING AFFINITY PREDICTED BY RF-SCORE:    0.00 PKD
ROOT
HETATM    1  C   UNL     1      -6.355  10.689  68.868  1.00  0.00    -0.045 C  
HETATM    2  C   UNL     1      -7.263  11.911  68.751  1.00  0.00    -0.112 C  
HETATM    3  N   UNL     1      -6.564  12.966  68.011  1.00  0.00    -0.091 NA 
HETATM    4  H   UNL     1      -5.587  12.886  67.731  1.00  0.00     0.000 HD 
HETATM    5  C   UNL     1      -7.346  14.096  67.717  1.00  0.00    -0.167 A  
HETATM    6  C   UNL     1      -6.749  15.221  67.145  1.00  0.00     0.090 A  
HETATM    7  C   UNL     1      -7.482  16.399  66.936  1.00  0.00    -0.234 A  
HETATM    8 CL   UNL     1      -6.635  17.711  66.200  1.00  0.00    -0.293 Cl 
HETATM    9  C   UNL     1      -8.824  16.454  67.331  1.00  0.00    -0.183 A  
HETATM   10  C   UNL     1      -9.452  15.319  67.855  1.00  0.00    -0.197 A  
HETATM   11  O   UNL     1     -10.611  12.851  68.528  1.00  0.00    -0.245 OA 
HETATM   12  C   UNL     1      -8.715  14.145  68.021  1.00  0.00    -0.177 A  
HETATM   13  N   UNL     1      -8.572  11.756  68.160  1.00  0.00    -0.154 N  
HETATM   14  C   UNL     1      -9.405  12.863  68.317  1.00  0.00    -0.194 C  
ENDROOT
BRANCH   9  15
HETATM   15  S   UNL     1      -9.766  17.936  67.190  1.00  0.00    -0.301 S  
HETATM   16  H1  UNL     1     -11.691  18.430  67.995  1.00  0.00     0.000 HD 
HETATM   17  N   UNL     1     -11.145  17.572  68.077  1.00  0.00    -0.126 N  
HETATM   18  H2  UNL     1     -11.378  16.712  68.573  1.00  0.00     0.000 HD 
HETATM   19  O   UNL     1      -9.085  19.009  67.864  1.00  0.00    -0.287 OA 
HETATM   20  O   UNL     1     -10.237  18.064  65.830  1.00  0.00    -0.574 OA 
ENDBRANCH   9  15
BRANCH  13  21
HETATM   21  C   UNL     1      -9.132  10.483  67.891  1.00  0.00    -0.136 A  
HETATM   22  C   UNL     1      -9.737   9.745  68.916  1.00  0.00    -0.172 A  
HETATM   23  C   UNL     1     -10.408   8.554  68.629  1.00  0.00    -0.224 A  
HETATM   24  C   UNL     1     -10.480   8.091  67.318  1.00  0.00    -0.384 A  
HETATM   25  C   UNL     1      -9.889   8.824  66.290  1.00  0.00    -0.342 A  
HETATM   26  C   UNL     1      -9.232  10.037  66.556  1.00  0.00    -0.182 A  
HETATM   27  C   UNL     1      -8.706  10.819  65.384  1.00  0.00    -0.190 C  
ENDBRANCH  13  21
TORSDOF 2
ENDMDL
MODEL       82
REMARK 921   NORMALIZED FREE ENERGY PREDICTED BY IDOCK:   -4.35 KCAL/MOL
REMARK 922        TOTAL FREE ENERGY PREDICTED BY IDOCK:   -5.60 KCAL/MOL
REMARK 923 INTER-LIGAND FREE ENERGY PREDICTED BY IDOCK:   -5.13 KCAL/MOL
REMARK 924 INTRA-LIGAND FREE ENERGY PREDICTED BY IDOCK:   -0.48 KCAL/MOL
REMARK 927      BINDING AFFINITY PREDICTED BY RF-SCORE:    0.00 PKD
ROOT
HETATM    1  C   UNL     1     -12.214  14.093  69.186  1.00  0.00    -0.290 C  
HETATM    2  C   UNL     1     -11.042  13.217  68.750  1.00  0.00    -0.266 C  
HETATM    3  N   UNL     1     -11.546  11.909  68.323  1.00  0.00    -0.307 NA 
HETATM    4  H   UNL     1     -12.525  11.637  68.421  1.00  0.00     0.000 HD 
HETATM    5  C   UNL     1     -10.576  11.057  67.768  1.00  0.00    -0.211 A  
HETATM    6  C   UNL     1     -10.911   9.736  67.460  1.00  0.00    -0.286 A  
HETATM    7  C   UNL     1      -9.937   8.835  67.002  1.00  0.00    -0.240 A  
HETATM    8 CL   UNL     1     -10.482   7.238  66.634  1.00  0.00    -0.276 Cl 
HETATM    9  C   UNL     1      -8.610   9.259  66.876  1.00  0.00    -0.127 A  
HETATM   10  C   UNL     1      -8.269  10.593  67.128  1.00  0.00    -0.121 A  
HETATM   11  O   UNL     1      -7.869  13.366  67.317  1.00  0.00    -0.157 OA 
HETATM   12  C   UNL     1      -9.259  11.483  67.547  1.00  0.00    -0.166 A  
HETATM   13  N   UNL     1     -10.154  13.702  67.719  1.00  0.00    -0.237 N  
HETATM   14  C   UNL     1      -8.993  12.946  67.564  1.00  0.00    -0.193 C  
ENDROOT
BRANCH   9  15
HETATM   15  S   UNL     1      -7.326   8.148  66.406  1.00  0.00    -0.080 S  
HETATM   16  H1  UNL     1      -7.039   7.065  64.578  1.00  0.00     0.000 HD 
HETATM   17  N   UNL     1      -7.782   7.708  64.850  1.00  0.00    -0.100 N  
HETATM   18  H2  UNL     1      -8.596   8.009  64.313  1.00  0.00     0.000 HD 
HETATM   19  O   UNL     1      -6.080   8.860  66.309  1.00  0.00    -0.060 OA 
HETATM   20  O   UNL     1      -7.454   6.931  67.176  1.00  0.00    -0.090 OA 
ENDBRANCH   9  15
BRANCH  13  21
HETATM   21  C   UNL     1     -10.192  15.040  67.257  1.00  0.00    -0.242 A  
HETATM   22  C   UNL     1      -9.498  16.045  67.941  1.00  0.00    -0.210 A  
HETATM   23  C   UNL     1      -9.423  17.337  67.415  1.00  0.00    -0.245 A  
HETATM   24  C   UNL     1     -10.039  17.634  66.204  1.00  0.00    -0.307 A  
HETATM   25  C   UNL     1     -10.726  16.638  65.510  1.00  0.00    -0.234 A  
HETATM   26  C   UNL     1     -10.790  15.327  66.011  1.00  0.00    -0.331 A  
HETATM   27  C   UNL     1     -11.463  14.285  65.160  1.00  0.00    -0.351 C  
ENDBRANCH  13  21
TORSDOF 2
ENDMDL
MODEL       83
REMARK 921   NORMALIZED FREE ENERGY PREDICTED BY IDOCK:   -4.23 KCAL/MOL
REMARK 922        TOTAL FREE ENERGY PREDICTED BY IDOCK:   -5.47 KCAL/MOL
REMARK 923 INTER-LIGAND FREE ENERGY PREDICTED BY IDOCK:   -4.97 KCAL/MOL
REMARK 924 INTRA-LIGAND FREE ENERGY PREDICTED BY IDOCK:   -0.50 KCAL/MOL
REMARK 927      BINDING AFFINITY PREDICTED BY RF-SCORE:    0.00 PKD
ROOT
HETATM    1  C   UNL     1     -10.876   7.060  67.397  1.00  0.00    -0.371 C  
HETATM    2  C   UNL     1     -10.429   8.517  67.296  1.00  0.00    -0.296 C  
HETATM    3  N   UNL     1     -11.269   9.344  68.168  1.00  0.00    -0.497 NA 
HETATM    4  H   UNL     1     -12.080   8.973  68.663  1.00  0.00     0.000 HD 
HETATM    5  C   UNL     1     -10.869  10.687  68.269  1.00  0.00    -0.241 A  
HETATM    6  C   UNL     1     -11.675  11.599  68.954  1.00  0.00    -0.397 A  
HETATM    7  C   UNL     1     -11.354  12.965  68.983  1.00  0.00    -0.290 A  
HETATM    8 CL   UNL     1     -12.418  13.985  69.883  1.00  0.00    -0.358 Cl 
HETATM    9  C   UNL     1     -10.225  13.422  68.294  1.00  0.00    -0.250 A  
HETATM   10  C   UNL     1      -9.377  12.514  67.650  1.00  0.00    -0.189 A  
HETATM   11  O   UNL     1      -7.626  10.513  66.748  1.00  0.00    -0.106 OA 
HETATM   12  C   UNL     1      -9.694  11.155  67.663  1.00  0.00    -0.184 A  
HETATM   13  N   UNL     1      -9.051   8.847  67.576  1.00  0.00    -0.133 N  
HETATM   14  C   UNL     1      -8.692  10.148  67.227  1.00  0.00    -0.129 C  
ENDROOT
BRANCH   9  15
HETATM   15  S   UNL     1      -9.829  15.136  68.208  1.00  0.00    -0.227 S  
HETATM   16  H1  UNL     1      -8.642  16.209  66.781  1.00  0.00     0.000 HD 
HETATM   17  N   UNL     1      -8.871  15.216  66.830  1.00  0.00    -0.239 N  
HETATM   18  H2  UNL     1      -8.591  14.463  66.202  1.00  0.00     0.000 HD 
HETATM   19  O   UNL     1     -11.023  15.897  67.953  1.00  0.00    -0.317 OA 
HETATM   20  O   UNL     1      -8.930  15.465  69.291  1.00  0.00    -0.233 OA 
ENDBRANCH   9  15
BRANCH  13  21
HETATM   21  C   UNL     1      -8.052   7.853  67.720  1.00  0.00    -0.128 A  
HETATM   22  C   UNL     1      -7.573   7.163  66.600  1.00  0.00    -0.093 A  
HETATM   23  C   UNL     1      -6.497   6.281  66.718  1.00  0.00    -0.046 A  
HETATM   24  C   UNL     1      -5.890   6.082  67.955  1.00  0.00    -0.013 A  
HETATM   25  C   UNL     1      -6.353   6.772  69.075  1.00  0.00    -0.035 A  
HETATM   26  C   UNL     1      -7.418   7.682  68.970  1.00  0.00    -0.095 A  
HETATM   27  C   UNL     1      -7.796   8.461  70.200  1.00  0.00    -0.102 C  
ENDBRANCH  13  21
TORSDOF 2
ENDMDL
MODEL       84
REMARK 921   NORMALIZED FREE ENERGY PREDICTED BY IDOCK:   -4.15 KCAL/MOL
REMARK 922        TOTAL FREE ENERGY PREDICTED BY IDOCK:   -5.38 KCAL/MOL
REMARK 923 INTER-LIGAND FREE ENERGY PREDICTED BY IDOCK:   -4.63 KCAL/MOL
REMARK 924 INTRA-LIGAND FREE ENERGY PREDICTED BY IDOCK:   -0.75 KCAL/MOL
REMARK 927      BINDING AFFINITY PREDICTED BY RF-SCORE:    0.00 PKD
ROOT
HETATM    1  C   UNL     1     -11.361  10.090  70.932  1.00  0.00    -0.439 C  
HETATM    2  C   UNL     1     -10.957   9.334  69.668  1.00  0.00    -0.175 C  
HETATM    3  N   UNL     1      -9.871  10.055  68.997  1.00  0.00    -0.188 NA 
HETATM    4  H   UNL     1      -9.544  10.970  69.307  1.00  0.00     0.000 HD 
HETATM    5  C   UNL     1      -9.316   9.387  67.892  1.00  0.00    -0.129 A  
HETATM    6  C   UNL     1      -8.378  10.040  67.090  1.00  0.00    -0.121 A  
HETATM    7  C   UNL     1      -7.885   9.437  65.922  1.00  0.00    -0.099 A  
HETATM    8 CL   UNL     1      -6.711  10.337  65.030  1.00  0.00    -0.125 Cl 
HETATM    9  C   UNL     1      -8.359   8.176  65.544  1.00  0.00    -0.153 A  
HETATM   10  C   UNL     1      -9.258   7.486  66.366  1.00  0.00    -0.212 A  
HETATM   11  O   UNL     1     -10.752   6.128  68.318  1.00  0.00    -0.234 OA 
HETATM   12  C   UNL     1      -9.709   8.087  67.542  1.00  0.00    -0.206 A  
HETATM   13  N   UNL     1     -10.558   7.949  69.780  1.00  0.00    -0.240 N  
HETATM   14  C   UNL     1     -10.442   7.288  68.558  1.00  0.00    -0.188 C  
ENDROOT
BRANCH   9  15
HETATM   15  S   UNL     1      -7.856   7.414  64.038  1.00  0.00    -0.092 S  
HETATM   16  H1  UNL     1      -8.449   5.546  63.170  1.00  0.00     0.000 HD 
HETATM   17  N   UNL     1      -8.741   5.987  64.042  1.00  0.00    -0.332 N  
HETATM   18  H2  UNL     1      -9.403   5.647  64.739  1.00  0.00     0.000 HD 
HETATM   19  O   UNL     1      -8.307   8.203  62.922  1.00  0.00    -0.150 OA 
HETATM   20  O   UNL     1      -6.481   6.987  64.165  1.00  0.00    -0.038 OA 
ENDBRANCH   9  15
BRANCH  13  21
HETATM   21  C   UNL     1     -10.741   7.206  70.971  1.00  0.00    -0.232 A  
HETATM   22  C   UNL     1     -11.980   6.620  71.257  1.00  0.00    -0.409 A  
HETATM   23  C   UNL     1     -12.126   5.776  72.360  1.00  0.00    -0.088 A  
HETATM   24  C   UNL     1     -11.038   5.510  73.185  1.00  0.00    -0.337 A  
HETATM   25  C   UNL     1      -9.797   6.080  72.903  1.00  0.00    -0.177 A  
HETATM   26  C   UNL     1      -9.625   6.912  71.784  1.00  0.00    -0.162 A  
HETATM   27  C   UNL     1      -8.237   7.410  71.489  1.00  0.00    -0.104 C  
ENDBRANCH  13  21
TORSDOF 2
ENDMDL
MODEL       85
REMARK 921   NORMALIZED FREE ENERGY PREDICTED BY IDOCK:   -4.13 KCAL/MOL
REMARK 922        TOTAL FREE ENERGY PREDICTED BY IDOCK:   -5.35 KCAL/MOL
REMARK 923 INTER-LIGAND FREE ENERGY PREDICTED BY IDOCK:   -5.24 KCAL/MOL
REMARK 924 INTRA-LIGAND FREE ENERGY PREDICTED BY IDOCK:   -0.11 KCAL/MOL
REMARK 927      BINDING AFFINITY PREDICTED BY RF-SCORE:    0.00 PKD
ROOT
HETATM    1  C   UNL     1      -9.289  12.920  67.133  1.00  0.00    -0.229 C  
HETATM    2  C   UNL     1      -9.006  11.894  68.228  1.00  0.00    -0.178 C  
HETATM    3  N   UNL     1     -10.268  11.495  68.858  1.00  0.00    -0.339 NA 
HETATM    4  H   UNL     1     -11.158  11.941  68.637  1.00  0.00     0.000 HD 
HETATM    5  C   UNL     1     -10.156  10.450  69.791  1.00  0.00    -0.157 A  
HETATM    6  C   UNL     1     -11.265  10.086  70.558  1.00  0.00    -0.408 A  
HETATM    7  C   UNL     1     -11.155   9.118  71.568  1.00  0.00    -0.365 A  
HETATM    8 CL   UNL     1     -12.604   8.740  72.429  1.00  0.00    -0.451 Cl 
HETATM    9  C   UNL     1      -9.913   8.529  71.827  1.00  0.00    -0.275 A  
HETATM   10  C   UNL     1      -8.805   8.843  71.032  1.00  0.00    -0.285 A  
HETATM   11  O   UNL     1      -6.820   9.324  69.104  1.00  0.00    -0.049 OA 
HETATM   12  C   UNL     1      -8.942   9.781  70.008  1.00  0.00    -0.255 A  
HETATM   13  N   UNL     1      -8.287  10.687  67.887  1.00  0.00    -0.118 N  
HETATM   14  C   UNL     1      -7.874   9.938  68.987  1.00  0.00    -0.095 C  
ENDROOT
BRANCH   9  15
HETATM   15  S   UNL     1      -9.691   7.386  73.149  1.00  0.00    -0.259 S  
HETATM   16  H1  UNL     1      -8.419   7.495  74.871  1.00  0.00     0.000 HD 
HETATM   17  N   UNL     1      -8.547   8.157  74.106  1.00  0.00    -0.358 N  
HETATM   18  H2  UNL     1      -8.095   9.060  73.960  1.00  0.00     0.000 HD 
HETATM   19  O   UNL     1     -10.906   7.289  73.914  1.00  0.00    -0.284 OA 
HETATM   20  O   UNL     1      -9.010   6.215  72.646  1.00  0.00    -0.131 OA 
ENDBRANCH   9  15
BRANCH  13  21
HETATM   21  C   UNL     1      -7.643  10.521  66.636  1.00  0.00    -0.120 A  
HETATM   22  C   UNL     1      -6.345  11.007  66.438  1.00  0.00    -0.133 A  
HETATM   23  C   UNL     1      -5.658  10.728  65.255  1.00  0.00    -0.106 A  
HETATM   24  C   UNL     1      -6.260   9.962  64.262  1.00  0.00    -0.124 A  
HETATM   25  C   UNL     1      -7.549   9.466  64.453  1.00  0.00    -0.114 A  
HETATM   26  C   UNL     1      -8.246   9.714  65.647  1.00  0.00    -0.121 A  
HETATM   27  C   UNL     1      -9.591   9.064  65.820  1.00  0.00    -0.287 C  
ENDBRANCH  13  21
TORSDOF 2
ENDMDL
MODEL       86
REMARK 921   NORMALIZED FREE ENERGY PREDICTED BY IDOCK:   -4.09 KCAL/MOL
REMARK 922        TOTAL FREE ENERGY PREDICTED BY IDOCK:   -5.31 KCAL/MOL
REMARK 923 INTER-LIGAND FREE ENERGY PREDICTED BY IDOCK:   -5.28 KCAL/MOL
REMARK 924 INTRA-LIGAND FREE ENERGY PREDICTED BY IDOCK:   -0.04 KCAL/MOL
REMARK 927      BINDING AFFINITY PREDICTED BY RF-SCORE:    0.00 PKD
ROOT
HETATM    1  C   UNL     1     -10.534   6.465  71.892  1.00  0.00    -0.239 C  
HETATM    2  C   UNL     1     -10.581   7.246  70.581  1.00  0.00    -0.226 C  
HETATM    3  N   UNL     1     -10.939   8.640  70.858  1.00  0.00    -0.244 NA 
HETATM    4  H   UNL     1     -11.209   8.965  71.787  1.00  0.00     0.000 HD 
HETATM    5  C   UNL     1     -10.882   9.495  69.745  1.00  0.00    -0.243 A  
HETATM    6  C   UNL     1     -11.340  10.810  69.858  1.00  0.00    -0.385 A  
HETATM    7  C   UNL     1     -11.390  11.654  68.738  1.00  0.00    -0.264 A  
HETATM    8 CL   UNL     1     -11.954  13.263  69.014  1.00  0.00    -0.351 Cl 
HETATM    9  C   UNL     1     -11.001  11.164  67.487  1.00  0.00    -0.275 A  
HETATM   10  C   UNL     1     -10.488   9.867  67.366  1.00  0.00    -0.325 A  
HETATM   11  O   UNL     1      -9.154   7.397  67.405  1.00  0.00    -0.121 OA 
HETATM   12  C   UNL     1     -10.411   9.055  68.499  1.00  0.00    -0.232 A  
HETATM   13  N   UNL     1      -9.413   7.255  69.730  1.00  0.00    -0.150 N  
HETATM   14  C   UNL     1      -9.635   7.788  68.461  1.00  0.00    -0.149 C  
ENDROOT
BRANCH   9  15
HETATM   15  S   UNL     1     -11.140  12.142  66.028  1.00  0.00    -0.326 S  
HETATM   16  H1  UNL     1     -10.147  13.964  65.488  1.00  0.00     0.000 HD 
HETATM   17  N   UNL     1     -10.067  13.397  66.332  1.00  0.00    -0.285 N  
HETATM   18  H2  UNL     1      -9.482  13.554  67.153  1.00  0.00     0.000 HD 
HETATM   19  O   UNL     1     -10.637  11.403  64.900  1.00  0.00    -0.289 OA 
HETATM   20  O   UNL     1     -12.439  12.775  66.010  1.00  0.00    -0.540 OA 
ENDBRANCH   9  15
BRANCH  13  21
HETATM   21  C   UNL     1      -8.312   6.393  69.952  1.00  0.00    -0.130 A  
HETATM   22  C   UNL     1      -7.189   6.845  70.656  1.00  0.00    -0.069 A  
HETATM   23  C   UNL     1      -6.162   5.962  70.993  1.00  0.00    -0.039 A  
HETATM   24  C   UNL     1      -6.247   4.621  70.630  1.00  0.00    -0.022 A  
HETATM   25  C   UNL     1      -7.365   4.159  69.937  1.00  0.00    -0.049 A  
HETATM   26  C   UNL     1      -8.420   5.028  69.612  1.00  0.00    -0.092 A  
HETATM   27  C   UNL     1      -9.636   4.436  68.952  1.00  0.00    -0.233 C  
ENDBRANCH  13  21
TORSDOF 2
ENDMDL
MODEL       87
REMARK 921   NORMALIZED FREE ENERGY PREDICTED BY IDOCK:   -4.03 KCAL/MOL
REMARK 922        TOTAL FREE ENERGY PREDICTED BY IDOCK:   -5.24 KCAL/MOL
REMARK 923 INTER-LIGAND FREE ENERGY PREDICTED BY IDOCK:   -5.14 KCAL/MOL
REMARK 924 INTRA-LIGAND FREE ENERGY PREDICTED BY IDOCK:   -0.11 KCAL/MOL
REMARK 927      BINDING AFFINITY PREDICTED BY RF-SCORE:    0.00 PKD
ROOT
HETATM    1  C   UNL     1      -5.383  10.646  65.547  1.00  0.00    -0.134 C  
HETATM    2  C   UNL     1      -6.656  11.012  66.307  1.00  0.00    -0.105 C  
HETATM    3  N   UNL     1      -6.647  12.447  66.608  1.00  0.00    -0.415 NA 
HETATM    4  H   UNL     1      -5.843  13.045  66.413  1.00  0.00     0.000 HD 
HETATM    5  C   UNL     1      -7.831  12.935  67.185  1.00  0.00    -0.077 A  
HETATM    6  C   UNL     1      -7.884  14.252  67.646  1.00  0.00    -0.191 A  
HETATM    7  C   UNL     1      -9.017  14.734  68.320  1.00  0.00    -0.181 A  
HETATM    8 CL   UNL     1      -8.967  16.387  68.820  1.00  0.00    -0.235 Cl 
HETATM    9  C   UNL     1     -10.097  13.876  68.555  1.00  0.00    -0.234 A  
HETATM   10  C   UNL     1     -10.082  12.570  68.051  1.00  0.00    -0.220 A  
HETATM   11  O   UNL     1     -10.012  10.138  66.650  1.00  0.00    -0.197 OA 
HETATM   12  C   UNL     1      -8.961  12.121  67.351  1.00  0.00    -0.180 A  
HETATM   13  N   UNL     1      -7.936  10.698  65.716  1.00  0.00    -0.162 N  
HETATM   14  C   UNL     1      -9.018  10.851  66.582  1.00  0.00    -0.164 C  
ENDROOT
BRANCH   9  15
HETATM   15  S   UNL     1     -11.502  14.393  69.483  1.00  0.00    -0.301 S  
HETATM   16  H1  UNL     1     -11.617  15.311  71.417  1.00  0.00     0.000 HD 
HETATM   17  N   UNL     1     -10.803  15.012  70.880  1.00  0.00    -0.551 N  
HETATM   18  H2  UNL     1      -9.816  15.073  71.128  1.00  0.00     0.000 HD 
HETATM   19  O   UNL     1     -12.156  15.481  68.806  1.00  0.00    -0.291 OA 
HETATM   20  O   UNL     1     -12.225  13.224  69.929  1.00  0.00    -0.302 OA 
ENDBRANCH   9  15
BRANCH  13  21
HETATM   21  C   UNL     1      -8.057   9.868  64.574  1.00  0.00    -0.149 A  
HETATM   22  C   UNL     1      -7.597   8.546  64.607  1.00  0.00    -0.102 A  
HETATM   23  C   UNL     1      -7.835   7.687  63.533  1.00  0.00    -0.124 A  
HETATM   24  C   UNL     1      -8.534   8.140  62.418  1.00  0.00    -0.099 A  
HETATM   25  C   UNL     1      -9.005   9.452  62.379  1.00  0.00    -0.258 A  
HETATM   26  C   UNL     1      -8.797  10.323  63.461  1.00  0.00    -0.232 A  
HETATM   27  C   UNL     1      -9.419  11.691  63.388  1.00  0.00    -0.233 C  
ENDBRANCH  13  21
TORSDOF 2
ENDMDL
MODEL       88
REMARK 921   NORMALIZED FREE ENERGY PREDICTED BY IDOCK:   -3.97 KCAL/MOL
REMARK 922        TOTAL FREE ENERGY PREDICTED BY IDOCK:   -5.17 KCAL/MOL
REMARK 923 INTER-LIGAND FREE ENERGY PREDICTED BY IDOCK:   -4.97 KCAL/MOL
REMARK 924 INTRA-LIGAND FREE ENERGY PREDICTED BY IDOCK:   -0.20 KCAL/MOL
REMARK 927      BINDING AFFINITY PREDICTED BY RF-SCORE:    0.00 PKD
ROOT
HETATM    1  C   UNL     1      -9.062  19.580  68.797  1.00  0.00    -0.381 C  
HETATM    2  C   UNL     1      -8.559  18.140  68.727  1.00  0.00    -0.206 C  
HETATM    3  N   UNL     1      -9.696  17.238  68.522  1.00  0.00    -0.284 NA 
HETATM    4  H   UNL     1     -10.664  17.560  68.536  1.00  0.00     0.000 HD 
HETATM    5  C   UNL     1      -9.349  15.894  68.303  1.00  0.00    -0.194 A  
HETATM    6  C   UNL     1     -10.350  14.923  68.239  1.00  0.00    -0.232 A  
HETATM    7  C   UNL     1     -10.027  13.562  68.125  1.00  0.00    -0.240 A  
HETATM    8 CL   UNL     1     -11.356  12.462  68.033  1.00  0.00    -0.314 Cl 
HETATM    9  C   UNL     1      -8.684  13.171  68.101  1.00  0.00    -0.193 A  
HETATM   10  C   UNL     1      -7.670  14.136  68.108  1.00  0.00    -0.140 A  
HETATM   11  O   UNL     1      -5.819  16.218  67.756  1.00  0.00    -0.117 OA 
HETATM   12  C   UNL     1      -8.012  15.487  68.184  1.00  0.00    -0.132 A  
HETATM   13  N   UNL     1      -7.549  17.800  67.752  1.00  0.00    -0.209 N  
HETATM   14  C   UNL     1      -6.990  16.534  67.926  1.00  0.00    -0.142 C  
ENDROOT
BRANCH   9  15
HETATM   15  S   UNL     1      -8.216  11.473  68.063  1.00  0.00    -0.151 S  
HETATM   16  H1  UNL     1      -6.322  10.553  68.463  1.00  0.00     0.000 HD 
HETATM   17  N   UNL     1      -6.592  11.536  68.485  1.00  0.00    -0.060 N  
HETATM   18  H2  UNL     1      -6.021  12.351  68.708  1.00  0.00     0.000 HD 
HETATM   19  O   UNL     1      -8.909  10.757  69.102  1.00  0.00    -0.156 OA 
HETATM   20  O   UNL     1      -8.215  11.018  66.691  1.00  0.00    -0.142 OA 
ENDBRANCH   9  15
BRANCH  13  21
HETATM   21  C   UNL     1      -6.848  18.786  67.015  1.00  0.00    -0.201 A  
HETATM   22  C   UNL     1      -7.261  19.129  65.722  1.00  0.00    -0.277 A  
HETATM   23  C   UNL     1      -6.659  20.192  65.046  1.00  0.00    -0.325 A  
HETATM   24  C   UNL     1      -5.641  20.920  65.655  1.00  0.00    -0.264 A  
HETATM   25  C   UNL     1      -5.230  20.592  66.946  1.00  0.00    -0.203 A  
HETATM   26  C   UNL     1      -5.841  19.543  67.651  1.00  0.00    -0.199 A  
HETATM   27  C   UNL     1      -5.412  19.312  69.074  1.00  0.00    -0.213 C  
ENDBRANCH  13  21
TORSDOF 2
ENDMDL
MODEL       89
REMARK 921   NORMALIZED FREE ENERGY PREDICTED BY IDOCK:   -3.92 KCAL/MOL
REMARK 922        TOTAL FREE ENERGY PREDICTED BY IDOCK:   -5.12 KCAL/MOL
REMARK 923 INTER-LIGAND FREE ENERGY PREDICTED BY IDOCK:   -5.23 KCAL/MOL
REMARK 924 INTRA-LIGAND FREE ENERGY PREDICTED BY IDOCK:    0.10 KCAL/MOL
REMARK 927      BINDING AFFINITY PREDICTED BY RF-SCORE:    0.00 PKD
ROOT
HETATM    1  C   UNL     1      -9.026  15.532  69.902  1.00  0.00     0.124 C  
HETATM    2  C   UNL     1      -9.325  14.641  68.698  1.00  0.00    -0.206 C  
HETATM    3  N   UNL     1      -8.187  13.749  68.461  1.00  0.00    -0.209 NA 
HETATM    4  H   UNL     1      -7.312  13.822  68.979  1.00  0.00     0.000 HD 
HETATM    5  C   UNL     1      -8.395  12.783  67.462  1.00  0.00    -0.179 A  
HETATM    6  C   UNL     1      -7.334  11.974  67.050  1.00  0.00    -0.097 A  
HETATM    7  C   UNL     1      -7.486  11.073  65.984  1.00  0.00    -0.032 A  
HETATM    8 CL   UNL     1      -6.106  10.114  65.587  1.00  0.00    -0.086 Cl 
HETATM    9  C   UNL     1      -8.710  11.004  65.310  1.00  0.00    -0.093 A  
HETATM   10  C   UNL     1      -9.799  11.767  65.745  1.00  0.00    -0.267 A  
HETATM   11  O   UNL     1     -11.938  13.087  66.996  1.00  0.00    -0.383 OA 
HETATM   12  C   UNL     1      -9.638  12.630  66.830  1.00  0.00    -0.232 A  
HETATM   13  N   UNL     1     -10.521  13.831  68.708  1.00  0.00    -0.237 N  
HETATM   14  C   UNL     1     -10.825  13.245  67.480  1.00  0.00    -0.263 C  
ENDROOT
BRANCH   9  15
HETATM   15  S   UNL     1      -8.930   9.969  63.901  1.00  0.00    -0.259 S  
HETATM   16  H1  UNL     1      -9.220   7.848  63.777  1.00  0.00     0.000 HD 
HETATM   17  N   UNL     1      -9.092   8.447  64.593  1.00  0.00    -0.254 N  
HETATM   18  H2  UNL     1      -9.070   8.188  65.579  1.00  0.00     0.000 HD 
HETATM   19  O   UNL     1     -10.175  10.289  63.255  1.00  0.00     0.044 OA 
HETATM   20  O   UNL     1      -7.685   9.901  63.170  1.00  0.00    -0.130 OA 
ENDBRANCH   9  15
BRANCH  13  21
HETATM   21  C   UNL     1     -11.536  13.997  69.682  1.00  0.00    -0.289 A  
HETATM   22  C   UNL     1     -12.141  15.246  69.869  1.00  0.00    -0.375 A  
HETATM   23  C   UNL     1     -13.232  15.382  70.730  1.00  0.00    -0.440 A  
HETATM   24  C   UNL     1     -13.727  14.274  71.410  1.00  0.00    -0.382 A  
HETATM   25  C   UNL     1     -13.138  13.024  71.224  1.00  0.00    -0.263 A  
HETATM   26  C   UNL     1     -12.056  12.863  70.342  1.00  0.00    -0.385 A  
HETATM   27  C   UNL     1     -11.538  11.469  70.118  1.00  0.00    -0.336 C  
ENDBRANCH  13  21
TORSDOF 2
ENDMDL
MODEL       90
REMARK 921   NORMALIZED FREE ENERGY PREDICTED BY IDOCK:   -3.90 KCAL/MOL
REMARK 922        TOTAL FREE ENERGY PREDICTED BY IDOCK:   -5.10 KCAL/MOL
REMARK 923 INTER-LIGAND FREE ENERGY PREDICTED BY IDOCK:   -4.42 KCAL/MOL
REMARK 924 INTRA-LIGAND FREE ENERGY PREDICTED BY IDOCK:   -0.68 KCAL/MOL
REMARK 927      BINDING AFFINITY PREDICTED BY RF-SCORE:    0.00 PKD
ROOT
HETATM    1  C   UNL     1      -8.189   9.553  70.193  1.00  0.00    -0.192 C  
HETATM    2  C   UNL     1      -8.813   8.554  69.222  1.00  0.00    -0.142 C  
HETATM    3  N   UNL     1      -7.799   8.112  68.261  1.00  0.00    -0.120 NA 
HETATM    4  H   UNL     1      -6.864   8.518  68.222  1.00  0.00     0.000 HD 
HETATM    5  C   UNL     1      -8.214   7.084  67.397  1.00  0.00    -0.119 A  
HETATM    6  C   UNL     1      -7.383   6.685  66.348  1.00  0.00    -0.073 A  
HETATM    7  C   UNL     1      -7.814   5.735  65.409  1.00  0.00    -0.107 A  
HETATM    8 CL   UNL     1      -6.685   5.309  64.173  1.00  0.00    -0.045 Cl 
HETATM    9  C   UNL     1      -9.104   5.202  65.510  1.00  0.00    -0.153 A  
HETATM   10  C   UNL     1      -9.928   5.550  66.586  1.00  0.00    -0.213 A  
HETATM   11  O   UNL     1     -11.266   6.088  68.996  1.00  0.00    -0.367 OA 
HETATM   12  C   UNL     1      -9.467   6.468  67.531  1.00  0.00    -0.131 A  
HETATM   13  N   UNL     1      -9.457   7.373  69.751  1.00  0.00    -0.160 N  
HETATM   14  C   UNL     1     -10.196   6.656  68.812  1.00  0.00    -0.171 C  
ENDROOT
BRANCH   9  15
HETATM   15  S   UNL     1      -9.738   4.085  64.304  1.00  0.00    -0.158 S  
HETATM   16  H1  UNL     1     -11.729   3.343  64.021  1.00  0.00     0.000 HD 
HETATM   17  N   UNL     1     -11.362   3.990  64.719  1.00  0.00    -0.501 N  
HETATM   18  H2  UNL     1     -11.857   4.460  65.478  1.00  0.00     0.000 HD 
HETATM   19  O   UNL     1      -9.657   4.685  62.999  1.00  0.00    -0.059 OA 
HETATM   20  O   UNL     1      -9.220   2.763  64.571  1.00  0.00    -0.123 OA 
ENDBRANCH   9  15
BRANCH  13  21
HETATM   21  C   UNL     1      -9.729   7.218  71.132  1.00  0.00    -0.171 A  
HETATM   22  C   UNL     1     -10.810   7.886  71.721  1.00  0.00    -0.286 A  
HETATM   23  C   UNL     1     -11.162   7.631  73.048  1.00  0.00    -0.388 A  
HETATM   24  C   UNL     1     -10.439   6.708  73.797  1.00  0.00    -0.357 A  
HETATM   25  C   UNL     1      -9.367   6.030  73.217  1.00  0.00    -0.135 A  
HETATM   26  C   UNL     1      -9.014   6.255  71.876  1.00  0.00    -0.139 A  
HETATM   27  C   UNL     1      -7.911   5.415  71.293  1.00  0.00    -0.109 C  
ENDBRANCH  13  21
TORSDOF 2
ENDMDL
MODEL       91
REMARK 921   NORMALIZED FREE ENERGY PREDICTED BY IDOCK:   -3.89 KCAL/MOL
REMARK 922        TOTAL FREE ENERGY PREDICTED BY IDOCK:   -5.09 KCAL/MOL
REMARK 923 INTER-LIGAND FREE ENERGY PREDICTED BY IDOCK:   -4.89 KCAL/MOL
REMARK 924 INTRA-LIGAND FREE ENERGY PREDICTED BY IDOCK:   -0.21 KCAL/MOL
REMARK 927      BINDING AFFINITY PREDICTED BY RF-SCORE:    0.00 PKD
ROOT
HETATM    1  C   UNL     1      -7.751   8.667  69.820  1.00  0.00    -0.088 C  
HETATM    2  C   UNL     1      -8.655   9.360  68.803  1.00  0.00    -0.127 C  
HETATM    3  N   UNL     1      -8.710  10.794  69.099  1.00  0.00    -0.319 NA 
HETATM    4  H   UNL     1      -8.279  11.201  69.929  1.00  0.00     0.000 HD 
HETATM    5  C   UNL     1      -9.401  11.565  68.149  1.00  0.00    -0.185 A  
HETATM    6  C   UNL     1      -9.642  12.918  68.400  1.00  0.00    -0.176 A  
HETATM    7  C   UNL     1     -10.418  13.687  67.519  1.00  0.00    -0.241 A  
HETATM    8 CL   UNL     1     -10.622  15.352  67.929  1.00  0.00    -0.260 Cl 
HETATM    9  C   UNL     1     -10.981  13.083  66.389  1.00  0.00    -0.281 A  
HETATM   10  C   UNL     1     -10.704  11.743  66.095  1.00  0.00    -0.320 A  
HETATM   11  O   UNL     1      -9.733   9.178  65.494  1.00  0.00    -0.247 OA 
HETATM   12  C   UNL     1      -9.899  11.005  66.964  1.00  0.00    -0.211 A  
HETATM   13  N   UNL     1      -8.363   9.214  67.395  1.00  0.00    -0.115 N  
HETATM   14  C   UNL     1      -9.372   9.678  66.551  1.00  0.00    -0.165 C  
ENDROOT
BRANCH   9  15
HETATM   15  S   UNL     1     -12.048  13.970  65.304  1.00  0.00    -0.432 S  
HETATM   16  H1  UNL     1     -12.716  13.487  63.325  1.00  0.00     0.000 HD 
HETATM   17  N   UNL     1     -12.098  12.973  63.953  1.00  0.00    -0.483 N  
HETATM   18  H2  UNL     1     -11.630  12.080  63.800  1.00  0.00     0.000 HD 
HETATM   19  O   UNL     1     -13.374  14.016  65.860  1.00  0.00    -0.400 OA 
HETATM   20  O   UNL     1     -11.368  15.161  64.848  1.00  0.00    -0.385 OA 
ENDBRANCH   9  15
BRANCH  13  21
HETATM   21  C   UNL     1      -7.414   8.280  66.914  1.00  0.00    -0.088 A  
HETATM   22  C   UNL     1      -6.112   8.689  66.602  1.00  0.00    -0.057 A  
HETATM   23  C   UNL     1      -5.138   7.750  66.258  1.00  0.00    -0.025 A  
HETATM   24  C   UNL     1      -5.455   6.396  66.222  1.00  0.00    -0.014 A  
HETATM   25  C   UNL     1      -6.747   5.977  66.539  1.00  0.00    -0.060 A  
HETATM   26  C   UNL     1      -7.733   6.905  66.913  1.00  0.00    -0.099 A  
HETATM   27  C   UNL     1      -9.073   6.369  67.337  1.00  0.00    -0.111 C  
ENDBRANCH  13  21
TORSDOF 2
ENDMDL
MODEL       92
REMARK 921   NORMALIZED FREE ENERGY PREDICTED BY IDOCK:   -3.89 KCAL/MOL
REMARK 922        TOTAL FREE ENERGY PREDICTED BY IDOCK:   -5.08 KCAL/MOL
REMARK 923 INTER-LIGAND FREE ENERGY PREDICTED BY IDOCK:   -4.46 KCAL/MOL
REMARK 924 INTRA-LIGAND FREE ENERGY PREDICTED BY IDOCK:   -0.63 KCAL/MOL
REMARK 927      BINDING AFFINITY PREDICTED BY RF-SCORE:    0.00 PKD
ROOT
HETATM    1  C   UNL     1     -12.300   7.950  70.844  1.00  0.00    -0.095 C  
HETATM    2  C   UNL     1     -11.588   6.720  70.286  1.00  0.00    -0.362 C  
HETATM    3  N   UNL     1     -11.384   6.888  68.845  1.00  0.00    -0.533 NA 
HETATM    4  H   UNL     1     -11.772   7.674  68.322  1.00  0.00     0.000 HD 
HETATM    5  C   UNL     1     -10.614   5.881  68.237  1.00  0.00    -0.244 A  
HETATM    6  C   UNL     1     -10.478   5.859  66.847  1.00  0.00    -0.349 A  
HETATM    7  C   UNL     1      -9.802   4.809  66.207  1.00  0.00    -0.220 A  
HETATM    8 CL   UNL     1      -9.681   4.910  64.487  1.00  0.00     0.147 Cl 
HETATM    9  C   UNL     1      -9.281   3.758  66.969  1.00  0.00    -0.181 A  
HETATM   10  C   UNL     1      -9.362   3.793  68.366  1.00  0.00    -0.226 A  
HETATM   11  O   UNL     1      -9.299   4.233  71.138  1.00  0.00    -0.130 OA 
HETATM   12  C   UNL     1     -10.006   4.864  68.987  1.00  0.00    -0.237 A  
HETATM   13  N   UNL     1     -10.323   6.323  70.863  1.00  0.00    -0.199 N  
HETATM   14  C   UNL     1      -9.877   5.068  70.453  1.00  0.00    -0.230 C  
ENDROOT
BRANCH   9  15
HETATM   15  S   UNL     1      -8.515   2.362  66.215  1.00  0.00    -0.106 S  
HETATM   16  H1  UNL     1      -7.347   0.790  67.086  1.00  0.00     0.000 HD 
HETATM   17  N   UNL     1      -7.791   1.597  67.523  1.00  0.00    -0.059 N  
HETATM   18  H2  UNL     1      -7.794   1.871  68.505  1.00  0.00     0.000 HD 
HETATM   19  O   UNL     1      -9.524   1.477  65.696  1.00  0.00     0.013 OA 
HETATM   20  O   UNL     1      -7.407   2.817  65.405  1.00  0.00    -0.068 OA 
ENDBRANCH   9  15
BRANCH  13  21
HETATM   21  C   UNL     1      -9.830   6.891  72.063  1.00  0.00    -0.162 A  
HETATM   22  C   UNL     1     -10.157   6.326  73.301  1.00  0.00    -0.207 A  
HETATM   23  C   UNL     1      -9.566   6.799  74.474  1.00  0.00    -0.269 A  
HETATM   24  C   UNL     1      -8.644   7.840  74.420  1.00  0.00    -0.221 A  
HETATM   25  C   UNL     1      -8.305   8.405  73.191  1.00  0.00    -0.191 A  
HETATM   26  C   UNL     1      -8.870   7.924  71.998  1.00  0.00    -0.187 A  
HETATM   27  C   UNL     1      -8.381   8.516  70.704  1.00  0.00    -0.141 C  
ENDBRANCH  13  21
TORSDOF 2
ENDMDL
MODEL       93
REMARK 921   NORMALIZED FREE ENERGY PREDICTED BY IDOCK:   -3.81 KCAL/MOL
REMARK 922        TOTAL FREE ENERGY PREDICTED BY IDOCK:   -5.00 KCAL/MOL
REMARK 923 INTER-LIGAND FREE ENERGY PREDICTED BY IDOCK:   -4.29 KCAL/MOL
REMARK 924 INTRA-LIGAND FREE ENERGY PREDICTED BY IDOCK:   -0.71 KCAL/MOL
REMARK 927      BINDING AFFINITY PREDICTED BY RF-SCORE:    0.00 PKD
ROOT
HETATM    1  C   UNL     1     -10.074   4.429  68.977  1.00  0.00     0.011 C  
HETATM    2  C   UNL     1     -10.119   5.725  68.172  1.00  0.00    -0.165 C  
HETATM    3  N   UNL     1     -10.503   6.832  69.054  1.00  0.00    -0.194 NA 
HETATM    4  H   UNL     1     -10.789   6.689  70.023  1.00  0.00     0.000 HD 
HETATM    5  C   UNL     1     -10.446   8.104  68.460  1.00  0.00    -0.162 A  
HETATM    6  C   UNL     1     -10.927   9.214  69.158  1.00  0.00    -0.057 A  
HETATM    7  C   UNL     1     -10.978  10.479  68.552  1.00  0.00    -0.252 A  
HETATM    8 CL   UNL     1     -11.572  11.775  69.528  1.00  0.00    -0.373 Cl 
HETATM    9  C   UNL     1     -10.566  10.624  67.223  1.00  0.00    -0.263 A  
HETATM   10  C   UNL     1     -10.031   9.533  66.528  1.00  0.00    -0.329 A  
HETATM   11  O   UNL     1      -8.657   7.335  65.449  1.00  0.00    -0.121 OA 
HETATM   12  C   UNL     1      -9.954   8.291  67.161  1.00  0.00    -0.307 A  
HETATM   13  N   UNL     1      -8.941   6.136  67.443  1.00  0.00    -0.113 N  
HETATM   14  C   UNL     1      -9.156   7.192  66.558  1.00  0.00    -0.154 C  
ENDROOT
BRANCH   9  15
HETATM   15  S   UNL     1     -10.704  12.163  66.376  1.00  0.00    -0.267 S  
HETATM   16  H1  UNL     1      -9.954  12.755  64.457  1.00  0.00     0.000 HD 
HETATM   17  N   UNL     1      -9.874  11.864  64.947  1.00  0.00    -0.350 N  
HETATM   18  H2  UNL     1      -9.409  11.008  64.645  1.00  0.00     0.000 HD 
HETATM   19  O   UNL     1     -12.081  12.408  66.038  1.00  0.00    -0.600 OA 
HETATM   20  O   UNL     1      -9.898  13.148  67.061  1.00  0.00    -0.233 OA 
ENDBRANCH   9  15
BRANCH  13  21
HETATM   21  C   UNL     1      -7.829   5.279  67.263  1.00  0.00    -0.100 A  
HETATM   22  C   UNL     1      -7.824   4.332  66.231  1.00  0.00    -0.095 A  
HETATM   23  C   UNL     1      -6.678   3.580  65.966  1.00  0.00    -0.041 A  
HETATM   24  C   UNL     1      -5.529   3.766  66.728  1.00  0.00    -0.017 A  
HETATM   25  C   UNL     1      -5.520   4.713  67.752  1.00  0.00    -0.012 A  
HETATM   26  C   UNL     1      -6.655   5.497  68.016  1.00  0.00    -0.049 A  
HETATM   27  C   UNL     1      -6.538   6.564  69.070  1.00  0.00    -0.047 C  
ENDBRANCH  13  21
TORSDOF 2
ENDMDL
MODEL       94
REMARK 921   NORMALIZED FREE ENERGY PREDICTED BY IDOCK:   -3.78 KCAL/MOL
REMARK 922        TOTAL FREE ENERGY PREDICTED BY IDOCK:   -4.97 KCAL/MOL
REMARK 923 INTER-LIGAND FREE ENERGY PREDICTED BY IDOCK:   -4.83 KCAL/MOL
REMARK 924 INTRA-LIGAND FREE ENERGY PREDICTED BY IDOCK:   -0.14 KCAL/MOL
REMARK 927      BINDING AFFINITY PREDICTED BY RF-SCORE:    0.00 PKD
ROOT
HETATM    1  C   UNL     1      -7.562   6.405  65.201  1.00  0.00    -0.089 C  
HETATM    2  C   UNL     1      -8.272   6.335  66.552  1.00  0.00    -0.112 C  
HETATM    3  N   UNL     1      -8.870   7.639  66.853  1.00  0.00    -0.127 NA 
HETATM    4  H   UNL     1      -8.718   8.462  66.271  1.00  0.00     0.000 HD 
HETATM    5  C   UNL     1      -9.671   7.666  68.008  1.00  0.00    -0.152 A  
HETATM    6  C   UNL     1     -10.173   8.884  68.473  1.00  0.00    -0.223 A  
HETATM    7  C   UNL     1     -10.887   8.955  69.678  1.00  0.00    -0.178 A  
HETATM    8 CL   UNL     1     -11.475  10.514  70.132  1.00  0.00    -0.374 Cl 
HETATM    9  C   UNL     1     -11.077   7.794  70.437  1.00  0.00    -0.251 A  
HETATM   10  C   UNL     1     -10.628   6.558  69.959  1.00  0.00    -0.280 A  
HETATM   11  O   UNL     1      -9.987   4.153  68.658  1.00  0.00    -0.069 OA 
HETATM   12  C   UNL     1      -9.951   6.503  68.739  1.00  0.00    -0.155 A  
HETATM   13  N   UNL     1      -9.289   5.329  66.755  1.00  0.00    -0.128 N  
HETATM   14  C   UNL     1      -9.701   5.194  68.080  1.00  0.00    -0.144 C  
ENDROOT
BRANCH   9  15
HETATM   15  S   UNL     1     -11.875   7.839  72.007  1.00  0.00    -0.323 S  
HETATM   16  H1  UNL     1     -12.803   6.265  73.129  1.00  0.00     0.000 HD 
HETATM   17  N   UNL     1     -12.341   6.239  72.220  1.00  0.00    -0.531 N  
HETATM   18  H2  UNL     1     -12.198   5.443  71.598  1.00  0.00     0.000 HD 
HETATM   19  O   UNL     1     -10.913   8.151  73.031  1.00  0.00    -0.330 OA 
HETATM   20  O   UNL     1     -13.119   8.563  71.880  1.00  0.00    -0.331 OA 
ENDBRANCH   9  15
BRANCH  13  21
HETATM   21  C   UNL     1      -9.496   4.269  65.839  1.00  0.00    -0.176 A  
HETATM   22  C   UNL     1     -10.525   4.341  64.893  1.00  0.00    -0.176 A  
HETATM   23  C   UNL     1     -10.647   3.364  63.904  1.00  0.00    -0.244 A  
HETATM   24  C   UNL     1      -9.743   2.307  63.852  1.00  0.00    -0.137 A  
HETATM   25  C   UNL     1      -8.709   2.231  64.784  1.00  0.00    -0.109 A  
HETATM   26  C   UNL     1      -8.555   3.219  65.770  1.00  0.00    -0.116 A  
HETATM   27  C   UNL     1      -7.359   3.122  66.677  1.00  0.00    -0.074 C  
ENDBRANCH  13  21
TORSDOF 2
ENDMDL
MODEL       95
REMARK 921   NORMALIZED FREE ENERGY PREDICTED BY IDOCK:   -3.75 KCAL/MOL
REMARK 922        TOTAL FREE ENERGY PREDICTED BY IDOCK:   -4.93 KCAL/MOL
REMARK 923 INTER-LIGAND FREE ENERGY PREDICTED BY IDOCK:   -4.35 KCAL/MOL
REMARK 924 INTRA-LIGAND FREE ENERGY PREDICTED BY IDOCK:   -0.58 KCAL/MOL
REMARK 927      BINDING AFFINITY PREDICTED BY RF-SCORE:    0.00 PKD
ROOT
HETATM    1  C   UNL     1     -10.739  11.162  66.253  1.00  0.00    -0.298 C  
HETATM    2  C   UNL     1      -9.919  10.679  67.447  1.00  0.00    -0.181 C  
HETATM    3  N   UNL     1     -10.815  10.085  68.443  1.00  0.00    -0.278 NA 
HETATM    4  H   UNL     1     -11.831  10.109  68.354  1.00  0.00     0.000 HD 
HETATM    5  C   UNL     1     -10.165   9.478  69.531  1.00  0.00    -0.213 A  
HETATM    6  C   UNL     1     -10.917   9.008  70.610  1.00  0.00    -0.308 A  
HETATM    7  C   UNL     1     -10.289   8.492  71.755  1.00  0.00    -0.284 A  
HETATM    8 CL   UNL     1     -11.329   7.922  73.010  1.00  0.00    -0.410 Cl 
HETATM    9  C   UNL     1      -8.892   8.472  71.825  1.00  0.00    -0.211 A  
HETATM   10  C   UNL     1      -8.125   8.888  70.731  1.00  0.00    -0.179 A  
HETATM   11  O   UNL     1      -6.792   9.410  68.315  1.00  0.00    -0.062 OA 
HETATM   12  C   UNL     1      -8.768   9.364  69.587  1.00  0.00    -0.172 A  
HETATM   13  N   UNL     1      -8.837   9.749  67.221  1.00  0.00    -0.132 N  
HETATM   14  C   UNL     1      -8.007   9.558  68.325  1.00  0.00    -0.094 C  
ENDROOT
BRANCH   9  15
HETATM   15  S   UNL     1      -8.048   7.933  73.275  1.00  0.00    -0.184 S  
HETATM   16  H1  UNL     1      -5.955   7.629  73.621  1.00  0.00     0.000 HD 
HETATM   17  N   UNL     1      -6.443   7.941  72.782  1.00  0.00    -0.066 N  
HETATM   18  H2  UNL     1      -6.054   8.194  71.874  1.00  0.00     0.000 HD 
HETATM   19  O   UNL     1      -8.190   8.920  74.312  1.00  0.00    -0.224 OA 
HETATM   20  O   UNL     1      -8.349   6.538  73.501  1.00  0.00    -0.118 OA 
ENDBRANCH   9  15
BRANCH  13  21
HETATM   21  C   UNL     1      -8.365   9.441  65.922  1.00  0.00    -0.120 A  
HETATM   22  C   UNL     1      -7.693  10.409  65.165  1.00  0.00    -0.110 A  
HETATM   23  C   UNL     1      -7.109  10.072  63.942  1.00  0.00    -0.126 A  
HETATM   24  C   UNL     1      -7.191   8.767  63.466  1.00  0.00    -0.094 A  
HETATM   25  C   UNL     1      -7.850   7.794  64.216  1.00  0.00    -0.138 A  
HETATM   26  C   UNL     1      -8.421   8.109  65.460  1.00  0.00    -0.174 A  
HETATM   27  C   UNL     1      -9.027   6.985  66.256  1.00  0.00    -0.175 C  
ENDBRANCH  13  21
TORSDOF 2
ENDMDL
MODEL       96
REMARK 921   NORMALIZED FREE ENERGY PREDICTED BY IDOCK:   -3.69 KCAL/MOL
REMARK 922        TOTAL FREE ENERGY PREDICTED BY IDOCK:   -4.86 KCAL/MOL
REMARK 923 INTER-LIGAND FREE ENERGY PREDICTED BY IDOCK:   -4.15 KCAL/MOL
REMARK 924 INTRA-LIGAND FREE ENERGY PREDICTED BY IDOCK:   -0.71 KCAL/MOL
REMARK 927      BINDING AFFINITY PREDICTED BY RF-SCORE:    0.00 PKD
ROOT
HETATM    1  C   UNL     1     -12.134   7.336  71.026  1.00  0.00    -0.361 C  
HETATM    2  C   UNL     1     -11.374   6.485  70.011  1.00  0.00    -0.410 C  
HETATM    3  N   UNL     1     -10.829   7.352  68.963  1.00  0.00    -0.393 NA 
HETATM    4  H   UNL     1     -11.041   8.348  68.906  1.00  0.00     0.000 HD 
HETATM    5  C   UNL     1      -9.990   6.704  68.041  1.00  0.00    -0.142 A  
HETATM    6  C   UNL     1      -9.531   7.396  66.918  1.00  0.00    -0.208 A  
HETATM    7  C   UNL     1      -8.778   6.745  65.928  1.00  0.00    -0.137 A  
HETATM    8 CL   UNL     1      -8.250   7.717  64.602  1.00  0.00    -0.108 Cl 
HETATM    9  C   UNL     1      -8.506   5.379  66.056  1.00  0.00    -0.123 A  
HETATM   10  C   UNL     1      -8.912   4.684  67.201  1.00  0.00    -0.118 A  
HETATM   11  O   UNL     1      -9.481   3.574  69.717  1.00  0.00    -0.166 OA 
HETATM   12  C   UNL     1      -9.628   5.357  68.192  1.00  0.00    -0.154 A  
HETATM   13  N   UNL     1     -10.303   5.634  70.476  1.00  0.00    -0.239 N  
HETATM   14  C   UNL     1      -9.838   4.729  69.522  1.00  0.00    -0.222 C  
ENDROOT
BRANCH   9  15
HETATM   15  S   UNL     1      -7.656   4.485  64.799  1.00  0.00    -0.074 S  
HETATM   16  H1  UNL     1      -7.123   2.411  64.698  1.00  0.00     0.000 HD 
HETATM   17  N   UNL     1      -7.615   2.928  65.426  1.00  0.00    -0.076 N  
HETATM   18  H2  UNL     1      -7.989   2.586  66.311  1.00  0.00     0.000 HD 
HETATM   19  O   UNL     1      -8.456   4.452  63.603  1.00  0.00    -0.099 OA 
HETATM   20  O   UNL     1      -6.272   4.903  64.781  1.00  0.00    -0.031 OA 
ENDBRANCH   9  15
BRANCH  13  21
HETATM   21  C   UNL     1     -10.079   5.387  71.852  1.00  0.00    -0.193 A  
HETATM   22  C   UNL     1     -10.742   4.339  72.502  1.00  0.00    -0.129 A  
HETATM   23  C   UNL     1     -10.423   4.009  73.820  1.00  0.00    -0.268 A  
HETATM   24  C   UNL     1      -9.440   4.721  74.500  1.00  0.00    -0.144 A  
HETATM   25  C   UNL     1      -8.767   5.761  73.860  1.00  0.00    -0.117 A  
HETATM   26  C   UNL     1      -9.056   6.091  72.525  1.00  0.00    -0.135 A  
HETATM   27  C   UNL     1      -8.221   7.157  71.871  1.00  0.00    -0.104 C  
ENDBRANCH  13  21
TORSDOF 2
ENDMDL
MODEL       97
REMARK 921   NORMALIZED FREE ENERGY PREDICTED BY IDOCK:   -3.69 KCAL/MOL
REMARK 922        TOTAL FREE ENERGY PREDICTED BY IDOCK:   -4.86 KCAL/MOL
REMARK 923 INTER-LIGAND FREE ENERGY PREDICTED BY IDOCK:   -4.86 KCAL/MOL
REMARK 924 INTRA-LIGAND FREE ENERGY PREDICTED BY IDOCK:   -0.00 KCAL/MOL
REMARK 927      BINDING AFFINITY PREDICTED BY RF-SCORE:    0.00 PKD
ROOT
HETATM    1  C   UNL     1      -7.428   3.487  68.084  1.00  0.00    -0.057 C  
HETATM    2  C   UNL     1      -8.656   4.301  68.485  1.00  0.00    -0.093 C  
HETATM    3  N   UNL     1      -8.451   4.864  69.823  1.00  0.00    -0.082 NA 
HETATM    4  H   UNL     1      -7.642   4.631  70.399  1.00  0.00     0.000 HD 
HETATM    5  C   UNL     1      -9.455   5.749  70.249  1.00  0.00    -0.161 A  
HETATM    6  C   UNL     1      -9.439   6.232  71.560  1.00  0.00    -0.162 A  
HETATM    7  C   UNL     1     -10.484   7.034  72.044  1.00  0.00    -0.208 A  
HETATM    8 CL   UNL     1     -10.336   7.587  73.674  1.00  0.00    -0.374 Cl 
HETATM    9  C   UNL     1     -11.568   7.332  71.211  1.00  0.00    -0.286 A  
HETATM   10  C   UNL     1     -11.572   6.902  69.879  1.00  0.00    -0.255 A  
HETATM   11  O   UNL     1     -11.213   6.268  67.167  1.00  0.00    -0.334 OA 
HETATM   12  C   UNL     1     -10.506   6.136  69.405  1.00  0.00    -0.316 A  
HETATM   13  N   UNL     1      -9.095   5.374  67.622  1.00  0.00    -0.108 N  
HETATM   14  C   UNL     1     -10.347   5.893  67.948  1.00  0.00    -0.211 C  
ENDROOT
BRANCH   9  15
HETATM   15  S   UNL     1     -12.956   8.247  71.794  1.00  0.00    -0.349 S  
HETATM   16  H1  UNL     1     -13.961   9.932  70.930  1.00  0.00     0.000 HD 
HETATM   17  N   UNL     1     -13.157   9.403  70.592  1.00  0.00    -0.496 N  
HETATM   18  H2  UNL     1     -12.613   9.541  69.740  1.00  0.00     0.000 HD 
HETATM   19  O   UNL     1     -14.125   7.407  71.790  1.00  0.00    -0.395 OA 
HETATM   20  O   UNL     1     -12.563   9.004  72.960  1.00  0.00    -0.157 OA 
ENDBRANCH   9  15
BRANCH  13  21
HETATM   21  C   UNL     1      -8.572   5.555  66.318  1.00  0.00    -0.125 A  
HETATM   22  C   UNL     1      -8.808   4.601  65.322  1.00  0.00    -0.145 A  
HETATM   23  C   UNL     1      -8.411   4.839  64.004  1.00  0.00    -0.132 A  
HETATM   24  C   UNL     1      -7.776   6.032  63.672  1.00  0.00    -0.100 A  
HETATM   25  C   UNL     1      -7.545   6.993  64.655  1.00  0.00    -0.106 A  
HETATM   26  C   UNL     1      -7.960   6.781  65.981  1.00  0.00    -0.109 A  
HETATM   27  C   UNL     1      -7.765   7.903  66.963  1.00  0.00    -0.100 C  
ENDBRANCH  13  21
TORSDOF 2
ENDMDL
MODEL       98
REMARK 921   NORMALIZED FREE ENERGY PREDICTED BY IDOCK:   -3.67 KCAL/MOL
REMARK 922        TOTAL FREE ENERGY PREDICTED BY IDOCK:   -4.84 KCAL/MOL
REMARK 923 INTER-LIGAND FREE ENERGY PREDICTED BY IDOCK:   -4.26 KCAL/MOL
REMARK 924 INTRA-LIGAND FREE ENERGY PREDICTED BY IDOCK:   -0.58 KCAL/MOL
REMARK 927      BINDING AFFINITY PREDICTED BY RF-SCORE:    0.00 PKD
ROOT
HETATM    1  C   UNL     1      -8.668   9.185  65.995  1.00  0.00    -0.176 C  
HETATM    2  C   UNL     1      -8.695   8.403  67.306  1.00  0.00    -0.127 C  
HETATM    3  N   UNL     1      -9.893   8.771  68.067  1.00  0.00    -0.162 NA 
HETATM    4  H   UNL     1     -10.524   9.516  67.773  1.00  0.00     0.000 HD 
HETATM    5  C   UNL     1     -10.105   8.016  69.233  1.00  0.00    -0.198 A  
HETATM    6  C   UNL     1     -11.131   8.373  70.110  1.00  0.00    -0.183 A  
HETATM    7  C   UNL     1     -11.300   7.702  71.332  1.00  0.00    -0.258 A  
HETATM    8 CL   UNL     1     -12.620   8.222  72.317  1.00  0.00    -0.368 Cl 
HETATM    9  C   UNL     1     -10.412   6.680  71.686  1.00  0.00    -0.207 A  
HETATM   10  C   UNL     1      -9.413   6.274  70.794  1.00  0.00    -0.185 A  
HETATM   11  O   UNL     1      -7.735   5.371  68.731  1.00  0.00    -0.081 OA 
HETATM   12  C   UNL     1      -9.284   6.929  69.568  1.00  0.00    -0.148 A  
HETATM   13  N   UNL     1      -8.632   6.960  67.261  1.00  0.00    -0.120 N  
HETATM   14  C   UNL     1      -8.423   6.358  68.500  1.00  0.00    -0.119 C  
ENDROOT
BRANCH   9  15
HETATM   15  S   UNL     1     -10.511   5.873  73.248  1.00  0.00    -0.250 S  
HETATM   16  H1  UNL     1      -9.264   4.349  74.096  1.00  0.00     0.000 HD 
HETATM   17  N   UNL     1      -9.206   4.816  73.191  1.00  0.00    -0.116 N  
HETATM   18  H2  UNL     1      -8.528   4.677  72.442  1.00  0.00     0.000 HD 
HETATM   19  O   UNL     1     -10.257   6.821  74.300  1.00  0.00    -0.357 OA 
HETATM   20  O   UNL     1     -11.672   5.012  73.259  1.00  0.00    -0.292 OA 
ENDBRANCH   9  15
BRANCH  13  21
HETATM   21  C   UNL     1      -8.322   6.256  66.072  1.00  0.00    -0.138 A  
HETATM   22  C   UNL     1      -7.044   6.347  65.507  1.00  0.00    -0.065 A  
HETATM   23  C   UNL     1      -6.694   5.552  64.414  1.00  0.00    -0.046 A  
HETATM   24  C   UNL     1      -7.617   4.659  63.877  1.00  0.00    -0.071 A  
HETATM   25  C   UNL     1      -8.889   4.553  64.438  1.00  0.00    -0.152 A  
HETATM   26  C   UNL     1      -9.250   5.327  65.553  1.00  0.00    -0.122 A  
HETATM   27  C   UNL     1     -10.604   5.086  66.163  1.00  0.00    -0.321 C  
ENDBRANCH  13  21
TORSDOF 2
ENDMDL
MODEL       99
REMARK 921   NORMALIZED FREE ENERGY PREDICTED BY IDOCK:   -3.59 KCAL/MOL
REMARK 922        TOTAL FREE ENERGY PREDICTED BY IDOCK:   -4.75 KCAL/MOL
REMARK 923 INTER-LIGAND FREE ENERGY PREDICTED BY IDOCK:   -4.24 KCAL/MOL
REMARK 924 INTRA-LIGAND FREE ENERGY PREDICTED BY IDOCK:   -0.51 KCAL/MOL
REMARK 927      BINDING AFFINITY PREDICTED BY RF-SCORE:    0.00 PKD
ROOT
HETATM    1  C   UNL     1      -8.837   9.325  63.691  1.00  0.00    -0.146 C  
HETATM    2  C   UNL     1      -8.550  10.350  64.786  1.00  0.00    -0.182 C  
HETATM    3  N   UNL     1      -9.709  11.233  64.941  1.00  0.00    -0.247 NA 
HETATM    4  H   UNL     1     -10.517  11.195  64.319  1.00  0.00     0.000 HD 
HETATM    5  C   UNL     1      -9.622  12.136  66.015  1.00  0.00    -0.231 A  
HETATM    6  C   UNL     1     -10.601  13.120  66.171  1.00  0.00    -0.288 A  
HETATM    7  C   UNL     1     -10.485  14.098  67.172  1.00  0.00    -0.270 A  
HETATM    8 CL   UNL     1     -11.772  15.245  67.277  1.00  0.00    -0.180 Cl 
HETATM    9  C   UNL     1      -9.362  14.101  68.006  1.00  0.00    -0.203 A  
HETATM   10  C   UNL     1      -8.400  13.090  67.897  1.00  0.00    -0.170 A  
HETATM   11  O   UNL     1      -6.798  10.787  67.767  1.00  0.00    -0.071 OA 
HETATM   12  C   UNL     1      -8.552  12.105  66.920  1.00  0.00    -0.191 A  
HETATM   13  N   UNL     1      -8.177   9.883  66.101  1.00  0.00    -0.117 N  
HETATM   14  C   UNL     1      -7.707  10.883  66.951  1.00  0.00    -0.135 C  
ENDROOT
BRANCH   9  15
HETATM   15  S   UNL     1      -9.110  15.362  69.210  1.00  0.00    -0.252 S  
HETATM   16  H1  UNL     1      -9.000  17.491  68.978  1.00  0.00     0.000 HD 
HETATM   17  N   UNL     1      -9.146  16.761  68.281  1.00  0.00    -0.221 N  
HETATM   18  H2  UNL     1      -9.279  16.856  67.274  1.00  0.00     0.000 HD 
HETATM   19  O   UNL     1     -10.235  15.407  70.106  1.00  0.00    -0.292 OA 
HETATM   20  O   UNL     1      -7.750  15.285  69.693  1.00  0.00    -0.219 OA 
ENDBRANCH   9  15
BRANCH  13  21
HETATM   21  C   UNL     1      -7.850   8.528  66.355  1.00  0.00    -0.099 A  
HETATM   22  C   UNL     1      -6.549   8.060  66.137  1.00  0.00    -0.047 A  
HETATM   23  C   UNL     1      -6.190   6.764  66.513  1.00  0.00    -0.044 A  
HETATM   24  C   UNL     1      -7.127   5.926  67.110  1.00  0.00    -0.070 A  
HETATM   25  C   UNL     1      -8.423   6.385  67.340  1.00  0.00    -0.108 A  
HETATM   26  C   UNL     1      -8.795   7.695  66.992  1.00  0.00    -0.135 A  
HETATM   27  C   UNL     1     -10.180   8.150  67.361  1.00  0.00    -0.327 C  
ENDBRANCH  13  21
TORSDOF 2
ENDMDL
MODEL      100
REMARK 921   NORMALIZED FREE ENERGY PREDICTED BY IDOCK:   -3.56 KCAL/MOL
REMARK 922        TOTAL FREE ENERGY PREDICTED BY IDOCK:   -4.72 KCAL/MOL
REMARK 923 INTER-LIGAND FREE ENERGY PREDICTED BY IDOCK:   -4.29 KCAL/MOL
REMARK 924 INTRA-LIGAND FREE ENERGY PREDICTED BY IDOCK:   -0.43 KCAL/MOL
REMARK 927      BINDING AFFINITY PREDICTED BY RF-SCORE:    0.00 PKD
ROOT
HETATM    1  C   UNL     1      -7.040  11.726  68.245  1.00  0.00    -0.079 C  
HETATM    2  C   UNL     1      -7.475  10.474  67.487  1.00  0.00    -0.093 C  
HETATM    3  N   UNL     1      -7.139   9.287  68.279  1.00  0.00    -0.076 NA 
HETATM    4  H   UNL     1      -6.604   9.336  69.146  1.00  0.00     0.000 HD 
HETATM    5  C   UNL     1      -7.613   8.074  67.750  1.00  0.00    -0.102 A  
HETATM    6  C   UNL     1      -7.231   6.867  68.340  1.00  0.00    -0.088 A  
HETATM    7  C   UNL     1      -7.605   5.638  67.773  1.00  0.00    -0.089 A  
HETATM    8 CL   UNL     1      -7.090   4.218  68.610  1.00  0.00    -0.051 Cl 
HETATM    9  C   UNL     1      -8.347   5.624  66.586  1.00  0.00    -0.112 A  
HETATM   10  C   UNL     1      -8.784   6.824  66.014  1.00  0.00    -0.155 A  
HETATM   11  O   UNL     1      -9.865   9.297  65.242  1.00  0.00    -0.168 OA 
HETATM   12  C   UNL     1      -8.433   8.034  66.613  1.00  0.00    -0.133 A  
HETATM   13  N   UNL     1      -8.854  10.350  67.075  1.00  0.00    -0.136 N  
HETATM   14  C   UNL     1      -9.094   9.297  66.192  1.00  0.00    -0.179 C  
ENDROOT
BRANCH   9  15
HETATM   15  S   UNL     1      -8.756   4.116  65.772  1.00  0.00    -0.122 S  
HETATM   16  H1  UNL     1      -9.861   2.421  66.480  1.00  0.00     0.000 HD 
HETATM   17  N   UNL     1      -9.624   3.293  66.951  1.00  0.00    -0.398 N  
HETATM   18  H2  UNL     1      -9.856   3.591  67.899  1.00  0.00     0.000 HD 
HETATM   19  O   UNL     1      -9.653   4.384  64.679  1.00  0.00    -0.160 OA 
HETATM   20  O   UNL     1      -7.552   3.335  65.600  1.00  0.00    -0.075 OA 
ENDBRANCH   9  15
BRANCH  13  21
HETATM   21  C   UNL     1      -9.763  11.433  67.147  1.00  0.00    -0.182 A  
HETATM   22  C   UNL     1      -9.702  12.472  66.211  1.00  0.00    -0.259 A  
HETATM   23  C   UNL     1     -10.678  13.470  66.196  1.00  0.00    -0.289 A  
HETATM   24  C   UNL     1     -11.723  13.439  67.115  1.00  0.00    -0.424 A  
HETATM   25  C   UNL     1     -11.798  12.403  68.045  1.00  0.00    -0.376 A  
HETATM   26  C   UNL     1     -10.839  11.376  68.058  1.00  0.00    -0.264 A  
HETATM   27  C   UNL     1     -11.042  10.242  69.025  1.00  0.00    -0.277 C  
ENDBRANCH  13  21
TORSDOF 2
ENDMDL
MODEL      101
REMARK 921   NORMALIZED FREE ENERGY PREDICTED BY IDOCK:   -3.53 KCAL/MOL
REMARK 922        TOTAL FREE ENERGY PREDICTED BY IDOCK:   -4.68 KCAL/MOL
REMARK 923 INTER-LIGAND FREE ENERGY PREDICTED BY IDOCK:   -4.78 KCAL/MOL
REMARK 924 INTRA-LIGAND FREE ENERGY PREDICTED BY IDOCK:    0.10 KCAL/MOL
REMARK 927      BINDING AFFINITY PREDICTED BY RF-SCORE:    0.00 PKD
ROOT
HETATM    1  C   UNL     1      -8.055   8.998  70.547  1.00  0.00    -0.169 C  
HETATM    2  C   UNL     1      -8.914  10.100  69.930  1.00  0.00    -0.067 C  
HETATM    3  N   UNL     1      -8.059  11.011  69.165  1.00  0.00    -0.319 NA 
HETATM    4  H   UNL     1      -7.042  10.940  69.163  1.00  0.00     0.000 HD 
HETATM    5  C   UNL     1      -8.751  11.992  68.433  1.00  0.00    -0.147 A  
HETATM    6  C   UNL     1      -8.037  13.002  67.785  1.00  0.00    -0.168 A  
HETATM    7  C   UNL     1      -8.704  14.052  67.134  1.00  0.00    -0.221 A  
HETATM    8 CL   UNL     1      -7.708  15.225  66.350  1.00  0.00     0.419 Cl 
HETATM    9  C   UNL     1     -10.102  14.100  67.158  1.00  0.00    -0.258 A  
HETATM   10  C   UNL     1     -10.832  13.067  67.756  1.00  0.00    -0.257 A  
HETATM   11  O   UNL     1     -12.101  10.734  68.669  1.00  0.00    -0.480 OA 
HETATM   12  C   UNL     1     -10.151  12.012  68.366  1.00  0.00    -0.211 A  
HETATM   13  N   UNL     1     -10.025   9.728  69.083  1.00  0.00    -0.179 N  
HETATM   14  C   UNL     1     -10.881  10.782  68.768  1.00  0.00    -0.221 C  
ENDROOT
BRANCH   9  15
HETATM   15  S   UNL     1     -10.991  15.445  66.449  1.00  0.00    -0.227 S  
HETATM   16  H1  UNL     1     -11.298  17.437  67.181  1.00  0.00     0.000 HD 
HETATM   17  N   UNL     1     -10.783  16.658  67.592  1.00  0.00    -0.328 N  
HETATM   18  H2  UNL     1     -10.270  16.625  68.473  1.00  0.00     0.000 HD 
HETATM   19  O   UNL     1     -10.340  15.871  65.238  1.00  0.00    -0.418 OA 
HETATM   20  O   UNL     1     -12.405  15.148  66.493  1.00  0.00     0.228 OA 
ENDBRANCH   9  15
BRANCH  13  21
HETATM   21  C   UNL     1     -10.483   8.391  68.984  1.00  0.00    -0.201 A  
HETATM   22  C   UNL     1     -10.189   7.624  67.850  1.00  0.00    -0.250 A  
HETATM   23  C   UNL     1     -10.522   6.269  67.807  1.00  0.00    -0.289 A  
HETATM   24  C   UNL     1     -11.150   5.669  68.894  1.00  0.00     0.021 A  
HETATM   25  C   UNL     1     -11.439   6.422  70.032  1.00  0.00    -0.496 A  
HETATM   26  C   UNL     1     -11.089   7.781  70.103  1.00  0.00    -0.216 A  
HETATM   27  C   UNL     1     -11.343   8.501  71.399  1.00  0.00    -0.330 C  
ENDBRANCH  13  21
TORSDOF 2
ENDMDL
MODEL      102
REMARK 921   NORMALIZED FREE ENERGY PREDICTED BY IDOCK:   -3.50 KCAL/MOL
REMARK 922        TOTAL FREE ENERGY PREDICTED BY IDOCK:   -4.66 KCAL/MOL
REMARK 923 INTER-LIGAND FREE ENERGY PREDICTED BY IDOCK:   -4.02 KCAL/MOL
REMARK 924 INTRA-LIGAND FREE ENERGY PREDICTED BY IDOCK:   -0.64 KCAL/MOL
REMARK 927      BINDING AFFINITY PREDICTED BY RF-SCORE:    0.00 PKD
ROOT
HETATM    1  C   UNL     1      -5.497   6.900  66.568  1.00  0.00    -0.018 C  
HETATM    2  C   UNL     1      -6.868   6.953  67.237  1.00  0.00    -0.072 C  
HETATM    3  N   UNL     1      -6.713   7.378  68.631  1.00  0.00    -0.055 NA 
HETATM    4  H   UNL     1      -5.801   7.504  69.070  1.00  0.00     0.000 HD 
HETATM    5  C   UNL     1      -7.919   7.599  69.317  1.00  0.00    -0.126 A  
HETATM    6  C   UNL     1      -7.896   7.865  70.688  1.00  0.00    -0.095 A  
HETATM    7  C   UNL     1      -9.089   7.987  71.418  1.00  0.00    -0.141 A  
HETATM    8 CL   UNL     1      -8.926   8.340  73.101  1.00  0.00    -0.321 Cl 
HETATM    9  C   UNL     1     -10.316   7.814  70.768  1.00  0.00    -0.203 A  
HETATM   10  C   UNL     1     -10.357   7.602  69.385  1.00  0.00    -0.214 A  
HETATM   11  O   UNL     1     -10.237   7.559  66.580  1.00  0.00    -0.250 OA 
HETATM   12  C   UNL     1      -9.161   7.520  68.671  1.00  0.00    -0.144 A  
HETATM   13  N   UNL     1      -7.904   7.769  66.644  1.00  0.00    -0.100 N  
HETATM   14  C   UNL     1      -9.172   7.564  67.185  1.00  0.00    -0.136 C  
ENDROOT
BRANCH   9  15
HETATM   15  S   UNL     1     -11.840   7.853  71.650  1.00  0.00    -0.302 S  
HETATM   16  H1  UNL     1     -13.790   7.179  71.067  1.00  0.00     0.000 HD 
HETATM   17  N   UNL     1     -12.908   7.157  70.556  1.00  0.00    -0.502 N  
HETATM   18  H2  UNL     1     -12.721   6.800  69.619  1.00  0.00     0.000 HD 
HETATM   19  O   UNL     1     -11.760   6.984  72.794  1.00  0.00    -0.176 OA 
HETATM   20  O   UNL     1     -12.283   9.225  71.761  1.00  0.00    -0.341 OA 
ENDBRANCH   9  15
BRANCH  13  21
HETATM   21  C   UNL     1      -7.769   8.339  65.355  1.00  0.00    -0.103 A  
HETATM   22  C   UNL     1      -8.001   7.566  64.211  1.00  0.00    -0.109 A  
HETATM   23  C   UNL     1      -8.001   8.156  62.945  1.00  0.00    -0.157 A  
HETATM   24  C   UNL     1      -7.771   9.522  62.812  1.00  0.00    -0.116 A  
HETATM   25  C   UNL     1      -7.548  10.303  63.946  1.00  0.00    -0.084 A  
HETATM   26  C   UNL     1      -7.569   9.731  65.229  1.00  0.00    -0.119 A  
HETATM   27  C   UNL     1      -7.420  10.652  66.408  1.00  0.00    -0.138 C  
ENDBRANCH  13  21
TORSDOF 2
ENDMDL
MODEL      103
REMARK 921   NORMALIZED FREE ENERGY PREDICTED BY IDOCK:   -3.48 KCAL/MOL
REMARK 922        TOTAL FREE ENERGY PREDICTED BY IDOCK:   -4.63 KCAL/MOL
REMARK 923 INTER-LIGAND FREE ENERGY PREDICTED BY IDOCK:   -3.91 KCAL/MOL
REMARK 924 INTRA-LIGAND FREE ENERGY PREDICTED BY IDOCK:   -0.73 KCAL/MOL
REMARK 927      BINDING AFFINITY PREDICTED BY RF-SCORE:    0.00 PKD
ROOT
HETATM    1  C   UNL     1      -7.391   6.490  69.674  1.00  0.00    -0.084 C  
HETATM    2  C   UNL     1      -8.247   7.649  69.169  1.00  0.00    -0.130 C  
HETATM    3  N   UNL     1      -7.476   8.893  69.250  1.00  0.00    -0.073 NA 
HETATM    4  H   UNL     1      -6.554   8.942  69.682  1.00  0.00     0.000 HD 
HETATM    5  C   UNL     1      -8.107  10.014  68.684  1.00  0.00    -0.102 A  
HETATM    6  C   UNL     1      -7.532  11.278  68.831  1.00  0.00    -0.123 A  
HETATM    7  C   UNL     1      -8.191  12.428  68.368  1.00  0.00    -0.144 A  
HETATM    8 CL   UNL     1      -7.365  13.928  68.589  1.00  0.00    -0.113 Cl 
HETATM    9  C   UNL     1      -9.452  12.307  67.774  1.00  0.00    -0.197 A  
HETATM   10  C   UNL     1     -10.017  11.043  67.569  1.00  0.00    -0.199 A  
HETATM   11  O   UNL     1     -10.795   8.424  66.922  1.00  0.00    -0.211 OA 
HETATM   12  C   UNL     1      -9.329   9.909  68.004  1.00  0.00    -0.140 A  
HETATM   13  N   UNL     1      -8.816   7.572  67.843  1.00  0.00    -0.126 N  
HETATM   14  C   UNL     1      -9.765   8.556  67.571  1.00  0.00    -0.162 C  
ENDROOT
BRANCH   9  15
HETATM   15  S   UNL     1     -10.372  13.721  67.266  1.00  0.00    -0.254 S  
HETATM   16  H1  UNL     1     -12.366  13.866  66.491  1.00  0.00     0.000 HD 
HETATM   17  N   UNL     1     -11.833  13.047  66.785  1.00  0.00    -0.386 N  
HETATM   18  H2  UNL     1     -12.117  12.067  66.786  1.00  0.00     0.000 HD 
HETATM   19  O   UNL     1     -10.635  14.562  68.404  1.00  0.00    -0.233 OA 
HETATM   20  O   UNL     1      -9.797  14.242  66.047  1.00  0.00    -0.302 OA 
ENDBRANCH   9  15
BRANCH  13  21
HETATM   21  C   UNL     1      -8.799   6.377  67.083  1.00  0.00    -0.113 A  
HETATM   22  C   UNL     1      -9.798   5.412  67.258  1.00  0.00    -0.175 A  
HETATM   23  C   UNL     1      -9.861   4.298  66.419  1.00  0.00    -0.236 A  
HETATM   24  C   UNL     1      -8.927   4.139  65.399  1.00  0.00    -0.132 A  
HETATM   25  C   UNL     1      -7.934   5.099  65.210  1.00  0.00    -0.108 A  
HETATM   26  C   UNL     1      -7.871   6.239  66.029  1.00  0.00    -0.106 A  
HETATM   27  C   UNL     1      -6.833   7.277  65.702  1.00  0.00    -0.056 C  
ENDBRANCH  13  21
TORSDOF 2
ENDMDL
MODEL      104
REMARK 921   NORMALIZED FREE ENERGY PREDICTED BY IDOCK:   -3.48 KCAL/MOL
REMARK 922        TOTAL FREE ENERGY PREDICTED BY IDOCK:   -4.63 KCAL/MOL
REMARK 923 INTER-LIGAND FREE ENERGY PREDICTED BY IDOCK:   -4.39 KCAL/MOL
REMARK 924 INTRA-LIGAND FREE ENERGY PREDICTED BY IDOCK:   -0.25 KCAL/MOL
REMARK 927      BINDING AFFINITY PREDICTED BY RF-SCORE:    0.00 PKD
ROOT
HETATM    1  C   UNL     1     -10.141   4.449  66.038  1.00  0.00    -0.260 C  
HETATM    2  C   UNL     1      -9.429   5.709  66.524  1.00  0.00    -0.152 C  
HETATM    3  N   UNL     1     -10.259   6.880  66.227  1.00  0.00    -0.437 NA 
HETATM    4  H   UNL     1     -11.121   6.821  65.684  1.00  0.00     0.000 HD 
HETATM    5  C   UNL     1      -9.775   8.092  66.749  1.00  0.00    -0.237 A  
HETATM    6  C   UNL     1     -10.404   9.291  66.408  1.00  0.00    -0.238 A  
HETATM    7  C   UNL     1      -9.882  10.524  66.830  1.00  0.00    -0.193 A  
HETATM    8 CL   UNL     1     -10.764  11.933  66.362  1.00  0.00    -0.291 Cl 
HETATM    9  C   UNL     1      -8.701  10.552  67.580  1.00  0.00    -0.121 A  
HETATM   10  C   UNL     1      -8.090   9.357  67.977  1.00  0.00    -0.106 A  
HETATM   11  O   UNL     1      -7.239   6.873  68.972  1.00  0.00    -0.085 OA 
HETATM   12  C   UNL     1      -8.645   8.140  67.578  1.00  0.00    -0.129 A  
HETATM   13  N   UNL     1      -9.029   5.796  67.910  1.00  0.00    -0.112 N  
HETATM   14  C   UNL     1      -8.185   6.868  68.194  1.00  0.00    -0.119 C  
ENDROOT
BRANCH   9  15
HETATM   15  S   UNL     1      -7.942  12.070  68.051  1.00  0.00    -0.160 S  
HETATM   16  H1  UNL     1      -6.492  13.267  67.020  1.00  0.00     0.000 HD 
HETATM   17  N   UNL     1      -6.932  12.387  66.747  1.00  0.00    -0.352 N  
HETATM   18  H2  UNL     1      -6.793  11.840  65.898  1.00  0.00     0.000 HD 
HETATM   19  O   UNL     1      -8.933  13.113  68.097  1.00  0.00    -0.187 OA 
HETATM   20  O   UNL     1      -7.041  11.822  69.153  1.00  0.00    -0.109 OA 
ENDBRANCH   9  15
BRANCH  13  21
HETATM   21  C   UNL     1      -9.069   4.678  68.778  1.00  0.00    -0.116 A  
HETATM   22  C   UNL     1      -8.095   3.676  68.687  1.00  0.00    -0.076 A  
HETATM   23  C   UNL     1      -8.051   2.644  69.626  1.00  0.00    -0.057 A  
HETATM   24  C   UNL     1      -8.979   2.604  70.663  1.00  0.00    -0.163 A  
HETATM   25  C   UNL     1      -9.947   3.602  70.767  1.00  0.00    -0.021 A  
HETATM   26  C   UNL     1      -9.990   4.662  69.847  1.00  0.00    -0.296 A  
HETATM   27  C   UNL     1     -11.000   5.752  70.082  1.00  0.00    -0.368 C  
ENDBRANCH  13  21
TORSDOF 2
ENDMDL
MODEL      105
REMARK 921   NORMALIZED FREE ENERGY PREDICTED BY IDOCK:   -3.46 KCAL/MOL
REMARK 922        TOTAL FREE ENERGY PREDICTED BY IDOCK:   -4.61 KCAL/MOL
REMARK 923 INTER-LIGAND FREE ENERGY PREDICTED BY IDOCK:   -4.58 KCAL/MOL
REMARK 924 INTRA-LIGAND FREE ENERGY PREDICTED BY IDOCK:   -0.03 KCAL/MOL
REMARK 927      BINDING AFFINITY PREDICTED BY RF-SCORE:    0.00 PKD
ROOT
HETATM    1  C   UNL     1      -5.510  11.157  66.172  1.00  0.00    -0.143 C  
HETATM    2  C   UNL     1      -6.734  11.514  67.013  1.00  0.00    -0.143 C  
HETATM    3  N   UNL     1      -6.886  12.971  67.055  1.00  0.00    -0.427 NA 
HETATM    4  H   UNL     1      -6.195  13.608  66.657  1.00  0.00     0.000 HD 
HETATM    5  C   UNL     1      -8.057  13.423  67.685  1.00  0.00    -0.175 A  
HETATM    6  C   UNL     1      -8.238  14.789  67.912  1.00  0.00    -0.154 A  
HETATM    7  C   UNL     1      -9.348  15.260  68.630  1.00  0.00    -0.201 A  
HETATM    8 CL   UNL     1      -9.468  16.972  68.823  1.00  0.00    -0.267 Cl 
HETATM    9  C   UNL     1     -10.272  14.346  69.148  1.00  0.00    -0.127 A  
HETATM   10  C   UNL     1     -10.135  12.978  68.883  1.00  0.00     0.031 A  
HETATM   11  O   UNL     1      -9.887  10.348  67.932  1.00  0.00    -0.151 OA 
HETATM   12  C   UNL     1      -9.044  12.533  68.135  1.00  0.00    -0.204 A  
HETATM   13  N   UNL     1      -8.016  10.951  66.655  1.00  0.00    -0.142 N  
HETATM   14  C   UNL     1      -9.011  11.142  67.613  1.00  0.00    -0.140 C  
ENDROOT
BRANCH   9  15
HETATM   15  S   UNL     1     -11.627  14.868  70.145  1.00  0.00    -0.307 S  
HETATM   16  H1  UNL     1     -13.309  16.103  69.651  1.00  0.00     0.000 HD 
HETATM   17  N   UNL     1     -12.524  15.801  69.074  1.00  0.00    -0.459 N  
HETATM   18  H2  UNL     1     -12.333  16.012  68.095  1.00  0.00     0.000 HD 
HETATM   19  O   UNL     1     -12.429  13.729  70.507  1.00  0.00    -0.337 OA 
HETATM   20  O   UNL     1     -11.149  15.810  71.131  1.00  0.00    -0.339 OA 
ENDBRANCH   9  15
BRANCH  13  21
HETATM   21  C   UNL     1      -8.144   9.912  65.702  1.00  0.00    -0.128 A  
HETATM   22  C   UNL     1      -8.449  10.209  64.368  1.00  0.00    -0.179 A  
HETATM   23  C   UNL     1      -8.443   9.203  63.399  1.00  0.00    -0.195 A  
HETATM   24  C   UNL     1      -8.132   7.894  63.755  1.00  0.00    -0.079 A  
HETATM   25  C   UNL     1      -7.818   7.589  65.079  1.00  0.00    -0.127 A  
HETATM   26  C   UNL     1      -7.794   8.593  66.061  1.00  0.00    -0.102 A  
HETATM   27  C   UNL     1      -7.350   8.205  67.445  1.00  0.00    -0.089 C  
ENDBRANCH  13  21
TORSDOF 2
ENDMDL
MODEL      106
REMARK 921   NORMALIZED FREE ENERGY PREDICTED BY IDOCK:   -3.46 KCAL/MOL
REMARK 922        TOTAL FREE ENERGY PREDICTED BY IDOCK:   -4.61 KCAL/MOL
REMARK 923 INTER-LIGAND FREE ENERGY PREDICTED BY IDOCK:   -4.60 KCAL/MOL
REMARK 924 INTRA-LIGAND FREE ENERGY PREDICTED BY IDOCK:   -0.00 KCAL/MOL
REMARK 927      BINDING AFFINITY PREDICTED BY RF-SCORE:    0.00 PKD
ROOT
HETATM    1  C   UNL     1      -8.962  15.077  66.144  1.00  0.00    -0.158 C  
HETATM    2  C   UNL     1      -9.809  14.655  67.342  1.00  0.00    -0.222 C  
HETATM    3  N   UNL     1      -9.936  15.784  68.268  1.00  0.00    -0.219 NA 
HETATM    4  H   UNL     1      -9.430  16.660  68.140  1.00  0.00     0.000 HD 
HETATM    5  C   UNL     1     -10.809  15.565  69.347  1.00  0.00    -0.261 A  
HETATM    6  C   UNL     1     -10.897  16.513  70.369  1.00  0.00    -0.086 A  
HETATM    7  C   UNL     1     -11.681  16.273  71.508  1.00  0.00    -0.403 A  
HETATM    8 CL   UNL     1     -11.725  17.533  72.689  1.00  0.00     1.065 Cl 
HETATM    9  C   UNL     1     -12.363  15.058  71.633  1.00  0.00    -0.342 A  
HETATM   10  C   UNL     1     -12.329  14.121  70.594  1.00  0.00    -0.435 A  
HETATM   11  O   UNL     1     -12.434  12.557  68.264  1.00  0.00     0.026 OA 
HETATM   12  C   UNL     1     -11.573  14.393  69.453  1.00  0.00    -0.349 A  
HETATM   13  N   UNL     1     -11.135  14.129  67.110  1.00  0.00    -0.299 N  
HETATM   14  C   UNL     1     -11.727  13.556  68.234  1.00  0.00    -0.359 C  
ENDROOT
BRANCH   9  15
HETATM   15  S   UNL     1     -13.278  14.658  73.084  1.00  0.00    -0.261 S  
HETATM   16  H1  UNL     1     -12.624  14.441  75.114  1.00  0.00     0.000 HD 
HETATM   17  N   UNL     1     -12.094  14.673  74.274  1.00  0.00    -0.232 N  
HETATM   18  H2  UNL     1     -11.096  14.865  74.181  1.00  0.00     0.000 HD 
HETATM   19  O   UNL     1     -14.205  15.718  73.379  1.00  0.00     0.145 OA 
HETATM   20  O   UNL     1     -13.696  13.276  73.008  1.00  0.00    -0.448 OA 
ENDBRANCH   9  15
BRANCH  13  21
HETATM   21  C   UNL     1     -11.592  13.781  65.816  1.00  0.00    -0.331 A  
HETATM   22  C   UNL     1     -12.282  14.714  65.033  1.00  0.00    -0.323 A  
HETATM   23  C   UNL     1     -12.615  14.420  63.709  1.00  0.00     0.319 A  
HETATM   24  C   UNL     1     -12.262  13.193  63.157  1.00  0.00    -0.275 A  
HETATM   25  C   UNL     1     -11.566  12.260  63.925  1.00  0.00    -0.525 A  
HETATM   26  C   UNL     1     -11.200  12.548  65.250  1.00  0.00    -0.341 A  
HETATM   27  C   UNL     1     -10.366  11.533  65.982  1.00  0.00    -0.290 C  
ENDBRANCH  13  21
TORSDOF 2
ENDMDL
MODEL      107
REMARK 921   NORMALIZED FREE ENERGY PREDICTED BY IDOCK:   -3.43 KCAL/MOL
REMARK 922        TOTAL FREE ENERGY PREDICTED BY IDOCK:   -4.57 KCAL/MOL
REMARK 923 INTER-LIGAND FREE ENERGY PREDICTED BY IDOCK:   -4.05 KCAL/MOL
REMARK 924 INTRA-LIGAND FREE ENERGY PREDICTED BY IDOCK:   -0.52 KCAL/MOL
REMARK 927      BINDING AFFINITY PREDICTED BY RF-SCORE:    0.00 PKD
ROOT
HETATM    1  C   UNL     1      -6.463   6.290  65.584  1.00  0.00    -0.039 C  
HETATM    2  C   UNL     1      -7.347   6.882  66.679  1.00  0.00    -0.077 C  
HETATM    3  N   UNL     1      -8.140   7.982  66.121  1.00  0.00    -0.106 NA 
HETATM    4  H   UNL     1      -8.008   8.329  65.171  1.00  0.00     0.000 HD 
HETATM    5  C   UNL     1      -9.097   8.522  66.997  1.00  0.00    -0.143 A  
HETATM    6  C   UNL     1      -9.807   9.665  66.626  1.00  0.00    -0.285 A  
HETATM    7  C   UNL     1     -10.693  10.285  67.521  1.00  0.00    -0.294 A  
HETATM    8 CL   UNL     1     -11.529  11.677  66.933  1.00  0.00    -0.367 Cl 
HETATM    9  C   UNL     1     -10.845   9.765  68.811  1.00  0.00    -0.188 A  
HETATM   10  C   UNL     1     -10.183   8.589  69.180  1.00  0.00    -0.218 A  
HETATM   11  O   UNL     1      -9.068   6.045  69.591  1.00  0.00    -0.133 OA 
HETATM   12  C   UNL     1      -9.334   7.967  68.263  1.00  0.00    -0.145 A  
HETATM   13  N   UNL     1      -8.251   6.011  67.395  1.00  0.00    -0.106 N  
HETATM   14  C   UNL     1      -8.831   6.592  68.521  1.00  0.00    -0.122 C  
ENDROOT
BRANCH   9  15
HETATM   15  S   UNL     1     -11.862  10.559  70.011  1.00  0.00    -0.308 S  
HETATM   16  H1  UNL     1     -11.763  12.546  70.809  1.00  0.00     0.000 HD 
HETATM   17  N   UNL     1     -11.174  12.087  70.114  1.00  0.00    -0.430 N  
HETATM   18  H2  UNL     1     -10.370  12.461  69.610  1.00  0.00     0.000 HD 
HETATM   19  O   UNL     1     -13.194  10.716  69.489  1.00  0.00     0.110 OA 
HETATM   20  O   UNL     1     -11.613   9.963  71.304  1.00  0.00    -0.360 OA 
ENDBRANCH   9  15
BRANCH  13  21
HETATM   21  C   UNL     1      -8.190   4.601  67.279  1.00  0.00    -0.105 A  
HETATM   22  C   UNL     1      -7.224   3.874  67.985  1.00  0.00    -0.059 A  
HETATM   23  C   UNL     1      -7.245   2.478  67.980  1.00  0.00    -0.048 A  
HETATM   24  C   UNL     1      -8.230   1.797  67.271  1.00  0.00    -0.075 A  
HETATM   25  C   UNL     1      -9.203   2.512  66.572  1.00  0.00    -0.059 A  
HETATM   26  C   UNL     1      -9.212   3.917  66.587  1.00  0.00    -0.181 A  
HETATM   27  C   UNL     1     -10.349   4.616  65.893  1.00  0.00    -0.315 C  
ENDBRANCH  13  21
TORSDOF 2
ENDMDL
MODEL      108
REMARK 921   NORMALIZED FREE ENERGY PREDICTED BY IDOCK:   -3.41 KCAL/MOL
REMARK 922        TOTAL FREE ENERGY PREDICTED BY IDOCK:   -4.55 KCAL/MOL
REMARK 923 INTER-LIGAND FREE ENERGY PREDICTED BY IDOCK:   -4.64 KCAL/MOL
REMARK 924 INTRA-LIGAND FREE ENERGY PREDICTED BY IDOCK:    0.09 KCAL/MOL
REMARK 927      BINDING AFFINITY PREDICTED BY RF-SCORE:    0.00 PKD
ROOT
HETATM    1  C   UNL     1      -6.045  12.521  69.996  1.00  0.00    -0.117 C  
HETATM    2  C   UNL     1      -7.010  13.446  69.258  1.00  0.00     0.006 C  
HETATM    3  N   UNL     1      -6.538  14.829  69.370  1.00  0.00    -0.130 NA 
HETATM    4  H   UNL     1      -5.742  15.094  69.950  1.00  0.00     0.000 HD 
HETATM    5  C   UNL     1      -7.268  15.763  68.614  1.00  0.00    -0.135 A  
HETATM    6  C   UNL     1      -7.001  17.126  68.756  1.00  0.00    -0.217 A  
HETATM    7  C   UNL     1      -7.782  18.085  68.093  1.00  0.00    -0.272 A  
HETATM    8 CL   UNL     1      -7.336  19.737  68.331  1.00  0.00    -0.348 Cl 
HETATM    9  C   UNL     1      -8.858  17.670  67.301  1.00  0.00    -0.236 A  
HETATM   10  C   UNL     1      -9.105  16.307  67.105  1.00  0.00    -0.217 A  
HETATM   11  O   UNL     1      -9.197  13.556  66.547  1.00  0.00    -0.243 OA 
HETATM   12  C   UNL     1      -8.294  15.367  67.743  1.00  0.00    -0.156 A  
HETATM   13  N   UNL     1      -7.293  13.191  67.864  1.00  0.00    -0.114 N  
HETATM   14  C   UNL     1      -8.355  13.935  67.352  1.00  0.00    -0.198 C  
ENDROOT
BRANCH   9  15
HETATM   15  S   UNL     1      -9.936  18.830  66.528  1.00  0.00    -0.401 S  
HETATM   16  H1  UNL     1      -9.485  20.556  65.340  1.00  0.00     0.000 HD 
HETATM   17  N   UNL     1      -8.861  19.885  65.787  1.00  0.00    -0.321 N  
HETATM   18  H2  UNL     1      -7.841  19.861  65.785  1.00  0.00     0.000 HD 
HETATM   19  O   UNL     1     -10.688  18.175  65.490  1.00  0.00    -0.599 OA 
HETATM   20  O   UNL     1     -10.578  19.626  67.549  1.00  0.00    -0.442 OA 
ENDBRANCH   9  15
BRANCH  13  21
HETATM   21  C   UNL     1      -6.890  11.997  67.218  1.00  0.00    -0.150 A  
HETATM   22  C   UNL     1      -5.710  11.962  66.466  1.00  0.00     0.152 A  
HETATM   23  C   UNL     1      -5.241  10.756  65.941  1.00  0.00    -0.115 A  
HETATM   24  C   UNL     1      -5.945   9.577  66.163  1.00  0.00    -0.062 A  
HETATM   25  C   UNL     1      -7.117   9.599  66.919  1.00  0.00    -0.086 A  
HETATM   26  C   UNL     1      -7.591  10.799  67.476  1.00  0.00    -0.094 A  
HETATM   27  C   UNL     1      -8.805  10.728  68.360  1.00  0.00    -0.146 C  
ENDBRANCH  13  21
TORSDOF 2
ENDMDL
MODEL      109
REMARK 921   NORMALIZED FREE ENERGY PREDICTED BY IDOCK:   -3.38 KCAL/MOL
REMARK 922        TOTAL FREE ENERGY PREDICTED BY IDOCK:   -4.52 KCAL/MOL
REMARK 923 INTER-LIGAND FREE ENERGY PREDICTED BY IDOCK:   -4.13 KCAL/MOL
REMARK 924 INTRA-LIGAND FREE ENERGY PREDICTED BY IDOCK:   -0.39 KCAL/MOL
REMARK 927      BINDING AFFINITY PREDICTED BY RF-SCORE:    0.00 PKD
ROOT
HETATM    1  C   UNL     1     -10.609  10.629  66.646  1.00  0.00    -0.276 C  
HETATM    2  C   UNL     1     -10.012   9.921  67.861  1.00  0.00    -0.160 C  
HETATM    3  N   UNL     1     -11.057   9.139  68.529  1.00  0.00    -0.458 NA 
HETATM    4  H   UNL     1     -12.037   9.179  68.250  1.00  0.00     0.000 HD 
HETATM    5  C   UNL     1     -10.602   8.330  69.584  1.00  0.00    -0.222 A  
HETATM    6  C   UNL     1     -11.526   7.654  70.384  1.00  0.00    -0.192 A  
HETATM    7  C   UNL     1     -11.108   6.923  71.506  1.00  0.00    -0.244 A  
HETATM    8 CL   UNL     1     -12.344   6.113  72.400  1.00  0.00    -0.182 Cl 
HETATM    9  C   UNL     1      -9.750   6.893  71.842  1.00  0.00    -0.161 A  
HETATM   10  C   UNL     1      -8.806   7.519  71.020  1.00  0.00    -0.146 A  
HETATM   11  O   UNL     1      -7.059   8.511  69.058  1.00  0.00    -0.063 OA 
HETATM   12  C   UNL     1      -9.238   8.210  69.887  1.00  0.00    -0.151 A  
HETATM   13  N   UNL     1      -8.870   9.056  67.674  1.00  0.00    -0.124 N  
HETATM   14  C   UNL     1      -8.259   8.652  68.860  1.00  0.00    -0.123 C  
ENDROOT
BRANCH   9  15
HETATM   15  S   UNL     1      -9.177   6.078  73.296  1.00  0.00    -0.131 S  
HETATM   16  H1  UNL     1      -9.617   6.463  75.358  1.00  0.00     0.000 HD 
HETATM   17  N   UNL     1      -9.949   6.934  74.517  1.00  0.00    -0.483 N  
HETATM   18  H2  UNL     1     -10.588   7.725  74.438  1.00  0.00     0.000 HD 
HETATM   19  O   UNL     1      -9.678   4.730  73.325  1.00  0.00    -0.134 OA 
HETATM   20  O   UNL     1      -7.774   6.376  73.478  1.00  0.00    -0.093 OA 
ENDBRANCH   9  15
BRANCH  13  21
HETATM   21  C   UNL     1      -8.147   9.013  66.457  1.00  0.00    -0.111 A  
HETATM   22  C   UNL     1      -7.390  10.116  66.044  1.00  0.00    -0.118 A  
HETATM   23  C   UNL     1      -6.570  10.030  64.917  1.00  0.00    -0.126 A  
HETATM   24  C   UNL     1      -6.500   8.843  64.194  1.00  0.00    -0.079 A  
HETATM   25  C   UNL     1      -7.244   7.736  64.602  1.00  0.00    -0.072 A  
HETATM   26  C   UNL     1      -8.054   7.796  65.748  1.00  0.00    -0.125 A  
HETATM   27  C   UNL     1      -8.747   6.534  66.181  1.00  0.00    -0.153 C  
ENDBRANCH  13  21
TORSDOF 2
ENDMDL
MODEL      110
REMARK 921   NORMALIZED FREE ENERGY PREDICTED BY IDOCK:   -3.37 KCAL/MOL
REMARK 922        TOTAL FREE ENERGY PREDICTED BY IDOCK:   -4.51 KCAL/MOL
REMARK 923 INTER-LIGAND FREE ENERGY PREDICTED BY IDOCK:   -4.03 KCAL/MOL
REMARK 924 INTRA-LIGAND FREE ENERGY PREDICTED BY IDOCK:   -0.48 KCAL/MOL
REMARK 927      BINDING AFFINITY PREDICTED BY RF-SCORE:    0.00 PKD
ROOT
HETATM    1  C   UNL     1      -6.009   5.811  70.062  1.00  0.00    -0.025 C  
HETATM    2  C   UNL     1      -7.202   6.744  69.866  1.00  0.00    -0.080 C  
HETATM    3  N   UNL     1      -6.768   7.941  69.140  1.00  0.00    -0.047 NA 
HETATM    4  H   UNL     1      -5.790   8.125  68.916  1.00  0.00     0.000 HD 
HETATM    5  C   UNL     1      -7.806   8.817  68.777  1.00  0.00    -0.101 A  
HETATM    6  C   UNL     1      -7.497  10.056  68.211  1.00  0.00    -0.079 A  
HETATM    7  C   UNL     1      -8.506  10.992  67.934  1.00  0.00    -0.128 A  
HETATM    8 CL   UNL     1      -7.998  12.478  67.214  1.00  0.00    -0.179 Cl 
HETATM    9  C   UNL     1      -9.834  10.690  68.254  1.00  0.00    -0.163 A  
HETATM   10  C   UNL     1     -10.166   9.432  68.770  1.00  0.00    -0.221 A  
HETATM   11  O   UNL     1     -10.660   6.750  69.438  1.00  0.00    -0.208 OA 
HETATM   12  C   UNL     1      -9.153   8.500  69.004  1.00  0.00    -0.146 A  
HETATM   13  N   UNL     1      -8.385   6.238  69.209  1.00  0.00    -0.116 N  
HETATM   14  C   UNL     1      -9.491   7.082  69.293  1.00  0.00    -0.147 C  
ENDROOT
BRANCH   9  15
HETATM   15  S   UNL     1     -11.128  11.863  68.025  1.00  0.00    -0.261 S  
HETATM   16  H1  UNL     1     -11.957  12.671  66.221  1.00  0.00     0.000 HD 
HETATM   17  N   UNL     1     -11.208  11.992  66.353  1.00  0.00    -0.322 N  
HETATM   18  H2  UNL     1     -10.649  11.512  65.647  1.00  0.00     0.000 HD 
HETATM   19  O   UNL     1     -12.374  11.303  68.478  1.00  0.00    -0.543 OA 
HETATM   20  O   UNL     1     -10.668  13.160  68.466  1.00  0.00    -0.247 OA 
ENDBRANCH   9  15
BRANCH  13  21
HETATM   21  C   UNL     1      -8.567   4.859  68.940  1.00  0.00    -0.085 A  
HETATM   22  C   UNL     1      -9.007   3.994  69.949  1.00  0.00    -0.161 A  
HETATM   23  C   UNL     1      -9.316   2.664  69.656  1.00  0.00    -0.184 A  
HETATM   24  C   UNL     1      -9.190   2.189  68.354  1.00  0.00    -0.236 A  
HETATM   25  C   UNL     1      -8.762   3.045  67.340  1.00  0.00    -0.139 A  
HETATM   26  C   UNL     1      -8.471   4.393  67.612  1.00  0.00    -0.100 A  
HETATM   27  C   UNL     1      -8.111   5.278  66.451  1.00  0.00    -0.108 C  
ENDBRANCH  13  21
TORSDOF 2
ENDMDL
MODEL      111
REMARK 921   NORMALIZED FREE ENERGY PREDICTED BY IDOCK:   -3.36 KCAL/MOL
REMARK 922        TOTAL FREE ENERGY PREDICTED BY IDOCK:   -4.50 KCAL/MOL
REMARK 923 INTER-LIGAND FREE ENERGY PREDICTED BY IDOCK:   -4.38 KCAL/MOL
REMARK 924 INTRA-LIGAND FREE ENERGY PREDICTED BY IDOCK:   -0.12 KCAL/MOL
REMARK 927      BINDING AFFINITY PREDICTED BY RF-SCORE:    0.00 PKD
ROOT
HETATM    1  C   UNL     1      -8.506   8.337  72.579  1.00  0.00    -0.251 C  
HETATM    2  C   UNL     1      -8.406   8.112  71.072  1.00  0.00    -0.120 C  
HETATM    3  N   UNL     1      -7.737   6.833  70.815  1.00  0.00    -0.092 NA 
HETATM    4  H   UNL     1      -7.325   6.269  71.559  1.00  0.00     0.000 HD 
HETATM    5  C   UNL     1      -7.706   6.445  69.465  1.00  0.00    -0.100 A  
HETATM    6  C   UNL     1      -6.970   5.320  69.086  1.00  0.00    -0.056 A  
HETATM    7  C   UNL     1      -6.837   4.969  67.733  1.00  0.00    -0.060 A  
HETATM    8 CL   UNL     1      -5.922   3.544  67.396  1.00  0.00    -0.023 Cl 
HETATM    9  C   UNL     1      -7.428   5.772  66.751  1.00  0.00    -0.084 A  
HETATM   10  C   UNL     1      -8.214   6.871  67.118  1.00  0.00    -0.118 A  
HETATM   11  O   UNL     1     -10.036   8.786  68.066  1.00  0.00    -0.166 OA 
HETATM   12  C   UNL     1      -8.365   7.182  68.470  1.00  0.00    -0.125 A  
HETATM   13  N   UNL     1      -9.614   8.140  70.279  1.00  0.00    -0.170 N  
HETATM   14  C   UNL     1      -9.394   8.163  68.903  1.00  0.00    -0.147 C  
ENDROOT
BRANCH   9  15
HETATM   15  S   UNL     1      -7.210   5.442  65.035  1.00  0.00    -0.068 S  
HETATM   16  H1  UNL     1      -6.452   6.699  63.472  1.00  0.00     0.000 HD 
HETATM   17  N   UNL     1      -6.579   6.890  64.466  1.00  0.00    -0.042 N  
HETATM   18  H2  UNL     1      -6.373   7.745  64.983  1.00  0.00     0.000 HD 
HETATM   19  O   UNL     1      -6.202   4.430  64.861  1.00  0.00    -0.031 OA 
HETATM   20  O   UNL     1      -8.508   5.343  64.408  1.00  0.00    -0.139 OA 
ENDBRANCH   9  15
BRANCH  13  21
HETATM   21  C   UNL     1     -10.850   8.587  70.805  1.00  0.00    -0.231 A  
HETATM   22  C   UNL     1     -11.177   9.949  70.786  1.00  0.00    -0.427 A  
HETATM   23  C   UNL     1     -12.446  10.378  71.177  1.00  0.00    -0.509 A  
HETATM   24  C   UNL     1     -13.400   9.452  71.591  1.00  0.00    -0.477 A  
HETATM   25  C   UNL     1     -13.088   8.093  71.605  1.00  0.00    -0.358 A  
HETATM   26  C   UNL     1     -11.824   7.641  71.189  1.00  0.00    -0.314 A  
HETATM   27  C   UNL     1     -11.595   6.155  71.138  1.00  0.00    -0.269 C  
ENDBRANCH  13  21
TORSDOF 2
ENDMDL
MODEL      112
REMARK 921   NORMALIZED FREE ENERGY PREDICTED BY IDOCK:   -3.32 KCAL/MOL
REMARK 922        TOTAL FREE ENERGY PREDICTED BY IDOCK:   -4.45 KCAL/MOL
REMARK 923 INTER-LIGAND FREE ENERGY PREDICTED BY IDOCK:   -4.40 KCAL/MOL
REMARK 924 INTRA-LIGAND FREE ENERGY PREDICTED BY IDOCK:   -0.05 KCAL/MOL
REMARK 927      BINDING AFFINITY PREDICTED BY RF-SCORE:    0.00 PKD
ROOT
HETATM    1  C   UNL     1     -10.444  10.608  67.631  1.00  0.00    -0.267 C  
HETATM    2  C   UNL     1      -9.589  11.858  67.434  1.00  0.00    -0.174 C  
HETATM    3  N   UNL     1     -10.275  13.013  68.020  1.00  0.00    -0.227 NA 
HETATM    4  H   UNL     1     -11.222  12.959  68.395  1.00  0.00     0.000 HD 
HETATM    5  C   UNL     1      -9.526  14.202  68.025  1.00  0.00    -0.213 A  
HETATM    6  C   UNL     1     -10.129  15.397  68.424  1.00  0.00    -0.215 A  
HETATM    7  C   UNL     1      -9.437  16.615  68.341  1.00  0.00    -0.231 A  
HETATM    8 CL   UNL     1     -10.284  18.018  68.888  1.00  0.00    -0.372 Cl 
HETATM    9  C   UNL     1      -8.136  16.636  67.826  1.00  0.00    -0.176 A  
HETATM   10  C   UNL     1      -7.499  15.441  67.473  1.00  0.00    -0.215 A  
HETATM   11  O   UNL     1      -6.282  12.928  67.179  1.00  0.00    -0.281 OA 
HETATM   12  C   UNL     1      -8.191  14.235  67.598  1.00  0.00    -0.193 A  
HETATM   13  N   UNL     1      -8.230  11.860  67.926  1.00  0.00    -0.141 N  
HETATM   14  C   UNL     1      -7.467  12.942  67.490  1.00  0.00    -0.155 C  
ENDROOT
BRANCH   9  15
HETATM   15  S   UNL     1      -7.257  18.146  67.601  1.00  0.00    -0.210 S  
HETATM   16  H1  UNL     1      -7.743  19.863  66.414  1.00  0.00     0.000 HD 
HETATM   17  N   UNL     1      -8.252  18.989  66.544  1.00  0.00    -0.292 N  
HETATM   18  H2  UNL     1      -9.141  18.701  66.135  1.00  0.00     0.000 HD 
HETATM   19  O   UNL     1      -7.222  18.875  68.841  1.00  0.00    -0.305 OA 
HETATM   20  O   UNL     1      -6.060  17.881  66.836  1.00  0.00    -0.140 OA 
ENDBRANCH   9  15
BRANCH  13  21
HETATM   21  C   UNL     1      -7.591  10.681  68.380  1.00  0.00    -0.100 A  
HETATM   22  C   UNL     1      -7.602  10.348  69.740  1.00  0.00    -0.141 A  
HETATM   23  C   UNL     1      -7.091   9.123  70.173  1.00  0.00    -0.059 A  
HETATM   24  C   UNL     1      -6.566   8.221  69.253  1.00  0.00    -0.039 A  
HETATM   25  C   UNL     1      -6.559   8.539  67.895  1.00  0.00    -0.061 A  
HETATM   26  C   UNL     1      -7.092   9.756  67.438  1.00  0.00    -0.085 A  
HETATM   27  C   UNL     1      -7.138   9.985  65.952  1.00  0.00    -0.114 C  
ENDBRANCH  13  21
TORSDOF 2
ENDMDL
MODEL      113
REMARK 921   NORMALIZED FREE ENERGY PREDICTED BY IDOCK:   -3.25 KCAL/MOL
REMARK 922        TOTAL FREE ENERGY PREDICTED BY IDOCK:   -4.37 KCAL/MOL
REMARK 923 INTER-LIGAND FREE ENERGY PREDICTED BY IDOCK:   -3.74 KCAL/MOL
REMARK 924 INTRA-LIGAND FREE ENERGY PREDICTED BY IDOCK:   -0.64 KCAL/MOL
REMARK 927      BINDING AFFINITY PREDICTED BY RF-SCORE:    0.00 PKD
ROOT
HETATM    1  C   UNL     1      -7.398   7.206  64.696  1.00  0.00    -0.079 C  
HETATM    2  C   UNL     1      -7.911   6.922  66.106  1.00  0.00    -0.110 C  
HETATM    3  N   UNL     1      -8.858   7.969  66.498  1.00  0.00    -0.143 NA 
HETATM    4  H   UNL     1      -9.032   8.796  65.926  1.00  0.00     0.000 HD 
HETATM    5  C   UNL     1      -9.507   7.747  67.725  1.00  0.00    -0.143 A  
HETATM    6  C   UNL     1     -10.320   8.745  68.268  1.00  0.00    -0.252 A  
HETATM    7  C   UNL     1     -10.897   8.591  69.538  1.00  0.00    -0.125 A  
HETATM    8 CL   UNL     1     -11.899   9.886  70.087  1.00  0.00    -0.230 Cl 
HETATM    9  C   UNL     1     -10.633   7.435  70.280  1.00  0.00    -0.231 A  
HETATM   10  C   UNL     1      -9.867   6.402  69.727  1.00  0.00    -0.189 A  
HETATM   11  O   UNL     1      -8.632   4.318  68.308  1.00  0.00    -0.092 OA 
HETATM   12  C   UNL     1      -9.332   6.558  68.448  1.00  0.00    -0.122 A  
HETATM   13  N   UNL     1      -8.533   5.646  66.379  1.00  0.00    -0.118 N  
HETATM   14  C   UNL     1      -8.748   5.393  67.733  1.00  0.00    -0.106 C  
ENDROOT
BRANCH   9  15
HETATM   15  S   UNL     1     -11.245   7.231  71.920  1.00  0.00    -0.256 S  
HETATM   16  H1  UNL     1     -11.052   5.577  73.270  1.00  0.00     0.000 HD 
HETATM   17  N   UNL     1     -10.698   5.695  72.320  1.00  0.00    -0.221 N  
HETATM   18  H2  UNL     1     -10.150   5.044  71.757  1.00  0.00     0.000 HD 
HETATM   19  O   UNL     1     -10.595   8.167  72.798  1.00  0.00    -0.332 OA 
HETATM   20  O   UNL     1     -12.683   7.100  71.871  1.00  0.00    -0.321 OA 
ENDBRANCH   9  15
BRANCH  13  21
HETATM   21  C   UNL     1      -8.484   4.571  65.459  1.00  0.00    -0.121 A  
HETATM   22  C   UNL     1      -7.279   3.899  65.218  1.00  0.00    -0.068 A  
HETATM   23  C   UNL     1      -7.254   2.756  64.416  1.00  0.00    -0.058 A  
HETATM   24  C   UNL     1      -8.431   2.275  63.850  1.00  0.00    -0.082 A  
HETATM   25  C   UNL     1      -9.637   2.931  64.091  1.00  0.00    -0.147 A  
HETATM   26  C   UNL     1      -9.686   4.067  64.915  1.00  0.00    -0.193 A  
HETATM   27  C   UNL     1     -11.036   4.661  65.209  1.00  0.00     0.001 C  
ENDBRANCH  13  21
TORSDOF 2
ENDMDL
MODEL      114
REMARK 921   NORMALIZED FREE ENERGY PREDICTED BY IDOCK:   -3.24 KCAL/MOL
REMARK 922        TOTAL FREE ENERGY PREDICTED BY IDOCK:   -4.36 KCAL/MOL
REMARK 923 INTER-LIGAND FREE ENERGY PREDICTED BY IDOCK:   -4.52 KCAL/MOL
REMARK 924 INTRA-LIGAND FREE ENERGY PREDICTED BY IDOCK:    0.16 KCAL/MOL
REMARK 927      BINDING AFFINITY PREDICTED BY RF-SCORE:    0.00 PKD
ROOT
HETATM    1  C   UNL     1      -8.032   9.309  71.089  1.00  0.00    -0.041 C  
HETATM    2  C   UNL     1      -8.299   9.405  69.589  1.00  0.00    -0.147 C  
HETATM    3  N   UNL     1      -7.237   8.706  68.861  1.00  0.00    -0.076 NA 
HETATM    4  H   UNL     1      -6.412   8.322  69.324  1.00  0.00     0.000 HD 
HETATM    5  C   UNL     1      -7.442   8.605  67.474  1.00  0.00    -0.090 A  
HETATM    6  C   UNL     1      -6.430   8.089  66.662  1.00  0.00    -0.055 A  
HETATM    7  C   UNL     1      -6.566   8.071  65.265  1.00  0.00    -0.051 A  
HETATM    8 CL   UNL     1      -5.255   7.387  64.374  1.00  0.00    -0.029 Cl 
HETATM    9  C   UNL     1      -7.720   8.602  64.678  1.00  0.00    -0.121 A  
HETATM   10  C   UNL     1      -8.766   9.072  65.481  1.00  0.00    -0.212 A  
HETATM   11  O   UNL     1     -10.877   9.612  67.253  1.00  0.00    -0.254 OA 
HETATM   12  C   UNL     1      -8.627   9.047  66.869  1.00  0.00    -0.128 A  
HETATM   13  N   UNL     1      -9.565   8.936  69.073  1.00  0.00    -0.156 N  
HETATM   14  C   UNL     1      -9.804   9.283  67.744  1.00  0.00    -0.171 C  
ENDROOT
BRANCH   9  15
HETATM   15  S   UNL     1      -7.904   8.703  62.929  1.00  0.00    -0.144 S  
HETATM   16  H1  UNL     1      -9.617   9.218  61.748  1.00  0.00     0.000 HD 
HETATM   17  N   UNL     1      -9.511   9.160  62.760  1.00  0.00    -0.381 N  
HETATM   18  H2  UNL     1     -10.206   9.335  63.487  1.00  0.00     0.000 HD 
HETATM   19  O   UNL     1      -7.091   9.774  62.418  1.00  0.00    -0.107 OA 
HETATM   20  O   UNL     1      -7.848   7.369  62.374  1.00  0.00    -0.114 OA 
ENDBRANCH   9  15
BRANCH  13  21
HETATM   21  C   UNL     1     -10.648   8.601  69.922  1.00  0.00    -0.224 A  
HETATM   22  C   UNL     1     -10.734   7.323  70.488  1.00  0.00    -0.249 A  
HETATM   23  C   UNL     1     -11.724   7.032  71.430  1.00  0.00    -0.344 A  
HETATM   24  C   UNL     1     -12.633   8.013  71.813  1.00  0.00    -0.353 A  
HETATM   25  C   UNL     1     -12.550   9.291  71.262  1.00  0.00    -0.377 A  
HETATM   26  C   UNL     1     -11.545   9.609  70.333  1.00  0.00    -0.299 A  
HETATM   27  C   UNL     1     -11.459  11.034  69.858  1.00  0.00    -0.400 C  
ENDBRANCH  13  21
TORSDOF 2
ENDMDL
MODEL      115
REMARK 921   NORMALIZED FREE ENERGY PREDICTED BY IDOCK:   -3.23 KCAL/MOL
REMARK 922        TOTAL FREE ENERGY PREDICTED BY IDOCK:   -4.35 KCAL/MOL
REMARK 923 INTER-LIGAND FREE ENERGY PREDICTED BY IDOCK:   -4.38 KCAL/MOL
REMARK 924 INTRA-LIGAND FREE ENERGY PREDICTED BY IDOCK:    0.03 KCAL/MOL
REMARK 927      BINDING AFFINITY PREDICTED BY RF-SCORE:    0.00 PKD
ROOT
HETATM    1  C   UNL     1      -7.790  14.634  69.147  1.00  0.00    -0.107 C  
HETATM    2  C   UNL     1      -8.047  13.707  67.961  1.00  0.00    -0.161 C  
HETATM    3  N   UNL     1      -7.235  12.495  68.107  1.00  0.00    -0.096 NA 
HETATM    4  H   UNL     1      -6.543  12.383  68.847  1.00  0.00     0.000 HD 
HETATM    5  C   UNL     1      -7.486  11.500  67.147  1.00  0.00    -0.142 A  
HETATM    6  C   UNL     1      -6.673  10.365  67.099  1.00  0.00    -0.078 A  
HETATM    7  C   UNL     1      -6.834   9.406  66.088  1.00  0.00    -0.085 A  
HETATM    8 CL   UNL     1      -5.783   8.037  66.153  1.00  0.00    -0.036 Cl 
HETATM    9  C   UNL     1      -7.805   9.602  65.100  1.00  0.00    -0.117 A  
HETATM   10  C   UNL     1      -8.664  10.705  65.165  1.00  0.00    -0.196 A  
HETATM   11  O   UNL     1     -10.507  12.760  65.681  1.00  0.00    -0.268 OA 
HETATM   12  C   UNL     1      -8.512  11.630  66.199  1.00  0.00    -0.008 A  
HETATM   13  N   UNL     1      -9.403  13.294  67.678  1.00  0.00    -0.203 N  
HETATM   14  C   UNL     1      -9.560  12.653  66.450  1.00  0.00    -0.248 C  
ENDROOT
BRANCH   9  15
HETATM   15  S   UNL     1      -7.986   8.486  63.748  1.00  0.00    -0.156 S  
HETATM   16  H1  UNL     1      -8.740   6.480  63.705  1.00  0.00     0.000 HD 
HETATM   17  N   UNL     1      -8.636   7.126  64.488  1.00  0.00    -0.331 N  
HETATM   18  H2  UNL     1      -8.869   6.982  65.470  1.00  0.00     0.000 HD 
HETATM   19  O   UNL     1      -8.969   8.994  62.829  1.00  0.00    -0.162 OA 
HETATM   20  O   UNL     1      -6.674   8.066  63.310  1.00  0.00    -0.078 OA 
ENDBRANCH   9  15
BRANCH  13  21
HETATM   21  C   UNL     1     -10.521  13.888  68.314  1.00  0.00    -0.250 A  
HETATM   22  C   UNL     1     -11.179  13.223  69.355  1.00  0.00    -0.220 A  
HETATM   23  C   UNL     1     -12.193  13.861  70.073  1.00  0.00    -0.408 A  
HETATM   24  C   UNL     1     -12.558  15.165  69.755  1.00  0.00    -0.149 A  
HETATM   25  C   UNL     1     -11.902  15.839  68.726  1.00  0.00    -0.321 A  
HETATM   26  C   UNL     1     -10.862  15.223  68.011  1.00  0.00    -0.288 A  
HETATM   27  C   UNL     1     -10.137  16.047  66.982  1.00  0.00    -0.271 C  
ENDBRANCH  13  21
TORSDOF 2
ENDMDL
MODEL      116
REMARK 921   NORMALIZED FREE ENERGY PREDICTED BY IDOCK:   -3.22 KCAL/MOL
REMARK 922        TOTAL FREE ENERGY PREDICTED BY IDOCK:   -4.35 KCAL/MOL
REMARK 923 INTER-LIGAND FREE ENERGY PREDICTED BY IDOCK:   -4.78 KCAL/MOL
REMARK 924 INTRA-LIGAND FREE ENERGY PREDICTED BY IDOCK:    0.44 KCAL/MOL
REMARK 927      BINDING AFFINITY PREDICTED BY RF-SCORE:    0.00 PKD
ROOT
HETATM    1  C   UNL     1     -10.298   3.947  71.710  1.00  0.00    -0.027 C  
HETATM    2  C   UNL     1     -10.263   5.236  70.892  1.00  0.00    -0.234 C  
HETATM    3  N   UNL     1     -11.049   6.266  71.577  1.00  0.00    -0.270 NA 
HETATM    4  H   UNL     1     -11.601   6.073  72.412  1.00  0.00     0.000 HD 
HETATM    5  C   UNL     1     -10.981   7.543  70.992  1.00  0.00    -0.251 A  
HETATM    6  C   UNL     1     -11.801   8.567  71.472  1.00  0.00    -0.353 A  
HETATM    7  C   UNL     1     -11.830   9.821  70.842  1.00  0.00    -0.336 A  
HETATM    8 CL   UNL     1     -12.867  11.009  71.545  1.00  0.00    -0.551 Cl 
HETATM    9  C   UNL     1     -11.047  10.038  69.703  1.00  0.00    -0.259 A  
HETATM   10  C   UNL     1     -10.179   9.041  69.243  1.00  0.00    -0.210 A  
HETATM   11  O   UNL     1      -8.254   7.067  68.713  1.00  0.00    -0.119 OA 
HETATM   12  C   UNL     1     -10.137   7.813  69.906  1.00  0.00    -0.203 A  
HETATM   13  N   UNL     1      -8.983   5.814  70.554  1.00  0.00    -0.142 N  
HETATM   14  C   UNL     1      -9.051   6.842  69.614  1.00  0.00    -0.143 C  
ENDROOT
BRANCH   9  15
HETATM   15  S   UNL     1     -11.119  11.555  68.810  1.00  0.00    -0.256 S  
HETATM   16  H1  UNL     1     -12.069  13.410  69.313  1.00  0.00     0.000 HD 
HETATM   17  N   UNL     1     -12.027  12.532  69.830  1.00  0.00    -0.340 N  
HETATM   18  H2  UNL     1     -12.434  12.305  70.738  1.00  0.00     0.000 HD 
HETATM   19  O   UNL     1      -9.801  12.127  68.720  1.00  0.00    -0.145 OA 
HETATM   20  O   UNL     1     -11.955  11.374  67.645  1.00  0.00    -0.630 OA 
ENDBRANCH   9  15
BRANCH  13  21
HETATM   21  C   UNL     1      -7.765   5.120  70.755  1.00  0.00    -0.080 A  
HETATM   22  C   UNL     1      -7.322   4.180  69.817  1.00  0.00    -0.049 A  
HETATM   23  C   UNL     1      -6.061   3.594  69.942  1.00  0.00    -0.023 A  
HETATM   24  C   UNL     1      -5.232   3.942  71.005  1.00  0.00     0.000 A  
HETATM   25  C   UNL     1      -5.660   4.884  71.939  1.00  0.00    -0.005 A  
HETATM   26  C   UNL     1      -6.915   5.503  71.815  1.00  0.00    -0.075 A  
HETATM   27  C   UNL     1      -7.265   6.580  72.805  1.00  0.00    -0.081 C  
ENDBRANCH  13  21
TORSDOF 2
ENDMDL
MODEL      117
REMARK 921   NORMALIZED FREE ENERGY PREDICTED BY IDOCK:   -3.18 KCAL/MOL
REMARK 922        TOTAL FREE ENERGY PREDICTED BY IDOCK:   -4.29 KCAL/MOL
REMARK 923 INTER-LIGAND FREE ENERGY PREDICTED BY IDOCK:   -4.54 KCAL/MOL
REMARK 924 INTRA-LIGAND FREE ENERGY PREDICTED BY IDOCK:    0.25 KCAL/MOL
REMARK 927      BINDING AFFINITY PREDICTED BY RF-SCORE:    0.00 PKD
ROOT
HETATM    1  C   UNL     1      -6.542   6.431  71.036  1.00  0.00    -0.053 C  
HETATM    2  C   UNL     1      -7.611   7.453  70.654  1.00  0.00    -0.086 C  
HETATM    3  N   UNL     1      -7.005   8.507  69.836  1.00  0.00    -0.042 NA 
HETATM    4  H   UNL     1      -6.000   8.562  69.665  1.00  0.00     0.000 HD 
HETATM    5  C   UNL     1      -7.915   9.437  69.305  1.00  0.00    -0.093 A  
HETATM    6  C   UNL     1      -7.438  10.564  68.632  1.00  0.00    -0.095 A  
HETATM    7  C   UNL     1      -8.318  11.560  68.182  1.00  0.00    -0.152 A  
HETATM    8 CL   UNL     1      -7.607  12.892  67.344  1.00  0.00    -0.162 Cl 
HETATM    9  C   UNL     1      -9.689  11.434  68.435  1.00  0.00    -0.203 A  
HETATM   10  C   UNL     1     -10.188  10.285  69.059  1.00  0.00    -0.225 A  
HETATM   11  O   UNL     1     -11.015   7.764  69.976  1.00  0.00    -0.249 OA 
HETATM   12  C   UNL     1      -9.300   9.289  69.466  1.00  0.00    -0.177 A  
HETATM   13  N   UNL     1      -8.800   6.998  69.971  1.00  0.00    -0.142 N  
HETATM   14  C   UNL     1      -9.809   7.956  69.882  1.00  0.00    -0.182 C  
ENDROOT
BRANCH   9  15
HETATM   15  S   UNL     1     -10.830  12.700  67.987  1.00  0.00    -0.236 S  
HETATM   16  H1  UNL     1     -11.618  14.322  69.145  1.00  0.00     0.000 HD 
HETATM   17  N   UNL     1     -10.957  13.590  69.405  1.00  0.00    -0.437 N  
HETATM   18  H2  UNL     1     -10.492  13.437  70.300  1.00  0.00     0.000 HD 
HETATM   19  O   UNL     1     -10.240  13.553  66.989  1.00  0.00    -0.245 OA 
HETATM   20  O   UNL     1     -12.138  12.111  67.812  1.00  0.00    -0.508 OA 
ENDBRANCH   9  15
BRANCH  13  21
HETATM   21  C   UNL     1      -9.116   5.624  69.841  1.00  0.00    -0.136 A  
HETATM   22  C   UNL     1      -8.854   4.947  68.644  1.00  0.00    -0.116 A  
HETATM   23  C   UNL     1      -9.039   3.565  68.557  1.00  0.00    -0.202 A  
HETATM   24  C   UNL     1      -9.486   2.850  69.663  1.00  0.00    -0.164 A  
HETATM   25  C   UNL     1      -9.741   3.513  70.863  1.00  0.00    -0.213 A  
HETATM   26  C   UNL     1      -9.536   4.899  70.976  1.00  0.00    -0.238 A  
HETATM   27  C   UNL     1      -9.738   5.527  72.328  1.00  0.00    -0.181 C  
ENDBRANCH  13  21
TORSDOF 2
ENDMDL
MODEL      118
REMARK 921   NORMALIZED FREE ENERGY PREDICTED BY IDOCK:   -3.14 KCAL/MOL
REMARK 922        TOTAL FREE ENERGY PREDICTED BY IDOCK:   -4.25 KCAL/MOL
REMARK 923 INTER-LIGAND FREE ENERGY PREDICTED BY IDOCK:   -3.83 KCAL/MOL
REMARK 924 INTRA-LIGAND FREE ENERGY PREDICTED BY IDOCK:   -0.42 KCAL/MOL
REMARK 927      BINDING AFFINITY PREDICTED BY RF-SCORE:    0.00 PKD
ROOT
HETATM    1  C   UNL     1      -6.493   9.013  66.318  1.00  0.00    -0.066 C  
HETATM    2  C   UNL     1      -7.576   8.427  67.220  1.00  0.00    -0.097 C  
HETATM    3  N   UNL     1      -6.981   8.029  68.498  1.00  0.00    -0.070 NA 
HETATM    4  H   UNL     1      -5.976   8.060  68.671  1.00  0.00     0.000 HD 
HETATM    5  C   UNL     1      -7.903   7.601  69.469  1.00  0.00    -0.115 A  
HETATM    6  C   UNL     1      -7.440   7.062  70.671  1.00  0.00    -0.085 A  
HETATM    7  C   UNL     1      -8.335   6.532  71.614  1.00  0.00    -0.120 A  
HETATM    8 CL   UNL     1      -7.639   5.916  73.071  1.00  0.00    -0.095 Cl 
HETATM    9  C   UNL     1      -9.705   6.520  71.334  1.00  0.00    -0.172 A  
HETATM   10  C   UNL     1     -10.189   7.106  70.158  1.00  0.00    -0.204 A  
HETATM   11  O   UNL     1     -10.977   8.647  67.947  1.00  0.00    -0.057 OA 
HETATM   12  C   UNL     1      -9.287   7.661  69.250  1.00  0.00    -0.148 A  
HETATM   13  N   UNL     1      -8.748   9.222  67.511  1.00  0.00    -0.116 N  
HETATM   14  C   UNL     1      -9.775   8.517  68.137  1.00  0.00    -0.155 C  
ENDROOT
BRANCH   9  15
HETATM   15  S   UNL     1     -10.866   5.776  72.431  1.00  0.00    -0.260 S  
HETATM   16  H1  UNL     1     -11.514   6.391  74.380  1.00  0.00     0.000 HD 
HETATM   17  N   UNL     1     -10.842   6.822  73.744  1.00  0.00    -0.510 N  
HETATM   18  H2  UNL     1     -10.295   7.673  73.874  1.00  0.00     0.000 HD 
HETATM   19  O   UNL     1     -12.182   5.832  71.853  1.00  0.00     0.017 OA 
HETATM   20  O   UNL     1     -10.306   4.545  72.940  1.00  0.00    -0.169 OA 
ENDBRANCH   9  15
BRANCH  13  21
HETATM   21  C   UNL     1      -9.035  10.423  66.819  1.00  0.00    -0.140 A  
HETATM   22  C   UNL     1      -9.791  10.399  65.641  1.00  0.00    -0.321 A  
HETATM   23  C   UNL     1     -10.190  11.590  65.031  1.00  0.00    -0.328 A  
HETATM   24  C   UNL     1      -9.838  12.814  65.592  1.00  0.00    -0.190 A  
HETATM   25  C   UNL     1      -9.093  12.849  66.771  1.00  0.00    -0.211 A  
HETATM   26  C   UNL     1      -8.705  11.661  67.412  1.00  0.00    -0.155 A  
HETATM   27  C   UNL     1      -7.990  11.780  68.730  1.00  0.00    -0.063 C  
ENDBRANCH  13  21
TORSDOF 2
ENDMDL
MODEL      119
REMARK 921   NORMALIZED FREE ENERGY PREDICTED BY IDOCK:   -3.02 KCAL/MOL
REMARK 922        TOTAL FREE ENERGY PREDICTED BY IDOCK:   -4.12 KCAL/MOL
REMARK 923 INTER-LIGAND FREE ENERGY PREDICTED BY IDOCK:   -3.94 KCAL/MOL
REMARK 924 INTRA-LIGAND FREE ENERGY PREDICTED BY IDOCK:   -0.18 KCAL/MOL
REMARK 927      BINDING AFFINITY PREDICTED BY RF-SCORE:    0.00 PKD
ROOT
HETATM    1  C   UNL     1      -8.782   7.825  68.051  1.00  0.00    -0.125 C  
HETATM    2  C   UNL     1      -8.308   9.270  68.192  1.00  0.00    -0.120 C  
HETATM    3  N   UNL     1      -9.184  10.147  67.410  1.00  0.00    -0.141 NA 
HETATM    4  H   UNL     1      -9.917   9.789  66.798  1.00  0.00     0.000 HD 
HETATM    5  C   UNL     1      -8.935  11.521  67.569  1.00  0.00    -0.159 A  
HETATM    6  C   UNL     1      -9.609  12.443  66.765  1.00  0.00    -0.224 A  
HETATM    7  C   UNL     1      -9.305  13.812  66.830  1.00  0.00    -0.266 A  
HETATM    8 CL   UNL     1     -10.224  14.852  65.802  1.00  0.00    -0.332 Cl 
HETATM    9  C   UNL     1      -8.296  14.254  67.692  1.00  0.00    -0.181 A  
HETATM   10  C   UNL     1      -7.650  13.350  68.544  1.00  0.00    -0.127 A  
HETATM   11  O   UNL     1      -6.750  11.458  70.412  1.00  0.00    -0.148 OA 
HETATM   12  C   UNL     1      -7.992  11.998  68.491  1.00  0.00    -0.132 A  
HETATM   13  N   UNL     1      -8.188   9.839  69.515  1.00  0.00    -0.128 N  
HETATM   14  C   UNL     1      -7.527  11.066  69.551  1.00  0.00    -0.026 C  
ENDROOT
BRANCH   9  15
HETATM   15  S   UNL     1      -7.799  15.944  67.742  1.00  0.00    -0.146 S  
HETATM   16  H1  UNL     1      -6.511  16.965  69.118  1.00  0.00     0.000 HD 
HETATM   17  N   UNL     1      -6.798  15.986  69.090  1.00  0.00    -0.167 N  
HETATM   18  H2  UNL     1      -6.542  15.227  69.720  1.00  0.00     0.000 HD 
HETATM   19  O   UNL     1      -6.991  16.245  66.590  1.00  0.00    -0.189 OA 
HETATM   20  O   UNL     1      -8.936  16.756  68.111  1.00  0.00    -0.212 OA 
ENDBRANCH   9  15
BRANCH  13  21
HETATM   21  C   UNL     1      -8.274   9.049  70.687  1.00  0.00    -0.181 A  
HETATM   22  C   UNL     1      -9.502   8.881  71.339  1.00  0.00    -0.344 A  
HETATM   23  C   UNL     1      -9.617   7.997  72.414  1.00  0.00    -0.297 A  
HETATM   24  C   UNL     1      -8.510   7.274  72.845  1.00  0.00    -0.134 A  
HETATM   25  C   UNL     1      -7.285   7.426  72.197  1.00  0.00    -0.068 A  
HETATM   26  C   UNL     1      -7.156   8.292  71.098  1.00  0.00    -0.059 A  
HETATM   27  C   UNL     1      -5.830   8.329  70.389  1.00  0.00    -0.028 C  
ENDBRANCH  13  21
TORSDOF 2
ENDMDL
MODEL      120
REMARK 921   NORMALIZED FREE ENERGY PREDICTED BY IDOCK:   -2.95 KCAL/MOL
REMARK 922        TOTAL FREE ENERGY PREDICTED BY IDOCK:   -4.04 KCAL/MOL
REMARK 923 INTER-LIGAND FREE ENERGY PREDICTED BY IDOCK:   -4.16 KCAL/MOL
REMARK 924 INTRA-LIGAND FREE ENERGY PREDICTED BY IDOCK:    0.11 KCAL/MOL
REMARK 927      BINDING AFFINITY PREDICTED BY RF-SCORE:    0.00 PKD
ROOT
HETATM    1  C   UNL     1      -8.841   7.409  65.618  1.00  0.00    -0.056 C  
HETATM    2  C   UNL     1      -8.948   6.716  66.974  1.00  0.00    -0.118 C  
HETATM    3  N   UNL     1      -9.828   7.495  67.850  1.00  0.00    -0.149 NA 
HETATM    4  H   UNL     1     -10.201   8.407  67.585  1.00  0.00     0.000 HD 
HETATM    5  C   UNL     1     -10.118   6.889  69.084  1.00  0.00    -0.173 A  
HETATM    6  C   UNL     1     -10.826   7.601  70.055  1.00  0.00    -0.250 A  
HETATM    7  C   UNL     1     -11.040   7.059  71.332  1.00  0.00    -0.245 A  
HETATM    8 CL   UNL     1     -11.948   8.029  72.435  1.00  0.00    -0.405 Cl 
HETATM    9  C   UNL     1     -10.515   5.800  71.644  1.00  0.00    -0.231 A  
HETATM   10  C   UNL     1      -9.852   5.051  70.665  1.00  0.00    -0.282 A  
HETATM   11  O   UNL     1      -8.893   3.573  68.479  1.00  0.00    -0.097 OA 
HETATM   12  C   UNL     1      -9.681   5.592  69.390  1.00  0.00    -0.216 A  
HETATM   13  N   UNL     1      -9.390   5.341  67.023  1.00  0.00    -0.119 N  
HETATM   14  C   UNL     1      -9.227   4.732  68.266  1.00  0.00    -0.124 C  
ENDROOT
BRANCH   9  15
HETATM   15  S   UNL     1     -10.662   5.114  73.259  1.00  0.00    -0.292 S  
HETATM   16  H1  UNL     1     -10.382   6.027  75.179  1.00  0.00     0.000 HD 
HETATM   17  N   UNL     1     -10.297   6.425  74.243  1.00  0.00    -0.365 N  
HETATM   18  H2  UNL     1     -10.052   7.378  73.974  1.00  0.00     0.000 HD 
HETATM   19  O   UNL     1     -12.032   4.751  73.508  1.00  0.00    -0.046 OA 
HETATM   20  O   UNL     1      -9.574   4.187  73.476  1.00  0.00    -0.112 OA 
ENDBRANCH   9  15
BRANCH  13  21
HETATM   21  C   UNL     1      -9.511   4.546  65.857  1.00  0.00    -0.171 A  
HETATM   22  C   UNL     1     -10.763   4.348  65.261  1.00  0.00    -0.150 A  
HETATM   23  C   UNL     1     -10.868   3.679  64.040  1.00  0.00    -0.185 A  
HETATM   24  C   UNL     1      -9.725   3.203  63.405  1.00  0.00    -0.109 A  
HETATM   25  C   UNL     1      -8.473   3.402  63.985  1.00  0.00    -0.090 A  
HETATM   26  C   UNL     1      -8.346   4.096  65.200  1.00  0.00    -0.109 A  
HETATM   27  C   UNL     1      -6.957   4.358  65.714  1.00  0.00    -0.059 C  
ENDBRANCH  13  21
TORSDOF 2
ENDMDL
MODEL      121
REMARK 921   NORMALIZED FREE ENERGY PREDICTED BY IDOCK:   -2.88 KCAL/MOL
REMARK 922        TOTAL FREE ENERGY PREDICTED BY IDOCK:   -3.96 KCAL/MOL
REMARK 923 INTER-LIGAND FREE ENERGY PREDICTED BY IDOCK:   -3.42 KCAL/MOL
REMARK 924 INTRA-LIGAND FREE ENERGY PREDICTED BY IDOCK:   -0.54 KCAL/MOL
REMARK 927      BINDING AFFINITY PREDICTED BY RF-SCORE:    0.00 PKD
ROOT
HETATM    1  C   UNL     1      -5.859   4.572  70.248  1.00  0.00    -0.013 C  
HETATM    2  C   UNL     1      -6.606   5.848  69.865  1.00  0.00    -0.050 C  
HETATM    3  N   UNL     1      -6.686   5.944  68.405  1.00  0.00    -0.058 NA 
HETATM    4  H   UNL     1      -6.209   5.291  67.783  1.00  0.00     0.000 HD 
HETATM    5  C   UNL     1      -7.472   7.006  67.927  1.00  0.00    -0.099 A  
HETATM    6  C   UNL     1      -7.503   7.282  66.558  1.00  0.00    -0.088 A  
HETATM    7  C   UNL     1      -8.195   8.399  66.064  1.00  0.00    -0.112 A  
HETATM    8 CL   UNL     1      -8.176   8.617  64.351  1.00  0.00    -0.164 Cl 
HETATM    9  C   UNL     1      -8.841   9.260  66.957  1.00  0.00    -0.123 A  
HETATM   10  C   UNL     1      -8.866   8.967  68.326  1.00  0.00    -0.134 A  
HETATM   11  O   UNL     1      -9.113   8.010  70.954  1.00  0.00    -0.144 OA 
HETATM   12  C   UNL     1      -8.203   7.832  68.794  1.00  0.00    -0.128 A  
HETATM   13  N   UNL     1      -7.935   6.063  70.391  1.00  0.00    -0.105 N  
HETATM   14  C   UNL     1      -8.430   7.350  70.181  1.00  0.00    -0.137 C  
ENDROOT
BRANCH   9  15
HETATM   15  S   UNL     1      -9.639  10.732  66.407  1.00  0.00    -0.196 S  
HETATM   16  H1  UNL     1      -8.820  12.479  65.473  1.00  0.00     0.000 HD 
HETATM   17  N   UNL     1      -8.358  11.627  65.791  1.00  0.00    -0.364 N  
HETATM   18  H2  UNL     1      -7.369  11.381  65.746  1.00  0.00     0.000 HD 
HETATM   19  O   UNL     1     -10.521  10.424  65.313  1.00  0.00    -0.249 OA 
HETATM   20  O   UNL     1     -10.083  11.483  67.559  1.00  0.00    -0.181 OA 
ENDBRANCH   9  15
BRANCH  13  21
HETATM   21  C   UNL     1      -8.480   5.255  71.418  1.00  0.00    -0.125 A  
HETATM   22  C   UNL     1      -8.190   5.526  72.761  1.00  0.00    -0.109 A  
HETATM   23  C   UNL     1      -8.831   4.818  73.780  1.00  0.00    -0.104 A  
HETATM   24  C   UNL     1      -9.765   3.836  73.467  1.00  0.00    -0.142 A  
HETATM   25  C   UNL     1     -10.068   3.565  72.133  1.00  0.00    -0.205 A  
HETATM   26  C   UNL     1      -9.453   4.285  71.095  1.00  0.00    -0.233 A  
HETATM   27  C   UNL     1      -9.903   4.006  69.687  1.00  0.00    -0.159 C  
ENDBRANCH  13  21
TORSDOF 2
ENDMDL
MODEL      122
REMARK 921   NORMALIZED FREE ENERGY PREDICTED BY IDOCK:   -2.84 KCAL/MOL
REMARK 922        TOTAL FREE ENERGY PREDICTED BY IDOCK:   -3.92 KCAL/MOL
REMARK 923 INTER-LIGAND FREE ENERGY PREDICTED BY IDOCK:   -4.03 KCAL/MOL
REMARK 924 INTRA-LIGAND FREE ENERGY PREDICTED BY IDOCK:    0.12 KCAL/MOL
REMARK 927      BINDING AFFINITY PREDICTED BY RF-SCORE:    0.00 PKD
ROOT
HETATM    1  C   UNL     1     -10.535   8.604  68.911  1.00  0.00    -0.211 C  
HETATM    2  C   UNL     1     -10.120  10.024  68.537  1.00  0.00    -0.169 C  
HETATM    3  N   UNL     1     -11.012  10.981  69.197  1.00  0.00    -0.221 NA 
HETATM    4  H   UNL     1     -11.833  10.692  69.729  1.00  0.00     0.000 HD 
HETATM    5  C   UNL     1     -10.649  12.330  69.042  1.00  0.00    -0.066 A  
HETATM    6  C   UNL     1     -11.503  13.334  69.504  1.00  0.00    -0.299 A  
HETATM    7  C   UNL     1     -11.215  14.687  69.270  1.00  0.00    -0.282 A  
HETATM    8 CL   UNL     1     -12.337  15.833  69.912  1.00  0.00    -0.295 Cl 
HETATM    9  C   UNL     1     -10.072  15.034  68.542  1.00  0.00    -0.225 A  
HETATM   10  C   UNL     1      -9.178  14.043  68.120  1.00  0.00    -0.196 A  
HETATM   11  O   UNL     1      -7.346  11.958  67.695  1.00  0.00    -0.105 OA 
HETATM   12  C   UNL     1      -9.463  12.704  68.394  1.00  0.00    -0.163 A  
HETATM   13  N   UNL     1      -8.762  10.446  68.791  1.00  0.00    -0.137 N  
HETATM   14  C   UNL     1      -8.421  11.662  68.201  1.00  0.00    -0.156 C  
ENDROOT
BRANCH   9  15
HETATM   15  S   UNL     1      -9.713  16.708  68.128  1.00  0.00    -0.251 S  
HETATM   16  H1  UNL     1     -10.424  17.912  66.503  1.00  0.00     0.000 HD 
HETATM   17  N   UNL     1     -10.632  16.943  66.743  1.00  0.00    -0.253 N  
HETATM   18  H2  UNL     1     -11.244  16.283  66.262  1.00  0.00     0.000 HD 
HETATM   19  O   UNL     1     -10.232  17.581  69.148  1.00  0.00    -0.333 OA 
HETATM   20  O   UNL     1      -8.344  16.795  67.672  1.00  0.00    -0.179 OA 
ENDBRANCH   9  15
BRANCH  13  21
HETATM   21  C   UNL     1      -7.746   9.532  69.164  1.00  0.00    -0.081 A  
HETATM   22  C   UNL     1      -7.432   9.334  70.513  1.00  0.00    -0.136 A  
HETATM   23  C   UNL     1      -6.528   8.338  70.891  1.00  0.00    -0.038 A  
HETATM   24  C   UNL     1      -5.932   7.534  69.925  1.00  0.00    -0.024 A  
HETATM   25  C   UNL     1      -6.245   7.717  68.579  1.00  0.00    -0.039 A  
HETATM   26  C   UNL     1      -7.171   8.696  68.182  1.00  0.00    -0.087 A  
HETATM   27  C   UNL     1      -7.531   8.768  66.724  1.00  0.00    -0.086 C  
ENDBRANCH  13  21
TORSDOF 2
ENDMDL
MODEL      123
REMARK 921   NORMALIZED FREE ENERGY PREDICTED BY IDOCK:   -2.81 KCAL/MOL
REMARK 922        TOTAL FREE ENERGY PREDICTED BY IDOCK:   -3.89 KCAL/MOL
REMARK 923 INTER-LIGAND FREE ENERGY PREDICTED BY IDOCK:   -3.68 KCAL/MOL
REMARK 924 INTRA-LIGAND FREE ENERGY PREDICTED BY IDOCK:   -0.21 KCAL/MOL
REMARK 927      BINDING AFFINITY PREDICTED BY RF-SCORE:    0.00 PKD
ROOT
HETATM    1  C   UNL     1      -7.696  14.434  68.803  1.00  0.00    -0.139 C  
HETATM    2  C   UNL     1      -7.583  13.103  68.063  1.00  0.00    -0.144 C  
HETATM    3  N   UNL     1      -7.338  12.029  69.029  1.00  0.00    -0.273 NA 
HETATM    4  H   UNL     1      -7.171  12.207  70.019  1.00  0.00     0.000 HD 
HETATM    5  C   UNL     1      -7.352  10.733  68.484  1.00  0.00    -0.096 A  
HETATM    6  C   UNL     1      -6.988   9.645  69.280  1.00  0.00    -0.055 A  
HETATM    7  C   UNL     1      -6.893   8.355  68.736  1.00  0.00    -0.062 A  
HETATM    8 CL   UNL     1      -6.457   7.091  69.829  1.00  0.00    -0.042 Cl 
HETATM    9  C   UNL     1      -7.141   8.161  67.373  1.00  0.00    -0.083 A  
HETATM   10  C   UNL     1      -7.560   9.231  66.574  1.00  0.00    -0.093 A  
HETATM   11  O   UNL     1      -8.737  11.407  65.245  1.00  0.00    -0.036 OA 
HETATM   12  C   UNL     1      -7.684  10.500  67.142  1.00  0.00    -0.101 A  
HETATM   13  N   UNL     1      -8.672  12.685  67.209  1.00  0.00    -0.190 N  
HETATM   14  C   UNL     1      -8.374  11.588  66.401  1.00  0.00    -0.118 C  
ENDROOT
BRANCH   9  15
HETATM   15  S   UNL     1      -6.938   6.585  66.612  1.00  0.00    -0.069 S  
HETATM   16  H1  UNL     1      -8.364   5.021  66.273  1.00  0.00     0.000 HD 
HETATM   17  N   UNL     1      -8.482   5.934  66.713  1.00  0.00    -0.109 N  
HETATM   18  H2  UNL     1      -9.325   6.346  67.113  1.00  0.00     0.000 HD 
HETATM   19  O   UNL     1      -6.628   6.757  65.218  1.00  0.00    -0.047 OA 
HETATM   20  O   UNL     1      -6.136   5.748  67.476  1.00  0.00    -0.020 OA 
ENDBRANCH   9  15
BRANCH  13  21
HETATM   21  C   UNL     1      -9.732  13.555  66.858  1.00  0.00    -0.261 A  
HETATM   22  C   UNL     1      -9.572  14.485  65.824  1.00  0.00    -0.242 A  
HETATM   23  C   UNL     1     -10.655  15.249  65.385  1.00  0.00    -0.413 A  
HETATM   24  C   UNL     1     -11.906  15.091  65.975  1.00  0.00    -0.016 A  
HETATM   25  C   UNL     1     -12.078  14.160  66.999  1.00  0.00    -0.449 A  
HETATM   26  C   UNL     1     -11.006  13.364  67.435  1.00  0.00    -0.287 A  
HETATM   27  C   UNL     1     -11.292  12.315  68.475  1.00  0.00    -0.332 C  
ENDBRANCH  13  21
TORSDOF 2
ENDMDL
MODEL      124
REMARK 921   NORMALIZED FREE ENERGY PREDICTED BY IDOCK:   -2.46 KCAL/MOL
REMARK 922        TOTAL FREE ENERGY PREDICTED BY IDOCK:   -3.49 KCAL/MOL
REMARK 923 INTER-LIGAND FREE ENERGY PREDICTED BY IDOCK:   -3.04 KCAL/MOL
REMARK 924 INTRA-LIGAND FREE ENERGY PREDICTED BY IDOCK:   -0.45 KCAL/MOL
REMARK 927      BINDING AFFINITY PREDICTED BY RF-SCORE:    0.00 PKD
ROOT
HETATM    1  C   UNL     1     -10.244   7.227  72.957  1.00  0.00    -0.313 C  
HETATM    2  C   UNL     1      -9.640   6.270  71.932  1.00  0.00    -0.152 C  
HETATM    3  N   UNL     1     -10.360   6.400  70.662  1.00  0.00    -0.193 NA 
HETATM    4  H   UNL     1     -11.195   6.976  70.560  1.00  0.00     0.000 HD 
HETATM    5  C   UNL     1      -9.810   5.669  69.596  1.00  0.00    -0.184 A  
HETATM    6  C   UNL     1     -10.492   5.602  68.379  1.00  0.00    -0.263 A  
HETATM    7  C   UNL     1     -10.019   4.796  67.332  1.00  0.00    -0.159 A  
HETATM    8 CL   UNL     1     -10.939   4.817  65.871  1.00  0.00    -0.160 Cl 
HETATM    9  C   UNL     1      -8.863   4.030  67.519  1.00  0.00    -0.115 A  
HETATM   10  C   UNL     1      -8.137   4.129  68.712  1.00  0.00    -0.074 A  
HETATM   11  O   UNL     1      -6.644   4.748  71.008  1.00  0.00    -0.028 OA 
HETATM   12  C   UNL     1      -8.604   4.964  69.728  1.00  0.00    -0.102 A  
HETATM   13  N   UNL     1      -8.226   6.356  71.644  1.00  0.00    -0.116 N  
HETATM   14  C   UNL     1      -7.732   5.296  70.885  1.00  0.00    -0.093 C  
ENDROOT
BRANCH   9  15
HETATM   15  S   UNL     1      -8.278   2.923  66.280  1.00  0.00    -0.092 S  
HETATM   16  H1  UNL     1      -9.014   0.997  65.690  1.00  0.00     0.000 HD 
HETATM   17  N   UNL     1      -9.353   1.639  66.408  1.00  0.00    -0.339 N  
HETATM   18  H2  UNL     1     -10.144   1.527  67.042  1.00  0.00     0.000 HD 
HETATM   19  O   UNL     1      -8.458   3.513  64.980  1.00  0.00    -0.099 OA 
HETATM   20  O   UNL     1      -7.009   2.374  66.702  1.00  0.00    -0.046 OA 
ENDBRANCH   9  15
BRANCH  13  21
HETATM   21  C   UNL     1      -7.342   7.134  72.431  1.00  0.00    -0.079 A  
HETATM   22  C   UNL     1      -6.869   6.647  73.656  1.00  0.00    -0.076 A  
HETATM   23  C   UNL     1      -5.895   7.350  74.368  1.00  0.00    -0.076 A  
HETATM   24  C   UNL     1      -5.386   8.542  73.863  1.00  0.00    -0.084 A  
HETATM   25  C   UNL     1      -5.843   9.031  72.640  1.00  0.00    -0.039 A  
HETATM   26  C   UNL     1      -6.803   8.324  71.897  1.00  0.00    -0.084 A  
HETATM   27  C   UNL     1      -7.174   8.862  70.542  1.00  0.00    -0.071 C  
ENDBRANCH  13  21
TORSDOF 2
ENDMDL
MODEL      125
REMARK 921   NORMALIZED FREE ENERGY PREDICTED BY IDOCK:   -2.22 KCAL/MOL
REMARK 922        TOTAL FREE ENERGY PREDICTED BY IDOCK:   -3.23 KCAL/MOL
REMARK 923 INTER-LIGAND FREE ENERGY PREDICTED BY IDOCK:   -2.73 KCAL/MOL
REMARK 924 INTRA-LIGAND FREE ENERGY PREDICTED BY IDOCK:   -0.50 KCAL/MOL
REMARK 927      BINDING AFFINITY PREDICTED BY RF-SCORE:    0.00 PKD
ROOT
HETATM    1  C   UNL     1      -9.107  10.046  62.988  1.00  0.00    -0.298 C  
HETATM    2  C   UNL     1      -9.142   8.826  63.905  1.00  0.00     0.546 C  
HETATM    3  N   UNL     1      -8.053   7.915  63.543  1.00  0.00    -0.302 NA 
HETATM    4  H   UNL     1      -7.457   8.065  62.729  1.00  0.00     0.000 HD 
HETATM    5  C   UNL     1      -7.893   6.816  64.405  1.00  0.00    -0.113 A  
HETATM    6  C   UNL     1      -6.984   5.808  64.078  1.00  0.00    -0.050 A  
HETATM    7  C   UNL     1      -6.878   4.651  64.865  1.00  0.00    -0.053 A  
HETATM    8 CL   UNL     1      -5.701   3.489  64.369  1.00  0.00    -0.013 Cl 
HETATM    9  C   UNL     1      -7.713   4.495  65.978  1.00  0.00    -0.094 A  
HETATM   10  C   UNL     1      -8.590   5.521  66.350  1.00  0.00    -0.121 A  
HETATM   11  O   UNL     1      -9.992   7.824  67.133  1.00  0.00    -0.184 OA 
HETATM   12  C   UNL     1      -8.654   6.679  65.575  1.00  0.00    -0.101 A  
HETATM   13  N   UNL     1      -9.088   9.026  65.335  1.00  0.00    -0.210 N  
HETATM   14  C   UNL     1      -9.365   7.882  66.083  1.00  0.00    -0.125 C  
ENDROOT
BRANCH   9  15
HETATM   15  S   UNL     1      -7.699   3.022  66.943  1.00  0.00    -0.076 S  
HETATM   16  H1  UNL     1      -8.260   1.020  66.417  1.00  0.00     0.000 HD 
HETATM   17  N   UNL     1      -8.268   1.873  65.858  1.00  0.00    -0.081 N  
HETATM   18  H2  UNL     1      -8.551   1.997  64.886  1.00  0.00     0.000 HD 
HETATM   19  O   UNL     1      -6.342   2.673  67.274  1.00  0.00    -0.030 OA 
HETATM   20  O   UNL     1      -8.732   3.111  67.949  1.00  0.00    -0.092 OA 
ENDBRANCH   9  15
BRANCH  13  21
HETATM   21  C   UNL     1      -9.229  10.306  65.924  1.00  0.00    -0.167 A  
HETATM   22  C   UNL     1     -10.486  10.919  65.993  1.00  0.00    -0.287 A  
HETATM   23  C   UNL     1     -10.653  12.117  66.691  1.00  0.00    -0.266 A  
HETATM   24  C   UNL     1      -9.566  12.711  67.325  1.00  0.00    -0.203 A  
HETATM   25  C   UNL     1      -8.312  12.104  67.271  1.00  0.00    -0.179 A  
HETATM   26  C   UNL     1      -8.132  10.886  66.595  1.00  0.00    -0.147 A  
HETATM   27  C   UNL     1      -6.773  10.243  66.664  1.00  0.00    -0.082 C  
ENDBRANCH  13  21
TORSDOF 2
ENDMDL
MODEL      126
REMARK 921   NORMALIZED FREE ENERGY PREDICTED BY IDOCK:   -2.18 KCAL/MOL
REMARK 922        TOTAL FREE ENERGY PREDICTED BY IDOCK:   -3.18 KCAL/MOL
REMARK 923 INTER-LIGAND FREE ENERGY PREDICTED BY IDOCK:   -3.90 KCAL/MOL
REMARK 924 INTRA-LIGAND FREE ENERGY PREDICTED BY IDOCK:    0.72 KCAL/MOL
REMARK 927      BINDING AFFINITY PREDICTED BY RF-SCORE:    0.00 PKD
ROOT
HETATM    1  C   UNL     1      -7.827  12.619  68.841  1.00  0.00     0.137 C  
HETATM    2  C   UNL     1      -8.028  11.135  68.540  1.00  0.00    -0.143 C  
HETATM    3  N   UNL     1      -7.738  10.351  69.743  1.00  0.00    -0.281 NA 
HETATM    4  H   UNL     1      -7.361  10.768  70.594  1.00  0.00     0.000 HD 
HETATM    5  C   UNL     1      -8.020   8.979  69.634  1.00  0.00    -0.093 A  
HETATM    6  C   UNL     1      -7.649   8.112  70.664  1.00  0.00    -0.073 A  
HETATM    7  C   UNL     1      -7.825   6.726  70.538  1.00  0.00    -0.105 A  
HETATM    8 CL   UNL     1      -7.347   5.765  71.891  1.00  0.00    -0.091 Cl 
HETATM    9  C   UNL     1      -8.354   6.203  69.353  1.00  0.00    -0.116 A  
HETATM   10  C   UNL     1      -8.782   7.061  68.333  1.00  0.00    -0.125 A  
HETATM   11  O   UNL     1      -9.910   8.948  66.586  1.00  0.00    -0.215 OA 
HETATM   12  C   UNL     1      -8.633   8.440  68.493  1.00  0.00    -0.136 A  
HETATM   13  N   UNL     1      -9.305  10.694  68.027  1.00  0.00    -0.145 N  
HETATM   14  C   UNL     1      -9.311   9.379  67.562  1.00  0.00    -0.127 C  
ENDROOT
BRANCH   9  15
HETATM   15  S   UNL     1      -8.502   4.467  69.095  1.00  0.00    -0.079 S  
HETATM   16  H1  UNL     1     -10.011   3.096  69.758  1.00  0.00     0.000 HD 
HETATM   17  N   UNL     1      -9.926   4.101  69.907  1.00  0.00    -0.154 N  
HETATM   18  H2  UNL     1     -10.548   4.726  70.420  1.00  0.00     0.000 HD 
HETATM   19  O   UNL     1      -8.718   4.202  67.697  1.00  0.00    -0.102 OA 
HETATM   20  O   UNL     1      -7.472   3.791  69.851  1.00  0.00    -0.048 OA 
ENDBRANCH   9  15
BRANCH  13  21
HETATM   21  C   UNL     1     -10.296  11.604  67.584  1.00  0.00    -0.189 A  
HETATM   22  C   UNL     1     -11.142  12.233  68.505  1.00  0.00    -0.290 A  
HETATM   23  C   UNL     1     -12.027  13.229  68.088  1.00  0.00    -0.340 A  
HETATM   24  C   UNL     1     -12.074  13.605  66.749  1.00  0.00    -0.445 A  
HETATM   25  C   UNL     1     -11.228  12.992  65.825  1.00  0.00    -0.316 A  
HETATM   26  C   UNL     1     -10.314  12.006  66.231  1.00  0.00    -0.253 A  
HETATM   27  C   UNL     1      -9.367  11.461  65.197  1.00  0.00    -0.172 C  
ENDBRANCH  13  21
TORSDOF 2
ENDMDL
MODEL      127
REMARK 921   NORMALIZED FREE ENERGY PREDICTED BY IDOCK:   -2.04 KCAL/MOL
REMARK 922        TOTAL FREE ENERGY PREDICTED BY IDOCK:   -3.02 KCAL/MOL
REMARK 923 INTER-LIGAND FREE ENERGY PREDICTED BY IDOCK:   -3.09 KCAL/MOL
REMARK 924 INTRA-LIGAND FREE ENERGY PREDICTED BY IDOCK:    0.07 KCAL/MOL
REMARK 927      BINDING AFFINITY PREDICTED BY RF-SCORE:    0.00 PKD
ROOT
HETATM    1  C   UNL     1      -6.324  16.997  67.678  1.00  0.00    -0.165 C  
HETATM    2  C   UNL     1      -6.918  15.605  67.477  1.00  0.00    -0.189 C  
HETATM    3  N   UNL     1      -6.275  14.664  68.399  1.00  0.00    -0.094 NA 
HETATM    4  H   UNL     1      -5.485  14.926  68.989  1.00  0.00     0.000 HD 
HETATM    5  C   UNL     1      -6.831  13.374  68.407  1.00  0.00    -0.102 A  
HETATM    6  C   UNL     1      -6.210  12.358  69.137  1.00  0.00    -0.090 A  
HETATM    7  C   UNL     1      -6.684  11.038  69.081  1.00  0.00    -0.084 A  
HETATM    8 CL   UNL     1      -5.844   9.879  70.047  1.00  0.00    -0.042 Cl 
HETATM    9  C   UNL     1      -7.777  10.732  68.262  1.00  0.00    -0.109 A  
HETATM   10  C   UNL     1      -8.443  11.748  67.568  1.00  0.00    -0.154 A  
HETATM   11  O   UNL     1      -9.852  13.961  66.566  1.00  0.00    -0.273 OA 
HETATM   12  C   UNL     1      -7.979  13.061  67.666  1.00  0.00    -0.169 A  
HETATM   13  N   UNL     1      -8.347  15.429  67.600  1.00  0.00    -0.153 N  
HETATM   14  C   UNL     1      -8.810  14.188  67.166  1.00  0.00    -0.229 C  
ENDROOT
BRANCH   9  15
HETATM   15  S   UNL     1      -8.351   9.078  68.070  1.00  0.00    -0.117 S  
HETATM   16  H1  UNL     1      -9.138   7.712  69.523  1.00  0.00     0.000 HD 
HETATM   17  N   UNL     1      -8.806   8.670  69.635  1.00  0.00    -0.135 N  
HETATM   18  H2  UNL     1      -8.761   9.236  70.482  1.00  0.00     0.000 HD 
HETATM   19  O   UNL     1      -9.538   9.069  67.256  1.00  0.00    -0.147 OA 
HETATM   20  O   UNL     1      -7.224   8.220  67.787  1.00  0.00    -0.084 OA 
ENDBRANCH   9  15
BRANCH  13  21
HETATM   21  C   UNL     1      -9.237  16.528  67.677  1.00  0.00    -0.200 A  
HETATM   22  C   UNL     1      -9.235  17.513  66.682  1.00  0.00    -0.277 A  
HETATM   23  C   UNL     1     -10.200  18.522  66.683  1.00  0.00    -0.429 A  
HETATM   24  C   UNL     1     -11.174  18.556  67.676  1.00  0.00     0.239 A  
HETATM   25  C   UNL     1     -11.191  17.574  68.666  1.00  0.00     0.473 A  
HETATM   26  C   UNL     1     -10.244  16.537  68.666  1.00  0.00    -0.264 A  
HETATM   27  C   UNL     1     -10.386  15.460  69.707  1.00  0.00    -0.296 C  
ENDBRANCH  13  21
TORSDOF 2
ENDMDL
MODEL      128
REMARK 921   NORMALIZED FREE ENERGY PREDICTED BY IDOCK:   -2.01 KCAL/MOL
REMARK 922        TOTAL FREE ENERGY PREDICTED BY IDOCK:   -2.99 KCAL/MOL
REMARK 923 INTER-LIGAND FREE ENERGY PREDICTED BY IDOCK:   -3.32 KCAL/MOL
REMARK 924 INTRA-LIGAND FREE ENERGY PREDICTED BY IDOCK:    0.33 KCAL/MOL
REMARK 927      BINDING AFFINITY PREDICTED BY RF-SCORE:    0.00 PKD
ROOT
HETATM    1  C   UNL     1     -11.786   5.486  72.573  1.00  0.00    -0.158 C  
HETATM    2  C   UNL     1     -11.155   5.952  71.263  1.00  0.00    -0.241 C  
HETATM    3  N   UNL     1     -11.565   7.333  70.991  1.00  0.00    -0.288 NA 
HETATM    4  H   UNL     1     -12.252   7.826  71.562  1.00  0.00     0.000 HD 
HETATM    5  C   UNL     1     -10.939   7.925  69.881  1.00  0.00    -0.178 A  
HETATM    6  C   UNL     1     -11.357   9.182  69.440  1.00  0.00     0.177 A  
HETATM    7  C   UNL     1     -10.822   9.752  68.274  1.00  0.00    -0.210 A  
HETATM    8 CL   UNL     1     -11.405  11.321  67.849  1.00  0.00    -0.352 Cl 
HETATM    9  C   UNL     1      -9.877   9.038  67.530  1.00  0.00    -0.179 A  
HETATM   10  C   UNL     1      -9.407   7.801  67.987  1.00  0.00    -0.146 A  
HETATM   11  O   UNL     1      -8.336   5.538  69.257  1.00  0.00    -0.100 OA 
HETATM   12  C   UNL     1      -9.925   7.269  69.168  1.00  0.00    -0.170 A  
HETATM   13  N   UNL     1      -9.719   5.886  71.117  1.00  0.00    -0.172 N  
HETATM   14  C   UNL     1      -9.267   6.104  69.816  1.00  0.00    -0.144 C  
ENDROOT
BRANCH   9  15
HETATM   15  S   UNL     1      -9.246   9.655  66.005  1.00  0.00    -0.199 S  
HETATM   16  H1  UNL     1      -7.222   9.987  65.381  1.00  0.00     0.000 HD 
HETATM   17  N   UNL     1      -7.587   9.630  66.264  1.00  0.00    -0.100 N  
HETATM   18  H2  UNL     1      -7.074   9.333  67.094  1.00  0.00     0.000 HD 
HETATM   19  O   UNL     1      -9.536   8.722  64.948  1.00  0.00     0.168 OA 
HETATM   20  O   UNL     1      -9.573  11.059  65.896  1.00  0.00    -0.201 OA 
ENDBRANCH   9  15
BRANCH  13  21
HETATM   21  C   UNL     1      -8.897   5.202  72.045  1.00  0.00    -0.130 A  
HETATM   22  C   UNL     1      -8.285   5.897  73.096  1.00  0.00    -0.117 A  
HETATM   23  C   UNL     1      -7.586   5.207  74.088  1.00  0.00    -0.090 A  
HETATM   24  C   UNL     1      -7.493   3.819  74.041  1.00  0.00    -0.065 A  
HETATM   25  C   UNL     1      -8.106   3.117  73.004  1.00  0.00    -0.072 A  
HETATM   26  C   UNL     1      -8.836   3.792  72.011  1.00  0.00    -0.131 A  
HETATM   27  C   UNL     1      -9.551   2.960  70.982  1.00  0.00    -0.219 C  
ENDBRANCH  13  21
TORSDOF 2
ENDMDL
MODEL      129
REMARK 921   NORMALIZED FREE ENERGY PREDICTED BY IDOCK:   -1.46 KCAL/MOL
REMARK 922        TOTAL FREE ENERGY PREDICTED BY IDOCK:   -2.37 KCAL/MOL
REMARK 923 INTER-LIGAND FREE ENERGY PREDICTED BY IDOCK:   -2.07 KCAL/MOL
REMARK 924 INTRA-LIGAND FREE ENERGY PREDICTED BY IDOCK:   -0.30 KCAL/MOL
REMARK 927      BINDING AFFINITY PREDICTED BY RF-SCORE:    0.00 PKD
ROOT
HETATM    1  C   UNL     1      -8.196  20.661  68.885  1.00  0.00     0.977 C  
HETATM    2  C   UNL     1      -8.332  19.152  68.691  1.00  0.00    -0.368 C  
HETATM    3  N   UNL     1      -9.720  18.754  68.941  1.00  0.00    -0.368 NA 
HETATM    4  H   UNL     1     -10.425  19.403  69.292  1.00  0.00     0.000 HD 
HETATM    5  C   UNL     1     -10.006  17.407  68.660  1.00  0.00    -0.340 A  
HETATM    6  C   UNL     1     -11.255  16.880  68.997  1.00  0.00     0.034 A  
HETATM    7  C   UNL     1     -11.532  15.515  68.824  1.00  0.00    -0.355 A  
HETATM    8 CL   UNL     1     -13.120  14.993  69.257  1.00  0.00     0.712 Cl 
HETATM    9  C   UNL     1     -10.534  14.667  68.331  1.00  0.00    -0.243 A  
HETATM   10  C   UNL     1      -9.296  15.189  67.937  1.00  0.00    -0.185 A  
HETATM   11  O   UNL     1      -7.042  16.477  66.868  1.00  0.00    -0.190 OA 
HETATM   12  C   UNL     1      -9.053  16.555  68.083  1.00  0.00    -0.207 A  
HETATM   13  N   UNL     1      -7.931  18.571  67.430  1.00  0.00    -0.238 N  
HETATM   14  C   UNL     1      -7.869  17.178  67.437  1.00  0.00    -0.172 C  
ENDROOT
BRANCH   9  15
HETATM   15  S   UNL     1     -10.788  12.929  68.189  1.00  0.00    -0.246 S  
HETATM   16  H1  UNL     1      -9.380  11.353  67.829  1.00  0.00     0.000 HD 
HETATM   17  N   UNL     1      -9.233  12.359  67.911  1.00  0.00    -0.185 N  
HETATM   18  H2  UNL     1      -8.361  12.885  67.842  1.00  0.00     0.000 HD 
HETATM   19  O   UNL     1     -11.226  12.399  69.453  1.00  0.00    -0.229 OA 
HETATM   20  O   UNL     1     -11.496  12.658  66.959  1.00  0.00    -0.306 OA 
ENDBRANCH   9  15
BRANCH  13  21
HETATM   21  C   UNL     1      -7.213  19.306  66.455  1.00  0.00    -0.229 A  
HETATM   22  C   UNL     1      -5.829  19.138  66.320  1.00  0.00    -0.179 A  
HETATM   23  C   UNL     1      -5.140  19.757  65.275  1.00  0.00    -0.183 A  
HETATM   24  C   UNL     1      -5.826  20.547  64.357  1.00  0.00    -0.301 A  
HETATM   25  C   UNL     1      -7.205  20.712  64.477  1.00  0.00     0.403 A  
HETATM   26  C   UNL     1      -7.919  20.076  65.507  1.00  0.00     0.092 A  
HETATM   27  C   UNL     1      -9.416  20.222  65.513  1.00  0.00     0.235 C  
ENDBRANCH  13  21
TORSDOF 2
ENDMDL
MODEL      130
REMARK 921   NORMALIZED FREE ENERGY PREDICTED BY IDOCK:   -0.63 KCAL/MOL
REMARK 922        TOTAL FREE ENERGY PREDICTED BY IDOCK:   -1.45 KCAL/MOL
REMARK 923 INTER-LIGAND FREE ENERGY PREDICTED BY IDOCK:   -2.35 KCAL/MOL
REMARK 924 INTRA-LIGAND FREE ENERGY PREDICTED BY IDOCK:    0.90 KCAL/MOL
REMARK 927      BINDING AFFINITY PREDICTED BY RF-SCORE:    0.00 PKD
ROOT
HETATM    1  C   UNL     1      -5.568   4.977  69.950  1.00  0.00    -0.015 C  
HETATM    2  C   UNL     1      -6.003   6.429  69.762  1.00  0.00    -0.018 C  
HETATM    3  N   UNL     1      -6.695   6.566  68.477  1.00  0.00    -0.065 NA 
HETATM    4  H   UNL     1      -6.757   5.804  67.801  1.00  0.00     0.000 HD 
HETATM    5  C   UNL     1      -7.267   7.829  68.248  1.00  0.00    -0.089 A  
HETATM    6  C   UNL     1      -7.824   8.120  67.001  1.00  0.00    -0.104 A  
HETATM    7  C   UNL     1      -8.308   9.405  66.711  1.00  0.00    -0.123 A  
HETATM    8 CL   UNL     1      -8.994   9.631  65.142  1.00  0.00    -0.227 Cl 
HETATM    9  C   UNL     1      -8.207  10.414  67.675  1.00  0.00    -0.110 A  
HETATM   10  C   UNL     1      -7.702  10.124  68.948  1.00  0.00    -0.093 A  
HETATM   11  O   UNL     1      -7.014   9.257  71.529  1.00  0.00    -0.283 OA 
HETATM   12  C   UNL     1      -7.259   8.831  69.230  1.00  0.00    -0.062 A  
HETATM   13  N   UNL     1      -6.830   7.046  70.773  1.00  0.00    -0.053 N  
HETATM   14  C   UNL     1      -6.972   8.426  70.630  1.00  0.00    -0.040 C  
ENDROOT
BRANCH   9  15
HETATM   15  S   UNL     1      -8.702  12.070  67.334  1.00  0.00    -0.178 S  
HETATM   16  H1  UNL     1     -10.618  13.009  67.543  1.00  0.00     0.000 HD 
HETATM   17  N   UNL     1     -10.331  12.051  67.741  1.00  0.00    -0.194 N  
HETATM   18  H2  UNL     1     -10.892  11.277  68.097  1.00  0.00     0.000 HD 
HETATM   19  O   UNL     1      -8.038  12.970  68.238  1.00  0.00    -0.143 OA 
HETATM   20  O   UNL     1      -8.691  12.277  65.904  1.00  0.00     0.118 OA 
ENDBRANCH   9  15
BRANCH  13  21
HETATM   21  C   UNL     1      -7.067   6.438  72.029  1.00  0.00    -0.082 A  
HETATM   22  C   UNL     1      -6.568   7.018  73.202  1.00  0.00    -0.065 A  
HETATM   23  C   UNL     1      -6.912   6.497  74.451  1.00  0.00    -0.088 A  
HETATM   24  C   UNL     1      -7.756   5.394  74.539  1.00  0.00    -0.091 A  
HETATM   25  C   UNL     1      -8.266   4.815  73.378  1.00  0.00    -0.103 A  
HETATM   26  C   UNL     1      -7.951   5.341  72.114  1.00  0.00    -0.110 A  
HETATM   27  C   UNL     1      -8.617   4.724  70.914  1.00  0.00    -0.126 C  
ENDBRANCH  13  21
TORSDOF 2
ENDMDL
MODEL      131
REMARK 921   NORMALIZED FREE ENERGY PREDICTED BY IDOCK:   -0.56 KCAL/MOL
REMARK 922        TOTAL FREE ENERGY PREDICTED BY IDOCK:   -1.37 KCAL/MOL
REMARK 923 INTER-LIGAND FREE ENERGY PREDICTED BY IDOCK:   -2.02 KCAL/MOL
REMARK 924 INTRA-LIGAND FREE ENERGY PREDICTED BY IDOCK:    0.65 KCAL/MOL
REMARK 927      BINDING AFFINITY PREDICTED BY RF-SCORE:    0.00 PKD
ROOT
HETATM    1  C   UNL     1      -6.408  17.759  67.216  1.00  0.00    -0.177 C  
HETATM    2  C   UNL     1      -6.592  16.255  67.408  1.00  0.00    -0.179 C  
HETATM    3  N   UNL     1      -6.073  15.865  68.722  1.00  0.00    -0.104 NA 
HETATM    4  H   UNL     1      -5.578  16.515  69.333  1.00  0.00     0.000 HD 
HETATM    5  C   UNL     1      -6.310  14.526  69.075  1.00  0.00    -0.095 A  
HETATM    6  C   UNL     1      -5.736  14.005  70.237  1.00  0.00    -0.137 A  
HETATM    7  C   UNL     1      -5.870  12.646  70.559  1.00  0.00    -0.129 A  
HETATM    8 CL   UNL     1      -5.134  12.131  72.034  1.00  0.00     0.037 Cl 
HETATM    9  C   UNL     1      -6.566  11.797  69.692  1.00  0.00    -0.081 A  
HETATM   10  C   UNL     1      -7.193  12.313  68.552  1.00  0.00    -0.103 A  
HETATM   11  O   UNL     1      -8.676  13.598  66.544  1.00  0.00    -0.068 OA 
HETATM   12  C   UNL     1      -7.079  13.675  68.268  1.00  0.00    -0.110 A  
HETATM   13  N   UNL     1      -7.916  15.691  67.276  1.00  0.00    -0.178 N  
HETATM   14  C   UNL     1      -7.942  14.298  67.230  1.00  0.00    -0.168 C  
ENDROOT
BRANCH   9  15
HETATM   15  S   UNL     1      -6.679  10.064  69.991  1.00  0.00    -0.129 S  
HETATM   16  H1  UNL     1      -7.942   8.587  69.086  1.00  0.00     0.000 HD 
HETATM   17  N   UNL     1      -7.876   9.590  68.913  1.00  0.00    -0.079 N  
HETATM   18  H2  UNL     1      -8.404  10.160  68.252  1.00  0.00     0.000 HD 
HETATM   19  O   UNL     1      -5.454   9.423  69.591  1.00  0.00    -0.034 OA 
HETATM   20  O   UNL     1      -7.263   9.851  71.295  1.00  0.00    -0.259 OA 
ENDBRANCH   9  15
BRANCH  13  21
HETATM   21  C   UNL     1      -9.005  16.435  66.759  1.00  0.00    -0.236 A  
HETATM   22  C   UNL     1      -9.612  16.059  65.554  1.00  0.00    -0.110 A  
HETATM   23  C   UNL     1     -10.767  16.706  65.111  1.00  0.00    -0.205 A  
HETATM   24  C   UNL     1     -11.325  17.732  65.866  1.00  0.00     1.183 A  
HETATM   25  C   UNL     1     -10.734  18.109  67.072  1.00  0.00    -0.274 A  
HETATM   26  C   UNL     1      -9.587  17.452  67.546  1.00  0.00    -0.257 A  
HETATM   27  C   UNL     1      -9.065  17.846  68.901  1.00  0.00    -0.132 C  
ENDBRANCH  13  21
TORSDOF 2
ENDMDL
MODEL      132
REMARK 921   NORMALIZED FREE ENERGY PREDICTED BY IDOCK:    0.45 KCAL/MOL
REMARK 922        TOTAL FREE ENERGY PREDICTED BY IDOCK:   -0.24 KCAL/MOL
REMARK 923 INTER-LIGAND FREE ENERGY PREDICTED BY IDOCK:   -3.82 KCAL/MOL
REMARK 924 INTRA-LIGAND FREE ENERGY PREDICTED BY IDOCK:    3.58 KCAL/MOL
REMARK 927      BINDING AFFINITY PREDICTED BY RF-SCORE:    0.00 PKD
ROOT
HETATM    1  C   UNL     1     -10.461  11.787  63.510  1.00  0.00    -0.500 C  
HETATM    2  C   UNL     1     -10.032  10.460  64.131  1.00  0.00    -0.267 C  
HETATM    3  N   UNL     1      -9.076   9.793  63.243  1.00  0.00    -0.305 NA 
HETATM    4  H   UNL     1      -8.846  10.150  62.315  1.00  0.00     0.000 HD 
HETATM    5  C   UNL     1      -8.501   8.624  63.769  1.00  0.00    -0.055 A  
HETATM    6  C   UNL     1      -7.688   7.828  62.957  1.00  0.00    -0.132 A  
HETATM    7  C   UNL     1      -7.185   6.603  63.423  1.00  0.00    -0.065 A  
HETATM    8 CL   UNL     1      -6.174   5.725  62.332  1.00  0.00    -0.022 Cl 
HETATM    9  C   UNL     1      -7.523   6.162  64.707  1.00  0.00    -0.084 A  
HETATM   10  C   UNL     1      -8.291   6.973  65.551  1.00  0.00    -0.135 A  
HETATM   11  O   UNL     1      -9.512   8.890  67.199  1.00  0.00    -0.146 OA 
HETATM   12  C   UNL     1      -8.751   8.204  65.083  1.00  0.00    -0.047 A  
HETATM   13  N   UNL     1      -9.466  10.462  65.461  1.00  0.00    -0.198 N  
HETATM   14  C   UNL     1      -9.332   9.195  66.027  1.00  0.00    -0.238 C  
ENDROOT
BRANCH   9  15
HETATM   15  S   UNL     1      -7.008   4.588  65.307  1.00  0.00    -0.063 S  
HETATM   16  H1  UNL     1      -6.089   2.950  64.275  1.00  0.00     0.000 HD 
HETATM   17  N   UNL     1      -6.387   3.861  63.927  1.00  0.00    -0.029 N  
HETATM   18  H2  UNL     1      -6.324   4.235  62.980  1.00  0.00     0.000 HD 
HETATM   19  O   UNL     1      -5.922   4.757  66.236  1.00  0.00    -0.022 OA 
HETATM   20  O   UNL     1      -8.177   3.804  65.633  1.00  0.00    -0.103 OA 
ENDBRANCH   9  15
BRANCH  13  21
HETATM   21  C   UNL     1      -9.499  11.607  66.293  1.00  0.00    -0.218 A  
HETATM   22  C   UNL     1     -10.452  12.610  66.080  1.00  0.00    -0.278 A  
HETATM   23  C   UNL     1     -10.574  13.673  66.978  1.00  0.00    -0.274 A  
HETATM   24  C   UNL     1      -9.747  13.742  68.095  1.00  0.00    -0.227 A  
HETATM   25  C   UNL     1      -8.801  12.743  68.321  1.00  0.00    -0.168 A  
HETATM   26  C   UNL     1      -8.681  11.653  67.442  1.00  0.00    -0.155 A  
HETATM   27  C   UNL     1      -7.706  10.566  67.805  1.00  0.00    -0.093 C  
ENDBRANCH  13  21
TORSDOF 2
ENDMDL
MODEL      133
REMARK 921   NORMALIZED FREE ENERGY PREDICTED BY IDOCK:    2.23 KCAL/MOL
REMARK 922        TOTAL FREE ENERGY PREDICTED BY IDOCK:    1.75 KCAL/MOL
REMARK 923 INTER-LIGAND FREE ENERGY PREDICTED BY IDOCK:    0.94 KCAL/MOL
REMARK 924 INTRA-LIGAND FREE ENERGY PREDICTED BY IDOCK:    0.81 KCAL/MOL
REMARK 927      BINDING AFFINITY PREDICTED BY RF-SCORE:    0.00 PKD
ROOT
HETATM    1  C   UNL     1     -10.802  16.513  71.704  1.00  0.00     1.108 C  
HETATM    2  C   UNL     1     -10.505  15.226  70.938  1.00  0.00     0.202 C  
HETATM    3  N   UNL     1     -11.597  14.272  71.147  1.00  0.00    -0.490 NA 
HETATM    4  H   UNL     1     -12.363  14.447  71.798  1.00  0.00     0.000 HD 
HETATM    5  C   UNL     1     -11.508  13.097  70.382  1.00  0.00     0.290 A  
HETATM    6  C   UNL     1     -12.412  12.057  70.605  1.00  0.00    -0.335 A  
HETATM    7  C   UNL     1     -12.284  10.833  69.929  1.00  0.00    -0.313 A  
HETATM    8 CL   UNL     1     -13.478   9.635  70.275  1.00  0.00     0.388 Cl 
HETATM    9  C   UNL     1     -11.220  10.646  69.039  1.00  0.00    -0.265 A  
HETATM   10  C   UNL     1     -10.338  11.697  68.764  1.00  0.00    -0.213 A  
HETATM   11  O   UNL     1      -8.921  14.022  68.077  1.00  0.00    -0.167 OA 
HETATM   12  C   UNL     1     -10.505  12.918  69.419  1.00  0.00     0.340 A  
HETATM   13  N   UNL     1     -10.256  15.301  69.516  1.00  0.00    -0.253 N  
HETATM   14  C   UNL     1      -9.764  14.122  68.959  1.00  0.00     0.009 C  
ENDROOT
BRANCH   9  15
HETATM   15  S   UNL     1     -10.946   9.100  68.240  1.00  0.00     0.147 S  
HETATM   16  H1  UNL     1      -9.435   7.618  68.580  1.00  0.00     0.000 HD 
HETATM   17  N   UNL     1      -9.593   8.513  69.043  1.00  0.00    -0.165 N  
HETATM   18  H2  UNL     1      -9.063   8.942  69.801  1.00  0.00     0.000 HD 
HETATM   19  O   UNL     1     -12.040   8.209  68.523  1.00  0.00     2.435 OA 
HETATM   20  O   UNL     1     -10.488   9.344  66.891  1.00  0.00    -0.245 OA 
ENDBRANCH   9  15
BRANCH  13  21
HETATM   21  C   UNL     1     -10.057  16.535  68.849  1.00  0.00    -0.266 A  
HETATM   22  C   UNL     1     -11.153  17.293  68.420  1.00  0.00    -0.038 A  
HETATM   23  C   UNL     1     -10.965  18.569  67.885  1.00  0.00    -0.089 A  
HETATM   24  C   UNL     1      -9.682  19.097  67.774  1.00  0.00    -0.391 A  
HETATM   25  C   UNL     1      -8.585  18.354  68.207  1.00  0.00    -0.321 A  
HETATM   26  C   UNL     1      -8.757  17.079  68.772  1.00  0.00    -0.244 A  
HETATM   27  C   UNL     1      -7.537  16.380  69.305  1.00  0.00    -0.180 C  
ENDBRANCH  13  21
TORSDOF 2
ENDMDL
MODEL      134
REMARK 921   NORMALIZED FREE ENERGY PREDICTED BY IDOCK:    3.31 KCAL/MOL
REMARK 922        TOTAL FREE ENERGY PREDICTED BY IDOCK:    2.95 KCAL/MOL
REMARK 923 INTER-LIGAND FREE ENERGY PREDICTED BY IDOCK:   -0.47 KCAL/MOL
REMARK 924 INTRA-LIGAND FREE ENERGY PREDICTED BY IDOCK:    3.42 KCAL/MOL
REMARK 927      BINDING AFFINITY PREDICTED BY RF-SCORE:    0.00 PKD
ROOT
HETATM    1  C   UNL     1     -12.755  15.011  66.574  1.00  0.00     1.057 C  
HETATM    2  C   UNL     1     -11.524  15.911  66.646  1.00  0.00     0.319 C  
HETATM    3  N   UNL     1     -11.566  16.695  67.883  1.00  0.00     0.132 NA 
HETATM    4  H   UNL     1     -12.368  16.684  68.514  1.00  0.00     0.000 HD 
HETATM    5  C   UNL     1     -10.417  17.464  68.133  1.00  0.00    -0.389 A  
HETATM    6  C   UNL     1     -10.404  18.359  69.205  1.00  0.00     0.034 A  
HETATM    7  C   UNL     1      -9.310  19.213  69.417  1.00  0.00     0.058 A  
HETATM    8 CL   UNL     1      -9.406  20.257  70.789  1.00  0.00     1.313 Cl 
HETATM    9  C   UNL     1      -8.231  19.184  68.527  1.00  0.00    -0.364 A  
HETATM   10  C   UNL     1      -8.204  18.255  67.481  1.00  0.00    -0.240 A  
HETATM   11  O   UNL     1      -8.176  16.089  65.694  1.00  0.00     0.379 OA 
HETATM   12  C   UNL     1      -9.285  17.389  67.309  1.00  0.00    -0.234 A  
HETATM   13  N   UNL     1     -10.213  15.310  66.554  1.00  0.00    -0.266 N  
HETATM   14  C   UNL     1      -9.175  16.226  66.389  1.00  0.00    -0.299 C  
ENDROOT
BRANCH   9  15
HETATM   15  S   UNL     1      -6.878  20.303  68.680  1.00  0.00    -0.169 S  
HETATM   16  H1  UNL     1      -6.363  22.018  67.502  1.00  0.00     0.000 HD 
HETATM   17  N   UNL     1      -7.147  21.370  67.413  1.00  0.00    -0.337 N  
HETATM   18  H2  UNL     1      -7.902  21.372  66.727  1.00  0.00     0.000 HD 
HETATM   19  O   UNL     1      -7.000  21.044  69.908  1.00  0.00     0.896 OA 
HETATM   20  O   UNL     1      -5.659  19.615  68.321  1.00  0.00    -0.201 OA 
ENDBRANCH   9  15
BRANCH  13  21
HETATM   21  C   UNL     1     -10.027  13.958  66.177  1.00  0.00    -0.310 A  
HETATM   22  C   UNL     1      -9.096  13.157  66.849  1.00  0.00    -0.231 A  
HETATM   23  C   UNL     1      -9.007  11.791  66.572  1.00  0.00    -0.196 A  
HETATM   24  C   UNL     1      -9.846  11.215  65.623  1.00  0.00    -0.280 A  
HETATM   25  C   UNL     1     -10.783  12.002  64.955  1.00  0.00    -0.346 A  
HETATM   26  C   UNL     1     -10.905  13.372  65.239  1.00  0.00    -0.318 A  
HETATM   27  C   UNL     1     -12.004  14.134  64.550  1.00  0.00    -0.476 C  
ENDBRANCH  13  21
TORSDOF 2
ENDMDL
MODEL      135
REMARK 921   NORMALIZED FREE ENERGY PREDICTED BY IDOCK:    3.77 KCAL/MOL
REMARK 922        TOTAL FREE ENERGY PREDICTED BY IDOCK:    3.47 KCAL/MOL
REMARK 923 INTER-LIGAND FREE ENERGY PREDICTED BY IDOCK:    3.89 KCAL/MOL
REMARK 924 INTRA-LIGAND FREE ENERGY PREDICTED BY IDOCK:   -0.42 KCAL/MOL
REMARK 927      BINDING AFFINITY PREDICTED BY RF-SCORE:    0.00 PKD
ROOT
HETATM    1  C   UNL     1      -9.756  10.356  71.885  1.00  0.00     5.452 C  
HETATM    2  C   UNL     1      -9.372   8.933  72.286  1.00  0.00     0.011 C  
HETATM    3  N   UNL     1     -10.565   8.082  72.257  1.00  0.00    -0.266 NA 
HETATM    4  H   UNL     1     -11.501   8.452  72.092  1.00  0.00     0.000 HD 
HETATM    5  C   UNL     1     -10.318   6.716  72.474  1.00  0.00    -0.195 A  
HETATM    6  C   UNL     1     -11.391   5.833  72.612  1.00  0.00    -0.349 A  
HETATM    7  C   UNL     1     -11.177   4.483  72.932  1.00  0.00    -0.115 A  
HETATM    8 CL   UNL     1     -12.584   3.490  73.052  1.00  0.00     0.894 Cl 
HETATM    9  C   UNL     1      -9.872   4.023  73.140  1.00  0.00    -0.129 A  
HETATM   10  C   UNL     1      -8.783   4.881  72.951  1.00  0.00    -0.117 A  
HETATM   11  O   UNL     1      -6.745   6.646  72.165  1.00  0.00    -0.058 OA 
HETATM   12  C   UNL     1      -9.015   6.211  72.597  1.00  0.00    -0.130 A  
HETATM   13  N   UNL     1      -8.333   8.255  71.545  1.00  0.00    -0.125 N  
HETATM   14  C   UNL     1      -7.894   7.069  72.132  1.00  0.00    -0.092 C  
ENDROOT
BRANCH   9  15
HETATM   15  S   UNL     1      -9.547   2.366  73.644  1.00  0.00    -0.087 S  
HETATM   16  H1  UNL     1      -9.587   0.546  72.512  1.00  0.00     0.000 HD 
HETATM   17  N   UNL     1      -9.775   1.505  72.220  1.00  0.00    -0.092 N  
HETATM   18  H2  UNL     1     -10.035   1.852  71.297  1.00  0.00     0.000 HD 
HETATM   19  O   UNL     1      -8.163   2.236  74.015  1.00  0.00    -0.057 OA 
HETATM   20  O   UNL     1     -10.616   1.921  74.509  1.00  0.00    -0.130 OA 
ENDBRANCH   9  15
BRANCH  13  21
HETATM   21  C   UNL     1      -7.506   8.931  70.615  1.00  0.00    -0.091 A  
HETATM   22  C   UNL     1      -6.409   9.681  71.056  1.00  0.00    -0.063 A  
HETATM   23  C   UNL     1      -5.515  10.236  70.138  1.00  0.00    -0.049 A  
HETATM   24  C   UNL     1      -5.709  10.046  68.773  1.00  0.00    -0.034 A  
HETATM   25  C   UNL     1      -6.793   9.293  68.324  1.00  0.00    -0.064 A  
HETATM   26  C   UNL     1      -7.688   8.706  69.234  1.00  0.00    -0.096 A  
HETATM   27  C   UNL     1      -8.774   7.827  68.678  1.00  0.00    -0.128 C  
ENDBRANCH  13  21
TORSDOF 2
ENDMDL
MODEL      136
REMARK 921   NORMALIZED FREE ENERGY PREDICTED BY IDOCK:    5.61 KCAL/MOL
REMARK 922        TOTAL FREE ENERGY PREDICTED BY IDOCK:    5.53 KCAL/MOL
REMARK 923 INTER-LIGAND FREE ENERGY PREDICTED BY IDOCK:    1.40 KCAL/MOL
REMARK 924 INTRA-LIGAND FREE ENERGY PREDICTED BY IDOCK:    4.12 KCAL/MOL
REMARK 927      BINDING AFFINITY PREDICTED BY RF-SCORE:    0.00 PKD
ROOT
HETATM    1  C   UNL     1      -8.019  10.726  70.652  1.00  0.00     2.171 C  
HETATM    2  C   UNL     1      -8.223   9.286  71.116  1.00  0.00     0.008 C  
HETATM    3  N   UNL     1      -9.653   9.040  71.323  1.00  0.00    -0.284 NA 
HETATM    4  H   UNL     1     -10.353   9.779  71.257  1.00  0.00     0.000 HD 
HETATM    5  C   UNL     1      -9.984   7.707  71.620  1.00  0.00    -0.176 A  
HETATM    6  C   UNL     1     -11.295   7.384  71.978  1.00  0.00    -0.301 A  
HETATM    7  C   UNL     1     -11.632   6.082  72.379  1.00  0.00    -0.300 A  
HETATM    8 CL   UNL     1     -13.290   5.805  72.775  1.00  0.00     0.683 Cl 
HETATM    9  C   UNL     1     -10.635   5.102  72.445  1.00  0.00    -0.221 A  
HETATM   10  C   UNL     1      -9.329   5.395  72.037  1.00  0.00    -0.163 A  
HETATM   11  O   UNL     1      -6.887   6.080  70.832  1.00  0.00    -0.058 OA 
HETATM   12  C   UNL     1      -9.022   6.687  71.606  1.00  0.00    -0.141 A  
HETATM   13  N   UNL     1      -7.708   8.210  70.301  1.00  0.00    -0.083 N  
HETATM   14  C   UNL     1      -7.732   6.961  70.921  1.00  0.00    -0.092 C  
ENDROOT
BRANCH   9  15
HETATM   15  S   UNL     1     -10.976   3.479  73.039  1.00  0.00     0.013 S  
HETATM   16  H1  UNL     1     -12.852   2.498  73.380  1.00  0.00     0.000 HD 
HETATM   17  N   UNL     1     -12.655   3.438  73.036  1.00  0.00     1.011 N  
HETATM   18  H2  UNL     1     -13.312   4.168  72.760  1.00  0.00     0.000 HD 
HETATM   19  O   UNL     1     -10.515   2.507  72.083  1.00  0.00    -0.092 OA 
HETATM   20  O   UNL     1     -10.616   3.406  74.437  1.00  0.00    -0.193 OA 
ENDBRANCH   9  15
BRANCH  13  21
HETATM   21  C   UNL     1      -6.832   8.441  69.212  1.00  0.00    -0.047 A  
HETATM   22  C   UNL     1      -6.983   7.725  68.018  1.00  0.00    -0.080 A  
HETATM   23  C   UNL     1      -6.210   8.044  66.899  1.00  0.00    -0.054 A  
HETATM   24  C   UNL     1      -5.282   9.079  66.964  1.00  0.00    -0.036 A  
HETATM   25  C   UNL     1      -5.131   9.804  68.145  1.00  0.00    -0.036 A  
HETATM   26  C   UNL     1      -5.918   9.514  69.273  1.00  0.00    -0.034 A  
HETATM   27  C   UNL     1      -5.768  10.403  70.477  1.00  0.00    -0.091 C  
ENDBRANCH  13  21
TORSDOF 2
ENDMDL
MODEL      137
REMARK 921   NORMALIZED FREE ENERGY PREDICTED BY IDOCK:    5.82 KCAL/MOL
REMARK 922        TOTAL FREE ENERGY PREDICTED BY IDOCK:    5.76 KCAL/MOL
REMARK 923 INTER-LIGAND FREE ENERGY PREDICTED BY IDOCK:    4.58 KCAL/MOL
REMARK 924 INTRA-LIGAND FREE ENERGY PREDICTED BY IDOCK:    1.17 KCAL/MOL
REMARK 927      BINDING AFFINITY PREDICTED BY RF-SCORE:    0.00 PKD
ROOT
HETATM    1  C   UNL     1     -11.429  14.807  72.737  1.00  0.00     0.155 C  
HETATM    2  C   UNL     1     -11.703  14.865  71.237  1.00  0.00    -0.331 C  
HETATM    3  N   UNL     1     -10.488  15.292  70.537  1.00  0.00    -0.504 NA 
HETATM    4  H   UNL     1      -9.647  15.594  71.029  1.00  0.00     0.000 HD 
HETATM    5  C   UNL     1     -10.571  15.252  69.135  1.00  0.00    -0.250 A  
HETATM    6  C   UNL     1      -9.528  15.772  68.365  1.00  0.00    -0.196 A  
HETATM    7  C   UNL     1      -9.629  15.839  66.967  1.00  0.00    -0.226 A  
HETATM    8 CL   UNL     1      -8.263  16.482  66.128  1.00  0.00    -0.353 Cl 
HETATM    9  C   UNL     1     -10.801  15.404  66.338  1.00  0.00    -0.303 A  
HETATM   10  C   UNL     1     -11.832  14.830  67.090  1.00  0.00    -0.307 A  
HETATM   11  O   UNL     1     -13.605  13.384  68.720  1.00  0.00     3.451 OA 
HETATM   12  C   UNL     1     -11.698  14.737  68.476  1.00  0.00    -0.347 A  
HETATM   13  N   UNL     1     -12.198  13.682  70.571  1.00  0.00    -0.358 N  
HETATM   14  C   UNL     1     -12.640  13.903  69.267  1.00  0.00     0.232 C  
ENDROOT
BRANCH   9  15
HETATM   15  S   UNL     1     -11.028  15.559  64.598  1.00  0.00    -0.206 S  
HETATM   16  H1  UNL     1     -10.009  14.588  62.981  1.00  0.00     0.000 HD 
HETATM   17  N   UNL     1      -9.877  14.498  63.989  1.00  0.00     1.246 N  
HETATM   18  H2  UNL     1      -9.215  13.911  64.497  1.00  0.00     0.000 HD 
HETATM   19  O   UNL     1     -12.324  15.053  64.232  1.00  0.00    -0.561 OA 
HETATM   20  O   UNL     1     -10.571  16.865  64.181  1.00  0.00     0.336 OA 
ENDBRANCH   9  15
BRANCH  13  21
HETATM   21  C   UNL     1     -12.650  12.547  71.287  1.00  0.00    -0.231 A  
HETATM   22  C   UNL     1     -12.050  11.298  71.085  1.00  0.00    -0.252 A  
HETATM   23  C   UNL     1     -12.400  10.207  71.884  1.00  0.00    -0.300 A  
HETATM   24  C   UNL     1     -13.351  10.355  72.890  1.00  0.00     1.343 A  
HETATM   25  C   UNL     1     -13.947  11.597  73.105  1.00  0.00     3.213 A  
HETATM   26  C   UNL     1     -13.589  12.711  72.328  1.00  0.00    -0.508 A  
HETATM   27  C   UNL     1     -14.202  14.038  72.683  1.00  0.00    -0.160 C  
ENDBRANCH  13  21
TORSDOF 2
ENDMDL
MODEL      138
REMARK 921   NORMALIZED FREE ENERGY PREDICTED BY IDOCK:    6.05 KCAL/MOL
REMARK 922        TOTAL FREE ENERGY PREDICTED BY IDOCK:    6.01 KCAL/MOL
REMARK 923 INTER-LIGAND FREE ENERGY PREDICTED BY IDOCK:    5.34 KCAL/MOL
REMARK 924 INTRA-LIGAND FREE ENERGY PREDICTED BY IDOCK:    0.66 KCAL/MOL
REMARK 927      BINDING AFFINITY PREDICTED BY RF-SCORE:    0.00 PKD
ROOT
HETATM    1  C   UNL     1      -8.372  14.124  65.594  1.00  0.00     2.670 C  
HETATM    2  C   UNL     1      -7.734  14.968  66.694  1.00  0.00     0.419 C  
HETATM    3  N   UNL     1      -8.553  16.161  66.927  1.00  0.00    -0.200 NA 
HETATM    4  H   UNL     1      -9.357  16.399  66.345  1.00  0.00     0.000 HD 
HETATM    5  C   UNL     1      -8.144  16.953  68.014  1.00  0.00    -0.194 A  
HETATM    6  C   UNL     1      -8.760  18.186  68.241  1.00  0.00    -0.294 A  
HETATM    7  C   UNL     1      -8.303  19.042  69.255  1.00  0.00     0.057 A  
HETATM    8 CL   UNL     1      -9.163  20.528  69.449  1.00  0.00     0.845 Cl 
HETATM    9  C   UNL     1      -7.201  18.667  70.031  1.00  0.00     0.730 A  
HETATM   10  C   UNL     1      -6.609  17.411  69.852  1.00  0.00     0.164 A  
HETATM   11  O   UNL     1      -5.812  14.731  69.592  1.00  0.00    -0.095 OA 
HETATM   12  C   UNL     1      -7.101  16.558  68.863  1.00  0.00    -0.200 A  
HETATM   13  N   UNL     1      -7.471  14.360  67.978  1.00  0.00    -0.124 N  
HETATM   14  C   UNL     1      -6.678  15.134  68.825  1.00  0.00    -0.099 C  
ENDROOT
BRANCH   9  15
HETATM   15  S   UNL     1      -6.519  19.743  71.248  1.00  0.00     0.362 S  
HETATM   16  H1  UNL     1      -7.436  21.336  72.351  1.00  0.00     0.000 HD 
HETATM   17  N   UNL     1      -7.831  20.713  71.646  1.00  0.00     0.760 N  
HETATM   18  H2  UNL     1      -8.781  20.687  71.278  1.00  0.00     0.000 HD 
HETATM   19  O   UNL     1      -6.166  18.986  72.419  1.00  0.00     0.622 OA 
HETATM   20  O   UNL     1      -5.586  20.642  70.608  1.00  0.00    -0.472 OA 
ENDBRANCH   9  15
BRANCH  13  21
HETATM   21  C   UNL     1      -7.574  12.963  68.187  1.00  0.00    -0.135 A  
HETATM   22  C   UNL     1      -8.694  12.424  68.831  1.00  0.00     0.287 A  
HETATM   23  C   UNL     1      -8.862  11.040  68.918  1.00  0.00    -0.120 A  
HETATM   24  C   UNL     1      -7.914  10.185  68.363  1.00  0.00    -0.102 A  
HETATM   25  C   UNL     1      -6.800  10.713  67.711  1.00  0.00    -0.073 A  
HETATM   26  C   UNL     1      -6.627  12.102  67.591  1.00  0.00    -0.116 A  
HETATM   27  C   UNL     1      -5.454  12.594  66.790  1.00  0.00     0.652 C  
ENDBRANCH  13  21
TORSDOF 2
ENDMDL
MODEL      139
REMARK 921   NORMALIZED FREE ENERGY PREDICTED BY IDOCK:    7.86 KCAL/MOL
REMARK 922        TOTAL FREE ENERGY PREDICTED BY IDOCK:    8.03 KCAL/MOL
REMARK 923 INTER-LIGAND FREE ENERGY PREDICTED BY IDOCK:    6.78 KCAL/MOL
REMARK 924 INTRA-LIGAND FREE ENERGY PREDICTED BY IDOCK:    1.26 KCAL/MOL
REMARK 927      BINDING AFFINITY PREDICTED BY RF-SCORE:    0.00 PKD
ROOT
HETATM    1  C   UNL     1      -9.035  12.148  65.829  1.00  0.00     0.154 C  
HETATM    2  C   UNL     1      -9.570  13.532  66.187  1.00  0.00    -0.204 C  
HETATM    3  N   UNL     1      -8.539  14.537  65.911  1.00  0.00     0.180 NA 
HETATM    4  H   UNL     1      -7.592  14.290  65.626  1.00  0.00     0.000 HD 
HETATM    5  C   UNL     1      -8.959  15.869  66.070  1.00  0.00    -0.302 A  
HETATM    6  C   UNL     1      -8.025  16.903  65.976  1.00  0.00    -0.147 A  
HETATM    7  C   UNL     1      -8.395  18.233  66.233  1.00  0.00    -0.203 A  
HETATM    8 CL   UNL     1      -7.154  19.422  66.060  1.00  0.00    -0.274 Cl 
HETATM    9  C   UNL     1      -9.710  18.522  66.613  1.00  0.00    -0.341 A  
HETATM   10  C   UNL     1     -10.670  17.504  66.658  1.00  0.00    -0.097 A  
HETATM   11  O   UNL     1     -12.506  15.405  66.327  1.00  0.00     0.704 OA 
HETATM   12  C   UNL     1     -10.291  16.194  66.363  1.00  0.00    -0.321 A  
HETATM   13  N   UNL     1     -10.798  13.986  65.576  1.00  0.00    -0.299 N  
HETATM   14  C   UNL     1     -11.323  15.147  66.142  1.00  0.00    -0.220 C  
ENDROOT
BRANCH   9  15
HETATM   15  S   UNL     1     -10.208  20.155  67.047  1.00  0.00    -0.365 S  
HETATM   16  H1  UNL     1     -12.093  20.878  67.768  1.00  0.00     0.000 HD 
HETATM   17  N   UNL     1     -11.805  19.932  67.516  1.00  0.00     1.213 N  
HETATM   18  H2  UNL     1     -12.349  19.070  67.544  1.00  0.00     0.000 HD 
HETATM   19  O   UNL     1      -9.472  20.594  68.203  1.00  0.00    -0.060 OA 
HETATM   20  O   UNL     1     -10.293  20.954  65.846  1.00  0.00     0.445 OA 
ENDBRANCH   9  15
BRANCH  13  21
HETATM   21  C   UNL     1     -11.639  13.118  64.836  1.00  0.00    -0.323 A  
HETATM   22  C   UNL     1     -11.770  11.775  65.207  1.00  0.00    -0.132 A  
HETATM   23  C   UNL     1     -12.698  10.951  64.565  1.00  0.00     3.604 A  
HETATM   24  C   UNL     1     -13.501  11.463  63.550  1.00  0.00     1.271 A  
HETATM   25  C   UNL     1     -13.384  12.802  63.180  1.00  0.00     1.467 A  
HETATM   26  C   UNL     1     -12.475  13.652  63.832  1.00  0.00    -0.276 A  
HETATM   27  C   UNL     1     -12.475  15.105  63.446  1.00  0.00     1.303 C  
ENDBRANCH  13  21
TORSDOF 2
ENDMDL
MODEL      140
REMARK 921   NORMALIZED FREE ENERGY PREDICTED BY IDOCK:   14.05 KCAL/MOL
REMARK 922        TOTAL FREE ENERGY PREDICTED BY IDOCK:   14.95 KCAL/MOL
REMARK 923 INTER-LIGAND FREE ENERGY PREDICTED BY IDOCK:   14.34 KCAL/MOL
REMARK 924 INTRA-LIGAND FREE ENERGY PREDICTED BY IDOCK:    0.60 KCAL/MOL
REMARK 927      BINDING AFFINITY PREDICTED BY RF-SCORE:    0.00 PKD
ROOT
HETATM    1  C   UNL     1      -7.850  20.370  69.046  1.00  0.00     0.483 C  
HETATM    2  C   UNL     1      -8.395  18.958  69.246  1.00  0.00     0.107 C  
HETATM    3  N   UNL     1      -9.579  19.012  70.108  1.00  0.00     0.858 NA 
HETATM    4  H   UNL     1      -9.889  19.870  70.564  1.00  0.00     0.000 HD 
HETATM    5  C   UNL     1     -10.255  17.789  70.256  1.00  0.00     1.324 A  
HETATM    6  C   UNL     1     -11.310  17.689  71.167  1.00  0.00     2.480 A  
HETATM    7  C   UNL     1     -11.935  16.456  71.411  1.00  0.00    -0.095 A  
HETATM    8 CL   UNL     1     -13.240  16.468  72.542  1.00  0.00     0.434 Cl 
HETATM    9  C   UNL     1     -11.478  15.309  70.753  1.00  0.00    -0.325 A  
HETATM   10  C   UNL     1     -10.460  15.403  69.797  1.00  0.00    -0.303 A  
HETATM   11  O   UNL     1      -8.684  15.863  67.671  1.00  0.00    -0.165 OA 
HETATM   12  C   UNL     1      -9.876  16.644  69.541  1.00  0.00    -0.038 A  
HETATM   13  N   UNL     1      -8.735  18.169  68.084  1.00  0.00    -0.270 N  
HETATM   14  C   UNL     1      -8.992  16.827  68.360  1.00  0.00    -0.233 C  
ENDROOT
BRANCH   9  15
HETATM   15  S   UNL     1     -12.153  13.718  71.095  1.00  0.00    -0.053 S  
HETATM   16  H1  UNL     1     -11.169  11.849  71.459  1.00  0.00     0.000 HD 
HETATM   17  N   UNL     1     -10.778  12.770  71.261  1.00  0.00     4.309 N  
HETATM   18  H2  UNL     1      -9.798  13.045  71.184  1.00  0.00     0.000 HD 
HETATM   19  O   UNL     1     -12.823  13.740  72.369  1.00  0.00    -0.318 OA 
HETATM   20  O   UNL     1     -12.796  13.215  69.902  1.00  0.00     0.162 OA 
ENDBRANCH   9  15
BRANCH  13  21
HETATM   21  C   UNL     1      -8.376  18.564  66.772  1.00  0.00    -0.269 A  
HETATM   22  C   UNL     1      -9.358  18.975  65.863  1.00  0.00     0.088 A  
HETATM   23  C   UNL     1      -8.997  19.492  64.617  1.00  0.00     4.009 A  
HETATM   24  C   UNL     1      -7.654  19.604  64.270  1.00  0.00     2.721 A  
HETATM   25  C   UNL     1      -6.668  19.207  65.172  1.00  0.00    -0.153 A  
HETATM   26  C   UNL     1      -7.012  18.708  66.440  1.00  0.00    -0.254 A  
HETATM   27  C   UNL     1      -5.893  18.394  67.395  1.00  0.00    -0.155 C  
ENDBRANCH  13  21
TORSDOF 2
ENDMDL
MODEL      141
REMARK 921   NORMALIZED FREE ENERGY PREDICTED BY IDOCK:   14.68 KCAL/MOL
REMARK 922        TOTAL FREE ENERGY PREDICTED BY IDOCK:   15.65 KCAL/MOL
REMARK 923 INTER-LIGAND FREE ENERGY PREDICTED BY IDOCK:   12.29 KCAL/MOL
REMARK 924 INTRA-LIGAND FREE ENERGY PREDICTED BY IDOCK:    3.36 KCAL/MOL
REMARK 927      BINDING AFFINITY PREDICTED BY RF-SCORE:    0.00 PKD
ROOT
HETATM    1  C   UNL     1     -13.392  14.223  65.408  1.00  0.00     0.372 C  
HETATM    2  C   UNL     1     -12.031  14.383  66.080  1.00  0.00    -0.369 C  
HETATM    3  N   UNL     1     -12.199  14.335  67.535  1.00  0.00    -0.598 NA 
HETATM    4  H   UNL     1     -13.115  14.304  67.983  1.00  0.00     0.000 HD 
HETATM    5  C   UNL     1     -10.999  14.333  68.267  1.00  0.00    -0.247 A  
HETATM    6  C   UNL     1     -11.038  14.435  69.659  1.00  0.00    -0.241 A  
HETATM    7  C   UNL     1      -9.855  14.540  70.407  1.00  0.00     1.221 A  
HETATM    8 CL   UNL     1     -10.037  14.636  72.122  1.00  0.00     3.111 Cl 
HETATM    9  C   UNL     1      -8.622  14.569  69.747  1.00  0.00     0.576 A  
HETATM   10  C   UNL     1      -8.563  14.412  68.357  1.00  0.00    -0.174 A  
HETATM   11  O   UNL     1      -8.639  13.716  65.638  1.00  0.00     1.183 OA 
HETATM   12  C   UNL     1      -9.749  14.272  67.635  1.00  0.00    -0.220 A  
HETATM   13  N   UNL     1     -10.968  13.468  65.732  1.00  0.00    -0.277 N  
HETATM   14  C   UNL     1      -9.713  13.841  66.213  1.00  0.00    -0.284 C  
ENDROOT
BRANCH   9  15
HETATM   15  S   UNL     1      -7.112  14.802  70.622  1.00  0.00     0.853 S  
HETATM   16  H1  UNL     1      -5.157  15.299  69.896  1.00  0.00     0.000 HD 
HETATM   17  N   UNL     1      -6.032  15.164  69.389  1.00  0.00    -0.103 N  
HETATM   18  H2  UNL     1      -6.206  15.232  68.386  1.00  0.00     0.000 HD 
HETATM   19  O   UNL     1      -7.215  15.964  71.465  1.00  0.00     3.140 OA 
HETATM   20  O   UNL     1      -6.663  13.526  71.131  1.00  0.00     0.585 OA 
ENDBRANCH   9  15
BRANCH  13  21
HETATM   21  C   UNL     1     -11.068  12.577  64.636  1.00  0.00    -0.306 A  
HETATM   22  C   UNL     1     -10.554  11.278  64.731  1.00  0.00    -0.376 A  
HETATM   23  C   UNL     1     -10.770  10.355  63.705  1.00  0.00     0.861 A  
HETATM   24  C   UNL     1     -11.501  10.721  62.579  1.00  0.00     2.198 A  
HETATM   25  C   UNL     1     -12.025  12.009  62.479  1.00  0.00     1.420 A  
HETATM   26  C   UNL     1     -11.840  12.943  63.513  1.00  0.00    -0.605 A  
HETATM   27  C   UNL     1     -12.518  14.279  63.378  1.00  0.00     0.570 C  
ENDBRANCH  13  21
TORSDOF 2
ENDMDL
MODEL      142
REMARK 921   NORMALIZED FREE ENERGY PREDICTED BY IDOCK:   20.05 KCAL/MOL
REMARK 922        TOTAL FREE ENERGY PREDICTED BY IDOCK:   21.65 KCAL/MOL
REMARK 923 INTER-LIGAND FREE ENERGY PREDICTED BY IDOCK:   18.84 KCAL/MOL
REMARK 924 INTRA-LIGAND FREE ENERGY PREDICTED BY IDOCK:    2.81 KCAL/MOL
REMARK 927      BINDING AFFINITY PREDICTED BY RF-SCORE:    0.00 PKD
ROOT
HETATM    1  C   UNL     1      -9.698  12.038  66.434  1.00  0.00    -0.239 C  
HETATM    2  C   UNL     1      -9.216  10.603  66.636  1.00  0.00    -0.164 C  
HETATM    3  N   UNL     1     -10.374   9.720  66.797  1.00  0.00    -0.232 NA 
HETATM    4  H   UNL     1     -11.329  10.071  66.863  1.00  0.00     0.000 HD 
HETATM    5  C   UNL     1     -10.066   8.350  66.854  1.00  0.00    -0.294 A  
HETATM    6  C   UNL     1     -11.071   7.427  67.150  1.00  0.00    -0.049 A  
HETATM    7  C   UNL     1     -10.773   6.065  67.315  1.00  0.00    -0.318 A  
HETATM    8 CL   UNL     1     -12.107   5.023  67.656  1.00  0.00     6.247 Cl 
HETATM    9  C   UNL     1      -9.447   5.632  67.206  1.00  0.00    -0.115 A  
HETATM   10  C   UNL     1      -8.437   6.535  66.855  1.00  0.00    -0.114 A  
HETATM   11  O   UNL     1      -6.641   8.412  65.790  1.00  0.00    -0.052 OA 
HETATM   12  C   UNL     1      -8.759   7.878  66.659  1.00  0.00    -0.154 A  
HETATM   13  N   UNL     1      -8.348  10.011  65.643  1.00  0.00    -0.140 N  
HETATM   14  C   UNL     1      -7.777   8.801  66.033  1.00  0.00    -0.097 C  
ENDROOT
BRANCH   9  15
HETATM   15  S   UNL     1      -8.997   3.955  67.504  1.00  0.00    -0.147 S  
HETATM   16  H1  UNL     1      -7.992   2.549  66.236  1.00  0.00     0.000 HD 
HETATM   17  N   UNL     1      -8.252   3.520  66.064  1.00  0.00    -0.096 N  
HETATM   18  H2  UNL     1      -8.098   4.083  65.228  1.00  0.00     0.000 HD 
HETATM   19  O   UNL     1      -8.003   3.898  68.543  1.00  0.00    -0.067 OA 
HETATM   20  O   UNL     1     -10.196   3.149  67.548  1.00  0.00     0.729 OA 
ENDBRANCH   9  15
BRANCH  13  21
HETATM   21  C   UNL     1      -7.750  10.775  64.612  1.00  0.00     0.239 A  
HETATM   22  C   UNL     1      -8.545  11.438  63.669  1.00  0.00     0.430 A  
HETATM   23  C   UNL     1      -7.967  12.299  62.735  1.00  0.00     3.285 A  
HETATM   24  C   UNL     1      -6.590  12.506  62.735  1.00  0.00     5.906 A  
HETATM   25  C   UNL     1      -5.791  11.858  63.675  1.00  0.00     3.754 A  
HETATM   26  C   UNL     1      -6.358  11.008  64.639  1.00  0.00     0.617 A  
HETATM   27  C   UNL     1      -5.445  10.424  65.681  1.00  0.00    -0.093 C  
ENDBRANCH  13  21
TORSDOF 2
ENDMDL
MODEL      143
REMARK 921   NORMALIZED FREE ENERGY PREDICTED BY IDOCK:   22.31 KCAL/MOL
REMARK 922        TOTAL FREE ENERGY PREDICTED BY IDOCK:   24.17 KCAL/MOL
REMARK 923 INTER-LIGAND FREE ENERGY PREDICTED BY IDOCK:   23.72 KCAL/MOL
REMARK 924 INTRA-LIGAND FREE ENERGY PREDICTED BY IDOCK:    0.45 KCAL/MOL
REMARK 927      BINDING AFFINITY PREDICTED BY RF-SCORE:    0.00 PKD
ROOT
HETATM    1  C   UNL     1      -9.492  17.384  65.270  1.00  0.00     1.342 C  
HETATM    2  C   UNL     1     -10.004  15.963  65.491  1.00  0.00    -0.278 C  
HETATM    3  N   UNL     1      -9.268  15.041  64.621  1.00  0.00     0.945 NA 
HETATM    4  H   UNL     1      -8.601  15.361  63.918  1.00  0.00     0.000 HD 
HETATM    5  C   UNL     1      -9.552  13.681  64.830  1.00  0.00     0.406 A  
HETATM    6  C   UNL     1      -9.020  12.723  63.965  1.00  0.00     2.224 A  
HETATM    7  C   UNL     1      -9.370  11.369  64.087  1.00  0.00    -0.055 A  
HETATM    8 CL   UNL     1      -8.627  10.280  62.970  1.00  0.00    -0.173 Cl 
HETATM    9  C   UNL     1     -10.283  10.979  65.073  1.00  0.00    -0.299 A  
HETATM   10  C   UNL     1     -10.782  11.918  65.983  1.00  0.00    -0.326 A  
HETATM   11  O   UNL     1     -11.367  13.866  67.918  1.00  0.00    -0.266 OA 
HETATM   12  C   UNL     1     -10.393  13.254  65.868  1.00  0.00    -0.293 A  
HETATM   13  N   UNL     1      -9.985  15.413  66.827  1.00  0.00    -0.243 N  
HETATM   14  C   UNL     1     -10.686  14.216  66.962  1.00  0.00    -0.285 C  
ENDROOT
BRANCH   9  15
HETATM   15  S   UNL     1     -10.839   9.312  65.209  1.00  0.00     3.687 S  
HETATM   16  H1  UNL     1     -12.413   8.293  64.171  1.00  0.00     0.000 HD 
HETATM   17  N   UNL     1     -12.092   9.258  64.092  1.00  0.00    11.321 N  
HETATM   18  H2  UNL     1     -12.443  10.000  63.488  1.00  0.00     0.000 HD 
HETATM   19  O   UNL     1      -9.807   8.419  64.750  1.00  0.00     1.332 OA 
HETATM   20  O   UNL     1     -11.488   9.138  66.488  1.00  0.00     1.366 OA 
ENDBRANCH   9  15
BRANCH  13  21
HETATM   21  C   UNL     1      -9.722  16.211  67.967  1.00  0.00    -0.229 A  
HETATM   22  C   UNL     1      -8.405  16.444  68.381  1.00  0.00    -0.191 A  
HETATM   23  C   UNL     1      -8.137  17.337  69.421  1.00  0.00     0.318 A  
HETATM   24  C   UNL     1      -9.181  18.003  70.055  1.00  0.00     1.803 A  
HETATM   25  C   UNL     1     -10.496  17.785  69.644  1.00  0.00     0.421 A  
HETATM   26  C   UNL     1     -10.782  16.910  68.583  1.00  0.00    -0.345 A  
HETATM   27  C   UNL     1     -12.214  16.802  68.133  1.00  0.00     1.539 C  
ENDBRANCH  13  21
TORSDOF 2
ENDMDL
MODEL      144
REMARK 921   NORMALIZED FREE ENERGY PREDICTED BY IDOCK:   24.40 KCAL/MOL
REMARK 922        TOTAL FREE ENERGY PREDICTED BY IDOCK:   26.51 KCAL/MOL
REMARK 923 INTER-LIGAND FREE ENERGY PREDICTED BY IDOCK:   20.80 KCAL/MOL
REMARK 924 INTRA-LIGAND FREE ENERGY PREDICTED BY IDOCK:    5.70 KCAL/MOL
REMARK 927      BINDING AFFINITY PREDICTED BY RF-SCORE:    0.00 PKD
ROOT
HETATM    1  C   UNL     1     -10.671  13.557  67.508  1.00  0.00    -0.266 C  
HETATM    2  C   UNL     1      -9.856  12.267  67.568  1.00  0.00    -0.193 C  
HETATM    3  N   UNL     1      -9.648  11.889  68.968  1.00  0.00    -0.402 NA 
HETATM    4  H   UNL     1      -9.930  12.484  69.747  1.00  0.00     0.000 HD 
HETATM    5  C   UNL     1      -9.027  10.642  69.155  1.00  0.00    -0.128 A  
HETATM    6  C   UNL     1      -8.648  10.243  70.438  1.00  0.00     0.652 A  
HETATM    7  C   UNL     1      -7.935   9.051  70.641  1.00  0.00    -0.141 A  
HETATM    8 CL   UNL     1      -7.545   8.659  72.278  1.00  0.00    -0.094 Cl 
HETATM    9  C   UNL     1      -7.578   8.265  69.540  1.00  0.00    -0.095 A  
HETATM   10  C   UNL     1      -7.999   8.622  68.254  1.00  0.00    -0.110 A  
HETATM   11  O   UNL     1      -9.245   9.307  65.833  1.00  0.00    -0.185 OA 
HETATM   12  C   UNL     1      -8.738   9.792  68.077  1.00  0.00    -0.118 A  
HETATM   13  N   UNL     1     -10.343  11.101  66.867  1.00  0.00    -0.222 N  
HETATM   14  C   UNL     1      -9.421  10.058  66.784  1.00  0.00    -0.168 C  
ENDROOT
BRANCH   9  15
HETATM   15  S   UNL     1      -6.596   6.814  69.722  1.00  0.00    -0.050 S  
HETATM   16  H1  UNL     1      -4.566   6.440  69.145  1.00  0.00     0.000 HD 
HETATM   17  N   UNL     1      -5.134   7.280  69.040  1.00  0.00    -0.014 N  
HETATM   18  H2  UNL     1      -4.878   8.176  68.625  1.00  0.00     0.000 HD 
HETATM   19  O   UNL     1      -6.363   6.559  71.119  1.00  0.00    -0.046 OA 
HETATM   20  O   UNL     1      -7.100   5.793  68.832  1.00  0.00    -0.068 OA 
ENDBRANCH   9  15
BRANCH  13  21
HETATM   21  C   UNL     1     -11.420  11.167  65.950  1.00  0.00     0.344 A  
HETATM   22  C   UNL     1     -12.199  10.033  65.690  1.00  0.00     6.878 A  
HETATM   23  C   UNL     1     -13.341  10.126  64.892  1.00  0.00    12.761 A  
HETATM   24  C   UNL     1     -13.714  11.351  64.348  1.00  0.00     3.396 A  
HETATM   25  C   UNL     1     -12.951  12.489  64.608  1.00  0.00    -0.176 A  
HETATM   26  C   UNL     1     -11.813  12.419  65.430  1.00  0.00    -0.460 A  
HETATM   27  C   UNL     1     -11.098  13.704  65.745  1.00  0.00    -0.292 C  
ENDBRANCH  13  21
TORSDOF 2
ENDMDL
MODEL      145
REMARK 921   NORMALIZED FREE ENERGY PREDICTED BY IDOCK:   27.36 KCAL/MOL
REMARK 922        TOTAL FREE ENERGY PREDICTED BY IDOCK:   29.82 KCAL/MOL
REMARK 923 INTER-LIGAND FREE ENERGY PREDICTED BY IDOCK:   28.52 KCAL/MOL
REMARK 924 INTRA-LIGAND FREE ENERGY PREDICTED BY IDOCK:    1.30 KCAL/MOL
REMARK 927      BINDING AFFINITY PREDICTED BY RF-SCORE:    0.00 PKD
ROOT
HETATM    1  C   UNL     1     -13.670  16.002  65.739  1.00  0.00     5.372 C  
HETATM    2  C   UNL     1     -12.903  15.674  67.018  1.00  0.00     2.785 C  
HETATM    3  N   UNL     1     -13.798  15.814  68.170  1.00  0.00     5.268 NA 
HETATM    4  H   UNL     1     -14.747  16.179  68.089  1.00  0.00     0.000 HD 
HETATM    5  C   UNL     1     -13.246  15.406  69.397  1.00  0.00     1.176 A  
HETATM    6  C   UNL     1     -13.953  15.628  70.581  1.00  0.00     0.585 A  
HETATM    7  C   UNL     1     -13.383  15.325  71.827  1.00  0.00    -0.448 A  
HETATM    8 CL   UNL     1     -14.367  15.625  73.214  1.00  0.00     0.667 Cl 
HETATM    9  C   UNL     1     -12.080  14.819  71.885  1.00  0.00    -0.335 A  
HETATM   10  C   UNL     1     -11.380  14.539  70.706  1.00  0.00    -0.101 A  
HETATM   11  O   UNL     1     -10.303  13.707  68.249  1.00  0.00    -0.237 OA 
HETATM   12  C   UNL     1     -11.978  14.812  69.475  1.00  0.00    -0.351 A  
HETATM   13  N   UNL     1     -12.244  14.393  67.129  1.00  0.00    -0.332 N  
HETATM   14  C   UNL     1     -11.381  14.287  68.219  1.00  0.00    -0.289 C  
ENDROOT
BRANCH   9  15
HETATM   15  S   UNL     1     -11.274  14.517  73.422  1.00  0.00     2.141 S  
HETATM   16  H1  UNL     1      -9.256  13.919  73.829  1.00  0.00     0.000 HD 
HETATM   17  N   UNL     1      -9.722  14.094  72.939  1.00  0.00     7.055 N  
HETATM   18  H2  UNL     1      -9.342  14.028  71.995  1.00  0.00     0.000 HD 
HETATM   19  O   UNL     1     -11.178  15.745  74.167  1.00  0.00     1.129 OA 
HETATM   20  O   UNL     1     -11.813  13.309  74.005  1.00  0.00     4.063 OA 
ENDBRANCH   9  15
BRANCH  13  21
HETATM   21  C   UNL     1     -12.092  13.525  66.020  1.00  0.00    -0.445 A  
HETATM   22  C   UNL     1     -12.554  12.205  66.086  1.00  0.00     1.239 A  
HETATM   23  C   UNL     1     -12.529  11.388  64.954  1.00  0.00     1.337 A  
HETATM   24  C   UNL     1     -12.042  11.883  63.747  1.00  0.00    -0.547 A  
HETATM   25  C   UNL     1     -11.588  13.199  63.669  1.00  0.00    -0.445 A  
HETATM   26  C   UNL     1     -11.630  14.043  64.791  1.00  0.00    -0.387 A  
HETATM   27  C   UNL     1     -11.216  15.477  64.604  1.00  0.00    -0.381 C  
ENDBRANCH  13  21
TORSDOF 2
ENDMDL
MODEL      146
REMARK 921   NORMALIZED FREE ENERGY PREDICTED BY IDOCK:   34.68 KCAL/MOL
REMARK 922        TOTAL FREE ENERGY PREDICTED BY IDOCK:   37.99 KCAL/MOL
REMARK 923 INTER-LIGAND FREE ENERGY PREDICTED BY IDOCK:   37.70 KCAL/MOL
REMARK 924 INTRA-LIGAND FREE ENERGY PREDICTED BY IDOCK:    0.29 KCAL/MOL
REMARK 927      BINDING AFFINITY PREDICTED BY RF-SCORE:    0.00 PKD
ROOT
HETATM    1  C   UNL     1     -10.893  10.680  65.071  1.00  0.00     0.058 C  
HETATM    2  C   UNL     1     -11.129  10.984  66.549  1.00  0.00    -0.106 C  
HETATM    3  N   UNL     1     -11.337   9.729  67.276  1.00  0.00    -0.234 NA 
HETATM    4  H   UNL     1     -11.410   8.826  66.806  1.00  0.00     0.000 HD 
HETATM    5  C   UNL     1     -11.428   9.865  68.672  1.00  0.00     0.111 A  
HETATM    6  C   UNL     1     -11.770   8.760  69.454  1.00  0.00     0.823 A  
HETATM    7  C   UNL     1     -11.969   8.890  70.837  1.00  0.00    -0.213 A  
HETATM    8 CL   UNL     1     -12.365   7.444  71.695  1.00  0.00    -0.353 Cl 
HETATM    9  C   UNL     1     -11.850  10.149  71.435  1.00  0.00    -0.328 A  
HETATM   10  C   UNL     1     -11.454  11.255  70.676  1.00  0.00     0.059 A  
HETATM   11  O   UNL     1     -10.301  13.247  69.067  1.00  0.00    -0.115 OA 
HETATM   12  C   UNL     1     -11.224  11.098  69.308  1.00  0.00    -0.331 A  
HETATM   13  N   UNL     1     -10.138  11.749  67.271  1.00  0.00    -0.192 N  
HETATM   14  C   UNL     1     -10.553  12.174  68.533  1.00  0.00    -0.233 C  
ENDROOT
BRANCH   9  15
HETATM   15  S   UNL     1     -12.189  10.393  73.147  1.00  0.00     6.271 S  
HETATM   16  H1  UNL     1     -13.937  11.175  74.110  1.00  0.00     0.000 HD 
HETATM   17  N   UNL     1     -13.741  11.033  73.119  1.00  0.00     1.946 N  
HETATM   18  H2  UNL     1     -14.337  11.231  72.316  1.00  0.00     0.000 HD 
HETATM   19  O   UNL     1     -12.255   9.119  73.814  1.00  0.00     2.577 OA 
HETATM   20  O   UNL     1     -11.362  11.471  73.639  1.00  0.00    11.717 OA 
ENDBRANCH   9  15
BRANCH  13  21
HETATM   21  C   UNL     1      -9.074  12.416  66.616  1.00  0.00    -0.204 A  
HETATM   22  C   UNL     1      -9.339  13.368  65.624  1.00  0.00     0.231 A  
HETATM   23  C   UNL     1      -8.301  14.122  65.073  1.00  0.00     5.539 A  
HETATM   24  C   UNL     1      -6.993  13.932  65.507  1.00  0.00     9.065 A  
HETATM   25  C   UNL     1      -6.720  12.993  66.500  1.00  0.00     1.838 A  
HETATM   26  C   UNL     1      -7.754  12.243  67.085  1.00  0.00    -0.134 A  
HETATM   27  C   UNL     1      -7.396  11.322  68.219  1.00  0.00    -0.095 C  
ENDBRANCH  13  21
TORSDOF 2
ENDMDL
