MODEL        1
REMARK 921   NORMALIZED FREE ENERGY PREDICTED BY IDOCK:   -7.49 KCAL/MOL
REMARK 922        TOTAL FREE ENERGY PREDICTED BY IDOCK:  -10.14 KCAL/MOL
REMARK 923 INTER-LIGAND FREE ENERGY PREDICTED BY IDOCK:   -9.24 KCAL/MOL
REMARK 924 INTRA-LIGAND FREE ENERGY PREDICTED BY IDOCK:   -0.89 KCAL/MOL
REMARK 927      BINDING AFFINITY PREDICTED BY RF-SCORE:    0.00 PKD
ROOT
HETATM    1  C   UNL     1      -8.001  14.530  67.339  1.00  0.00    -0.200 C  
HETATM    2  C   UNL     1      -6.685  13.693  67.083  1.00  0.00     0.427 C  
HETATM    3  C   UNL     1      -6.411  12.489  67.931  1.00  0.00    -0.105 A  
HETATM    4  C   UNL     1      -6.731  12.460  69.278  1.00  0.00    -0.067 A  
HETATM    5  C   UNL     1      -7.246  11.283  69.800  1.00  0.00     0.124 A  
HETATM    6  C   UNL     1      -7.231  10.123  69.023  1.00  0.00    -0.076 A  
HETATM    7  C   UNL     1      -6.369  10.091  67.952  1.00  0.00    -0.058 A  
HETATM    8  O   UNL     1      -8.181   9.201  69.369  1.00  0.00    -0.110 OA 
HETATM    9  C   UNL     1      -8.542   8.076  68.660  1.00  0.00    -0.128 A  
HETATM   10  C   UNL     1      -6.030  11.286  67.336  1.00  0.00    -0.062 A  
HETATM   11  C   UNL     1      -9.192   7.124  69.497  1.00  0.00    -0.149 A  
HETATM   12  C   UNL     1      -9.422   5.834  69.019  1.00  0.00    -0.152 A  
HETATM   13  C   UNL     1      -9.100   5.517  67.727  1.00  0.00    -0.107 A  
HETATM   14  C   UNL     1      -9.870   4.711  69.913  1.00  0.00    -0.296 C  
HETATM   15  C   UNL     1     -10.564   5.146  71.177  1.00  0.00    -0.125 C  
HETATM   16  C   UNL     1      -8.551   6.469  66.852  1.00  0.00    -0.114 A  
HETATM   17  C   UNL     1      -9.382  13.926  67.594  1.00  0.00    -0.205 C  
HETATM   18  C   UNL     1      -8.365   7.791  67.280  1.00  0.00    -0.118 A  
HETATM   19  N   UNL     1      -9.968   6.392  71.837  1.00  0.00    -0.175 N  
HETATM   20  C   UNL     1      -8.004  15.588  69.700  1.00  0.00    -0.123 C  
HETATM   21  C   UNL     1     -10.848   6.668  73.056  1.00  0.00    -0.267 C  
HETATM   22  C   UNL     1     -10.349  16.231  67.704  1.00  0.00    -0.284 C  
HETATM   23  C   UNL     1      -9.887   7.561  70.798  1.00  0.00    -0.178 C  
HETATM   24  C   UNL     1      -8.540   6.205  72.363  1.00  0.00    -0.119 C  
HETATM   25  C   UNL     1      -6.477  16.509  68.008  1.00  0.00    -0.134 C  
HETATM   26  C   UNL     1     -11.277   8.073  70.359  1.00  0.00    -0.230 C  
HETATM   27  C   UNL     1     -11.752   9.357  70.969  1.00  0.00    -0.395 A  
HETATM   28  C   UNL     1     -11.172  10.541  70.487  1.00  0.00    -0.348 A  
HETATM   29  C   UNL     1     -11.903  11.707  70.447  1.00  0.00    -0.293 A  
HETATM   30  C   UNL     1     -13.015  11.772  71.314  1.00  0.00    -0.254 A  
HETATM   31  O   UNL     1     -11.529  12.730  69.583  1.00  0.00    -0.254 OA 
HETATM   32  N   UNL     1      -7.828  15.831  68.206  1.00  0.00    -0.127 N  
HETATM   33  C   UNL     1     -11.056  12.302  68.247  1.00  0.00    -0.240 C  
HETATM   34  C   UNL     1     -13.525  10.628  71.937  1.00  0.00    -0.341 A  
HETATM   35  C   UNL     1      -8.926  16.816  67.708  1.00  0.00    -0.216 C  
HETATM   36  C   UNL     1     -11.851  12.817  67.213  1.00  0.00    -0.350 C  
HETATM   37  C   UNL     1     -12.919   9.395  71.711  1.00  0.00    -0.484 A  
HETATM   38  C   UNL     1      -9.723  12.632  68.021  1.00  0.00    -0.215 C  
HETATM   39  C   UNL     1     -11.704  14.186  66.991  1.00  0.00    -0.430 C  
HETATM   40  C   UNL     1     -10.480  14.770  67.362  1.00  0.00    -0.256 C  
ENDROOT
BRANCH  16  41
HETATM   41  O   UNL     1      -8.214   6.066  65.585  1.00  0.00    -0.125 OA 
HETATM   42  C   UNL     1      -8.849   4.840  65.203  1.00  0.00    -0.151 C  
ENDBRANCH  16  41
BRANCH  18  43
HETATM   43  O   UNL     1      -8.155   8.839  66.424  1.00  0.00    -0.100 OA 
HETATM   44  C   UNL     1      -9.301   9.473  65.842  1.00  0.00    -0.226 C  
ENDBRANCH  18  43
BRANCH  30  45
HETATM   45  O   UNL     1     -13.657  12.949  71.620  1.00  0.00    -0.264 OA 
HETATM   46  C   UNL     1     -12.932  13.610  72.658  1.00  0.00    -0.262 C  
ENDBRANCH  30  45
BRANCH  36  47
HETATM   47  O   UNL     1     -11.916  11.925  66.140  1.00  0.00    -0.537 OA 
HETATM   48  C   UNL     1     -11.581  12.386  64.835  1.00  0.00    -0.343 C  
ENDBRANCH  36  47
TORSDOF 4
ENDMDL
MODEL        2
REMARK 921   NORMALIZED FREE ENERGY PREDICTED BY IDOCK:   -7.11 KCAL/MOL
REMARK 922        TOTAL FREE ENERGY PREDICTED BY IDOCK:   -9.66 KCAL/MOL
REMARK 923 INTER-LIGAND FREE ENERGY PREDICTED BY IDOCK:   -8.74 KCAL/MOL
REMARK 924 INTRA-LIGAND FREE ENERGY PREDICTED BY IDOCK:   -0.92 KCAL/MOL
REMARK 927      BINDING AFFINITY PREDICTED BY RF-SCORE:    0.00 PKD
ROOT
HETATM    1  C   UNL     1      -7.156  13.465  67.225  1.00  0.00     0.022 C  
HETATM    2  C   UNL     1      -5.854  12.568  67.224  1.00  0.00    -0.101 C  
HETATM    3  C   UNL     1      -5.712  11.490  68.254  1.00  0.00    -0.045 A  
HETATM    4  C   UNL     1      -6.165  11.659  69.552  1.00  0.00    -0.113 A  
HETATM    5  C   UNL     1      -6.774  10.580  70.175  1.00  0.00    -0.149 A  
HETATM    6  C   UNL     1      -6.727   9.322  69.571  1.00  0.00    -0.047 A  
HETATM    7  C   UNL     1      -5.765   9.119  68.609  1.00  0.00    -0.041 A  
HETATM    8  O   UNL     1      -7.741   8.481  69.940  1.00  0.00    -0.086 OA 
HETATM    9  C   UNL     1      -8.073   7.276  69.360  1.00  0.00    -0.130 A  
HETATM   10  C   UNL     1      -5.320  10.206  67.873  1.00  0.00    -0.038 A  
HETATM   11  C   UNL     1      -8.839   6.468  70.248  1.00  0.00    -0.151 A  
HETATM   12  C   UNL     1      -9.069   5.130  69.931  1.00  0.00    -0.162 A  
HETATM   13  C   UNL     1      -8.633   4.626  68.736  1.00  0.00    -0.096 A  
HETATM   14  C   UNL     1      -9.647   4.155  70.920  1.00  0.00    -0.250 C  
HETATM   15  C   UNL     1     -10.445   4.780  72.033  1.00  0.00    -0.155 C  
HETATM   16  C   UNL     1      -7.964   5.432  67.799  1.00  0.00    -0.100 A  
HETATM   17  C   UNL     1      -8.578  12.936  67.417  1.00  0.00    -0.195 C  
HETATM   18  C   UNL     1      -7.771   6.796  68.058  1.00  0.00    -0.112 A  
HETATM   19  N   UNL     1      -9.870   6.093  72.574  1.00  0.00    -0.167 N  
HETATM   20  C   UNL     1      -7.353  14.845  69.405  1.00  0.00    -0.181 C  
HETATM   21  C   UNL     1     -10.855   6.559  73.646  1.00  0.00    -0.127 C  
HETATM   22  C   UNL     1      -9.462  15.257  67.108  1.00  0.00    -0.223 C  
HETATM   23  C   UNL     1      -9.641   7.101  71.397  1.00  0.00    -0.161 C  
HETATM   24  C   UNL     1      -8.509   5.947  73.265  1.00  0.00    -0.118 C  
HETATM   25  C   UNL     1      -5.631  15.481  67.769  1.00  0.00    -0.120 C  
HETATM   26  C   UNL     1     -10.960   7.580  70.751  1.00  0.00    -0.265 C  
HETATM   27  C   UNL     1     -11.444   8.948  71.126  1.00  0.00    -0.364 A  
HETATM   28  C   UNL     1     -10.774  10.037  70.548  1.00  0.00    -0.352 A  
HETATM   29  C   UNL     1     -11.452  11.204  70.273  1.00  0.00    -0.237 A  
HETATM   30  C   UNL     1     -12.641  11.417  71.002  1.00  0.00    -0.386 A  
HETATM   31  O   UNL     1     -10.955  12.086  69.319  1.00  0.00    -0.211 OA 
HETATM   32  N   UNL     1      -7.020  14.871  67.918  1.00  0.00    -0.139 N  
HETATM   33  C   UNL     1     -10.369  11.462  68.110  1.00  0.00    -0.188 C  
HETATM   34  C   UNL     1     -13.253  10.385  71.722  1.00  0.00    -0.529 A  
HETATM   35  C   UNL     1      -8.024  15.802  67.179  1.00  0.00    -0.216 C  
HETATM   36  C   UNL     1     -11.038  11.845  66.939  1.00  0.00    -0.305 C  
HETATM   37  C   UNL     1     -12.677   9.118  71.731  1.00  0.00    -0.446 A  
HETATM   38  C   UNL     1      -9.009  11.724  67.981  1.00  0.00    -0.176 C  
HETATM   39  C   UNL     1     -10.817  13.165  66.547  1.00  0.00    -0.291 C  
HETATM   40  C   UNL     1      -9.614  13.765  66.958  1.00  0.00    -0.251 C  
ENDROOT
BRANCH  16  41
HETATM   41  O   UNL     1      -7.519   4.846  66.642  1.00  0.00    -0.084 OA 
HETATM   42  C   UNL     1      -8.579   4.278  65.861  1.00  0.00    -0.114 C  
ENDBRANCH  16  41
BRANCH  18  43
HETATM   43  O   UNL     1      -7.437   7.707  67.092  1.00  0.00    -0.091 OA 
HETATM   44  C   UNL     1      -8.501   8.356  66.381  1.00  0.00    -0.123 C  
ENDBRANCH  18  43
BRANCH  30  45
HETATM   45  O   UNL     1     -13.265  12.641  71.075  1.00  0.00    -0.050 OA 
HETATM   46  C   UNL     1     -13.573  12.917  72.443  1.00  0.00    -0.478 C  
ENDBRANCH  30  45
BRANCH  36  47
HETATM   47  O   UNL     1     -11.030  10.813  65.998  1.00  0.00    -0.095 OA 
HETATM   48  C   UNL     1     -10.606  11.091  64.668  1.00  0.00    -0.299 C  
ENDBRANCH  36  47
TORSDOF 4
ENDMDL
MODEL        3
REMARK 921   NORMALIZED FREE ENERGY PREDICTED BY IDOCK:   -6.50 KCAL/MOL
REMARK 922        TOTAL FREE ENERGY PREDICTED BY IDOCK:   -8.92 KCAL/MOL
REMARK 923 INTER-LIGAND FREE ENERGY PREDICTED BY IDOCK:   -8.00 KCAL/MOL
REMARK 924 INTRA-LIGAND FREE ENERGY PREDICTED BY IDOCK:   -0.91 KCAL/MOL
REMARK 927      BINDING AFFINITY PREDICTED BY RF-SCORE:    0.00 PKD
ROOT
HETATM    1  C   UNL     1      -7.803  15.332  67.168  1.00  0.00    -0.214 C  
HETATM    2  C   UNL     1      -6.609  14.349  66.845  1.00  0.00     1.293 C  
HETATM    3  C   UNL     1      -6.456  13.098  67.655  1.00  0.00    -0.166 A  
HETATM    4  C   UNL     1      -6.730  13.073  69.012  1.00  0.00    -0.099 A  
HETATM    5  C   UNL     1      -7.368  11.955  69.527  1.00  0.00     0.286 A  
HETATM    6  C   UNL     1      -7.521  10.822  68.725  1.00  0.00    -0.109 A  
HETATM    7  C   UNL     1      -6.707  10.714  67.622  1.00  0.00    -0.072 A  
HETATM    8  O   UNL     1      -8.565  10.013  69.085  1.00  0.00    -0.135 OA 
HETATM    9  C   UNL     1      -9.085   8.959  68.366  1.00  0.00    -0.137 A  
HETATM   10  C   UNL     1      -6.245  11.874  67.020  1.00  0.00    -0.145 A  
HETATM   11  C   UNL     1      -9.818   8.072  69.206  1.00  0.00    -0.178 A  
HETATM   12  C   UNL     1     -10.219   6.833  68.709  1.00  0.00    -0.184 A  
HETATM   13  C   UNL     1      -9.984   6.513  67.399  1.00  0.00    -0.180 A  
HETATM   14  C   UNL     1     -10.771   5.749  69.594  1.00  0.00    -0.416 C  
HETATM   15  C   UNL     1     -11.362   6.232  70.892  1.00  0.00    -0.325 C  
HETATM   16  C   UNL     1      -9.352   7.414  66.525  1.00  0.00    -0.173 A  
HETATM   17  C   UNL     1      -9.238  14.894  67.461  1.00  0.00    -0.194 C  
HETATM   18  C   UNL     1      -8.991   8.692  66.974  1.00  0.00    -0.133 A  
HETATM   19  N   UNL     1     -10.596   7.379  71.557  1.00  0.00    -0.207 N  
HETATM   20  C   UNL     1      -7.596  16.321  69.550  1.00  0.00    -0.004 C  
HETATM   21  C   UNL     1     -11.393   7.728  72.814  1.00  0.00    -0.389 C  
HETATM   22  C   UNL     1      -9.911  17.296  67.658  1.00  0.00    -0.297 C  
HETATM   23  C   UNL     1     -10.408   8.556  70.541  1.00  0.00    -0.200 C  
HETATM   24  C   UNL     1      -9.184   7.006  72.025  1.00  0.00    -0.138 C  
HETATM   25  C   UNL     1      -6.026  17.093  67.823  1.00  0.00    -0.127 C  
HETATM   26  C   UNL     1     -11.739   9.245  70.166  1.00  0.00    -0.008 C  
HETATM   27  C   UNL     1     -12.032  10.561  70.821  1.00  0.00    -0.472 A  
HETATM   28  C   UNL     1     -11.329  11.677  70.344  1.00  0.00     0.189 A  
HETATM   29  C   UNL     1     -11.912  12.924  70.357  1.00  0.00    -0.249 A  
HETATM   30  C   UNL     1     -12.977  13.101  71.266  1.00  0.00    -0.254 A  
HETATM   31  O   UNL     1     -11.446  13.917  69.502  1.00  0.00    -0.264 OA 
HETATM   32  N   UNL     1      -7.443  16.580  68.056  1.00  0.00    -0.152 N  
HETATM   33  C   UNL     1     -11.075  13.470  68.140  1.00  0.00    -0.257 C  
HETATM   34  C   UNL     1     -13.602  12.012  71.883  1.00  0.00    -0.145 A  
HETATM   35  C   UNL     1      -8.428  17.704  67.622  1.00  0.00    -0.224 C  
HETATM   36  C   UNL     1     -11.836  14.104  67.148  1.00  0.00    -0.423 C  
HETATM   37  C   UNL     1     -13.160  10.721  71.607  1.00  0.00    -0.551 A  
HETATM   38  C   UNL     1      -9.720  13.641  67.872  1.00  0.00    -0.234 C  
HETATM   39  C   UNL     1     -11.531  15.451  66.951  1.00  0.00    -0.071 C  
HETATM   40  C   UNL     1     -10.232  15.871  67.289  1.00  0.00    -0.278 C  
ENDROOT
BRANCH  16  41
HETATM   41  O   UNL     1      -9.111   7.007  65.238  1.00  0.00     0.189 OA 
HETATM   42  C   UNL     1      -8.116   5.978  65.156  1.00  0.00    -0.132 C  
ENDBRANCH  16  41
BRANCH  18  43
HETATM   43  O   UNL     1      -8.684   9.729  66.135  1.00  0.00    -0.132 OA 
HETATM   44  C   UNL     1      -9.766  10.493  65.584  1.00  0.00    -0.234 C  
ENDBRANCH  18  43
BRANCH  30  45
HETATM   45  O   UNL     1     -13.460  14.339  71.621  1.00  0.00    -0.339 OA 
HETATM   46  C   UNL     1     -13.116  14.590  72.985  1.00  0.00    -0.510 C  
ENDBRANCH  30  45
BRANCH  36  47
HETATM   47  O   UNL     1     -12.046  13.256  66.059  1.00  0.00    -0.403 OA 
HETATM   48  C   UNL     1     -11.944  13.783  64.740  1.00  0.00    -0.404 C  
ENDBRANCH  36  47
TORSDOF 4
ENDMDL
MODEL        4
REMARK 921   NORMALIZED FREE ENERGY PREDICTED BY IDOCK:   -6.13 KCAL/MOL
REMARK 922        TOTAL FREE ENERGY PREDICTED BY IDOCK:   -8.45 KCAL/MOL
REMARK 923 INTER-LIGAND FREE ENERGY PREDICTED BY IDOCK:   -8.45 KCAL/MOL
REMARK 924 INTRA-LIGAND FREE ENERGY PREDICTED BY IDOCK:   -0.00 KCAL/MOL
REMARK 927      BINDING AFFINITY PREDICTED BY RF-SCORE:    0.00 PKD
ROOT
HETATM    1  C   UNL     1      -7.915  14.748  67.736  1.00  0.00    -0.157 C  
HETATM    2  C   UNL     1      -6.621  13.992  67.234  1.00  0.00     0.277 C  
HETATM    3  C   UNL     1      -6.300  12.643  67.800  1.00  0.00    -0.130 A  
HETATM    4  C   UNL     1      -6.535  12.338  69.130  1.00  0.00    -0.100 A  
HETATM    5  C   UNL     1      -7.022  11.075  69.433  1.00  0.00    -0.126 A  
HETATM    6  C   UNL     1      -7.060  10.098  68.436  1.00  0.00    -0.071 A  
HETATM    7  C   UNL     1      -6.267  10.292  67.330  1.00  0.00    -0.058 A  
HETATM    8  O   UNL     1      -7.991   9.116  68.645  1.00  0.00    -0.099 OA 
HETATM    9  C   UNL     1      -8.401   8.156  67.747  1.00  0.00    -0.128 A  
HETATM   10  C   UNL     1      -5.962  11.589  66.950  1.00  0.00    -0.136 A  
HETATM   11  C   UNL     1      -9.001   7.048  68.410  1.00  0.00    -0.122 A  
HETATM   12  C   UNL     1      -9.266   5.881  67.695  1.00  0.00    -0.104 A  
HETATM   13  C   UNL     1      -9.027   5.836  66.349  1.00  0.00    -0.139 A  
HETATM   14  C   UNL     1      -9.662   4.595  68.368  1.00  0.00    -0.198 C  
HETATM   15  C   UNL     1     -10.273   4.758  69.735  1.00  0.00    -0.148 C  
HETATM   16  C   UNL     1      -8.530   6.951  65.653  1.00  0.00    -0.136 A  
HETATM   17  C   UNL     1      -9.280  14.093  67.949  1.00  0.00    -0.196 C  
HETATM   18  C   UNL     1      -8.311   8.159  66.329  1.00  0.00    -0.119 A  
HETATM   19  N   UNL     1      -9.632   5.849  70.596  1.00  0.00    -0.170 N  
HETATM   20  C   UNL     1      -7.766  15.303  70.259  1.00  0.00     0.567 C  
HETATM   21  C   UNL     1     -10.432   5.864  71.898  1.00  0.00    -0.220 C  
HETATM   22  C   UNL     1     -10.228  16.320  68.586  1.00  0.00    -0.254 C  
HETATM   23  C   UNL     1      -9.611   7.206  69.814  1.00  0.00    -0.155 C  
HETATM   24  C   UNL     1      -8.175   5.571  70.983  1.00  0.00    -0.120 C  
HETATM   25  C   UNL     1      -6.343  16.562  68.698  1.00  0.00    -0.139 C  
HETATM   26  C   UNL     1     -11.023   7.785  69.576  1.00  0.00    -0.092 C  
HETATM   27  C   UNL     1     -11.454   8.914  70.463  1.00  0.00    -0.231 A  
HETATM   28  C   UNL     1     -10.900  10.176  70.197  1.00  0.00    -0.368 A  
HETATM   29  C   UNL     1     -11.627  11.319  70.441  1.00  0.00    -0.223 A  
HETATM   30  C   UNL     1     -12.682  11.197  71.370  1.00  0.00    -0.418 A  
HETATM   31  O   UNL     1     -11.303  12.500  69.782  1.00  0.00    -0.169 OA 
HETATM   32  N   UNL     1      -7.682  15.847  68.838  1.00  0.00    -0.179 N  
HETATM   33  C   UNL     1     -10.917  12.357  68.360  1.00  0.00    -0.241 C  
HETATM   34  C   UNL     1     -13.157   9.946  71.779  1.00  0.00    -0.553 A  
HETATM   35  C   UNL     1      -8.804  16.904  68.620  1.00  0.00    -0.262 C  
HETATM   36  C   UNL     1     -11.773  13.064  67.504  1.00  0.00    -0.370 C  
HETATM   37  C   UNL     1     -12.572   8.790  71.269  1.00  0.00    -0.285 A  
HETATM   38  C   UNL     1      -9.599  12.736  68.124  1.00  0.00    -0.223 C  
HETATM   39  C   UNL     1     -11.634  14.451  67.557  1.00  0.00    -0.398 C  
HETATM   40  C   UNL     1     -10.386  14.957  67.962  1.00  0.00    -0.244 C  
ENDROOT
BRANCH  16  41
HETATM   41  O   UNL     1      -8.275   6.817  64.313  1.00  0.00    -0.079 OA 
HETATM   42  C   UNL     1      -7.968   5.469  63.935  1.00  0.00    -0.116 C  
ENDBRANCH  16  41
BRANCH  18  43
HETATM   43  O   UNL     1      -8.151   9.362  65.693  1.00  0.00    -0.108 OA 
HETATM   44  C   UNL     1      -9.328  10.102  65.345  1.00  0.00    -0.216 C  
ENDBRANCH  18  43
BRANCH  30  45
HETATM   45  O   UNL     1     -13.299  12.282  71.949  1.00  0.00    -0.463 OA 
HETATM   46  C   UNL     1     -13.402  13.323  70.976  1.00  0.00     0.110 C  
ENDBRANCH  30  45
BRANCH  36  47
HETATM   47  O   UNL     1     -11.908  12.409  66.278  1.00  0.00    -0.473 OA 
HETATM   48  C   UNL     1     -12.372  13.142  65.148  1.00  0.00    -0.473 C  
ENDBRANCH  36  47
TORSDOF 4
ENDMDL
MODEL        5
REMARK 921   NORMALIZED FREE ENERGY PREDICTED BY IDOCK:   -6.09 KCAL/MOL
REMARK 922        TOTAL FREE ENERGY PREDICTED BY IDOCK:   -8.40 KCAL/MOL
REMARK 923 INTER-LIGAND FREE ENERGY PREDICTED BY IDOCK:   -7.56 KCAL/MOL
REMARK 924 INTRA-LIGAND FREE ENERGY PREDICTED BY IDOCK:   -0.84 KCAL/MOL
REMARK 927      BINDING AFFINITY PREDICTED BY RF-SCORE:    0.00 PKD
ROOT
HETATM    1  C   UNL     1      -9.539  14.105  68.481  1.00  0.00    -0.214 C  
HETATM    2  C   UNL     1     -10.841  13.557  69.189  1.00  0.00    -0.173 C  
HETATM    3  C   UNL     1     -11.417  12.248  68.743  1.00  0.00    -0.360 A  
HETATM    4  C   UNL     1     -11.412  11.868  67.411  1.00  0.00    -0.393 A  
HETATM    5  C   UNL     1     -11.147  10.540  67.114  1.00  0.00    -0.232 A  
HETATM    6  C   UNL     1     -11.104   9.601  68.147  1.00  0.00    -0.050 A  
HETATM    7  C   UNL     1     -11.702   9.943  69.336  1.00  0.00     0.073 A  
HETATM    8  O   UNL     1     -10.352   8.491  67.869  1.00  0.00    -0.211 OA 
HETATM    9  C   UNL     1      -9.956   7.514  68.755  1.00  0.00    -0.172 A  
HETATM   10  C   UNL     1     -11.774  11.283  69.684  1.00  0.00    -0.420 A  
HETATM   11  C   UNL     1      -9.609   6.310  68.077  1.00  0.00    -0.115 A  
HETATM   12  C   UNL     1      -9.408   5.143  68.812  1.00  0.00    -0.166 A  
HETATM   13  C   UNL     1      -9.463   5.178  70.178  1.00  0.00    -0.229 A  
HETATM   14  C   UNL     1      -9.287   3.792  68.162  1.00  0.00    -0.228 C  
HETATM   15  C   UNL     1      -8.854   3.820  66.719  1.00  0.00    -0.126 C  
HETATM   16  C   UNL     1      -9.703   6.375  70.874  1.00  0.00    -0.176 A  
HETATM   17  C   UNL     1      -8.318  13.257  68.124  1.00  0.00    -0.161 C  
HETATM   18  C   UNL     1      -9.847   7.578  70.170  1.00  0.00    -0.180 A  
HETATM   19  N   UNL     1      -9.455   4.961  65.893  1.00  0.00    -0.157 N  
HETATM   20  C   UNL     1      -9.959  14.590  65.974  1.00  0.00    -0.322 C  
HETATM   21  C   UNL     1      -8.848   4.818  64.498  1.00  0.00    -0.147 C  
HETATM   22  C   UNL     1      -7.174  15.304  67.251  1.00  0.00    -0.213 C  
HETATM   23  C   UNL     1      -9.183   6.333  66.599  1.00  0.00    -0.146 C  
HETATM   24  C   UNL     1     -10.976   4.879  65.718  1.00  0.00     0.054 C  
HETATM   25  C   UNL     1     -10.969  16.090  67.640  1.00  0.00    -0.284 C  
HETATM   26  C   UNL     1      -7.687   6.714  66.616  1.00  0.00    -0.102 C  
HETATM   27  C   UNL     1      -7.234   7.740  65.622  1.00  0.00    -0.068 A  
HETATM   28  C   UNL     1      -7.570   9.075  65.892  1.00  0.00    -0.094 A  
HETATM   29  C   UNL     1      -6.736  10.096  65.493  1.00  0.00    -0.122 A  
HETATM   30  C   UNL     1      -5.846   9.794  64.441  1.00  0.00    -0.092 A  
HETATM   31  O   UNL     1      -6.802  11.332  66.126  1.00  0.00    -0.062 OA 
HETATM   32  N   UNL     1      -9.771  15.188  67.363  1.00  0.00    -0.209 N  
HETATM   33  C   UNL     1      -7.004  11.294  67.593  1.00  0.00    -0.085 C  
HETATM   34  C   UNL     1      -5.606   8.475  64.040  1.00  0.00    -0.065 A  
HETATM   35  C   UNL     1      -8.497  16.082  67.374  1.00  0.00    -0.168 C  
HETATM   36  C   UNL     1      -5.950  11.901  68.289  1.00  0.00    -0.050 C  
HETATM   37  C   UNL     1      -6.265   7.431  64.683  1.00  0.00    -0.038 A  
HETATM   38  C   UNL     1      -8.213  11.863  67.981  1.00  0.00    -0.157 C  
HETATM   39  C   UNL     1      -5.905  13.292  68.182  1.00  0.00    -0.105 C  
HETATM   40  C   UNL     1      -7.117  13.955  67.919  1.00  0.00    -0.168 C  
ENDROOT
BRANCH  16  41
HETATM   41  O   UNL     1      -9.786   6.324  72.241  1.00  0.00    -0.163 OA 
HETATM   42  C   UNL     1     -10.784   5.406  72.706  1.00  0.00    -0.247 C  
ENDBRANCH  16  41
BRANCH  18  43
HETATM   43  O   UNL     1      -9.754   8.812  70.757  1.00  0.00    -0.180 OA 
HETATM   44  C   UNL     1      -8.474   9.459  70.765  1.00  0.00    -0.135 C  
ENDBRANCH  18  43
BRANCH  30  45
HETATM   45  O   UNL     1      -5.174  10.761  63.729  1.00  0.00    -0.164 OA 
HETATM   46  C   UNL     1      -5.328  10.492  62.334  1.00  0.00    -0.128 C  
ENDBRANCH  30  45
BRANCH  36  47
HETATM   47  O   UNL     1      -5.736  11.276  69.519  1.00  0.00    -0.052 OA 
HETATM   48  C   UNL     1      -5.589  12.076  70.688  1.00  0.00    -0.153 C  
ENDBRANCH  36  47
TORSDOF 4
ENDMDL
MODEL        6
REMARK 921   NORMALIZED FREE ENERGY PREDICTED BY IDOCK:   -5.91 KCAL/MOL
REMARK 922        TOTAL FREE ENERGY PREDICTED BY IDOCK:   -8.18 KCAL/MOL
REMARK 923 INTER-LIGAND FREE ENERGY PREDICTED BY IDOCK:   -7.60 KCAL/MOL
REMARK 924 INTRA-LIGAND FREE ENERGY PREDICTED BY IDOCK:   -0.58 KCAL/MOL
REMARK 927      BINDING AFFINITY PREDICTED BY RF-SCORE:    0.00 PKD
ROOT
HETATM    1  C   UNL     1      -8.596  14.957  67.417  1.00  0.00    -0.193 C  
HETATM    2  C   UNL     1      -7.131  14.459  67.094  1.00  0.00     0.235 C  
HETATM    3  C   UNL     1      -6.581  13.284  67.840  1.00  0.00    -0.145 A  
HETATM    4  C   UNL     1      -6.862  13.076  69.180  1.00  0.00    -0.058 A  
HETATM    5  C   UNL     1      -7.092  11.776  69.604  1.00  0.00     0.176 A  
HETATM    6  C   UNL     1      -6.832  10.715  68.735  1.00  0.00    -0.062 A  
HETATM    7  C   UNL     1      -6.004  10.963  67.665  1.00  0.00    -0.043 A  
HETATM    8  O   UNL     1      -7.546   9.578  69.003  1.00  0.00    -0.072 OA 
HETATM    9  C   UNL     1      -7.659   8.461  68.205  1.00  0.00    -0.098 A  
HETATM   10  C   UNL     1      -5.951  12.248  67.149  1.00  0.00    -0.117 A  
HETATM   11  C   UNL     1      -8.064   7.324  68.961  1.00  0.00    -0.124 A  
HETATM   12  C   UNL     1      -8.009   6.059  68.379  1.00  0.00    -0.107 A  
HETATM   13  C   UNL     1      -7.648   5.926  67.066  1.00  0.00    -0.099 A  
HETATM   14  C   UNL     1      -8.179   4.796  69.177  1.00  0.00    -0.081 C  
HETATM   15  C   UNL     1      -8.929   4.962  70.473  1.00  0.00    -0.120 C  
HETATM   16  C   UNL     1      -7.341   7.044  66.271  1.00  0.00    -0.076 A  
HETATM   17  C   UNL     1      -9.803  14.041  67.622  1.00  0.00    -0.233 C  
HETATM   18  C   UNL     1      -7.447   8.335  66.806  1.00  0.00    -0.087 A  
HETATM   19  N   UNL     1      -8.615   6.253  71.233  1.00  0.00    -0.124 N  
HETATM   20  C   UNL     1      -8.794  15.795  69.857  1.00  0.00     0.267 C  
HETATM   21  C   UNL     1      -9.512   6.227  72.470  1.00  0.00    -0.142 C  
HETATM   22  C   UNL     1     -11.258  16.054  67.920  1.00  0.00    -0.276 C  
HETATM   23  C   UNL     1      -8.816   7.490  70.293  1.00  0.00    -0.146 C  
HETATM   24  C   UNL     1      -7.172   6.350  71.742  1.00  0.00    -0.087 C  
HETATM   25  C   UNL     1      -7.541  17.168  68.247  1.00  0.00    -0.224 C  
HETATM   26  C   UNL     1     -10.292   7.711  69.897  1.00  0.00    -0.225 C  
HETATM   27  C   UNL     1     -11.032   8.803  70.610  1.00  0.00    -0.278 A  
HETATM   28  C   UNL     1     -10.739  10.121  70.227  1.00  0.00    -0.352 A  
HETATM   29  C   UNL     1     -11.713  11.093  70.283  1.00  0.00    -0.341 A  
HETATM   30  C   UNL     1     -12.795  10.838  71.151  1.00  0.00    -0.414 A  
HETATM   31  O   UNL     1     -11.592  12.240  69.505  1.00  0.00    -0.288 OA 
HETATM   32  N   UNL     1      -8.703  16.191  68.388  1.00  0.00    -0.184 N  
HETATM   33  C   UNL     1     -11.060  12.037  68.138  1.00  0.00    -0.245 C  
HETATM   34  C   UNL     1     -13.025   9.562  71.679  1.00  0.00    -0.483 A  
HETATM   35  C   UNL     1     -10.002  16.941  67.972  1.00  0.00    -0.279 C  
HETATM   36  C   UNL     1     -11.968  12.440  67.150  1.00  0.00    -0.177 C  
HETATM   37  C   UNL     1     -12.164   8.518  71.353  1.00  0.00    -0.343 A  
HETATM   38  C   UNL     1      -9.839  12.673  67.941  1.00  0.00    -0.218 C  
HETATM   39  C   UNL     1     -12.135  13.821  67.041  1.00  0.00    -0.436 C  
HETATM   40  C   UNL     1     -11.066  14.633  67.459  1.00  0.00    -0.319 C  
ENDROOT
BRANCH  16  41
HETATM   41  O   UNL     1      -6.946   6.829  64.976  1.00  0.00    -0.049 OA 
HETATM   42  C   UNL     1      -5.648   6.227  64.881  1.00  0.00    -0.022 C  
ENDBRANCH  16  41
BRANCH  18  43
HETATM   43  O   UNL     1      -7.492   9.468  66.039  1.00  0.00    -0.097 OA 
HETATM   44  C   UNL     1      -8.773   9.919  65.578  1.00  0.00    -0.151 C  
ENDBRANCH  18  43
BRANCH  30  45
HETATM   45  O   UNL     1     -13.679  11.812  71.552  1.00  0.00     0.214 OA 
HETATM   46  C   UNL     1     -12.937  12.909  72.091  1.00  0.00    -0.245 C  
ENDBRANCH  30  45
BRANCH  36  47
HETATM   47  O   UNL     1     -11.852  11.646  66.008  1.00  0.00    -0.374 OA 
HETATM   48  C   UNL     1     -12.243  12.181  64.748  1.00  0.00    -0.264 C  
ENDBRANCH  36  47
TORSDOF 4
ENDMDL
MODEL        7
REMARK 921   NORMALIZED FREE ENERGY PREDICTED BY IDOCK:   -5.55 KCAL/MOL
REMARK 922        TOTAL FREE ENERGY PREDICTED BY IDOCK:   -7.74 KCAL/MOL
REMARK 923 INTER-LIGAND FREE ENERGY PREDICTED BY IDOCK:   -6.82 KCAL/MOL
REMARK 924 INTRA-LIGAND FREE ENERGY PREDICTED BY IDOCK:   -0.93 KCAL/MOL
REMARK 927      BINDING AFFINITY PREDICTED BY RF-SCORE:    0.00 PKD
ROOT
HETATM    1  C   UNL     1      -9.891  13.418  68.395  1.00  0.00    -0.216 C  
HETATM    2  C   UNL     1     -10.980  12.677  69.269  1.00  0.00    -0.123 C  
HETATM    3  C   UNL     1     -11.287  11.239  68.983  1.00  0.00    -0.344 A  
HETATM    4  C   UNL     1     -11.303  10.741  67.691  1.00  0.00    -0.328 A  
HETATM    5  C   UNL     1     -10.777   9.477  67.473  1.00  0.00    -0.311 A  
HETATM    6  C   UNL     1     -10.447   8.673  68.566  1.00  0.00    -0.172 A  
HETATM    7  C   UNL     1     -11.010   8.994  69.779  1.00  0.00    -0.177 A  
HETATM    8  O   UNL     1      -9.494   7.727  68.303  1.00  0.00    -0.145 OA 
HETATM    9  C   UNL     1      -8.824   6.946  69.219  1.00  0.00    -0.138 A  
HETATM   10  C   UNL     1     -11.347  10.315  70.027  1.00  0.00    -0.370 A  
HETATM   11  C   UNL     1      -8.275   5.784  68.605  1.00  0.00    -0.105 A  
HETATM   12  C   UNL     1      -7.765   4.763  69.405  1.00  0.00    -0.063 A  
HETATM   13  C   UNL     1      -7.717   4.917  70.763  1.00  0.00    -0.070 A  
HETATM   14  C   UNL     1      -7.400   3.412  68.853  1.00  0.00    -0.049 C  
HETATM   15  C   UNL     1      -7.100   3.391  67.377  1.00  0.00    -0.058 C  
HETATM   16  C   UNL     1      -8.160   6.098  71.384  1.00  0.00    -0.118 A  
HETATM   17  C   UNL     1      -8.545  12.818  67.988  1.00  0.00    -0.186 C  
HETATM   18  C   UNL     1      -8.620   7.169  70.607  1.00  0.00    -0.143 A  
HETATM   19  N   UNL     1      -8.000   4.293  66.528  1.00  0.00    -0.098 N  
HETATM   20  C   UNL     1     -10.604  13.557  65.912  1.00  0.00    -0.284 C  
HETATM   21  C   UNL     1      -7.489   4.148  65.095  1.00  0.00    -0.073 C  
HETATM   22  C   UNL     1      -7.953  14.966  66.850  1.00  0.00    -0.067 C  
HETATM   23  C   UNL     1      -7.982   5.753  67.095  1.00  0.00    -0.102 C  
HETATM   24  C   UNL     1      -9.475   3.873  66.509  1.00  0.00    -0.195 C  
HETATM   25  C   UNL     1     -11.784  14.963  67.548  1.00  0.00    -0.308 C  
HETATM   26  C   UNL     1      -6.610   6.443  66.936  1.00  0.00    -0.055 C  
HETATM   27  C   UNL     1      -6.474   7.440  65.826  1.00  0.00    -0.045 A  
HETATM   28  C   UNL     1      -7.073   8.694  66.023  1.00  0.00    -0.083 A  
HETATM   29  C   UNL     1      -6.518   9.825  65.467  1.00  0.00    -0.084 A  
HETATM   30  C   UNL     1      -5.670   9.619  64.359  1.00  0.00    -0.081 A  
HETATM   31  O   UNL     1      -6.805  11.074  66.006  1.00  0.00    -0.107 OA 
HETATM   32  N   UNL     1     -10.442  14.313  67.226  1.00  0.00    -0.268 N  
HETATM   33  C   UNL     1      -6.877  11.136  67.483  1.00  0.00    -0.086 C  
HETATM   34  C   UNL     1      -5.178   8.348  64.040  1.00  0.00    -0.048 A  
HETATM   35  C   UNL     1      -9.400  15.454  67.042  1.00  0.00    -0.224 C  
HETATM   36  C   UNL     1      -5.931  12.018  68.024  1.00  0.00    -0.058 C  
HETATM   37  C   UNL     1      -5.538   7.256  64.823  1.00  0.00    -0.033 A  
HETATM   38  C   UNL     1      -8.147  11.471  67.943  1.00  0.00    -0.132 C  
HETATM   39  C   UNL     1      -6.202  13.369  67.805  1.00  0.00    -0.160 C  
HETATM   40  C   UNL     1      -7.547  13.732  67.612  1.00  0.00    -0.189 C  
ENDROOT
BRANCH  16  41
HETATM   41  O   UNL     1      -8.121   6.163  72.753  1.00  0.00    -0.106 OA 
HETATM   42  C   UNL     1      -9.346   5.742  73.367  1.00  0.00    -0.134 C  
ENDBRANCH  16  41
BRANCH  18  43
HETATM   43  O   UNL     1      -8.755   8.445  71.085  1.00  0.00    -0.133 OA 
HETATM   44  C   UNL     1      -7.628   9.326  70.979  1.00  0.00    -0.059 C  
ENDBRANCH  18  43
BRANCH  30  45
HETATM   45  O   UNL     1      -5.285  10.632  63.511  1.00  0.00    -0.154 OA 
HETATM   46  C   UNL     1      -6.201  10.685  62.416  1.00  0.00    -0.136 C  
ENDBRANCH  30  45
BRANCH  36  47
HETATM   47  O   UNL     1      -5.488  11.575  69.272  1.00  0.00    -0.047 OA 
HETATM   48  C   UNL     1      -5.519  12.472  70.377  1.00  0.00    -0.149 C  
ENDBRANCH  36  47
TORSDOF 4
ENDMDL
MODEL        8
REMARK 921   NORMALIZED FREE ENERGY PREDICTED BY IDOCK:   -5.24 KCAL/MOL
REMARK 922        TOTAL FREE ENERGY PREDICTED BY IDOCK:   -7.36 KCAL/MOL
REMARK 923 INTER-LIGAND FREE ENERGY PREDICTED BY IDOCK:   -6.39 KCAL/MOL
REMARK 924 INTRA-LIGAND FREE ENERGY PREDICTED BY IDOCK:   -0.97 KCAL/MOL
REMARK 927      BINDING AFFINITY PREDICTED BY RF-SCORE:    0.00 PKD
ROOT
HETATM    1  C   UNL     1      -7.642   7.032  72.798  1.00  0.00    -0.084 C  
HETATM    2  C   UNL     1      -7.007   8.467  72.607  1.00  0.00    -0.100 C  
HETATM    3  C   UNL     1      -6.445   8.842  71.270  1.00  0.00    -0.071 A  
HETATM    4  C   UNL     1      -5.777   7.923  70.478  1.00  0.00    -0.029 A  
HETATM    5  C   UNL     1      -5.998   7.959  69.110  1.00  0.00    -0.034 A  
HETATM    6  C   UNL     1      -6.706   9.028  68.557  1.00  0.00    -0.059 A  
HETATM    7  C   UNL     1      -6.808  10.174  69.310  1.00  0.00    -0.063 A  
HETATM    8  O   UNL     1      -7.316   8.744  67.365  1.00  0.00    -0.080 OA 
HETATM    9  C   UNL     1      -8.243   9.519  66.703  1.00  0.00    -0.116 A  
HETATM   10  C   UNL     1      -6.773  10.068  70.691  1.00  0.00    -0.074 A  
HETATM   11  C   UNL     1      -8.313   9.175  65.322  1.00  0.00    -0.152 A  
HETATM   12  C   UNL     1      -9.018   9.997  64.446  1.00  0.00    -0.265 A  
HETATM   13  C   UNL     1      -9.707  11.077  64.927  1.00  0.00    -0.303 A  
HETATM   14  C   UNL     1      -8.933   9.845  62.952  1.00  0.00    -0.271 C  
HETATM   15  C   UNL     1      -8.511   8.479  62.478  1.00  0.00    -0.156 C  
HETATM   16  C   UNL     1      -9.736  11.378  66.299  1.00  0.00    -0.212 A  
HETATM   17  C   UNL     1      -8.570   6.349  71.793  1.00  0.00    -0.128 C  
HETATM   18  C   UNL     1      -9.090  10.538  67.215  1.00  0.00    -0.143 A  
HETATM   19  N   UNL     1      -7.426   7.813  63.329  1.00  0.00    -0.108 N  
HETATM   20  C   UNL     1      -5.880   5.166  72.471  1.00  0.00    -0.025 C  
HETATM   21  C   UNL     1      -7.196   6.441  62.696  1.00  0.00    -0.054 C  
HETATM   22  C   UNL     1      -8.802   4.409  73.356  1.00  0.00    -0.101 C  
HETATM   23  C   UNL     1      -7.867   7.787  64.832  1.00  0.00    -0.123 C  
HETATM   24  C   UNL     1      -6.074   8.536  63.306  1.00  0.00    -0.081 C  
HETATM   25  C   UNL     1      -5.757   6.549  74.501  1.00  0.00    -0.059 C  
HETATM   26  C   UNL     1      -9.076   6.861  65.088  1.00  0.00     0.487 C  
HETATM   27  C   UNL     1      -8.792   5.522  65.699  1.00  0.00    -0.154 A  
HETATM   28  C   UNL     1      -8.496   5.502  67.071  1.00  0.00    -0.110 A  
HETATM   29  C   UNL     1      -8.852   4.419  67.842  1.00  0.00    -0.109 A  
HETATM   30  C   UNL     1      -9.061   3.207  67.151  1.00  0.00    -0.178 A  
HETATM   31  O   UNL     1      -8.988   4.563  69.218  1.00  0.00    -0.087 OA 
HETATM   32  N   UNL     1      -6.715   5.956  73.473  1.00  0.00    -0.078 N  
HETATM   33  C   UNL     1      -9.616   5.824  69.674  1.00  0.00    -0.152 C  
HETATM   34  C   UNL     1      -9.205   3.173  65.759  1.00  0.00    -0.138 A  
HETATM   35  C   UNL     1      -7.673   4.988  74.226  1.00  0.00    -0.093 C  
HETATM   36  C   UNL     1     -10.796   5.599  70.396  1.00  0.00    -0.256 C  
HETATM   37  C   UNL     1      -9.130   4.358  65.032  1.00  0.00    -0.150 A  
HETATM   38  C   UNL     1      -8.750   6.612  70.425  1.00  0.00    -0.151 C  
HETATM   39  C   UNL     1     -10.606   5.060  71.668  1.00  0.00    -0.187 C  
HETATM   40  C   UNL     1      -9.375   5.315  72.297  1.00  0.00    -0.160 C  
ENDROOT
BRANCH  16  41
HETATM   41  O   UNL     1     -10.412  12.502  66.701  1.00  0.00    -0.231 OA 
HETATM   42  C   UNL     1     -11.775  12.521  66.259  1.00  0.00    -0.404 C  
ENDBRANCH  16  41
BRANCH  18  43
HETATM   43  O   UNL     1      -9.335  10.560  68.563  1.00  0.00    -0.154 OA 
HETATM   44  C   UNL     1     -10.458   9.817  69.055  1.00  0.00    -0.213 C  
ENDBRANCH  18  43
BRANCH  30  45
HETATM   45  O   UNL     1      -9.119   1.986  67.781  1.00  0.00    -0.139 OA 
HETATM   46  C   UNL     1      -7.792   1.474  67.912  1.00  0.00    -0.058 C  
ENDBRANCH  30  45
BRANCH  36  47
HETATM   47  O   UNL     1     -11.714   6.630  70.190  1.00  0.00    -0.394 OA 
HETATM   48  C   UNL     1     -12.457   7.129  71.298  1.00  0.00    -0.386 C  
ENDBRANCH  36  47
TORSDOF 4
ENDMDL
MODEL        9
REMARK 921   NORMALIZED FREE ENERGY PREDICTED BY IDOCK:   -4.77 KCAL/MOL
REMARK 922        TOTAL FREE ENERGY PREDICTED BY IDOCK:   -6.77 KCAL/MOL
REMARK 923 INTER-LIGAND FREE ENERGY PREDICTED BY IDOCK:   -5.92 KCAL/MOL
REMARK 924 INTRA-LIGAND FREE ENERGY PREDICTED BY IDOCK:   -0.85 KCAL/MOL
REMARK 927      BINDING AFFINITY PREDICTED BY RF-SCORE:    0.00 PKD
ROOT
HETATM    1  C   UNL     1     -10.299  13.345  68.532  1.00  0.00    -0.236 C  
HETATM    2  C   UNL     1     -11.220  12.651  69.613  1.00  0.00    -0.077 C  
HETATM    3  C   UNL     1     -11.438  11.171  69.542  1.00  0.00    -0.374 A  
HETATM    4  C   UNL     1     -11.557  10.511  68.331  1.00  0.00    -0.205 A  
HETATM    5  C   UNL     1     -10.957   9.268  68.205  1.00  0.00    -0.047 A  
HETATM    6  C   UNL     1     -10.442   8.636  69.340  1.00  0.00    -0.218 A  
HETATM    7  C   UNL     1     -10.891   9.072  70.564  1.00  0.00    -0.296 A  
HETATM    8  O   UNL     1      -9.450   7.730  69.079  1.00  0.00    -0.150 OA 
HETATM    9  C   UNL     1      -8.620   7.121  69.995  1.00  0.00    -0.141 A  
HETATM   10  C   UNL     1     -11.306  10.389  70.690  1.00  0.00    -0.411 A  
HETATM   11  C   UNL     1      -8.050   5.929  69.464  1.00  0.00    -0.106 A  
HETATM   12  C   UNL     1      -7.372   5.056  70.314  1.00  0.00    -0.055 A  
HETATM   13  C   UNL     1      -7.186   5.388  71.628  1.00  0.00    -0.084 A  
HETATM   14  C   UNL     1      -6.961   3.673  69.888  1.00  0.00    -0.041 C  
HETATM   15  C   UNL     1      -6.826   3.482  68.401  1.00  0.00    -0.046 C  
HETATM   16  C   UNL     1      -7.653   6.606  72.151  1.00  0.00    -0.095 A  
HETATM   17  C   UNL     1      -8.962  12.789  68.040  1.00  0.00    -0.196 C  
HETATM   18  C   UNL     1      -8.283   7.535  71.311  1.00  0.00    -0.100 A  
HETATM   19  N   UNL     1      -7.886   4.204  67.564  1.00  0.00    -0.090 N  
HETATM   20  C   UNL     1     -11.293  13.114  66.154  1.00  0.00    -0.312 C  
HETATM   21  C   UNL     1      -7.527   3.909  66.108  1.00  0.00    -0.087 C  
HETATM   22  C   UNL     1      -8.678  14.808  66.589  1.00  0.00    -0.229 C  
HETATM   23  C   UNL     1      -7.926   5.723  67.945  1.00  0.00    -0.098 C  
HETATM   24  C   UNL     1      -9.315   3.687  67.774  1.00  0.00    -0.194 C  
HETATM   25  C   UNL     1     -12.395  14.636  67.740  1.00  0.00     0.135 C  
HETATM   26  C   UNL     1      -6.640   6.477  67.540  1.00  0.00    -0.061 C  
HETATM   27  C   UNL     1      -6.711   7.329  66.309  1.00  0.00    -0.053 A  
HETATM   28  C   UNL     1      -7.385   8.555  66.424  1.00  0.00    -0.080 A  
HETATM   29  C   UNL     1      -6.990   9.639  65.673  1.00  0.00    -0.096 A  
HETATM   30  C   UNL     1      -6.256   9.349  64.503  1.00  0.00    -0.079 A  
HETATM   31  O   UNL     1      -7.317  10.926  66.088  1.00  0.00    -0.140 OA 
HETATM   32  N   UNL     1     -11.049  14.043  67.338  1.00  0.00    -0.296 N  
HETATM   33  C   UNL     1      -7.229  11.173  67.545  1.00  0.00    -0.101 C  
HETATM   34  C   UNL     1      -5.700   8.084  64.283  1.00  0.00    -0.052 A  
HETATM   35  C   UNL     1     -10.130  15.218  66.894  1.00  0.00    -0.256 C  
HETATM   36  C   UNL     1      -6.304  12.179  67.857  1.00  0.00    -0.078 C  
HETATM   37  C   UNL     1      -5.881   7.080  65.230  1.00  0.00    -0.036 A  
HETATM   38  C   UNL     1      -8.463  11.478  68.111  1.00  0.00    -0.154 C  
HETATM   39  C   UNL     1      -6.708  13.469  67.512  1.00  0.00    -0.144 C  
HETATM   40  C   UNL     1      -8.090  13.712  67.440  1.00  0.00    -0.184 C  
ENDROOT
BRANCH  16  41
HETATM   41  O   UNL     1      -7.467   6.851  73.487  1.00  0.00    -0.081 OA 
HETATM   42  C   UNL     1      -6.143   7.306  73.793  1.00  0.00    -0.064 C  
ENDBRANCH  16  41
BRANCH  18  43
HETATM   43  O   UNL     1      -8.468   8.850  71.645  1.00  0.00    -0.282 OA 
HETATM   44  C   UNL     1      -7.529   9.810  71.142  1.00  0.00     0.492 C  
ENDBRANCH  18  43
BRANCH  30  45
HETATM   45  O   UNL     1      -6.053  10.268  63.500  1.00  0.00    -0.138 OA 
HETATM   46  C   UNL     1      -6.965   9.993  62.436  1.00  0.00    -0.115 C  
ENDBRANCH  30  45
BRANCH  36  47
HETATM   47  O   UNL     1      -5.690  11.932  69.087  1.00  0.00    -0.055 OA 
HETATM   48  C   UNL     1      -5.465  13.017  69.980  1.00  0.00    -0.112 C  
ENDBRANCH  36  47
TORSDOF 4
ENDMDL
MODEL       10
REMARK 921   NORMALIZED FREE ENERGY PREDICTED BY IDOCK:   -4.72 KCAL/MOL
REMARK 922        TOTAL FREE ENERGY PREDICTED BY IDOCK:   -6.72 KCAL/MOL
REMARK 923 INTER-LIGAND FREE ENERGY PREDICTED BY IDOCK:   -6.11 KCAL/MOL
REMARK 924 INTRA-LIGAND FREE ENERGY PREDICTED BY IDOCK:   -0.61 KCAL/MOL
REMARK 927      BINDING AFFINITY PREDICTED BY RF-SCORE:    0.00 PKD
ROOT
HETATM    1  C   UNL     1      -8.686   6.546  67.534  1.00  0.00    -0.114 C  
HETATM    2  C   UNL     1      -8.029   7.317  66.320  1.00  0.00    -0.110 C  
HETATM    3  C   UNL     1      -8.576   8.654  65.925  1.00  0.00    -0.177 A  
HETATM    4  C   UNL     1      -9.932   8.929  65.976  1.00  0.00    -0.199 A  
HETATM    5  C   UNL     1     -10.326  10.183  66.417  1.00  0.00    -0.258 A  
HETATM    6  C   UNL     1      -9.366  11.182  66.590  1.00  0.00    -0.177 A  
HETATM    7  C   UNL     1      -8.158  11.015  65.955  1.00  0.00    -0.110 A  
HETATM    8  O   UNL     1      -9.721  12.157  67.483  1.00  0.00    -0.181 OA 
HETATM    9  C   UNL     1      -8.908  13.135  68.011  1.00  0.00    -0.191 A  
HETATM   10  C   UNL     1      -7.711   9.726  65.705  1.00  0.00    -0.115 A  
HETATM   11  C   UNL     1      -9.672  14.227  68.515  1.00  0.00    -0.225 A  
HETATM   12  C   UNL     1      -9.025  15.408  68.874  1.00  0.00    -0.208 A  
HETATM   13  C   UNL     1      -7.660  15.484  68.821  1.00  0.00    -0.152 A  
HETATM   14  C   UNL     1      -9.774  16.678  69.175  1.00  0.00    -0.226 C  
HETATM   15  C   UNL     1     -11.207  16.484  69.594  1.00  0.00    -0.154 C  
HETATM   16  C   UNL     1      -6.879  14.386  68.423  1.00  0.00    -0.106 A  
HETATM   17  C   UNL     1      -9.097   7.193  68.857  1.00  0.00    -0.131 C  
HETATM   18  C   UNL     1      -7.492  13.163  68.115  1.00  0.00    -0.131 A  
HETATM   19  N   UNL     1     -11.949  15.376  68.842  1.00  0.00    -0.313 N  
HETATM   20  C   UNL     1     -11.152   5.936  67.043  1.00  0.00    -0.069 C  
HETATM   21  C   UNL     1     -13.348  15.331  69.457  1.00  0.00     1.241 C  
HETATM   22  C   UNL     1      -9.808   4.951  69.711  1.00  0.00    -0.292 C  
HETATM   23  C   UNL     1     -11.141  14.037  68.928  1.00  0.00    -0.268 C  
HETATM   24  C   UNL     1     -12.140  15.649  67.345  1.00  0.00     0.688 C  
HETATM   25  C   UNL     1      -9.385   4.715  65.846  1.00  0.00    -0.155 C  
HETATM   26  C   UNL     1     -11.086  13.460  70.360  1.00  0.00     0.791 C  
HETATM   27  C   UNL     1     -11.998  12.310  70.666  1.00  0.00    -0.218 A  
HETATM   28  C   UNL     1     -11.631  11.056  70.154  1.00  0.00    -0.421 A  
HETATM   29  C   UNL     1     -11.946   9.906  70.842  1.00  0.00    -0.345 A  
HETATM   30  C   UNL     1     -13.013  10.005  71.760  1.00  0.00    -0.458 A  
HETATM   31  O   UNL     1     -11.223   8.740  70.611  1.00  0.00    -0.252 OA 
HETATM   32  N   UNL     1      -9.721   5.424  67.154  1.00  0.00    -0.136 N  
HETATM   33  C   UNL     1      -9.765   8.915  70.422  1.00  0.00    -0.191 C  
HETATM   34  C   UNL     1     -13.510  11.245  72.174  1.00  0.00    -0.197 A  
HETATM   35  C   UNL     1      -9.635   4.370  68.296  1.00  0.00    -0.138 C  
HETATM   36  C   UNL     1      -9.018   8.225  71.387  1.00  0.00    -0.166 C  
HETATM   37  C   UNL     1     -12.951  12.414  71.664  1.00  0.00    -0.409 A  
HETATM   38  C   UNL     1      -9.344   8.545  69.149  1.00  0.00    -0.153 C  
HETATM   39  C   UNL     1      -9.021   6.838  71.243  1.00  0.00    -0.139 C  
HETATM   40  C   UNL     1      -9.241   6.326  69.952  1.00  0.00    -0.155 C  
ENDROOT
BRANCH  16  41
HETATM   41  O   UNL     1      -5.519  14.549  68.353  1.00  0.00    -0.093 OA 
HETATM   42  C   UNL     1      -5.137  15.880  67.982  1.00  0.00    -0.119 C  
ENDBRANCH  16  41
BRANCH  18  43
HETATM   43  O   UNL     1      -6.813  11.976  68.043  1.00  0.00    -0.068 OA 
HETATM   44  C   UNL     1      -6.512  11.297  69.270  1.00  0.00    -0.089 C  
ENDBRANCH  18  43
BRANCH  30  45
HETATM   45  O   UNL     1     -13.646   8.906  72.293  1.00  0.00    -0.411 OA 
HETATM   46  C   UNL     1     -14.173   8.118  71.224  1.00  0.00    -0.249 C  
ENDBRANCH  30  45
BRANCH  36  47
HETATM   47  O   UNL     1      -7.837   8.906  71.688  1.00  0.00    -0.270 OA 
HETATM   48  C   UNL     1      -6.811   8.230  72.406  1.00  0.00    -0.089 C  
ENDBRANCH  36  47
TORSDOF 4
ENDMDL
MODEL       11
REMARK 921   NORMALIZED FREE ENERGY PREDICTED BY IDOCK:   -4.70 KCAL/MOL
REMARK 922        TOTAL FREE ENERGY PREDICTED BY IDOCK:   -6.69 KCAL/MOL
REMARK 923 INTER-LIGAND FREE ENERGY PREDICTED BY IDOCK:   -5.89 KCAL/MOL
REMARK 924 INTRA-LIGAND FREE ENERGY PREDICTED BY IDOCK:   -0.80 KCAL/MOL
REMARK 927      BINDING AFFINITY PREDICTED BY RF-SCORE:    0.00 PKD
ROOT
HETATM    1  C   UNL     1      -8.556   3.675  71.993  1.00  0.00    -0.090 C  
HETATM    2  C   UNL     1      -9.011   4.659  73.144  1.00  0.00    -0.119 C  
HETATM    3  C   UNL     1      -8.595   6.096  73.080  1.00  0.00    -0.117 A  
HETATM    4  C   UNL     1      -7.348   6.472  72.607  1.00  0.00    -0.090 A  
HETATM    5  C   UNL     1      -7.267   7.608  71.818  1.00  0.00    -0.064 A  
HETATM    6  C   UNL     1      -8.381   8.443  71.699  1.00  0.00    -0.156 A  
HETATM    7  C   UNL     1      -9.361   8.328  72.656  1.00  0.00    -0.350 A  
HETATM    8  O   UNL     1      -8.402   9.194  70.555  1.00  0.00    -0.156 OA 
HETATM    9  C   UNL     1      -9.457   9.934  70.068  1.00  0.00    -0.202 A  
HETATM   10  C   UNL     1      -9.534   7.106  73.288  1.00  0.00    -0.218 A  
HETATM   11  C   UNL     1      -9.012  10.931  69.154  1.00  0.00    -0.052 A  
HETATM   12  C   UNL     1      -9.897  11.924  68.737  1.00  0.00    -0.078 A  
HETATM   13  C   UNL     1     -11.205  11.886  69.139  1.00  0.00    -0.314 A  
HETATM   14  C   UNL     1      -9.445  13.142  67.980  1.00  0.00    -0.220 C  
HETATM   15  C   UNL     1      -8.141  12.981  67.242  1.00  0.00    -0.161 C  
HETATM   16  C   UNL     1     -11.692  10.854  69.959  1.00  0.00    -0.345 A  
HETATM   17  C   UNL     1      -8.578   4.009  70.502  1.00  0.00    -0.106 C  
HETATM   18  C   UNL     1     -10.845   9.806  70.345  1.00  0.00    -0.311 A  
HETATM   19  N   UNL     1      -7.081  12.166  67.987  1.00  0.00    -0.087 N  
HETATM   20  C   UNL     1      -5.981   3.431  71.921  1.00  0.00    -0.013 C  
HETATM   21  C   UNL     1      -5.881  12.097  67.042  1.00  0.00    -0.093 C  
HETATM   22  C   UNL     1      -7.761   1.699  69.991  1.00  0.00    -0.043 C  
HETATM   23  C   UNL     1      -7.673  10.779  68.411  1.00  0.00    -0.113 C  
HETATM   24  C   UNL     1      -6.580  12.816  69.282  1.00  0.00    -0.086 C  
HETATM   25  C   UNL     1      -7.203   2.389  73.783  1.00  0.00    -0.033 C  
HETATM   26  C   UNL     1      -7.983   9.864  67.207  1.00  0.00    -0.109 C  
HETATM   27  C   UNL     1      -7.008   8.762  66.921  1.00  0.00    -0.074 A  
HETATM   28  C   UNL     1      -7.046   7.645  67.770  1.00  0.00    -0.085 A  
HETATM   29  C   UNL     1      -6.734   6.394  67.288  1.00  0.00    -0.060 A  
HETATM   30  C   UNL     1      -5.947   6.359  66.117  1.00  0.00    -0.025 A  
HETATM   31  O   UNL     1      -7.195   5.261  67.949  1.00  0.00    -0.069 OA 
HETATM   32  N   UNL     1      -7.302   2.780  72.313  1.00  0.00    -0.045 N  
HETATM   33  C   UNL     1      -8.575   5.345  68.482  1.00  0.00    -0.098 C  
HETATM   34  C   UNL     1      -5.759   7.499  65.327  1.00  0.00    -0.037 A  
HETATM   35  C   UNL     1      -7.499   1.473  71.491  1.00  0.00    -0.036 C  
HETATM   36  C   UNL     1      -9.418   4.373  67.926  1.00  0.00    -0.161 C  
HETATM   37  C   UNL     1      -6.350   8.701  65.705  1.00  0.00    -0.056 A  
HETATM   38  C   UNL     1      -8.617   5.263  69.870  1.00  0.00    -0.106 C  
HETATM   39  C   UNL     1      -9.170   3.070  68.359  1.00  0.00    -0.242 C  
HETATM   40  C   UNL     1      -8.571   2.915  69.621  1.00  0.00    -0.115 C  
ENDROOT
BRANCH  16  41
HETATM   41  O   UNL     1     -13.003  10.906  70.355  1.00  0.00    -0.244 OA 
HETATM   42  C   UNL     1     -13.159  11.354  71.707  1.00  0.00    -0.418 C  
ENDBRANCH  16  41
BRANCH  18  43
HETATM   43  O   UNL     1     -11.298   8.617  70.851  1.00  0.00    -0.263 OA 
HETATM   44  C   UNL     1     -11.563   7.551  69.930  1.00  0.00     0.135 C  
ENDBRANCH  18  43
BRANCH  30  45
HETATM   45  O   UNL     1      -5.302   5.225  65.682  1.00  0.00    -0.012 OA 
HETATM   46  C   UNL     1      -5.866   4.827  64.432  1.00  0.00    -0.017 C  
ENDBRANCH  30  45
BRANCH  36  47
HETATM   47  O   UNL     1     -10.726   4.848  67.815  1.00  0.00     0.082 OA 
HETATM   48  C   UNL     1     -11.021   5.843  66.839  1.00  0.00    -0.217 C  
ENDBRANCH  36  47
TORSDOF 4
ENDMDL
MODEL       12
REMARK 921   NORMALIZED FREE ENERGY PREDICTED BY IDOCK:   -4.45 KCAL/MOL
REMARK 922        TOTAL FREE ENERGY PREDICTED BY IDOCK:   -6.38 KCAL/MOL
REMARK 923 INTER-LIGAND FREE ENERGY PREDICTED BY IDOCK:   -5.51 KCAL/MOL
REMARK 924 INTRA-LIGAND FREE ENERGY PREDICTED BY IDOCK:   -0.87 KCAL/MOL
REMARK 927      BINDING AFFINITY PREDICTED BY RF-SCORE:    0.00 PKD
ROOT
HETATM    1  C   UNL     1      -7.487   5.802  68.434  1.00  0.00    -0.081 C  
HETATM    2  C   UNL     1      -6.898   6.347  67.072  1.00  0.00    -0.066 C  
HETATM    3  C   UNL     1      -7.598   7.472  66.375  1.00  0.00    -0.088 A  
HETATM    4  C   UNL     1      -8.979   7.573  66.363  1.00  0.00    -0.196 A  
HETATM    5  C   UNL     1      -9.541   8.834  66.498  1.00  0.00    -0.302 A  
HETATM    6  C   UNL     1      -8.720   9.962  66.430  1.00  0.00    -0.132 A  
HETATM    7  C   UNL     1      -7.483   9.809  65.851  1.00  0.00    -0.103 A  
HETATM    8  O   UNL     1      -9.222  11.063  67.071  1.00  0.00    -0.152 OA 
HETATM    9  C   UNL     1      -8.555  12.235  67.353  1.00  0.00    -0.178 A  
HETATM   10  C   UNL     1      -6.870   8.567  65.909  1.00  0.00    -0.064 A  
HETATM   11  C   UNL     1      -9.465  13.305  67.588  1.00  0.00    -0.211 A  
HETATM   12  C   UNL     1      -8.984  14.611  67.659  1.00  0.00    -0.187 A  
HETATM   13  C   UNL     1      -7.638  14.848  67.587  1.00  0.00    -0.201 A  
HETATM   14  C   UNL     1      -9.895  15.808  67.654  1.00  0.00    -0.232 C  
HETATM   15  C   UNL     1     -11.304  15.532  68.110  1.00  0.00    -0.345 C  
HETATM   16  C   UNL     1      -6.713  13.799  67.457  1.00  0.00    -0.115 A  
HETATM   17  C   UNL     1      -8.014   6.679  69.569  1.00  0.00    -0.117 C  
HETATM   18  C   UNL     1      -7.157  12.470  67.445  1.00  0.00    -0.146 A  
HETATM   19  N   UNL     1     -11.878  14.192  67.640  1.00  0.00    -0.381 N  
HETATM   20  C   UNL     1      -9.840   4.779  68.104  1.00  0.00    -0.120 C  
HETATM   21  C   UNL     1     -13.276  14.110  68.251  1.00  0.00     3.281 C  
HETATM   22  C   UNL     1      -8.459   4.625  70.926  1.00  0.00    -0.109 C  
HETATM   23  C   UNL     1     -10.910  13.027  68.037  1.00  0.00    -0.242 C  
HETATM   24  C   UNL     1     -12.059  14.082  66.121  1.00  0.00    -0.446 C  
HETATM   25  C   UNL     1      -7.899   3.553  67.224  1.00  0.00    -0.079 C  
HETATM   26  C   UNL     1     -10.823  12.811  69.563  1.00  0.00     0.158 C  
HETATM   27  C   UNL     1     -11.591  11.656  70.132  1.00  0.00    -0.303 A  
HETATM   28  C   UNL     1     -11.053  10.376  69.928  1.00  0.00    -0.367 A  
HETATM   29  C   UNL     1     -11.240   9.386  70.867  1.00  0.00    -0.325 A  
HETATM   30  C   UNL     1     -12.337   9.557  71.739  1.00  0.00    -0.394 A  
HETATM   31  O   UNL     1     -10.369   8.303  70.915  1.00  0.00    -0.189 OA 
HETATM   32  N   UNL     1      -8.360   4.497  68.330  1.00  0.00    -0.090 N  
HETATM   33  C   UNL     1      -8.940   8.617  70.688  1.00  0.00    -0.171 C  
HETATM   34  C   UNL     1     -12.998  10.784  71.851  1.00  0.00    -0.524 A  
HETATM   35  C   UNL     1      -8.174   3.758  69.687  1.00  0.00    -0.053 C  
HETATM   36  C   UNL     1      -8.140   8.273  71.786  1.00  0.00    -0.141 C  
HETATM   37  C   UNL     1     -12.577  11.864  71.080  1.00  0.00    -0.390 A  
HETATM   38  C   UNL     1      -8.438   8.018  69.536  1.00  0.00    -0.131 C  
HETATM   39  C   UNL     1      -7.963   6.902  71.972  1.00  0.00    -0.095 C  
HETATM   40  C   UNL     1      -8.079   6.080  70.837  1.00  0.00    -0.121 C  
ENDROOT
BRANCH  16  41
HETATM   41  O   UNL     1      -5.384  14.117  67.348  1.00  0.00    -0.335 OA 
HETATM   42  C   UNL     1      -5.141  15.528  67.415  1.00  0.00     0.149 C  
ENDBRANCH  16  41
BRANCH  18  43
HETATM   43  O   UNL     1      -6.332  11.396  67.653  1.00  0.00    -0.055 OA 
HETATM   44  C   UNL     1      -6.021  11.038  69.006  1.00  0.00    -0.041 C  
ENDBRANCH  18  43
BRANCH  30  45
HETATM   45  O   UNL     1     -12.841   8.539  72.515  1.00  0.00    -0.345 OA 
HETATM   46  C   UNL     1     -13.728   7.752  71.719  1.00  0.00    -0.339 C  
ENDBRANCH  30  45
BRANCH  36  47
HETATM   47  O   UNL     1      -7.064   9.154  71.917  1.00  0.00    -0.314 OA 
HETATM   48  C   UNL     1      -5.898   8.725  72.614  1.00  0.00    -0.079 C  
ENDBRANCH  36  47
TORSDOF 4
ENDMDL
MODEL       13
REMARK 921   NORMALIZED FREE ENERGY PREDICTED BY IDOCK:   -4.42 KCAL/MOL
REMARK 922        TOTAL FREE ENERGY PREDICTED BY IDOCK:   -6.35 KCAL/MOL
REMARK 923 INTER-LIGAND FREE ENERGY PREDICTED BY IDOCK:   -5.61 KCAL/MOL
REMARK 924 INTRA-LIGAND FREE ENERGY PREDICTED BY IDOCK:   -0.74 KCAL/MOL
REMARK 927      BINDING AFFINITY PREDICTED BY RF-SCORE:    0.00 PKD
ROOT
HETATM    1  C   UNL     1      -6.379   5.814  69.085  1.00  0.00    -0.040 C  
HETATM    2  C   UNL     1      -5.620   6.378  67.819  1.00  0.00    -0.005 C  
HETATM    3  C   UNL     1      -6.313   7.370  66.936  1.00  0.00    -0.048 A  
HETATM    4  C   UNL     1      -7.669   7.283  66.670  1.00  0.00    -0.101 A  
HETATM    5  C   UNL     1      -8.399   8.461  66.621  1.00  0.00    -0.110 A  
HETATM    6  C   UNL     1      -7.728   9.686  66.629  1.00  0.00    -0.098 A  
HETATM    7  C   UNL     1      -6.395   9.677  66.291  1.00  0.00    -0.069 A  
HETATM    8  O   UNL     1      -8.473  10.734  67.096  1.00  0.00    -0.124 OA 
HETATM    9  C   UNL     1      -8.021  11.996  67.417  1.00  0.00    -0.165 A  
HETATM   10  C   UNL     1      -5.653   8.533  66.538  1.00  0.00    -0.039 A  
HETATM   11  C   UNL     1      -9.086  12.942  67.416  1.00  0.00    -0.197 A  
HETATM   12  C   UNL     1      -8.793  14.303  67.487  1.00  0.00    -0.202 A  
HETATM   13  C   UNL     1      -7.498  14.716  67.642  1.00  0.00    -0.205 A  
HETATM   14  C   UNL     1      -9.830  15.365  67.242  1.00  0.00    -0.217 C  
HETATM   15  C   UNL     1     -11.253  14.921  67.455  1.00  0.00    -0.338 C  
HETATM   16  C   UNL     1      -6.441  13.796  67.748  1.00  0.00    -0.170 A  
HETATM   17  C   UNL     1      -7.214   6.658  70.049  1.00  0.00    -0.080 C  
HETATM   18  C   UNL     1      -6.705  12.420  67.743  1.00  0.00    -0.115 A  
HETATM   19  N   UNL     1     -11.558  13.498  66.977  1.00  0.00    -0.339 N  
HETATM   20  C   UNL     1      -8.484   4.471  68.406  1.00  0.00    -0.093 C  
HETATM   21  C   UNL     1     -13.024  13.254  67.332  1.00  0.00     2.136 C  
HETATM   22  C   UNL     1      -7.644   4.619  71.434  1.00  0.00    -0.078 C  
HETATM   23  C   UNL     1     -10.543  12.491  67.615  1.00  0.00    -0.217 C  
HETATM   24  C   UNL     1     -11.438  13.304  65.461  1.00  0.00    -0.311 C  
HETATM   25  C   UNL     1      -6.275   3.483  67.969  1.00  0.00    -0.032 C  
HETATM   26  C   UNL     1     -10.715  12.351  69.144  1.00  0.00    -0.081 C  
HETATM   27  C   UNL     1     -11.425  11.128  69.639  1.00  0.00    -0.383 A  
HETATM   28  C   UNL     1     -10.704   9.924  69.618  1.00  0.00    -0.277 A  
HETATM   29  C   UNL     1     -10.937   8.957  70.570  1.00  0.00    -0.241 A  
HETATM   30  C   UNL     1     -12.189   9.014  71.218  1.00  0.00    -0.312 A  
HETATM   31  O   UNL     1      -9.962   8.004  70.843  1.00  0.00    -0.185 OA 
HETATM   32  N   UNL     1      -7.048   4.400  68.911  1.00  0.00    -0.051 N  
HETATM   33  C   UNL     1      -8.566   8.498  70.855  1.00  0.00    -0.158 C  
HETATM   34  C   UNL     1     -13.008  10.145  71.130  1.00  0.00    -0.488 A  
HETATM   35  C   UNL     1      -7.027   3.749  70.324  1.00  0.00    -0.034 C  
HETATM   36  C   UNL     1      -7.948   8.310  72.099  1.00  0.00    -0.140 C  
HETATM   37  C   UNL     1     -12.589  11.240  70.379  1.00  0.00    -0.292 A  
HETATM   38  C   UNL     1      -7.788   7.925  69.854  1.00  0.00    -0.103 C  
HETATM   39  C   UNL     1      -7.639   6.983  72.402  1.00  0.00    -0.090 C  
HETATM   40  C   UNL     1      -7.438   6.107  71.321  1.00  0.00    -0.093 C  
ENDROOT
BRANCH  16  41
HETATM   41  O   UNL     1      -5.165  14.286  67.859  1.00  0.00    -0.177 OA 
HETATM   42  C   UNL     1      -5.126  15.645  68.312  1.00  0.00    -0.105 C  
ENDBRANCH  16  41
BRANCH  18  43
HETATM   43  O   UNL     1      -5.806  11.477  68.164  1.00  0.00    -0.046 OA 
HETATM   44  C   UNL     1      -5.928  10.980  69.504  1.00  0.00    -0.064 C  
ENDBRANCH  18  43
BRANCH  30  45
HETATM   45  O   UNL     1     -12.698   7.970  71.956  1.00  0.00    -0.315 OA 
HETATM   46  C   UNL     1     -14.042   7.725  71.536  1.00  0.00    -0.404 C  
ENDBRANCH  30  45
BRANCH  36  47
HETATM   47  O   UNL     1      -7.033   9.331  72.364  1.00  0.00    -0.288 OA 
HETATM   48  C   UNL     1      -5.880   9.043  73.149  1.00  0.00    -0.026 C  
ENDBRANCH  36  47
TORSDOF 4
ENDMDL
MODEL       14
REMARK 921   NORMALIZED FREE ENERGY PREDICTED BY IDOCK:   -3.99 KCAL/MOL
REMARK 922        TOTAL FREE ENERGY PREDICTED BY IDOCK:   -5.81 KCAL/MOL
REMARK 923 INTER-LIGAND FREE ENERGY PREDICTED BY IDOCK:   -5.09 KCAL/MOL
REMARK 924 INTRA-LIGAND FREE ENERGY PREDICTED BY IDOCK:   -0.72 KCAL/MOL
REMARK 927      BINDING AFFINITY PREDICTED BY RF-SCORE:    0.00 PKD
ROOT
HETATM    1  C   UNL     1     -10.013  10.277  69.814  1.00  0.00    -0.181 C  
HETATM    2  C   UNL     1     -10.416   9.090  70.776  1.00  0.00    -0.304 C  
HETATM    3  C   UNL     1     -10.658   7.731  70.195  1.00  0.00    -0.237 A  
HETATM    4  C   UNL     1     -11.270   7.566  68.964  1.00  0.00     0.230 A  
HETATM    5  C   UNL     1     -10.786   6.574  68.124  1.00  0.00    -0.370 A  
HETATM    6  C   UNL     1      -9.857   5.653  68.613  1.00  0.00    -0.145 A  
HETATM    7  C   UNL     1      -9.760   5.519  69.977  1.00  0.00    -0.238 A  
HETATM    8  O   UNL     1      -9.068   5.083  67.650  1.00  0.00    -0.110 OA 
HETATM    9  C   UNL     1      -7.942   4.316  67.848  1.00  0.00    -0.087 A  
HETATM   10  C   UNL     1     -10.073   6.606  70.777  1.00  0.00    -0.205 A  
HETATM   11  C   UNL     1      -7.651   3.519  66.704  1.00  0.00    -0.080 A  
HETATM   12  C   UNL     1      -6.692   2.511  66.796  1.00  0.00    -0.040 A  
HETATM   13  C   UNL     1      -5.980   2.349  67.953  1.00  0.00    -0.024 A  
HETATM   14  C   UNL     1      -6.506   1.475  65.722  1.00  0.00    -0.023 C  
HETATM   15  C   UNL     1      -6.996   1.882  64.357  1.00  0.00    -0.042 C  
HETATM   16  C   UNL     1      -6.178   3.189  69.061  1.00  0.00    -0.029 A  
HETATM   17  C   UNL     1      -9.002  10.169  68.672  1.00  0.00    -0.136 C  
HETATM   18  C   UNL     1      -7.089   4.252  68.983  1.00  0.00    -0.051 A  
HETATM   19  N   UNL     1      -8.299   2.686  64.359  1.00  0.00    -0.086 N  
HETATM   20  C   UNL     1     -11.898  10.802  68.121  1.00  0.00     0.049 C  
HETATM   21  C   UNL     1      -8.573   3.023  62.893  1.00  0.00    -0.085 C  
HETATM   22  C   UNL     1      -9.320  12.603  68.185  1.00  0.00    -0.210 C  
HETATM   23  C   UNL     1      -8.164   3.923  65.311  1.00  0.00    -0.101 C  
HETATM   24  C   UNL     1      -9.520   1.907  64.862  1.00  0.00    -0.025 C  
HETATM   25  C   UNL     1     -12.237  11.419  70.477  1.00  0.00    -0.386 C  
HETATM   26  C   UNL     1      -7.151   4.969  64.796  1.00  0.00    -0.058 C  
HETATM   27  C   UNL     1      -7.713   6.199  64.149  1.00  0.00    -0.106 A  
HETATM   28  C   UNL     1      -8.269   7.166  65.002  1.00  0.00    -0.095 A  
HETATM   29  C   UNL     1      -8.207   8.501  64.672  1.00  0.00    -0.160 A  
HETATM   30  C   UNL     1      -8.021   8.794  63.304  1.00  0.00    -0.160 A  
HETATM   31  O   UNL     1      -8.322   9.467  65.666  1.00  0.00    -0.116 OA 
HETATM   32  N   UNL     1     -11.181  11.244  69.391  1.00  0.00    -0.262 N  
HETATM   33  C   UNL     1      -7.640   9.158  66.944  1.00  0.00    -0.091 C  
HETATM   34  C   UNL     1      -7.617   7.812  62.393  1.00  0.00    -0.112 A  
HETATM   35  C   UNL     1     -10.514  12.630  69.155  1.00  0.00     0.119 C  
HETATM   36  C   UNL     1      -6.659  10.107  67.265  1.00  0.00    -0.069 C  
HETATM   37  C   UNL     1      -7.402   6.510  62.838  1.00  0.00    -0.063 A  
HETATM   38  C   UNL     1      -8.530   9.026  68.005  1.00  0.00    -0.125 C  
HETATM   39  C   UNL     1      -7.157  11.349  67.658  1.00  0.00    -0.092 C  
HETATM   40  C   UNL     1      -8.445  11.377  68.221  1.00  0.00    -0.154 C  
ENDROOT
BRANCH  16  41
HETATM   41  O   UNL     1      -5.458   2.939  70.201  1.00  0.00    -0.014 OA 
HETATM   42  C   UNL     1      -6.086   1.977  71.057  1.00  0.00    -0.018 C  
ENDBRANCH  16  41
BRANCH  18  43
HETATM   43  O   UNL     1      -7.108   5.297  69.867  1.00  0.00    -0.058 OA 
HETATM   44  C   UNL     1      -6.365   6.477  69.531  1.00  0.00    -0.038 C  
ENDBRANCH  18  43
BRANCH  30  45
HETATM   45  O   UNL     1      -8.239  10.043  62.770  1.00  0.00    -0.133 OA 
HETATM   46  C   UNL     1      -9.621  10.372  62.922  1.00  0.00    -0.295 C  
ENDBRANCH  30  45
BRANCH  36  47
HETATM   47  O   UNL     1      -5.597   9.516  67.952  1.00  0.00    -0.040 OA 
HETATM   48  C   UNL     1      -5.162  10.090  69.180  1.00  0.00    -0.035 C  
ENDBRANCH  36  47
TORSDOF 4
ENDMDL
MODEL       15
REMARK 921   NORMALIZED FREE ENERGY PREDICTED BY IDOCK:   -3.92 KCAL/MOL
REMARK 922        TOTAL FREE ENERGY PREDICTED BY IDOCK:   -5.73 KCAL/MOL
REMARK 923 INTER-LIGAND FREE ENERGY PREDICTED BY IDOCK:   -6.12 KCAL/MOL
REMARK 924 INTRA-LIGAND FREE ENERGY PREDICTED BY IDOCK:    0.39 KCAL/MOL
REMARK 927      BINDING AFFINITY PREDICTED BY RF-SCORE:    0.00 PKD
ROOT
HETATM    1  C   UNL     1      -8.165   7.421  67.288  1.00  0.00    -0.115 C  
HETATM    2  C   UNL     1      -6.636   7.615  67.639  1.00  0.00    -0.062 C  
HETATM    3  C   UNL     1      -5.986   8.935  67.356  1.00  0.00    -0.047 A  
HETATM    4  C   UNL     1      -6.308   9.678  66.232  1.00  0.00    -0.069 A  
HETATM    5  C   UNL     1      -6.401  11.055  66.367  1.00  0.00    -0.133 A  
HETATM    6  C   UNL     1      -5.971  11.659  67.550  1.00  0.00    -0.079 A  
HETATM    7  C   UNL     1      -5.126  10.936  68.358  1.00  0.00    -0.036 A  
HETATM    8  O   UNL     1      -6.555  12.870  67.809  1.00  0.00    -0.107 OA 
HETATM    9  C   UNL     1      -6.492  13.587  68.984  1.00  0.00    -0.107 A  
HETATM   10  C   UNL     1      -5.202   9.552  68.331  1.00  0.00    -0.033 A  
HETATM   11  C   UNL     1      -6.796  14.961  68.768  1.00  0.00    -0.102 A  
HETATM   12  C   UNL     1      -6.558  15.884  69.785  1.00  0.00    -0.148 A  
HETATM   13  C   UNL     1      -6.117  15.456  71.007  1.00  0.00     0.362 A  
HETATM   14  C   UNL     1      -6.615  17.370  69.556  1.00  0.00    -0.172 C  
HETATM   15  C   UNL     1      -7.445  17.797  68.374  1.00  0.00    -0.263 C  
HETATM   16  C   UNL     1      -5.908  14.092  71.276  1.00  0.00    -0.206 A  
HETATM   17  C   UNL     1      -9.261   8.450  67.567  1.00  0.00    -0.158 C  
HETATM   18  C   UNL     1      -6.196  13.132  70.297  1.00  0.00    -0.004 A  
HETATM   19  N   UNL     1      -7.328  16.886  67.148  1.00  0.00    -0.163 N  
HETATM   20  C   UNL     1      -8.586   7.634  64.743  1.00  0.00     0.158 C  
HETATM   21  C   UNL     1      -8.277  17.480  66.107  1.00  0.00    -0.187 C  
HETATM   22  C   UNL     1     -10.962   6.858  66.653  1.00  0.00     0.009 C  
HETATM   23  C   UNL     1      -7.628  15.403  67.552  1.00  0.00    -0.181 C  
HETATM   24  C   UNL     1      -5.935  16.868  66.507  1.00  0.00    -0.049 C  
HETATM   25  C   UNL     1      -7.427   5.630  65.574  1.00  0.00    -0.074 C  
HETATM   26  C   UNL     1      -9.099  15.180  67.968  1.00  0.00    -0.180 C  
HETATM   27  C   UNL     1      -9.999  14.530  66.962  1.00  0.00    -0.255 A  
HETATM   28  C   UNL     1      -9.849  13.146  66.778  1.00  0.00    -0.251 A  
HETATM   29  C   UNL     1     -10.934  12.368  66.443  1.00  0.00    -0.276 A  
HETATM   30  C   UNL     1     -12.021  13.042  65.846  1.00  0.00    -0.435 A  
HETATM   31  O   UNL     1     -10.914  11.002  66.702  1.00  0.00    -0.258 OA 
HETATM   32  N   UNL     1      -8.469   6.685  65.931  1.00  0.00    -0.140 N  
HETATM   33  C   UNL     1     -10.292  10.600  67.985  1.00  0.00    -0.178 C  
HETATM   34  C   UNL     1     -12.122  14.438  65.876  1.00  0.00    -0.358 A  
HETATM   35  C   UNL     1      -9.826   5.953  66.144  1.00  0.00    -0.012 C  
HETATM   36  C   UNL     1     -11.191   9.924  68.821  1.00  0.00    -0.072 C  
HETATM   37  C   UNL     1     -11.126  15.185  66.497  1.00  0.00    -0.305 A  
HETATM   38  C   UNL     1      -9.148   9.829  67.805  1.00  0.00    -0.138 C  
HETATM   39  C   UNL     1     -11.517   8.634  68.404  1.00  0.00     1.034 C  
HETATM   40  C   UNL     1     -10.576   7.959  67.607  1.00  0.00    -0.276 C  
ENDROOT
BRANCH  16  41
HETATM   41  O   UNL     1      -5.424  13.742  72.510  1.00  0.00    -0.365 OA 
HETATM   42  C   UNL     1      -5.601  14.772  73.491  1.00  0.00     0.179 C  
ENDBRANCH  16  41
BRANCH  18  43
HETATM   43  O   UNL     1      -6.338  11.797  70.567  1.00  0.00    -0.240 OA 
HETATM   44  C   UNL     1      -5.392  11.185  71.454  1.00  0.00     0.026 C  
ENDBRANCH  18  43
BRANCH  30  45
HETATM   45  O   UNL     1     -13.035  12.389  65.185  1.00  0.00    -0.607 OA 
HETATM   46  C   UNL     1     -12.651  12.211  63.820  1.00  0.00    -0.475 C  
ENDBRANCH  30  45
BRANCH  36  47
HETATM   47  O   UNL     1     -10.922  10.190  70.165  1.00  0.00    -0.273 OA 
HETATM   48  C   UNL     1     -10.526   9.121  71.018  1.00  0.00    -0.298 C  
ENDBRANCH  36  47
TORSDOF 4
ENDMDL
MODEL       16
REMARK 921   NORMALIZED FREE ENERGY PREDICTED BY IDOCK:   -3.83 KCAL/MOL
REMARK 922        TOTAL FREE ENERGY PREDICTED BY IDOCK:   -5.62 KCAL/MOL
REMARK 923 INTER-LIGAND FREE ENERGY PREDICTED BY IDOCK:   -4.80 KCAL/MOL
REMARK 924 INTRA-LIGAND FREE ENERGY PREDICTED BY IDOCK:   -0.82 KCAL/MOL
REMARK 927      BINDING AFFINITY PREDICTED BY RF-SCORE:    0.00 PKD
ROOT
HETATM    1  C   UNL     1      -6.413   4.031  67.055  1.00  0.00    -0.041 C  
HETATM    2  C   UNL     1      -6.140   4.910  65.770  1.00  0.00    -0.030 C  
HETATM    3  C   UNL     1      -7.052   6.059  65.465  1.00  0.00    -0.069 A  
HETATM    4  C   UNL     1      -8.414   5.988  65.704  1.00  0.00    -0.151 A  
HETATM    5  C   UNL     1      -9.046   7.116  66.207  1.00  0.00    -0.182 A  
HETATM    6  C   UNL     1      -8.352   8.327  66.257  1.00  0.00    -0.124 A  
HETATM    7  C   UNL     1      -7.238   8.449  65.461  1.00  0.00    -0.079 A  
HETATM    8  O   UNL     1      -8.817   9.204  67.199  1.00  0.00    -0.119 OA 
HETATM    9  C   UNL     1      -8.211  10.367  67.620  1.00  0.00    -0.110 A  
HETATM   10  C   UNL     1      -6.521   7.307  65.140  1.00  0.00    -0.040 A  
HETATM   11  C   UNL     1      -9.148  11.246  68.234  1.00  0.00    -0.173 A  
HETATM   12  C   UNL     1      -8.776  12.560  68.512  1.00  0.00    -0.051 A  
HETATM   13  C   UNL     1      -7.493  12.972  68.274  1.00  0.00    -0.128 A  
HETATM   14  C   UNL     1      -9.771  13.610  68.925  1.00  0.00     0.058 C  
HETATM   15  C   UNL     1     -11.040  13.076  69.534  1.00  0.00     0.013 C  
HETATM   16  C   UNL     1      -6.523  12.093  67.763  1.00  0.00    -0.095 A  
HETATM   17  C   UNL     1      -6.791   4.588  68.427  1.00  0.00    -0.051 C  
HETATM   18  C   UNL     1      -6.846  10.750  67.530  1.00  0.00    -0.079 A  
HETATM   19  N   UNL     1     -11.575  11.799  68.880  1.00  0.00    -0.282 N  
HETATM   20  C   UNL     1      -8.691   2.814  66.899  1.00  0.00    -0.118 C  
HETATM   21  C   UNL     1     -12.822  11.423  69.680  1.00  0.00     0.435 C  
HETATM   22  C   UNL     1      -6.796   2.262  69.349  1.00  0.00    -0.033 C  
HETATM   23  C   UNL     1     -10.454  10.706  68.842  1.00  0.00    -0.210 C  
HETATM   24  C   UNL     1     -12.029  11.978  67.426  1.00  0.00    -0.055 C  
HETATM   25  C   UNL     1      -6.852   2.042  65.461  1.00  0.00    -0.035 C  
HETATM   26  C   UNL     1     -10.064  10.197  70.247  1.00  0.00    -0.131 C  
HETATM   27  C   UNL     1     -10.609   8.865  70.664  1.00  0.00    -0.277 A  
HETATM   28  C   UNL     1     -10.013   7.729  70.095  1.00  0.00    -0.186 A  
HETATM   29  C   UNL     1      -9.935   6.554  70.808  1.00  0.00    -0.184 A  
HETATM   30  C   UNL     1     -10.858   6.407  71.865  1.00  0.00    -0.240 A  
HETATM   31  O   UNL     1      -8.981   5.600  70.470  1.00  0.00    -0.134 OA 
HETATM   32  N   UNL     1      -7.176   2.677  66.809  1.00  0.00    -0.053 N  
HETATM   33  C   UNL     1      -7.652   6.128  70.085  1.00  0.00    -0.096 C  
HETATM   34  C   UNL     1     -11.589   7.495  72.355  1.00  0.00    -0.356 A  
HETATM   35  C   UNL     1      -6.676   1.707  67.919  1.00  0.00    -0.032 C  
HETATM   36  C   UNL     1      -6.634   5.671  70.933  1.00  0.00    -0.044 C  
HETATM   37  C   UNL     1     -11.414   8.753  71.784  1.00  0.00    -0.413 A  
HETATM   38  C   UNL     1      -7.326   5.843  68.763  1.00  0.00    -0.084 C  
HETATM   39  C   UNL     1      -6.308   4.323  70.777  1.00  0.00    -0.022 C  
HETATM   40  C   UNL     1      -6.565   3.740  69.524  1.00  0.00    -0.034 C  
ENDROOT
BRANCH  16  41
HETATM   41  O   UNL     1      -5.270  12.589  67.509  1.00  0.00    -0.102 OA 
HETATM   42  C   UNL     1      -5.176  14.004  67.720  1.00  0.00     0.003 C  
ENDBRANCH  16  41
BRANCH  18  43
HETATM   43  O   UNL     1      -5.908   9.767  67.355  1.00  0.00    -0.050 OA 
HETATM   44  C   UNL     1      -5.288   9.212  68.523  1.00  0.00    -0.037 C  
ENDBRANCH  18  43
BRANCH  30  45
HETATM   45  O   UNL     1     -11.119   5.199  72.469  1.00  0.00    -0.236 OA 
HETATM   46  C   UNL     1     -10.612   5.236  73.804  1.00  0.00    -0.287 C  
ENDBRANCH  30  45
BRANCH  36  47
HETATM   47  O   UNL     1      -5.631   6.632  71.076  1.00  0.00    -0.026 OA 
HETATM   48  C   UNL     1      -5.694   7.541  72.170  1.00  0.00    -0.036 C  
ENDBRANCH  36  47
TORSDOF 4
ENDMDL
MODEL       17
REMARK 921   NORMALIZED FREE ENERGY PREDICTED BY IDOCK:   -3.73 KCAL/MOL
REMARK 922        TOTAL FREE ENERGY PREDICTED BY IDOCK:   -5.49 KCAL/MOL
REMARK 923 INTER-LIGAND FREE ENERGY PREDICTED BY IDOCK:   -4.59 KCAL/MOL
REMARK 924 INTRA-LIGAND FREE ENERGY PREDICTED BY IDOCK:   -0.90 KCAL/MOL
REMARK 927      BINDING AFFINITY PREDICTED BY RF-SCORE:    0.00 PKD
ROOT
HETATM    1  C   UNL     1      -9.951  11.592  68.897  1.00  0.00    -0.066 C  
HETATM    2  C   UNL     1     -10.972  10.902  69.887  1.00  0.00    -0.266 C  
HETATM    3  C   UNL     1     -11.233   9.434  69.757  1.00  0.00    -0.139 A  
HETATM    4  C   UNL     1     -11.284   8.811  68.521  1.00  0.00     0.422 A  
HETATM    5  C   UNL     1     -10.717   7.551  68.403  1.00  0.00    -0.115 A  
HETATM    6  C   UNL     1     -10.309   6.871  69.552  1.00  0.00    -0.207 A  
HETATM    7  C   UNL     1     -10.832   7.289  70.753  1.00  0.00    -0.260 A  
HETATM    8  O   UNL     1      -9.331   5.938  69.338  1.00  0.00    -0.128 OA 
HETATM    9  C   UNL     1      -8.591   5.276  70.293  1.00  0.00    -0.121 A  
HETATM   10  C   UNL     1     -11.211   8.616  70.888  1.00  0.00    -0.311 A  
HETATM   11  C   UNL     1      -8.023   4.079  69.770  1.00  0.00    -0.057 A  
HETATM   12  C   UNL     1      -7.439   3.161  70.641  1.00  0.00    -0.040 A  
HETATM   13  C   UNL     1      -7.340   3.450  71.974  1.00  0.00    -0.051 A  
HETATM   14  C   UNL     1      -7.044   1.776  70.206  1.00  0.00    -0.033 C  
HETATM   15  C   UNL     1      -6.806   1.621  68.727  1.00  0.00    -0.029 C  
HETATM   16  C   UNL     1      -7.803   4.669  72.498  1.00  0.00    -0.088 A  
HETATM   17  C   UNL     1      -8.601  11.004  68.488  1.00  0.00    -0.158 C  
HETATM   18  C   UNL     1      -8.338   5.642  71.643  1.00  0.00    -0.124 A  
HETATM   19  N   UNL     1      -7.777   2.402  67.837  1.00  0.00    -0.059 N  
HETATM   20  C   UNL     1     -10.775  11.461  66.448  1.00  0.00    -0.275 C  
HETATM   21  C   UNL     1      -7.322   2.134  66.403  1.00  0.00    -0.061 C  
HETATM   22  C   UNL     1      -8.145  13.050  67.121  1.00  0.00    -0.114 C  
HETATM   23  C   UNL     1      -7.794   3.910  68.259  1.00  0.00    -0.069 C  
HETATM   24  C   UNL     1      -9.233   1.930  67.927  1.00  0.00    -0.174 C  
HETATM   25  C   UNL     1     -11.940  12.977  67.993  1.00  0.00    -0.290 C  
HETATM   26  C   UNL     1      -6.458   4.630  67.970  1.00  0.00    -0.041 C  
HETATM   27  C   UNL     1      -6.410   5.517  66.763  1.00  0.00    -0.036 A  
HETATM   28  C   UNL     1      -7.050   6.762  66.866  1.00  0.00    -0.075 A  
HETATM   29  C   UNL     1      -6.565   7.851  66.178  1.00  0.00    -0.050 A  
HETATM   30  C   UNL     1      -5.757   7.568  65.056  1.00  0.00    -0.037 A  
HETATM   31  O   UNL     1      -6.879   9.137  66.605  1.00  0.00    -0.078 OA 
HETATM   32  N   UNL     1     -10.588  12.348  67.673  1.00  0.00    -0.213 N  
HETATM   33  C   UNL     1      -6.890   9.342  68.072  1.00  0.00    -0.068 C  
HETATM   34  C   UNL     1      -5.229   6.290  64.840  1.00  0.00    -0.017 A  
HETATM   35  C   UNL     1      -9.601  13.502  67.332  1.00  0.00    -0.227 C  
HETATM   36  C   UNL     1      -5.958  10.306  68.480  1.00  0.00    -0.040 C  
HETATM   37  C   UNL     1      -5.511   5.268  65.741  1.00  0.00    -0.013 A  
HETATM   38  C   UNL     1      -8.152   9.674  68.555  1.00  0.00    -0.104 C  
HETATM   39  C   UNL     1      -6.293  11.618  68.145  1.00  0.00    -0.050 C  
HETATM   40  C   UNL     1      -7.658  11.911  67.980  1.00  0.00    -0.122 C  
ENDROOT
BRANCH  16  41
HETATM   41  O   UNL     1      -7.708   4.871  73.851  1.00  0.00    -0.096 OA 
HETATM   42  C   UNL     1      -6.371   5.157  74.280  1.00  0.00    -0.064 C  
ENDBRANCH  16  41
BRANCH  18  43
HETATM   43  O   UNL     1      -8.503   6.953  72.000  1.00  0.00    -0.111 OA 
HETATM   44  C   UNL     1      -7.359   7.816  71.945  1.00  0.00    -0.070 C  
ENDBRANCH  18  43
BRANCH  30  45
HETATM   45  O   UNL     1      -5.450   8.506  64.098  1.00  0.00    -0.057 OA 
HETATM   46  C   UNL     1      -5.360   7.853  62.831  1.00  0.00    -0.051 C  
ENDBRANCH  30  45
BRANCH  36  47
HETATM   47  O   UNL     1      -5.445  10.004  69.743  1.00  0.00    -0.037 OA 
HETATM   48  C   UNL     1      -5.531  10.978  70.778  1.00  0.00    -0.124 C  
ENDBRANCH  36  47
TORSDOF 4
ENDMDL
MODEL       18
REMARK 921   NORMALIZED FREE ENERGY PREDICTED BY IDOCK:   -3.32 KCAL/MOL
REMARK 922        TOTAL FREE ENERGY PREDICTED BY IDOCK:   -4.99 KCAL/MOL
REMARK 923 INTER-LIGAND FREE ENERGY PREDICTED BY IDOCK:   -4.20 KCAL/MOL
REMARK 924 INTRA-LIGAND FREE ENERGY PREDICTED BY IDOCK:   -0.79 KCAL/MOL
REMARK 927      BINDING AFFINITY PREDICTED BY RF-SCORE:    0.00 PKD
ROOT
HETATM    1  C   UNL     1      -8.527   7.096  70.660  1.00  0.00    -0.138 C  
HETATM    2  C   UNL     1      -9.897   6.827  69.919  1.00  0.00    -0.174 C  
HETATM    3  C   UNL     1     -10.755   7.992  69.530  1.00  0.00    -0.185 A  
HETATM    4  C   UNL     1     -10.869   9.112  70.336  1.00  0.00    -0.285 A  
HETATM    5  C   UNL     1     -10.907  10.355  69.723  1.00  0.00    -0.342 A  
HETATM    6  C   UNL     1     -11.039  10.431  68.335  1.00  0.00    -0.268 A  
HETATM    7  C   UNL     1     -11.516   9.318  67.683  1.00  0.00     1.086 A  
HETATM    8  O   UNL     1     -10.554  11.587  67.785  1.00  0.00    -0.181 OA 
HETATM    9  C   UNL     1     -10.355  11.850  66.448  1.00  0.00    -0.219 A  
HETATM   10  C   UNL     1     -11.286   8.071  68.242  1.00  0.00     0.547 A  
HETATM   11  C   UNL     1     -10.296  13.252  66.199  1.00  0.00    -0.290 A  
HETATM   12  C   UNL     1     -10.332  13.717  64.886  1.00  0.00    -0.420 A  
HETATM   13  C   UNL     1     -10.339  12.828  63.846  1.00  0.00    -0.352 A  
HETATM   14  C   UNL     1     -10.524  15.171  64.551  1.00  0.00     0.145 C  
HETATM   15  C   UNL     1     -10.137  16.130  65.646  1.00  0.00    -0.337 C  
HETATM   16  C   UNL     1     -10.296  11.441  64.065  1.00  0.00    -0.362 A  
HETATM   17  C   UNL     1      -7.529   8.189  70.279  1.00  0.00    -0.067 C  
HETATM   18  C   UNL     1     -10.195  10.939  65.370  1.00  0.00    -0.277 A  
HETATM   19  N   UNL     1     -10.499  15.667  67.059  1.00  0.00    -0.297 N  
HETATM   20  C   UNL     1      -8.902   8.213  72.964  1.00  0.00    -0.248 C  
HETATM   21  C   UNL     1      -9.977  16.759  67.993  1.00  0.00    -0.272 C  
HETATM   22  C   UNL     1      -5.994   7.393  72.088  1.00  0.00    -0.036 C  
HETATM   23  C   UNL     1      -9.917  14.236  67.319  1.00  0.00    -0.252 C  
HETATM   24  C   UNL     1     -12.006  15.555  67.319  1.00  0.00     0.414 C  
HETATM   25  C   UNL     1      -9.516   5.846  72.698  1.00  0.00    -0.146 C  
HETATM   26  C   UNL     1      -8.374  14.215  67.369  1.00  0.00    -0.210 C  
HETATM   27  C   UNL     1      -7.737  14.141  68.724  1.00  0.00    -0.121 A  
HETATM   28  C   UNL     1      -7.768  12.895  69.371  1.00  0.00     0.624 A  
HETATM   29  C   UNL     1      -6.744  12.525  70.214  1.00  0.00     0.735 A  
HETATM   30  C   UNL     1      -5.970  13.576  70.750  1.00  0.00    -0.108 A  
HETATM   31  O   UNL     1      -6.523  11.179  70.486  1.00  0.00    -0.306 OA 
HETATM   32  N   UNL     1      -8.550   6.927  72.224  1.00  0.00    -0.119 N  
HETATM   33  C   UNL     1      -6.687  10.256  69.340  1.00  0.00    -0.063 C  
HETATM   34  C   UNL     1      -6.033  14.872  70.226  1.00  0.00    -0.157 A  
HETATM   35  C   UNL     1      -7.113   6.480  72.620  1.00  0.00    -0.074 C  
HETATM   36  C   UNL     1      -5.508   9.557  69.049  1.00  0.00    -0.036 C  
HETATM   37  C   UNL     1      -6.885  15.140  69.158  1.00  0.00    -0.136 A  
HETATM   38  C   UNL     1      -7.732   9.356  69.524  1.00  0.00    -0.089 C  
HETATM   39  C   UNL     1      -5.166   8.577  69.981  1.00  0.00    -0.025 C  
HETATM   40  C   UNL     1      -6.212   8.011  70.731  1.00  0.00    -0.033 C  
ENDROOT
BRANCH  16  41
HETATM   41  O   UNL     1     -10.349  10.611  62.975  1.00  0.00    -0.140 OA 
HETATM   42  C   UNL     1      -9.069  10.412  62.362  1.00  0.00    -0.286 C  
ENDBRANCH  16  41
BRANCH  18  43
HETATM   43  O   UNL     1      -9.820   9.654  65.658  1.00  0.00    -0.290 OA 
HETATM   44  C   UNL     1      -8.421   9.342  65.645  1.00  0.00    -0.139 C  
ENDBRANCH  18  43
BRANCH  30  45
HETATM   45  O   UNL     1      -5.125  13.412  71.823  1.00  0.00    -0.154 OA 
HETATM   46  C   UNL     1      -5.555  14.271  72.880  1.00  0.00    -0.046 C  
ENDBRANCH  30  45
BRANCH  36  47
HETATM   47  O   UNL     1      -5.400   9.305  67.680  1.00  0.00    -0.037 OA 
HETATM   48  C   UNL     1      -5.377   7.956  67.223  1.00  0.00    -0.035 C  
ENDBRANCH  36  47
TORSDOF 4
ENDMDL
MODEL       19
REMARK 921   NORMALIZED FREE ENERGY PREDICTED BY IDOCK:   -3.15 KCAL/MOL
REMARK 922        TOTAL FREE ENERGY PREDICTED BY IDOCK:   -4.78 KCAL/MOL
REMARK 923 INTER-LIGAND FREE ENERGY PREDICTED BY IDOCK:   -3.90 KCAL/MOL
REMARK 924 INTRA-LIGAND FREE ENERGY PREDICTED BY IDOCK:   -0.88 KCAL/MOL
REMARK 927      BINDING AFFINITY PREDICTED BY RF-SCORE:    0.00 PKD
ROOT
HETATM    1  C   UNL     1      -9.880  12.045  65.603  1.00  0.00    -0.243 C  
HETATM    2  C   UNL     1     -10.266  12.635  67.018  1.00  0.00    -0.233 C  
HETATM    3  C   UNL     1     -10.667  11.696  68.114  1.00  0.00    -0.248 A  
HETATM    4  C   UNL     1     -11.416  10.560  67.859  1.00  0.00    -0.190 A  
HETATM    5  C   UNL     1     -11.098   9.401  68.552  1.00  0.00     0.020 A  
HETATM    6  C   UNL     1     -10.193   9.463  69.614  1.00  0.00    -0.212 A  
HETATM    7  C   UNL     1      -9.963  10.696  70.176  1.00  0.00     0.414 A  
HETATM    8  O   UNL     1      -9.554   8.282  69.880  1.00  0.00    -0.169 OA 
HETATM    9  C   UNL     1      -8.473   8.093  70.712  1.00  0.00    -0.125 A  
HETATM   10  C   UNL     1     -10.109  11.826  69.386  1.00  0.00     0.368 A  
HETATM   11  C   UNL     1      -8.363   6.732  71.116  1.00  0.00    -0.124 A  
HETATM   12  C   UNL     1      -7.478   6.389  72.137  1.00  0.00    -0.093 A  
HETATM   13  C   UNL     1      -6.662   7.342  72.682  1.00  0.00    -0.063 A  
HETATM   14  C   UNL     1      -7.482   5.032  72.787  1.00  0.00    -0.095 C  
HETATM   15  C   UNL     1      -8.082   3.932  71.951  1.00  0.00    -0.075 C  
HETATM   16  C   UNL     1      -6.680   8.672  72.228  1.00  0.00    -0.052 A  
HETATM   17  C   UNL     1      -9.005  10.811  65.383  1.00  0.00    -0.211 C  
HETATM   18  C   UNL     1      -7.513   9.038  71.162  1.00  0.00    -0.095 A  
HETATM   19  N   UNL     1      -9.314   4.342  71.141  1.00  0.00    -0.138 N  
HETATM   20  C   UNL     1     -11.889  10.843  64.501  1.00  0.00     1.467 C  
HETATM   21  C   UNL     1      -9.715   3.098  70.349  1.00  0.00    -0.029 C  
HETATM   22  C   UNL     1      -9.192  11.143  62.910  1.00  0.00    -0.359 C  
HETATM   23  C   UNL     1      -8.989   5.606  70.275  1.00  0.00    -0.139 C  
HETATM   24  C   UNL     1     -10.530   4.726  71.994  1.00  0.00    -0.155 C  
HETATM   25  C   UNL     1     -11.932  13.297  64.648  1.00  0.00    -0.394 C  
HETATM   26  C   UNL     1      -7.961   5.320  69.158  1.00  0.00    -0.089 C  
HETATM   27  C   UNL     1      -8.496   5.159  67.767  1.00  0.00    -0.104 A  
HETATM   28  C   UNL     1      -8.886   6.331  67.099  1.00  0.00    -0.109 A  
HETATM   29  C   UNL     1      -8.760   6.425  65.731  1.00  0.00    -0.127 A  
HETATM   30  C   UNL     1      -8.698   5.203  65.028  1.00  0.00    -0.148 A  
HETATM   31  O   UNL     1      -8.699   7.675  65.125  1.00  0.00    -0.043 OA 
HETATM   32  N   UNL     1     -11.011  12.089  64.511  1.00  0.00    -0.303 N  
HETATM   33  C   UNL     1      -7.911   8.701  65.846  1.00  0.00    -0.105 C  
HETATM   34  C   UNL     1      -8.466   3.990  65.687  1.00  0.00    -0.109 A  
HETATM   35  C   UNL     1     -10.272  12.213  63.146  1.00  0.00    -0.147 C  
HETATM   36  C   UNL     1      -6.835   9.176  65.085  1.00  0.00    -0.077 C  
HETATM   37  C   UNL     1      -8.302   3.980  67.069  1.00  0.00    -0.100 A  
HETATM   38  C   UNL     1      -8.692   9.770  66.273  1.00  0.00    -0.152 C  
HETATM   39  C   UNL     1      -7.195   9.992  64.012  1.00  0.00    -0.129 C  
HETATM   40  C   UNL     1      -8.411  10.690  64.116  1.00  0.00    -0.024 C  
ENDROOT
BRANCH  16  41
HETATM   41  O   UNL     1      -5.864   9.580  72.853  1.00  0.00    -0.301 OA 
HETATM   42  C   UNL     1      -5.474   9.168  74.168  1.00  0.00    -0.118 C  
ENDBRANCH  16  41
BRANCH  18  43
HETATM   43  O   UNL     1      -7.361  10.197  70.450  1.00  0.00    -0.235 OA 
HETATM   44  C   UNL     1      -6.391  10.218  69.394  1.00  0.00    -0.050 C  
ENDBRANCH  18  43
BRANCH  30  45
HETATM   45  O   UNL     1      -8.878   5.112  63.667  1.00  0.00    -0.089 OA 
HETATM   46  C   UNL     1      -9.979   4.239  63.408  1.00  0.00    -0.007 C  
ENDBRANCH  30  45
BRANCH  36  47
HETATM   47  O   UNL     1      -5.753   9.511  65.901  1.00  0.00    -0.047 OA 
HETATM   48  C   UNL     1      -5.139  10.787  65.751  1.00  0.00    -0.118 C  
ENDBRANCH  36  47
TORSDOF 4
ENDMDL
MODEL       20
REMARK 921   NORMALIZED FREE ENERGY PREDICTED BY IDOCK:   -2.90 KCAL/MOL
REMARK 922        TOTAL FREE ENERGY PREDICTED BY IDOCK:   -4.47 KCAL/MOL
REMARK 923 INTER-LIGAND FREE ENERGY PREDICTED BY IDOCK:   -3.65 KCAL/MOL
REMARK 924 INTRA-LIGAND FREE ENERGY PREDICTED BY IDOCK:   -0.82 KCAL/MOL
REMARK 927      BINDING AFFINITY PREDICTED BY RF-SCORE:    0.00 PKD
ROOT
HETATM    1  C   UNL     1      -6.518   6.350  65.751  1.00  0.00    -0.043 C  
HETATM    2  C   UNL     1      -7.170   7.396  64.761  1.00  0.00    -0.072 C  
HETATM    3  C   UNL     1      -8.529   7.943  65.071  1.00  0.00    -0.072 A  
HETATM    4  C   UNL     1      -9.517   7.156  65.640  1.00  0.00     0.398 A  
HETATM    5  C   UNL     1     -10.330   7.730  66.606  1.00  0.00    -0.262 A  
HETATM    6  C   UNL     1     -10.272   9.108  66.822  1.00  0.00    -0.261 A  
HETATM    7  C   UNL     1      -9.722   9.881  65.827  1.00  0.00    -0.332 A  
HETATM    8  O   UNL     1     -10.671   9.500  68.072  1.00  0.00    -0.239 OA 
HETATM    9  C   UNL     1     -10.522  10.748  68.636  1.00  0.00    -0.192 A  
HETATM   10  C   UNL     1      -8.764   9.316  64.999  1.00  0.00    -0.221 A  
HETATM   11  C   UNL     1     -11.433  10.940  69.714  1.00  0.00    -0.390 A  
HETATM   12  C   UNL     1     -11.594  12.214  70.257  1.00  0.00    -0.105 A  
HETATM   13  C   UNL     1     -10.820  13.249  69.812  1.00  0.00     0.352 A  
HETATM   14  C   UNL     1     -12.704  12.547  71.217  1.00  0.00    -0.350 C  
HETATM   15  C   UNL     1     -13.272  11.368  71.962  1.00  0.00    -0.327 C  
HETATM   16  C   UNL     1      -9.843  13.062  68.819  1.00  0.00     0.026 A  
HETATM   17  C   UNL     1      -6.542   6.462  67.276  1.00  0.00    -0.058 C  
HETATM   18  C   UNL     1      -9.610  11.783  68.296  1.00  0.00    -0.199 A  
HETATM   19  N   UNL     1     -13.403  10.088  71.130  1.00  0.00    -0.360 N  
HETATM   20  C   UNL     1      -7.904   4.168  65.869  1.00  0.00    -0.094 C  
HETATM   21  C   UNL     1     -13.949   9.032  72.091  1.00  0.00    -0.435 C  
HETATM   22  C   UNL     1      -5.181   4.367  67.431  1.00  0.00    -0.012 C  
HETATM   23  C   UNL     1     -12.029   9.738  70.467  1.00  0.00    -0.206 C  
HETATM   24  C   UNL     1     -14.408  10.188  69.976  1.00  0.00     2.962 C  
HETATM   25  C   UNL     1      -6.621   4.630  63.823  1.00  0.00    -0.041 C  
HETATM   26  C   UNL     1     -10.951   9.332  71.496  1.00  0.00    -0.446 C  
HETATM   27  C   UNL     1     -10.656   7.869  71.632  1.00  0.00    -0.267 A  
HETATM   28  C   UNL     1      -9.894   7.279  70.611  1.00  0.00    -0.179 A  
HETATM   29  C   UNL     1      -9.046   6.231  70.895  1.00  0.00    -0.151 A  
HETATM   30  C   UNL     1      -9.330   5.504  72.070  1.00  0.00    -0.147 A  
HETATM   31  O   UNL     1      -7.984   5.950  70.043  1.00  0.00    -0.100 OA 
HETATM   32  N   UNL     1      -6.644   4.839  65.333  1.00  0.00    -0.040 N  
HETATM   33  C   UNL     1      -7.278   7.127  69.485  1.00  0.00    -0.080 C  
HETATM   34  C   UNL     1     -10.211   5.995  73.040  1.00  0.00    -0.210 A  
HETATM   35  C   UNL     1      -5.390   4.133  65.925  1.00  0.00    -0.009 C  
HETATM   36  C   UNL     1      -5.924   7.154  69.847  1.00  0.00    -0.024 C  
HETATM   37  C   UNL     1     -10.834   7.224  72.843  1.00  0.00    -0.380 A  
HETATM   38  C   UNL     1      -7.395   7.213  68.101  1.00  0.00    -0.097 C  
HETATM   39  C   UNL     1      -5.133   6.194  69.217  1.00  0.00    -0.004 C  
HETATM   40  C   UNL     1      -5.569   5.721  67.967  1.00  0.00    -0.012 C  
ENDROOT
BRANCH  16  41
HETATM   41  O   UNL     1      -9.134  14.156  68.393  1.00  0.00    -0.186 OA 
HETATM   42  C   UNL     1      -9.946  15.107  67.691  1.00  0.00    -0.229 C  
ENDBRANCH  16  41
BRANCH  18  43
HETATM   43  O   UNL     1      -8.486  11.449  67.589  1.00  0.00    -0.124 OA 
HETATM   44  C   UNL     1      -7.258  11.292  68.312  1.00  0.00    -0.080 C  
ENDBRANCH  18  43
BRANCH  30  45
HETATM   45  O   UNL     1      -8.785   4.269  72.335  1.00  0.00    -0.106 OA 
HETATM   46  C   UNL     1      -9.841   3.308  72.406  1.00  0.00    -0.156 C  
ENDBRANCH  30  45
BRANCH  36  47
HETATM   47  O   UNL     1      -5.471   8.467  69.990  1.00  0.00    -0.025 OA 
HETATM   48  C   UNL     1      -5.915   9.237  71.103  1.00  0.00    -0.068 C  
ENDBRANCH  36  47
TORSDOF 4
ENDMDL
MODEL       21
REMARK 921   NORMALIZED FREE ENERGY PREDICTED BY IDOCK:   -2.81 KCAL/MOL
REMARK 922        TOTAL FREE ENERGY PREDICTED BY IDOCK:   -4.36 KCAL/MOL
REMARK 923 INTER-LIGAND FREE ENERGY PREDICTED BY IDOCK:   -5.50 KCAL/MOL
REMARK 924 INTRA-LIGAND FREE ENERGY PREDICTED BY IDOCK:    1.14 KCAL/MOL
REMARK 927      BINDING AFFINITY PREDICTED BY RF-SCORE:    0.00 PKD
ROOT
HETATM    1  C   UNL     1      -7.392   4.937  69.277  1.00  0.00    -0.056 C  
HETATM    2  C   UNL     1      -7.438   5.614  70.705  1.00  0.00    -0.089 C  
HETATM    3  C   UNL     1      -7.398   7.107  70.805  1.00  0.00    -0.072 A  
HETATM    4  C   UNL     1      -6.626   7.873  69.948  1.00  0.00    -0.037 A  
HETATM    5  C   UNL     1      -7.156   9.068  69.486  1.00  0.00    -0.059 A  
HETATM    6  C   UNL     1      -8.336   9.559  70.049  1.00  0.00    -0.179 A  
HETATM    7  C   UNL     1      -8.704   9.062  71.277  1.00  0.00    -0.240 A  
HETATM    8  O   UNL     1      -9.044  10.398  69.232  1.00  0.00    -0.187 OA 
HETATM    9  C   UNL     1     -10.328  10.858  69.426  1.00  0.00    -0.145 A  
HETATM   10  C   UNL     1      -8.309   7.779  71.621  1.00  0.00    -0.125 A  
HETATM   11  C   UNL     1     -10.576  12.038  68.669  1.00  0.00    -0.253 A  
HETATM   12  C   UNL     1     -11.732  12.778  68.911  1.00  0.00    -0.370 A  
HETATM   13  C   UNL     1     -12.658  12.324  69.810  1.00  0.00     0.246 A  
HETATM   14  C   UNL     1     -11.944  14.153  68.338  1.00  0.00    -0.366 C  
HETATM   15  C   UNL     1     -11.140  14.454  67.100  1.00  0.00    -0.312 C  
HETATM   16  C   UNL     1     -12.483  11.110  70.495  1.00  0.00    -0.327 A  
HETATM   17  C   UNL     1      -8.181   5.418  68.059  1.00  0.00    -0.099 C  
HETATM   18  C   UNL     1     -11.364  10.310  70.230  1.00  0.00    -0.323 A  
HETATM   19  N   UNL     1      -9.715  13.894  67.111  1.00  0.00    -0.237 N  
HETATM   20  C   UNL     1      -5.165   5.446  68.061  1.00  0.00    -0.004 C  
HETATM   21  C   UNL     1      -9.116  14.278  65.758  1.00  0.00     0.427 C  
HETATM   22  C   UNL     1      -7.257   3.510  66.730  1.00  0.00    -0.067 C  
HETATM   23  C   UNL     1      -9.746  12.358  67.414  1.00  0.00    -0.193 C  
HETATM   24  C   UNL     1      -8.805  14.510  68.181  1.00  0.00    -0.177 C  
HETATM   25  C   UNL     1      -5.128   3.895  69.969  1.00  0.00     0.000 C  
HETATM   26  C   UNL     1     -10.396  11.535  66.280  1.00  0.00    -0.280 C  
HETATM   27  C   UNL     1      -9.472  10.796  65.359  1.00  0.00    -0.258 A  
HETATM   28  C   UNL     1      -8.881   9.626  65.860  1.00  0.00    -0.180 A  
HETATM   29  C   UNL     1      -8.590   8.578  65.015  1.00  0.00    -0.135 A  
HETATM   30  C   UNL     1      -8.459   8.902  63.648  1.00  0.00    -0.138 A  
HETATM   31  O   UNL     1      -8.447   7.294  65.528  1.00  0.00    -0.141 OA 
HETATM   32  N   UNL     1      -5.985   4.406  68.815  1.00  0.00    -0.025 N  
HETATM   33  C   UNL     1      -9.397   6.920  66.600  1.00  0.00    -0.163 C  
HETATM   34  C   UNL     1      -8.898  10.130  63.141  1.00  0.00    -0.232 A  
HETATM   35  C   UNL     1      -6.279   3.199  67.877  1.00  0.00    -0.032 C  
HETATM   36  C   UNL     1     -10.189   5.818  66.248  1.00  0.00    -0.075 C  
HETATM   37  C   UNL     1      -9.468  11.064  64.002  1.00  0.00    -0.278 A  
HETATM   38  C   UNL     1      -8.763   6.673  67.814  1.00  0.00    -0.116 C  
HETATM   39  C   UNL     1      -9.511   4.599  66.219  1.00  0.00    -0.167 C  
HETATM   40  C   UNL     1      -8.370   4.479  67.033  1.00  0.00    -0.105 C  
ENDROOT
BRANCH  16  41
HETATM   41  O   UNL     1     -13.433  10.742  71.413  1.00  0.00    -0.216 OA 
HETATM   42  C   UNL     1     -13.631  11.725  72.436  1.00  0.00     0.239 C  
ENDBRANCH  16  41
BRANCH  18  43
HETATM   43  O   UNL     1     -11.276   8.992  70.590  1.00  0.00    -0.256 OA 
HETATM   44  C   UNL     1     -12.186   8.503  71.585  1.00  0.00    -0.322 C  
ENDBRANCH  18  43
BRANCH  30  45
HETATM   45  O   UNL     1      -7.881   8.055  62.730  1.00  0.00    -0.127 OA 
HETATM   46  C   UNL     1      -6.495   7.914  63.047  1.00  0.00    -0.076 C  
ENDBRANCH  30  45
BRANCH  36  47
HETATM   47  O   UNL     1     -11.460   5.911  66.818  1.00  0.00     0.106 OA 
HETATM   48  C   UNL     1     -11.579   6.249  68.196  1.00  0.00     0.721 C  
ENDBRANCH  36  47
TORSDOF 4
ENDMDL
MODEL       22
REMARK 921   NORMALIZED FREE ENERGY PREDICTED BY IDOCK:   -2.04 KCAL/MOL
REMARK 922        TOTAL FREE ENERGY PREDICTED BY IDOCK:   -3.41 KCAL/MOL
REMARK 923 INTER-LIGAND FREE ENERGY PREDICTED BY IDOCK:   -2.95 KCAL/MOL
REMARK 924 INTRA-LIGAND FREE ENERGY PREDICTED BY IDOCK:   -0.46 KCAL/MOL
REMARK 927      BINDING AFFINITY PREDICTED BY RF-SCORE:    0.00 PKD
ROOT
HETATM    1  C   UNL     1      -8.588   4.451  69.691  1.00  0.00    -0.072 C  
HETATM    2  C   UNL     1      -9.902   4.415  68.813  1.00  0.00    -0.149 C  
HETATM    3  C   UNL     1     -10.698   5.672  68.641  1.00  0.00    -0.249 A  
HETATM    4  C   UNL     1     -10.847   6.585  69.672  1.00  0.00    -0.359 A  
HETATM    5  C   UNL     1     -10.806   7.935  69.357  1.00  0.00    -0.114 A  
HETATM    6  C   UNL     1     -10.827   8.329  68.018  1.00  0.00     0.059 A  
HETATM    7  C   UNL     1     -11.279   7.413  67.097  1.00  0.00     0.199 A  
HETATM    8  O   UNL     1     -10.273   9.558  67.783  1.00  0.00    -0.188 OA 
HETATM    9  C   UNL     1      -9.963  10.108  66.558  1.00  0.00    -0.224 A  
HETATM   10  C   UNL     1     -11.124   6.063  67.371  1.00  0.00    -0.236 A  
HETATM   11  C   UNL     1      -9.850  11.525  66.641  1.00  0.00    -0.228 A  
HETATM   12  C   UNL     1      -9.772  12.276  65.470  1.00  0.00    -0.174 A  
HETATM   13  C   UNL     1      -9.720  11.647  64.256  1.00  0.00    -0.196 A  
HETATM   14  C   UNL     1      -9.901  13.775  65.463  1.00  0.00    -0.189 C  
HETATM   15  C   UNL     1      -9.577  14.444  66.772  1.00  0.00    -0.268 C  
HETATM   16  C   UNL     1      -9.728  10.245  64.155  1.00  0.00    -0.291 A  
HETATM   17  C   UNL     1      -7.537   5.560  69.641  1.00  0.00    -0.071 C  
HETATM   18  C   UNL     1      -9.742   9.458  65.314  1.00  0.00    -0.114 A  
HETATM   19  N   UNL     1     -10.059  13.689  68.014  1.00  0.00    -0.243 N  
HETATM   20  C   UNL     1      -9.114   5.034  72.156  1.00  0.00    -0.132 C  
HETATM   21  C   UNL     1      -9.585  14.520  69.206  1.00  0.00     0.052 C  
HETATM   22  C   UNL     1      -6.168   4.313  71.323  1.00  0.00    -0.018 C  
HETATM   23  C   UNL     1      -9.535  12.214  67.980  1.00  0.00    -0.201 C  
HETATM   24  C   UNL     1     -11.585  13.585  68.135  1.00  0.00    -0.333 C  
HETATM   25  C   UNL     1      -9.764   2.817  71.314  1.00  0.00    -0.133 C  
HETATM   26  C   UNL     1      -8.001  12.117  68.132  1.00  0.00    -0.151 C  
HETATM   27  C   UNL     1      -7.475  11.712  69.476  1.00  0.00     0.262 A  
HETATM   28  C   UNL     1      -7.587  10.356  69.818  1.00  0.00    -0.141 A  
HETATM   29  C   UNL     1      -6.642   9.762  70.623  1.00  0.00    -0.113 A  
HETATM   30  C   UNL     1      -5.886  10.631  71.439  1.00  0.00     0.238 A  
HETATM   31  O   UNL     1      -6.476   8.381  70.596  1.00  0.00    -0.035 OA 
HETATM   32  N   UNL     1      -8.737   3.935  71.169  1.00  0.00    -0.080 N  
HETATM   33  C   UNL     1      -6.573   7.749  69.260  1.00  0.00    -0.040 C  
HETATM   34  C   UNL     1      -5.876  12.013  71.222  1.00  0.00     0.488 A  
HETATM   35  C   UNL     1      -7.347   3.350  71.552  1.00  0.00    -0.043 C  
HETATM   36  C   UNL     1      -5.392   7.085  68.901  1.00  0.00    -0.017 C  
HETATM   37  C   UNL     1      -6.635  12.552  70.186  1.00  0.00     0.335 A  
HETATM   38  C   UNL     1      -7.651   6.875  69.160  1.00  0.00    -0.097 C  
HETATM   39  C   UNL     1      -5.148   5.906  69.606  1.00  0.00    -0.004 C  
HETATM   40  C   UNL     1      -6.263   5.230  70.132  1.00  0.00    -0.026 C  
ENDROOT
BRANCH  16  41
HETATM   41  O   UNL     1      -9.716   9.686  62.903  1.00  0.00     0.175 OA 
HETATM   42  C   UNL     1      -8.396   9.366  62.447  1.00  0.00    -0.160 C  
ENDBRANCH  16  41
BRANCH  18  43
HETATM   43  O   UNL     1      -9.423   8.126  65.327  1.00  0.00     0.289 OA 
HETATM   44  C   UNL     1      -8.085   7.758  65.688  1.00  0.00    -0.129 C  
ENDBRANCH  18  43
BRANCH  30  45
HETATM   45  O   UNL     1      -5.132  10.193  72.502  1.00  0.00    -0.220 OA 
HETATM   46  C   UNL     1      -5.152  11.195  73.521  1.00  0.00     0.439 C  
ENDBRANCH  30  45
BRANCH  36  47
HETATM   47  O   UNL     1      -5.184   7.144  67.522  1.00  0.00    -0.017 OA 
HETATM   48  C   UNL     1      -5.125   8.416  66.883  1.00  0.00    -0.028 C  
ENDBRANCH  36  47
TORSDOF 4
ENDMDL
MODEL       23
REMARK 921   NORMALIZED FREE ENERGY PREDICTED BY IDOCK:   -1.40 KCAL/MOL
REMARK 922        TOTAL FREE ENERGY PREDICTED BY IDOCK:   -2.62 KCAL/MOL
REMARK 923 INTER-LIGAND FREE ENERGY PREDICTED BY IDOCK:   -4.47 KCAL/MOL
REMARK 924 INTRA-LIGAND FREE ENERGY PREDICTED BY IDOCK:    1.85 KCAL/MOL
REMARK 927      BINDING AFFINITY PREDICTED BY RF-SCORE:    0.00 PKD
ROOT
HETATM    1  C   UNL     1      -7.065  12.159  67.238  1.00  0.00    -0.144 C  
HETATM    2  C   UNL     1      -5.891  11.264  66.673  1.00  0.00    -0.138 C  
HETATM    3  C   UNL     1      -5.615   9.938  67.311  1.00  0.00    -0.046 A  
HETATM    4  C   UNL     1      -5.732   9.750  68.678  1.00  0.00    -0.039 A  
HETATM    5  C   UNL     1      -6.278   8.557  69.127  1.00  0.00    -0.043 A  
HETATM    6  C   UNL     1      -6.494   7.516  68.220  1.00  0.00    -0.049 A  
HETATM    7  C   UNL     1      -5.808   7.564  67.029  1.00  0.00    -0.039 A  
HETATM    8  O   UNL     1      -7.468   6.633  68.598  1.00  0.00    -0.085 OA 
HETATM    9  C   UNL     1      -8.040   5.647  67.824  1.00  0.00    -0.101 A  
HETATM   10  C   UNL     1      -5.448   8.801  66.519  1.00  0.00    -0.035 A  
HETATM   11  C   UNL     1      -8.649   4.644  68.630  1.00  0.00    -0.099 A  
HETATM   12  C   UNL     1      -9.074   3.454  68.040  1.00  0.00    -0.208 A  
HETATM   13  C   UNL     1      -8.981   3.293  66.684  1.00  0.00    -0.165 A  
HETATM   14  C   UNL     1      -9.493   2.258  68.849  1.00  0.00    -0.169 C  
HETATM   15  C   UNL     1      -9.944   2.568  70.252  1.00  0.00     0.430 C  
HETATM   16  C   UNL     1      -8.477   4.310  65.856  1.00  0.00    -0.113 A  
HETATM   17  C   UNL     1      -8.446  11.636  67.636  1.00  0.00    -0.142 C  
HETATM   18  C   UNL     1      -8.100   5.542  66.408  1.00  0.00    -0.105 A  
HETATM   19  N   UNL     1      -9.137   3.662  70.956  1.00  0.00    -0.098 N  
HETATM   20  C   UNL     1      -6.612  12.880  69.681  1.00  0.00     0.017 C  
HETATM   21  C   UNL     1      -9.793   3.836  72.325  1.00  0.00    -0.163 C  
HETATM   22  C   UNL     1      -9.153  13.973  68.183  1.00  0.00    -0.192 C  
HETATM   23  C   UNL     1      -9.096   4.952  70.069  1.00  0.00    -0.109 C  
HETATM   24  C   UNL     1      -7.671   3.293  71.219  1.00  0.00    -0.048 C  
HETATM   25  C   UNL     1      -5.270  13.902  67.892  1.00  0.00    -0.066 C  
HETATM   26  C   UNL     1     -10.478   5.627  69.927  1.00  0.00    -0.378 C  
HETATM   27  C   UNL     1     -10.727   6.849  70.759  1.00  0.00    -0.262 A  
HETATM   28  C   UNL     1     -10.111   8.038  70.339  1.00  0.00    -0.194 A  
HETATM   29  C   UNL     1     -10.721   9.252  70.561  1.00  0.00    -0.257 A  
HETATM   30  C   UNL     1     -11.679   9.285  71.596  1.00  0.00    -0.392 A  
HETATM   31  O   UNL     1     -10.380  10.352  69.781  1.00  0.00    -0.240 OA 
HETATM   32  N   UNL     1      -6.637  13.312  68.219  1.00  0.00    -0.087 N  
HETATM   33  C   UNL     1     -10.157  10.075  68.343  1.00  0.00    -0.165 C  
HETATM   34  C   UNL     1     -12.201   8.110  72.148  1.00  0.00    -0.398 A  
HETATM   35  C   UNL     1      -7.694  14.439  68.030  1.00  0.00    -0.138 C  
HETATM   36  C   UNL     1     -11.042  10.787  67.522  1.00  0.00    -0.308 C  
HETATM   37  C   UNL     1     -11.762   6.876  71.678  1.00  0.00    -0.343 A  
HETATM   38  C   UNL     1      -8.846  10.327  67.949  1.00  0.00    -0.122 C  
HETATM   39  C   UNL     1     -10.795  12.159  67.450  1.00  0.00    -0.286 C  
HETATM   40  C   UNL     1      -9.478  12.588  67.688  1.00  0.00    -0.188 C  
ENDROOT
BRANCH  16  41
HETATM   41  O   UNL     1      -8.374   4.059  64.512  1.00  0.00    -0.096 OA 
HETATM   42  C   UNL     1      -9.582   3.532  63.949  1.00  0.00    -0.149 C  
ENDBRANCH  16  41
BRANCH  18  43
HETATM   43  O   UNL     1      -7.917   6.677  65.665  1.00  0.00    -0.102 OA 
HETATM   44  C   UNL     1      -8.848   7.753  65.840  1.00  0.00    -0.142 C  
ENDBRANCH  18  43
BRANCH  30  45
HETATM   45  O   UNL     1     -12.149  10.456  72.144  1.00  0.00     0.155 OA 
HETATM   46  C   UNL     1     -12.717  11.253  71.104  1.00  0.00    -0.390 C  
ENDBRANCH  30  45
BRANCH  36  47
HETATM   47  O   UNL     1     -11.354  10.059  66.372  1.00  0.00     0.376 OA 
HETATM   48  C   UNL     1     -11.160   8.649  66.371  1.00  0.00     1.583 C  
ENDBRANCH  36  47
TORSDOF 4
ENDMDL
MODEL       24
REMARK 921   NORMALIZED FREE ENERGY PREDICTED BY IDOCK:   -1.26 KCAL/MOL
REMARK 922        TOTAL FREE ENERGY PREDICTED BY IDOCK:   -2.45 KCAL/MOL
REMARK 923 INTER-LIGAND FREE ENERGY PREDICTED BY IDOCK:   -1.66 KCAL/MOL
REMARK 924 INTRA-LIGAND FREE ENERGY PREDICTED BY IDOCK:   -0.78 KCAL/MOL
REMARK 927      BINDING AFFINITY PREDICTED BY RF-SCORE:    0.00 PKD
ROOT
HETATM    1  C   UNL     1      -7.893   5.824  65.547  1.00  0.00    -0.102 C  
HETATM    2  C   UNL     1      -7.557   6.862  64.402  1.00  0.00    -0.108 C  
HETATM    3  C   UNL     1      -8.336   8.139  64.325  1.00  0.00    -0.038 A  
HETATM    4  C   UNL     1      -9.689   8.184  64.617  1.00  0.00     2.221 A  
HETATM    5  C   UNL     1     -10.167   9.281  65.319  1.00  0.00     0.726 A  
HETATM    6  C   UNL     1      -9.333  10.382  65.522  1.00  0.00    -0.197 A  
HETATM    7  C   UNL     1      -8.237  10.505  64.701  1.00  0.00    -0.088 A  
HETATM    8  O   UNL     1      -9.660  11.144  66.611  1.00  0.00    -0.184 OA 
HETATM    9  C   UNL     1      -8.908  12.150  67.177  1.00  0.00    -0.191 A  
HETATM   10  C   UNL     1      -7.671   9.355  64.171  1.00  0.00    -0.117 A  
HETATM   11  C   UNL     1      -9.715  13.019  67.966  1.00  0.00    -0.224 A  
HETATM   12  C   UNL     1      -9.181  14.221  68.426  1.00  0.00    -0.196 A  
HETATM   13  C   UNL     1      -7.866  14.519  68.191  1.00  0.00    -0.135 A  
HETATM   14  C   UNL     1     -10.030  15.297  69.045  1.00  0.00    -0.229 C  
HETATM   15  C   UNL     1     -11.335  14.817  69.626  1.00  0.00    -0.283 C  
HETATM   16  C   UNL     1      -7.023  13.630  67.502  1.00  0.00    -0.143 A  
HETATM   17  C   UNL     1      -8.159   6.193  67.006  1.00  0.00    -0.106 C  
HETATM   18  C   UNL     1      -7.510  12.386  67.080  1.00  0.00    -0.095 A  
HETATM   19  N   UNL     1     -12.038  13.730  68.809  1.00  0.00    -0.357 N  
HETATM   20  C   UNL     1     -10.303   4.911  65.317  1.00  0.00     0.101 C  
HETATM   21  C   UNL     1     -13.295  13.373  69.602  1.00  0.00     2.019 C  
HETATM   22  C   UNL     1      -8.412   3.765  67.554  1.00  0.00    -0.103 C  
HETATM   23  C   UNL     1     -11.056  12.538  68.547  1.00  0.00    -0.262 C  
HETATM   24  C   UNL     1     -12.512  14.189  67.425  1.00  0.00     0.090 C  
HETATM   25  C   UNL     1      -8.614   4.178  63.687  1.00  0.00    -0.105 C  
HETATM   26  C   UNL     1     -10.685  11.771  69.834  1.00  0.00     0.485 C  
HETATM   27  C   UNL     1     -11.372  10.459  70.066  1.00  0.00    -0.384 A  
HETATM   28  C   UNL     1     -10.932   9.369  69.299  1.00  0.00    -0.137 A  
HETATM   29  C   UNL     1     -10.972   8.094  69.816  1.00  0.00    -0.132 A  
HETATM   30  C   UNL     1     -11.873   7.884  70.882  1.00  0.00    -0.229 A  
HETATM   31  O   UNL     1     -10.149   7.105  69.287  1.00  0.00    -0.168 OA 
HETATM   32  N   UNL     1      -8.818   4.621  65.132  1.00  0.00    -0.142 N  
HETATM   33  C   UNL     1      -8.779   7.536  68.924  1.00  0.00    -0.132 C  
HETATM   34  C   UNL     1     -12.454   8.955  71.570  1.00  0.00    -0.380 A  
HETATM   35  C   UNL     1      -8.403   3.436  66.051  1.00  0.00    -0.103 C  
HETATM   36  C   UNL     1      -7.796   6.837  69.638  1.00  0.00    -0.115 C  
HETATM   37  C   UNL     1     -12.149  10.260  71.194  1.00  0.00    -0.494 A  
HETATM   38  C   UNL     1      -8.531   7.430  67.559  1.00  0.00    -0.116 C  
HETATM   39  C   UNL     1      -7.639   5.503  69.260  1.00  0.00    -0.086 C  
HETATM   40  C   UNL     1      -8.001   5.161  67.945  1.00  0.00    -0.095 C  
ENDROOT
BRANCH  16  41
HETATM   41  O   UNL     1      -5.729  14.016  67.267  1.00  0.00    -0.305 OA 
HETATM   42  C   UNL     1      -5.147  14.719  68.372  1.00  0.00    -0.108 C  
ENDBRANCH  16  41
BRANCH  18  43
HETATM   43  O   UNL     1      -6.702  11.345  66.708  1.00  0.00    -0.133 OA 
HETATM   44  C   UNL     1      -6.186  10.491  67.739  1.00  0.00    -0.055 C  
ENDBRANCH  18  43
BRANCH  30  45
HETATM   45  O   UNL     1     -12.256   6.632  71.303  1.00  0.00    -0.356 OA 
HETATM   46  C   UNL     1     -11.362   6.201  72.331  1.00  0.00    -0.296 C  
ENDBRANCH  30  45
BRANCH  36  47
HETATM   47  O   UNL     1      -6.683   7.644  69.879  1.00  0.00    -0.044 OA 
HETATM   48  C   UNL     1      -6.154   7.719  71.199  1.00  0.00    -0.034 C  
ENDBRANCH  36  47
TORSDOF 4
ENDMDL
MODEL       25
REMARK 921   NORMALIZED FREE ENERGY PREDICTED BY IDOCK:   -0.56 KCAL/MOL
REMARK 922        TOTAL FREE ENERGY PREDICTED BY IDOCK:   -1.58 KCAL/MOL
REMARK 923 INTER-LIGAND FREE ENERGY PREDICTED BY IDOCK:   -0.76 KCAL/MOL
REMARK 924 INTRA-LIGAND FREE ENERGY PREDICTED BY IDOCK:   -0.81 KCAL/MOL
REMARK 927      BINDING AFFINITY PREDICTED BY RF-SCORE:    0.00 PKD
ROOT
HETATM    1  C   UNL     1      -8.550   6.243  66.863  1.00  0.00    -0.113 C  
HETATM    2  C   UNL     1      -7.020   6.195  67.259  1.00  0.00    -0.069 C  
HETATM    3  C   UNL     1      -6.202   7.445  67.153  1.00  0.00    -0.051 A  
HETATM    4  C   UNL     1      -6.393   8.355  66.126  1.00  0.00    -0.050 A  
HETATM    5  C   UNL     1      -6.317   9.705  66.430  1.00  0.00    -0.069 A  
HETATM    6  C   UNL     1      -5.851  10.101  67.686  1.00  0.00    -0.045 A  
HETATM    7  C   UNL     1      -5.129   9.183  68.410  1.00  0.00    -0.034 A  
HETATM    8  O   UNL     1      -6.287  11.336  68.085  1.00  0.00    -0.052 OA 
HETATM    9  C   UNL     1      -6.171  11.891  69.341  1.00  0.00    -0.108 A  
HETATM   10  C   UNL     1      -5.377   7.834  68.209  1.00  0.00    -0.031 A  
HETATM   11  C   UNL     1      -6.293  13.309  69.293  1.00  0.00    -0.108 A  
HETATM   12  C   UNL     1      -5.974  14.063  70.421  1.00  0.00    -0.165 A  
HETATM   13  C   UNL     1      -5.628  13.436  71.586  1.00  0.00    -0.066 A  
HETATM   14  C   UNL     1      -5.837  15.560  70.378  1.00  0.00    -0.097 C  
HETATM   15  C   UNL     1      -6.570  16.231  69.245  1.00  0.00    -0.197 C  
HETATM   16  C   UNL     1      -5.599  12.034  71.686  1.00  0.00     0.443 A  
HETATM   17  C   UNL     1      -9.516   7.361  67.252  1.00  0.00    -0.179 C  
HETATM   18  C   UNL     1      -5.975  11.245  70.591  1.00  0.00    -0.059 A  
HETATM   19  N   UNL     1      -6.530  15.469  67.918  1.00  0.00    -0.140 N  
HETATM   20  C   UNL     1      -8.862   6.816  64.359  1.00  0.00     0.697 C  
HETATM   21  C   UNL     1      -7.364  16.302  66.945  1.00  0.00    -0.231 C  
HETATM   22  C   UNL     1     -11.374   6.124  66.121  1.00  0.00     1.159 C  
HETATM   23  C   UNL     1      -7.026  13.998  68.129  1.00  0.00    -0.120 C  
HETATM   24  C   UNL     1      -5.131  15.350  67.301  1.00  0.00     0.347 C  
HETATM   25  C   UNL     1      -7.989   4.594  64.951  1.00  0.00    -0.099 C  
HETATM   26  C   UNL     1      -8.525  13.916  68.492  1.00  0.00    -0.127 C  
HETATM   27  C   UNL     1      -9.469  13.514  67.399  1.00  0.00    -0.225 A  
HETATM   28  C   UNL     1      -9.487  12.156  67.046  1.00  0.00    -0.201 A  
HETATM   29  C   UNL     1     -10.650  11.569  66.600  1.00  0.00    -0.253 A  
HETATM   30  C   UNL     1     -11.625  12.445  66.076  1.00  0.00    -0.401 A  
HETATM   31  O   UNL     1     -10.809  10.191  66.687  1.00  0.00    -0.136 OA 
HETATM   32  N   UNL     1      -8.901   5.722  65.421  1.00  0.00    -0.127 N  
HETATM   33  C   UNL     1     -10.282   9.559  67.919  1.00  0.00    -0.205 C  
HETATM   34  C   UNL     1     -11.551  13.827  66.278  1.00  0.00    -0.369 A  
HETATM   35  C   UNL     1     -10.345   5.150  65.521  1.00  0.00     0.135 C  
HETATM   36  C   UNL     1     -11.284   8.907  68.651  1.00  0.00     0.402 C  
HETATM   37  C   UNL     1     -10.489  14.360  67.002  1.00  0.00    -0.268 A  
HETATM   38  C   UNL     1      -9.238   8.676  67.662  1.00  0.00    -0.148 C  
HETATM   39  C   UNL     1     -11.757   7.730  68.071  1.00  0.00     1.826 C  
HETATM   40  C   UNL     1     -10.883   7.042  67.211  1.00  0.00    -0.403 C  
ENDROOT
BRANCH  16  41
HETATM   41  O   UNL     1      -5.201  11.478  72.874  1.00  0.00    -0.226 OA 
HETATM   42  C   UNL     1      -5.224  12.410  73.962  1.00  0.00     0.440 C  
ENDBRANCH  16  41
BRANCH  18  43
HETATM   43  O   UNL     1      -6.291   9.917  70.691  1.00  0.00    -0.089 OA 
HETATM   44  C   UNL     1      -7.548   9.566  71.285  1.00  0.00     0.328 C  
ENDBRANCH  18  43
BRANCH  30  45
HETATM   45  O   UNL     1     -12.692  12.012  65.323  1.00  0.00    -0.288 OA 
HETATM   46  C   UNL     1     -12.343  12.104  63.940  1.00  0.00    -0.487 C  
ENDBRANCH  30  45
BRANCH  36  47
HETATM   47  O   UNL     1     -11.025   8.971  70.022  1.00  0.00    -0.235 OA 
HETATM   48  C   UNL     1     -11.610   8.000  70.884  1.00  0.00    -0.269 C  
ENDBRANCH  36  47
TORSDOF 4
ENDMDL
MODEL       26
REMARK 921   NORMALIZED FREE ENERGY PREDICTED BY IDOCK:   -0.13 KCAL/MOL
REMARK 922        TOTAL FREE ENERGY PREDICTED BY IDOCK:   -1.05 KCAL/MOL
REMARK 923 INTER-LIGAND FREE ENERGY PREDICTED BY IDOCK:   -0.20 KCAL/MOL
REMARK 924 INTRA-LIGAND FREE ENERGY PREDICTED BY IDOCK:   -0.85 KCAL/MOL
REMARK 927      BINDING AFFINITY PREDICTED BY RF-SCORE:    0.00 PKD
ROOT
HETATM    1  C   UNL     1     -11.591  15.564  66.474  1.00  0.00     0.182 C  
HETATM    2  C   UNL     1     -12.338  14.384  65.733  1.00  0.00    -0.345 C  
HETATM    3  C   UNL     1     -11.654  13.058  65.604  1.00  0.00    -0.391 A  
HETATM    4  C   UNL     1     -10.290  12.960  65.385  1.00  0.00    -0.310 A  
HETATM    5  C   UNL     1      -9.595  11.959  66.045  1.00  0.00    -0.251 A  
HETATM    6  C   UNL     1     -10.302  10.968  66.730  1.00  0.00    -0.238 A  
HETATM    7  C   UNL     1     -11.626  10.796  66.401  1.00  0.00     0.816 A  
HETATM    8  O   UNL     1      -9.599  10.370  67.740  1.00  0.00    -0.150 OA 
HETATM    9  C   UNL     1     -10.096   9.526  68.709  1.00  0.00    -0.188 A  
HETATM   10  C   UNL     1     -12.339  11.884  65.920  1.00  0.00     0.792 A  
HETATM   11  C   UNL     1      -9.060   8.738  69.288  1.00  0.00    -0.145 A  
HETATM   12  C   UNL     1      -9.395   7.667  70.116  1.00  0.00    -0.157 A  
HETATM   13  C   UNL     1     -10.705   7.433  70.434  1.00  0.00    -0.250 A  
HETATM   14  C   UNL     1      -8.385   6.645  70.562  1.00  0.00    -0.130 C  
HETATM   15  C   UNL     1      -6.954   7.115  70.532  1.00  0.00    -0.058 C  
HETATM   16  C   UNL     1     -11.736   8.259  69.955  1.00  0.00     0.316 A  
HETATM   17  C   UNL     1     -10.804  15.416  67.776  1.00  0.00    -0.302 C  
HETATM   18  C   UNL     1     -11.431   9.380  69.172  1.00  0.00     0.323 A  
HETATM   19  N   UNL     1      -6.596   8.003  69.337  1.00  0.00    -0.035 N  
HETATM   20  C   UNL     1      -9.432  16.250  65.224  1.00  0.00     0.609 C  
HETATM   21  C   UNL     1      -5.132   8.389  69.540  1.00  0.00    -0.030 C  
HETATM   22  C   UNL     1     -10.345  17.875  67.757  1.00  0.00    -0.393 C  
HETATM   23  C   UNL     1      -7.595   9.205  69.246  1.00  0.00    -0.079 C  
HETATM   24  C   UNL     1      -6.676   7.293  67.979  1.00  0.00    -0.058 C  
HETATM   25  C   UNL     1     -11.600  16.834  64.221  1.00  0.00     0.750 C  
HETATM   26  C   UNL     1      -7.454  10.195  70.423  1.00  0.00     0.031 C  
HETATM   27  C   UNL     1      -6.719  11.473  70.153  1.00  0.00     0.222 A  
HETATM   28  C   UNL     1      -7.404  12.455  69.420  1.00  0.00     0.314 A  
HETATM   29  C   UNL     1      -7.163  13.790  69.653  1.00  0.00     0.288 A  
HETATM   30  C   UNL     1      -5.929  14.101  70.262  1.00  0.00    -0.158 A  
HETATM   31  O   UNL     1      -8.116  14.738  69.296  1.00  0.00    -0.153 OA 
HETATM   32  N   UNL     1     -10.877  16.614  65.545  1.00  0.00    -0.242 N  
HETATM   33  C   UNL     1      -9.526  14.357  69.539  1.00  0.00     0.387 C  
HETATM   34  C   UNL     1      -5.142  13.115  70.867  1.00  0.00    -0.136 A  
HETATM   35  C   UNL     1     -10.910  17.959  66.328  1.00  0.00     0.062 C  
HETATM   36  C   UNL     1     -10.166  15.232  70.428  1.00  0.00     0.031 C  
HETATM   37  C   UNL     1      -5.576  11.793  70.865  1.00  0.00    -0.067 A  
HETATM   38  C   UNL     1     -10.263  14.260  68.364  1.00  0.00    -0.245 C  
HETATM   39  C   UNL     1     -10.442  16.495  69.905  1.00  0.00    -0.166 C  
HETATM   40  C   UNL     1     -10.592  16.594  68.510  1.00  0.00    -0.338 C  
ENDROOT
BRANCH  16  41
HETATM   41  O   UNL     1     -13.028   7.936  70.281  1.00  0.00     0.761 OA 
HETATM   42  C   UNL     1     -13.386   8.339  71.609  1.00  0.00    -0.330 C  
ENDBRANCH  16  41
BRANCH  18  43
HETATM   43  O   UNL     1     -12.311  10.404  68.944  1.00  0.00    -0.129 OA 
HETATM   44  C   UNL     1     -12.284  11.527  69.836  1.00  0.00    -0.258 C  
ENDBRANCH  18  43
BRANCH  30  45
HETATM   45  O   UNL     1      -5.406  15.373  70.286  1.00  0.00    -0.116 OA 
HETATM   46  C   UNL     1      -5.373  15.829  71.640  1.00  0.00     0.163 C  
ENDBRANCH  30  45
BRANCH  36  47
HETATM   47  O   UNL     1     -11.117  14.557  71.197  1.00  0.00     0.038 OA 
HETATM   48  C   UNL     1     -11.794  15.260  72.234  1.00  0.00    -0.437 C  
ENDBRANCH  36  47
TORSDOF 4
ENDMDL
MODEL       27
REMARK 921   NORMALIZED FREE ENERGY PREDICTED BY IDOCK:   -0.03 KCAL/MOL
REMARK 922        TOTAL FREE ENERGY PREDICTED BY IDOCK:   -0.93 KCAL/MOL
REMARK 923 INTER-LIGAND FREE ENERGY PREDICTED BY IDOCK:   -0.56 KCAL/MOL
REMARK 924 INTRA-LIGAND FREE ENERGY PREDICTED BY IDOCK:   -0.37 KCAL/MOL
REMARK 927      BINDING AFFINITY PREDICTED BY RF-SCORE:    0.00 PKD
ROOT
HETATM    1  C   UNL     1     -10.789  12.190  69.916  1.00  0.00     0.565 C  
HETATM    2  C   UNL     1     -11.091  11.033  70.950  1.00  0.00     0.841 C  
HETATM    3  C   UNL     1     -11.270   9.635  70.446  1.00  0.00    -0.342 A  
HETATM    4  C   UNL     1     -11.910   9.371  69.246  1.00  0.00     0.698 A  
HETATM    5  C   UNL     1     -11.395   8.367  68.441  1.00  0.00     0.802 A  
HETATM    6  C   UNL     1     -10.399   7.527  68.943  1.00  0.00    -0.211 A  
HETATM    7  C   UNL     1     -10.251   7.469  70.309  1.00  0.00    -0.204 A  
HETATM    8  O   UNL     1      -9.608   6.953  67.984  1.00  0.00    -0.124 OA 
HETATM    9  C   UNL     1      -8.433   6.263  68.182  1.00  0.00    -0.114 A  
HETATM   10  C   UNL     1     -10.603   8.577  71.064  1.00  0.00    -0.267 A  
HETATM   11  C   UNL     1      -8.131   5.426  67.070  1.00  0.00    -0.101 A  
HETATM   12  C   UNL     1      -7.113   4.480  67.179  1.00  0.00    -0.068 A  
HETATM   13  C   UNL     1      -6.357   4.419  68.318  1.00  0.00    -0.037 A  
HETATM   14  C   UNL     1      -6.900   3.402  66.152  1.00  0.00    -0.053 C  
HETATM   15  C   UNL     1      -7.455   3.710  64.786  1.00  0.00    -0.073 C  
HETATM   16  C   UNL     1      -6.570   5.303  69.389  1.00  0.00    -0.047 A  
HETATM   17  C   UNL     1      -9.808  12.081  68.748  1.00  0.00    -0.057 C  
HETATM   18  C   UNL     1      -7.543   6.306  69.289  1.00  0.00    -0.099 A  
HETATM   19  N   UNL     1      -8.802   4.437  64.792  1.00  0.00    -0.139 N  
HETATM   20  C   UNL     1     -12.753  12.519  68.264  1.00  0.00     1.664 C  
HETATM   21  C   UNL     1      -9.140   4.681  63.322  1.00  0.00    -0.080 C  
HETATM   22  C   UNL     1     -10.283  14.464  68.151  1.00  0.00    -0.232 C  
HETATM   23  C   UNL     1      -8.710   5.727  65.676  1.00  0.00    -0.149 C  
HETATM   24  C   UNL     1      -9.959   3.616  65.375  1.00  0.00    -0.027 C  
HETATM   25  C   UNL     1     -13.054  13.236  70.597  1.00  0.00     0.164 C  
HETATM   26  C   UNL     1      -7.777   6.801  65.076  1.00  0.00    -0.108 C  
HETATM   27  C   UNL     1      -8.430   7.962  64.388  1.00  0.00     0.093 A  
HETATM   28  C   UNL     1      -9.015   8.938  65.210  1.00  0.00    -0.213 A  
HETATM   29  C   UNL     1      -9.041  10.256  64.811  1.00  0.00    -0.219 A  
HETATM   30  C   UNL     1      -8.915  10.488  63.425  1.00  0.00    -0.225 A  
HETATM   31  O   UNL     1      -9.182  11.264  65.759  1.00  0.00    -0.212 OA 
HETATM   32  N   UNL     1     -12.023  13.065  69.486  1.00  0.00    -0.308 N  
HETATM   33  C   UNL     1      -8.444  11.061  67.027  1.00  0.00    -0.141 C  
HETATM   34  C   UNL     1      -8.483   9.484  62.552  1.00  0.00    -0.191 A  
HETATM   35  C   UNL     1     -11.447  14.473  69.159  1.00  0.00    -0.294 C  
HETATM   36  C   UNL     1      -7.511  12.079  67.267  1.00  0.00    -0.158 C  
HETATM   37  C   UNL     1      -8.178   8.222  63.053  1.00  0.00    -0.118 A  
HETATM   38  C   UNL     1      -9.292  10.934  68.124  1.00  0.00    -0.165 C  
HETATM   39  C   UNL     1      -8.068  13.310  67.614  1.00  0.00    -0.174 C  
HETATM   40  C   UNL     1      -9.337  13.293  68.219  1.00  0.00    -0.205 C  
ENDROOT
BRANCH  16  41
HETATM   41  O   UNL     1      -5.801   5.153  70.515  1.00  0.00    -0.015 OA 
HETATM   42  C   UNL     1      -6.581   5.043  71.712  1.00  0.00    -0.036 C  
ENDBRANCH  16  41
BRANCH  18  43
HETATM   43  O   UNL     1      -7.596   7.393  70.120  1.00  0.00    -0.085 OA 
HETATM   44  C   UNL     1      -6.517   8.336  70.065  1.00  0.00    -0.035 C  
ENDBRANCH  18  43
BRANCH  30  45
HETATM   45  O   UNL     1      -9.222  11.693  62.837  1.00  0.00    -0.312 OA 
HETATM   46  C   UNL     1     -10.644  11.820  62.769  1.00  0.00     0.367 C  
ENDBRANCH  30  45
BRANCH  36  47
HETATM   47  O   UNL     1      -6.395  11.587  67.946  1.00  0.00    -0.052 OA 
HETATM   48  C   UNL     1      -5.157  11.468  67.253  1.00  0.00    -0.069 C  
ENDBRANCH  36  47
TORSDOF 4
ENDMDL
MODEL       28
REMARK 921   NORMALIZED FREE ENERGY PREDICTED BY IDOCK:    0.09 KCAL/MOL
REMARK 922        TOTAL FREE ENERGY PREDICTED BY IDOCK:   -0.78 KCAL/MOL
REMARK 923 INTER-LIGAND FREE ENERGY PREDICTED BY IDOCK:   -0.01 KCAL/MOL
REMARK 924 INTRA-LIGAND FREE ENERGY PREDICTED BY IDOCK:   -0.78 KCAL/MOL
REMARK 927      BINDING AFFINITY PREDICTED BY RF-SCORE:    0.00 PKD
ROOT
HETATM    1  C   UNL     1      -7.011   8.947  64.538  1.00  0.00    -0.085 C  
HETATM    2  C   UNL     1      -7.856  10.082  63.833  1.00  0.00    -0.150 C  
HETATM    3  C   UNL     1      -9.184  10.465  64.410  1.00  0.00    -0.291 A  
HETATM    4  C   UNL     1     -10.034   9.523  64.967  1.00  0.00     0.147 A  
HETATM    5  C   UNL     1     -10.728   9.872  66.116  1.00  0.00     0.063 A  
HETATM    6  C   UNL     1     -10.716  11.199  66.550  1.00  0.00    -0.260 A  
HETATM    7  C   UNL     1     -10.360  12.160  65.633  1.00  0.00    -0.289 A  
HETATM    8  O   UNL     1     -10.949  11.357  67.889  1.00  0.00    -0.208 OA 
HETATM    9  C   UNL     1     -10.789  12.507  68.630  1.00  0.00    -0.248 A  
HETATM   10  C   UNL     1      -9.503  11.809  64.601  1.00  0.00    -0.009 A  
HETATM   11  C   UNL     1     -11.542  12.455  69.837  1.00  0.00    -0.260 A  
HETATM   12  C   UNL     1     -11.693  13.610  70.602  1.00  0.00    -0.104 A  
HETATM   13  C   UNL     1     -11.050  14.761  70.236  1.00  0.00    -0.185 A  
HETATM   14  C   UNL     1     -12.668  13.700  71.744  1.00  0.00    -0.359 C  
HETATM   15  C   UNL     1     -13.055  12.377  72.351  1.00  0.00     0.015 C  
HETATM   16  C   UNL     1     -10.219  14.810  69.104  1.00  0.00    -0.220 A  
HETATM   17  C   UNL     1      -6.818   8.814  66.049  1.00  0.00    -0.073 C  
HETATM   18  C   UNL     1      -9.995  13.651  68.347  1.00  0.00    -0.235 A  
HETATM   19  N   UNL     1     -13.236  11.239  71.343  1.00  0.00    -0.267 N  
HETATM   20  C   UNL     1      -8.242   6.672  64.474  1.00  0.00    -0.014 C  
HETATM   21  C   UNL     1     -13.576  10.005  72.177  1.00  0.00    -0.251 C  
HETATM   22  C   UNL     1      -5.336   6.835  65.667  1.00  0.00    -0.026 C  
HETATM   23  C   UNL     1     -11.955  11.106  70.451  1.00  0.00    -0.378 C  
HETATM   24  C   UNL     1     -14.402  11.441  70.367  1.00  0.00     5.235 C  
HETATM   25  C   UNL     1      -7.298   7.550  62.380  1.00  0.00    -0.091 C  
HETATM   26  C   UNL     1     -10.718  10.629  71.243  1.00  0.00     1.672 C  
HETATM   27  C   UNL     1     -10.327   9.190  71.091  1.00  0.00    -0.387 A  
HETATM   28  C   UNL     1      -9.690   8.830  69.893  1.00  0.00    -0.183 A  
HETATM   29  C   UNL     1      -8.753   7.821  69.881  1.00  0.00    -0.142 A  
HETATM   30  C   UNL     1      -8.822   6.897  70.945  1.00  0.00    -0.149 A  
HETATM   31  O   UNL     1      -7.812   7.761  68.859  1.00  0.00    -0.117 OA 
HETATM   32  N   UNL     1      -7.113   7.515  63.893  1.00  0.00    -0.058 N  
HETATM   33  C   UNL     1      -7.261   9.063  68.416  1.00  0.00    -0.077 C  
HETATM   34  C   UNL     1      -9.578   7.158  72.093  1.00  0.00    -0.160 A  
HETATM   35  C   UNL     1      -5.749   6.825  64.184  1.00  0.00    -0.031 C  
HETATM   36  C   UNL     1      -5.873   9.139  68.593  1.00  0.00    -0.041 C  
HETATM   37  C   UNL     1     -10.291   8.350  72.190  1.00  0.00    -0.397 A  
HETATM   38  C   UNL     1      -7.583   9.357  67.095  1.00  0.00    -0.091 C  
HETATM   39  C   UNL     1      -5.129   8.355  67.710  1.00  0.00    -0.034 C  
HETATM   40  C   UNL     1      -5.716   8.053  66.468  1.00  0.00    -0.040 C  
ENDROOT
BRANCH  16  41
HETATM   41  O   UNL     1      -9.642  16.009  68.775  1.00  0.00    -0.202 OA 
HETATM   42  C   UNL     1     -10.596  17.071  68.646  1.00  0.00    -0.362 C  
ENDBRANCH  16  41
BRANCH  18  43
HETATM   43  O   UNL     1      -8.969  13.522  67.450  1.00  0.00    -0.197 OA 
HETATM   44  C   UNL     1      -7.657  13.249  67.961  1.00  0.00    -0.145 C  
ENDBRANCH  18  43
BRANCH  30  45
HETATM   45  O   UNL     1      -8.177   5.682  70.925  1.00  0.00    -0.115 OA 
HETATM   46  C   UNL     1      -8.155   5.153  72.252  1.00  0.00    -0.110 C  
ENDBRANCH  30  45
BRANCH  36  47
HETATM   47  O   UNL     1      -5.476  10.444  68.891  1.00  0.00    -0.042 OA 
HETATM   48  C   UNL     1      -5.235  10.802  70.248  1.00  0.00    -0.057 C  
ENDBRANCH  36  47
TORSDOF 4
ENDMDL
MODEL       29
REMARK 921   NORMALIZED FREE ENERGY PREDICTED BY IDOCK:    0.11 KCAL/MOL
REMARK 922        TOTAL FREE ENERGY PREDICTED BY IDOCK:   -0.76 KCAL/MOL
REMARK 923 INTER-LIGAND FREE ENERGY PREDICTED BY IDOCK:   -0.75 KCAL/MOL
REMARK 924 INTRA-LIGAND FREE ENERGY PREDICTED BY IDOCK:   -0.01 KCAL/MOL
REMARK 927      BINDING AFFINITY PREDICTED BY RF-SCORE:    0.00 PKD
ROOT
HETATM    1  C   UNL     1      -7.655   3.382  65.145  1.00  0.00    -0.080 C  
HETATM    2  C   UNL     1      -7.455   2.245  66.224  1.00  0.00    -0.066 C  
HETATM    3  C   UNL     1      -6.844   2.596  67.546  1.00  0.00    -0.044 A  
HETATM    4  C   UNL     1      -5.826   3.529  67.652  1.00  0.00    -0.023 A  
HETATM    5  C   UNL     1      -5.849   4.398  68.732  1.00  0.00    -0.025 A  
HETATM    6  C   UNL     1      -6.756   4.178  69.771  1.00  0.00    -0.034 A  
HETATM    7  C   UNL     1      -7.301   2.921  69.877  1.00  0.00    -0.044 A  
HETATM    8  O   UNL     1      -7.076   5.300  70.486  1.00  0.00    -0.056 OA 
HETATM    9  C   UNL     1      -8.086   5.433  71.414  1.00  0.00    -0.116 A  
HETATM   10  C   UNL     1      -7.436   2.155  68.730  1.00  0.00    -0.043 A  
HETATM   11  C   UNL     1      -7.850   6.538  72.281  1.00  0.00    -0.101 A  
HETATM   12  C   UNL     1      -8.635   6.693  73.423  1.00  0.00    -0.134 A  
HETATM   13  C   UNL     1      -9.676   5.836  73.658  1.00  0.00    -0.158 A  
HETATM   14  C   UNL     1      -8.294   7.677  74.508  1.00  0.00    -0.245 C  
HETATM   15  C   UNL     1      -7.421   8.824  74.071  1.00  0.00     0.133 C  
HETATM   16  C   UNL     1      -9.990   4.799  72.763  1.00  0.00    -0.163 A  
HETATM   17  C   UNL     1      -8.183   4.785  65.444  1.00  0.00    -0.118 C  
HETATM   18  C   UNL     1      -9.262   4.653  71.575  1.00  0.00    -0.139 A  
HETATM   19  N   UNL     1      -6.322   8.448  73.074  1.00  0.00    -0.096 N  
HETATM   20  C   UNL     1      -5.389   4.374  64.384  1.00  0.00    -0.013 C  
HETATM   21  C   UNL     1      -5.605   9.756  72.744  1.00  0.00     0.231 C  
HETATM   22  C   UNL     1      -8.049   5.336  63.007  1.00  0.00    -0.103 C  
HETATM   23  C   UNL     1      -6.946   7.703  71.845  1.00  0.00    -0.063 C  
HETATM   24  C   UNL     1      -5.258   7.498  73.638  1.00  0.00    -0.042 C  
HETATM   25  C   UNL     1      -5.977   2.102  63.651  1.00  0.00    -0.010 C  
HETATM   26  C   UNL     1      -7.848   8.615  70.986  1.00  0.00    -0.128 C  
HETATM   27  C   UNL     1      -7.269   9.133  69.704  1.00  0.00    -0.061 A  
HETATM   28  C   UNL     1      -7.181   8.225  68.636  1.00  0.00    -0.087 A  
HETATM   29  C   UNL     1      -7.305   8.666  67.338  1.00  0.00    -0.089 A  
HETATM   30  C   UNL     1      -7.043  10.035  67.120  1.00  0.00    -0.089 A  
HETATM   31  O   UNL     1      -7.674   7.775  66.336  1.00  0.00    -0.089 OA 
HETATM   32  N   UNL     1      -6.556   3.462  64.022  1.00  0.00    -0.037 N  
HETATM   33  C   UNL     1      -8.709   6.783  66.708  1.00  0.00    -0.122 C  
HETATM   34  C   UNL     1      -6.968  10.944  68.181  1.00  0.00    -0.069 A  
HETATM   35  C   UNL     1      -7.281   4.024  62.764  1.00  0.00    -0.044 C  
HETATM   36  C   UNL     1      -9.859   6.893  65.914  1.00  0.00     0.486 C  
HETATM   37  C   UNL     1      -7.145  10.493  69.486  1.00  0.00    -0.124 A  
HETATM   38  C   UNL     1      -8.234   5.476  66.666  1.00  0.00    -0.105 C  
HETATM   39  C   UNL     1      -9.702   6.458  64.598  1.00  0.00     2.147 C  
HETATM   40  C   UNL     1      -8.707   5.497  64.352  1.00  0.00     0.039 C  
ENDROOT
BRANCH  16  41
HETATM   41  O   UNL     1     -11.020   3.955  73.088  1.00  0.00    -0.187 OA 
HETATM   42  C   UNL     1     -10.674   3.025  74.123  1.00  0.00    -0.177 C  
ENDBRANCH  16  41
BRANCH  18  43
HETATM   43  O   UNL     1      -9.694   3.904  70.513  1.00  0.00    -0.183 OA 
HETATM   44  C   UNL     1     -10.193   4.595  69.360  1.00  0.00    -0.009 C  
ENDBRANCH  18  43
BRANCH  30  45
HETATM   45  O   UNL     1      -6.824  10.566  65.869  1.00  0.00    -0.124 OA 
HETATM   46  C   UNL     1      -5.568  11.247  65.874  1.00  0.00     0.014 C  
ENDBRANCH  30  45
BRANCH  36  47
HETATM   47  O   UNL     1     -11.003   6.559  66.642  1.00  0.00    -0.293 OA 
HETATM   48  C   UNL     1     -11.188   7.120  67.938  1.00  0.00     0.136 C  
ENDBRANCH  36  47
TORSDOF 4
ENDMDL
MODEL       30
REMARK 921   NORMALIZED FREE ENERGY PREDICTED BY IDOCK:    1.76 KCAL/MOL
REMARK 922        TOTAL FREE ENERGY PREDICTED BY IDOCK:    1.28 KCAL/MOL
REMARK 923 INTER-LIGAND FREE ENERGY PREDICTED BY IDOCK:    1.00 KCAL/MOL
REMARK 924 INTRA-LIGAND FREE ENERGY PREDICTED BY IDOCK:    0.28 KCAL/MOL
REMARK 927      BINDING AFFINITY PREDICTED BY RF-SCORE:    0.00 PKD
ROOT
HETATM    1  C   UNL     1      -7.528   9.043  64.663  1.00  0.00    -0.103 C  
HETATM    2  C   UNL     1      -6.193   8.196  64.643  1.00  0.00    -0.056 C  
HETATM    3  C   UNL     1      -5.546   7.828  65.942  1.00  0.00    -0.033 A  
HETATM    4  C   UNL     1      -5.536   8.696  67.022  1.00  0.00    -0.037 A  
HETATM    5  C   UNL     1      -5.725   8.163  68.288  1.00  0.00    -0.034 A  
HETATM    6  C   UNL     1      -5.710   6.777  68.459  1.00  0.00    -0.017 A  
HETATM    7  C   UNL     1      -5.127   6.025  67.466  1.00  0.00    -0.004 A  
HETATM    8  O   UNL     1      -6.398   6.337  69.557  1.00  0.00    -0.032 OA 
HETATM    9  C   UNL     1      -6.733   5.035  69.859  1.00  0.00    -0.040 A  
HETATM   10  C   UNL     1      -5.130   6.516  66.170  1.00  0.00    -0.013 A  
HETATM   11  C   UNL     1      -7.014   4.882  71.247  1.00  0.00    -0.047 A  
HETATM   12  C   UNL     1      -7.144   3.602  71.783  1.00  0.00    -0.038 A  
HETATM   13  C   UNL     1      -7.086   2.509  70.963  1.00  0.00    -0.033 A  
HETATM   14  C   UNL     1      -7.192   3.349  73.265  1.00  0.00    -0.054 C  
HETATM   15  C   UNL     1      -7.632   4.527  74.094  1.00  0.00    -0.085 C  
HETATM   16  C   UNL     1      -6.911   2.640  69.575  1.00  0.00    -0.034 A  
HETATM   17  C   UNL     1      -8.701   8.800  65.614  1.00  0.00    -0.215 C  
HETATM   18  C   UNL     1      -6.839   3.913  68.994  1.00  0.00    -0.046 A  
HETATM   19  N   UNL     1      -7.102   5.881  73.615  1.00  0.00    -0.085 N  
HETATM   20  C   UNL     1      -7.148  11.384  65.697  1.00  0.00     0.592 C  
HETATM   21  C   UNL     1      -7.706   6.916  74.564  1.00  0.00    -0.118 C  
HETATM   22  C   UNL     1      -9.963  10.651  64.500  1.00  0.00    -0.410 C  
HETATM   23  C   UNL     1      -7.448   6.086  72.101  1.00  0.00    -0.095 C  
HETATM   24  C   UNL     1      -5.579   6.033  73.716  1.00  0.00    -0.041 C  
HETATM   25  C   UNL     1      -6.218  10.925  63.468  1.00  0.00     0.370 C  
HETATM   26  C   UNL     1      -8.963   6.236  71.846  1.00  0.00    -0.139 C  
HETATM   27  C   UNL     1      -9.479   7.623  71.604  1.00  0.00    -0.174 A  
HETATM   28  C   UNL     1      -9.218   8.185  70.345  1.00  0.00    -0.151 A  
HETATM   29  C   UNL     1     -10.112   9.067  69.780  1.00  0.00    -0.200 A  
HETATM   30  C   UNL     1     -10.988   9.720  70.673  1.00  0.00    -0.331 A  
HETATM   31  O   UNL     1     -10.113   9.266  68.403  1.00  0.00    -0.177 OA 
HETATM   32  N   UNL     1      -7.364  10.588  64.415  1.00  0.00     0.015 N  
HETATM   33  C   UNL     1      -9.903   8.054  67.579  1.00  0.00    -0.172 C  
HETATM   34  C   UNL     1     -11.154   9.278  71.990  1.00  0.00    -0.173 A  
HETATM   35  C   UNL     1      -8.687  11.047  63.737  1.00  0.00     0.071 C  
HETATM   36  C   UNL     1     -10.986   7.797  66.728  1.00  0.00     0.386 C  
HETATM   37  C   UNL     1     -10.433   8.176  72.440  1.00  0.00    -0.389 A  
HETATM   38  C   UNL     1      -8.727   8.110  66.837  1.00  0.00    -0.136 C  
HETATM   39  C   UNL     1     -11.111   8.684  65.659  1.00  0.00     4.169 C  
HETATM   40  C   UNL     1      -9.941   9.325  65.216  1.00  0.00     0.218 C  
ENDROOT
BRANCH  16  41
HETATM   41  O   UNL     1      -6.819   1.497  68.823  1.00  0.00    -0.029 OA 
HETATM   42  C   UNL     1      -5.719   1.521  67.905  1.00  0.00    -0.019 C  
ENDBRANCH  16  41
BRANCH  18  43
HETATM   43  O   UNL     1      -7.000   4.142  67.654  1.00  0.00    -0.054 OA 
HETATM   44  C   UNL     1      -8.226   3.720  67.041  1.00  0.00    -0.095 C  
ENDBRANCH  18  43
BRANCH  30  45
HETATM   45  O   UNL     1     -11.717  10.833  70.326  1.00  0.00    -0.295 OA 
HETATM   46  C   UNL     1     -12.765  11.010  71.281  1.00  0.00    -0.432 C  
ENDBRANCH  30  45
BRANCH  36  47
HETATM   47  O   UNL     1     -11.159   6.424  66.537  1.00  0.00    -0.190 OA 
HETATM   48  C   UNL     1     -10.826   5.530  67.594  1.00  0.00     0.008 C  
ENDBRANCH  36  47
TORSDOF 4
ENDMDL
MODEL       31
REMARK 921   NORMALIZED FREE ENERGY PREDICTED BY IDOCK:    2.29 KCAL/MOL
REMARK 922        TOTAL FREE ENERGY PREDICTED BY IDOCK:    1.93 KCAL/MOL
REMARK 923 INTER-LIGAND FREE ENERGY PREDICTED BY IDOCK:    2.41 KCAL/MOL
REMARK 924 INTRA-LIGAND FREE ENERGY PREDICTED BY IDOCK:   -0.49 KCAL/MOL
REMARK 927      BINDING AFFINITY PREDICTED BY RF-SCORE:    0.00 PKD
ROOT
HETATM    1  C   UNL     1     -12.905   9.115  70.595  1.00  0.00     0.275 C  
HETATM    2  C   UNL     1     -13.795  10.416  70.720  1.00  0.00     0.715 C  
HETATM    3  C   UNL     1     -13.124  11.752  70.798  1.00  0.00     0.137 A  
HETATM    4  C   UNL     1     -11.934  11.930  71.485  1.00  0.00     0.830 A  
HETATM    5  C   UNL     1     -10.980  12.769  70.929  1.00  0.00     2.953 A  
HETATM    6  C   UNL     1     -11.318  13.558  69.828  1.00  0.00    -0.091 A  
HETATM    7  C   UNL     1     -12.656  13.770  69.589  1.00  0.00    -0.020 A  
HETATM    8  O   UNL     1     -10.254  13.925  69.049  1.00  0.00    -0.179 OA 
HETATM    9  C   UNL     1     -10.300  14.511  67.804  1.00  0.00    -0.237 A  
HETATM   10  C   UNL     1     -13.564  12.805  69.995  1.00  0.00     2.565 A  
HETATM   11  C   UNL     1      -9.075  15.169  67.495  1.00  0.00    -0.187 A  
HETATM   12  C   UNL     1      -9.010  16.012  66.387  1.00  0.00    -0.354 A  
HETATM   13  C   UNL     1     -10.091  16.136  65.558  1.00  0.00    -0.308 A  
HETATM   14  C   UNL     1      -7.842  16.928  66.139  1.00  0.00    -0.277 C  
HETATM   15  C   UNL     1      -6.558  16.512  66.806  1.00  0.00    -0.132 C  
HETATM   16  C   UNL     1     -11.277  15.418  65.785  1.00  0.00    -0.196 A  
HETATM   17  C   UNL     1     -11.684   8.979  69.685  1.00  0.00     0.481 C  
HETATM   18  C   UNL     1     -11.356  14.515  66.853  1.00  0.00    -0.348 A  
HETATM   19  N   UNL     1      -6.727  15.932  68.213  1.00  0.00    -0.114 N  
HETATM   20  C   UNL     1     -11.412   8.787  72.682  1.00  0.00     0.063 C  
HETATM   21  C   UNL     1      -5.319  15.544  68.666  1.00  0.00    -0.094 C  
HETATM   22  C   UNL     1     -11.425   6.601  70.421  1.00  0.00    -0.444 C  
HETATM   23  C   UNL     1      -7.764  14.759  68.187  1.00  0.00    -0.122 C  
HETATM   24  C   UNL     1      -7.257  16.932  69.247  1.00  0.00    -0.171 C  
HETATM   25  C   UNL     1     -13.830   8.398  72.901  1.00  0.00     0.202 C  
HETATM   26  C   UNL     1      -7.261  13.529  67.401  1.00  0.00    -0.113 C  
HETATM   27  C   UNL     1      -6.763  12.365  68.203  1.00  0.00    -0.075 A  
HETATM   28  C   UNL     1      -7.733  11.562  68.824  1.00  0.00    -0.124 A  
HETATM   29  C   UNL     1      -7.510  10.215  69.000  1.00  0.00    -0.091 A  
HETATM   30  C   UNL     1      -6.161   9.802  68.985  1.00  0.00    -0.041 A  
HETATM   31  O   UNL     1      -8.586   9.352  69.175  1.00  0.00    -0.130 OA 
HETATM   32  N   UNL     1     -12.655   8.324  71.932  1.00  0.00    -0.329 N  
HETATM   33  C   UNL     1      -9.778   9.634  68.343  1.00  0.00    -0.150 C  
HETATM   34  C   UNL     1      -5.144  10.641  68.516  1.00  0.00    -0.034 A  
HETATM   35  C   UNL     1     -12.483   6.835  71.513  1.00  0.00    -0.341 C  
HETATM   36  C   UNL     1     -10.099   8.563  67.497  1.00  0.00    -0.221 C  
HETATM   37  C   UNL     1      -5.461  11.918  68.062  1.00  0.00    -0.049 A  
HETATM   38  C   UNL     1     -10.891   9.981  69.103  1.00  0.00    -0.253 C  
HETATM   39  C   UNL     1     -10.631   7.448  68.145  1.00  0.00    -0.216 C  
HETATM   40  C   UNL     1     -11.292   7.668  69.366  1.00  0.00     0.242 C  
ENDROOT
BRANCH  16  41
HETATM   41  O   UNL     1     -12.333  15.627  64.936  1.00  0.00     0.215 OA 
HETATM   42  C   UNL     1     -12.450  14.610  63.932  1.00  0.00     0.147 C  
ENDBRANCH  16  41
BRANCH  18  43
HETATM   43  O   UNL     1     -12.323  13.550  66.956  1.00  0.00    -0.335 OA 
HETATM   44  C   UNL     1     -11.998  12.222  66.523  1.00  0.00    -0.197 C  
ENDBRANCH  18  43
BRANCH  30  45
HETATM   45  O   UNL     1      -5.750   8.571  69.442  1.00  0.00    -0.030 OA 
HETATM   46  C   UNL     1      -5.656   7.678  68.331  1.00  0.00    -0.027 C  
ENDBRANCH  30  45
BRANCH  36  47
HETATM   47  O   UNL     1     -10.651   9.019  66.298  1.00  0.00    -0.083 OA 
HETATM   48  C   UNL     1      -9.844   9.785  65.410  1.00  0.00    -0.295 C  
ENDBRANCH  36  47
TORSDOF 4
ENDMDL
MODEL       32
REMARK 921   NORMALIZED FREE ENERGY PREDICTED BY IDOCK:    2.48 KCAL/MOL
REMARK 922        TOTAL FREE ENERGY PREDICTED BY IDOCK:    2.17 KCAL/MOL
REMARK 923 INTER-LIGAND FREE ENERGY PREDICTED BY IDOCK:    2.76 KCAL/MOL
REMARK 924 INTRA-LIGAND FREE ENERGY PREDICTED BY IDOCK:   -0.59 KCAL/MOL
REMARK 927      BINDING AFFINITY PREDICTED BY RF-SCORE:    0.00 PKD
ROOT
HETATM    1  C   UNL     1     -10.805   5.057  71.581  1.00  0.00     0.012 C  
HETATM    2  C   UNL     1     -11.607   5.145  70.222  1.00  0.00     2.321 C  
HETATM    3  C   UNL     1     -11.532   6.403  69.412  1.00  0.00    -0.374 A  
HETATM    4  C   UNL     1     -11.483   7.651  70.010  1.00  0.00    -0.012 A  
HETATM    5  C   UNL     1     -10.648   8.608  69.452  1.00  0.00    -0.207 A  
HETATM    6  C   UNL     1     -10.056   8.363  68.211  1.00  0.00    -0.199 A  
HETATM    7  C   UNL     1     -10.620   7.387  67.425  1.00  0.00    -0.371 A  
HETATM    8  O   UNL     1      -8.900   9.061  67.991  1.00  0.00    -0.129 OA 
HETATM    9  C   UNL     1      -7.997   8.869  66.969  1.00  0.00    -0.102 A  
HETATM   10  C   UNL     1     -11.286   6.338  68.041  1.00  0.00    -0.223 A  
HETATM   11  C   UNL     1      -7.189  10.025  66.767  1.00  0.00    -0.091 A  
HETATM   12  C   UNL     1      -6.382  10.109  65.634  1.00  0.00    -0.102 A  
HETATM   13  C   UNL     1      -6.305   9.051  64.770  1.00  0.00    -0.066 A  
HETATM   14  C   UNL     1      -5.698  11.384  65.224  1.00  0.00     0.845 C  
HETATM   15  C   UNL     1      -5.482  12.374  66.338  1.00  0.00     1.139 C  
HETATM   16  C   UNL     1      -7.015   7.860  65.002  1.00  0.00    -0.059 A  
HETATM   17  C   UNL     1      -9.371   5.549  71.780  1.00  0.00    -0.162 C  
HETATM   18  C   UNL     1      -7.787   7.718  66.163  1.00  0.00    -0.095 A  
HETATM   19  N   UNL     1      -6.635  12.470  67.341  1.00  0.00    -0.154 N  
HETATM   20  C   UNL     1     -11.661   6.793  73.299  1.00  0.00     0.430 C  
HETATM   21  C   UNL     1      -6.181  13.485  68.389  1.00  0.00    -0.093 C  
HETATM   22  C   UNL     1      -9.439   4.733  74.145  1.00  0.00    -0.131 C  
HETATM   23  C   UNL     1      -6.980  11.047  67.898  1.00  0.00    -0.073 C  
HETATM   24  C   UNL     1      -7.942  13.011  66.748  1.00  0.00     0.253 C  
HETATM   25  C   UNL     1     -13.086   4.857  72.784  1.00  0.00     1.558 C  
HETATM   26  C   UNL     1      -5.854  10.455  68.773  1.00  0.00    -0.040 C  
HETATM   27  C   UNL     1      -6.051  10.503  70.258  1.00  0.00    -0.115 A  
HETATM   28  C   UNL     1      -6.953   9.578  70.808  1.00  0.00    -0.108 A  
HETATM   29  C   UNL     1      -6.753   9.081  72.076  1.00  0.00     0.088 A  
HETATM   30  C   UNL     1      -5.940   9.860  72.927  1.00  0.00     0.723 A  
HETATM   31  O   UNL     1      -7.336   7.874  72.447  1.00  0.00    -0.078 OA 
HETATM   32  N   UNL     1     -11.639   5.326  72.888  1.00  0.00    -0.283 N  
HETATM   33  C   UNL     1      -7.342   6.818  71.409  1.00  0.00    -0.082 C  
HETATM   34  C   UNL     1      -5.143  10.897  72.430  1.00  0.00     0.218 A  
HETATM   35  C   UNL     1     -10.952   4.486  74.004  1.00  0.00    -0.200 C  
HETATM   36  C   UNL     1      -6.641   5.673  71.813  1.00  0.00    -0.053 C  
HETATM   37  C   UNL     1      -5.154  11.180  71.067  1.00  0.00    -0.113 A  
HETATM   38  C   UNL     1      -8.629   6.464  71.015  1.00  0.00    -0.131 C  
HETATM   39  C   UNL     1      -7.276   4.918  72.799  1.00  0.00    -0.084 C  
HETATM   40  C   UNL     1      -8.677   5.009  72.875  1.00  0.00    -0.118 C  
ENDROOT
BRANCH  16  41
HETATM   41  O   UNL     1      -6.922   6.859  64.070  1.00  0.00    -0.051 OA 
HETATM   42  C   UNL     1      -7.420   7.248  62.783  1.00  0.00    -0.101 C  
ENDBRANCH  16  41
BRANCH  18  43
HETATM   43  O   UNL     1      -8.234   6.511  66.629  1.00  0.00    -0.108 OA 
HETATM   44  C   UNL     1      -7.436   5.830  67.607  1.00  0.00    -0.078 C  
ENDBRANCH  18  43
BRANCH  30  45
HETATM   45  O   UNL     1      -5.888   9.674  74.288  1.00  0.00    -0.332 OA 
HETATM   46  C   UNL     1      -5.153   8.479  74.559  1.00  0.00    -0.081 C  
ENDBRANCH  30  45
BRANCH  36  47
HETATM   47  O   UNL     1      -6.029   5.051  70.723  1.00  0.00    -0.016 OA 
HETATM   48  C   UNL     1      -5.457   3.758  70.895  1.00  0.00    -0.012 C  
ENDBRANCH  36  47
TORSDOF 4
ENDMDL
MODEL       33
REMARK 921   NORMALIZED FREE ENERGY PREDICTED BY IDOCK:    2.70 KCAL/MOL
REMARK 922        TOTAL FREE ENERGY PREDICTED BY IDOCK:    2.45 KCAL/MOL
REMARK 923 INTER-LIGAND FREE ENERGY PREDICTED BY IDOCK:    1.25 KCAL/MOL
REMARK 924 INTRA-LIGAND FREE ENERGY PREDICTED BY IDOCK:    1.19 KCAL/MOL
REMARK 927      BINDING AFFINITY PREDICTED BY RF-SCORE:    0.00 PKD
ROOT
HETATM    1  C   UNL     1      -9.177   5.074  69.983  1.00  0.00    -0.131 C  
HETATM    2  C   UNL     1      -9.659   5.855  71.271  1.00  0.00    -0.195 C  
HETATM    3  C   UNL     1      -9.109   7.221  71.543  1.00  0.00    -0.145 A  
HETATM    4  C   UNL     1      -7.791   7.543  71.265  1.00  0.00    -0.094 A  
HETATM    5  C   UNL     1      -7.525   8.798  70.739  1.00  0.00    -0.087 A  
HETATM    6  C   UNL     1      -8.539   9.757  70.702  1.00  0.00     0.181 A  
HETATM    7  C   UNL     1      -9.620   9.563  71.529  1.00  0.00     0.312 A  
HETATM    8  O   UNL     1      -8.372  10.718  69.742  1.00  0.00     0.069 OA 
HETATM    9  C   UNL     1      -9.299  11.652  69.333  1.00  0.00     0.711 A  
HETATM   10  C   UNL     1      -9.969   8.267  71.877  1.00  0.00    -0.299 A  
HETATM   11  C   UNL     1      -8.671  12.755  68.688  1.00  0.00     0.057 A  
HETATM   12  C   UNL     1      -9.414  13.902  68.414  1.00  0.00    -0.211 A  
HETATM   13  C   UNL     1     -10.754  13.930  68.687  1.00  0.00    -0.272 A  
HETATM   14  C   UNL     1      -8.776  15.189  67.967  1.00  0.00    -0.165 C  
HETATM   15  C   UNL     1      -7.423  15.034  67.324  1.00  0.00    -0.181 C  
HETATM   16  C   UNL     1     -11.416  12.816  69.231  1.00  0.00    -0.289 A  
HETATM   17  C   UNL     1      -9.013   5.698  68.597  1.00  0.00    -0.113 C  
HETATM   18  C   UNL     1     -10.714  11.626  69.461  1.00  0.00     0.052 A  
HETATM   19  N   UNL     1      -6.525  13.975  67.969  1.00  0.00    -0.132 N  
HETATM   20  C   UNL     1      -6.642   4.567  70.078  1.00  0.00    -0.032 C  
HETATM   21  C   UNL     1      -5.244  13.963  67.134  1.00  0.00     0.844 C  
HETATM   22  C   UNL     1      -8.361   3.460  67.688  1.00  0.00    -0.094 C  
HETATM   23  C   UNL     1      -7.282  12.606  68.044  1.00  0.00    -0.112 C  
HETATM   24  C   UNL     1      -6.104  14.297  69.408  1.00  0.00    -0.108 C  
HETATM   25  C   UNL     1      -8.142   3.318  71.574  1.00  0.00    -0.060 C  
HETATM   26  C   UNL     1      -7.546  11.988  66.654  1.00  0.00     0.095 C  
HETATM   27  C   UNL     1      -6.650  10.864  66.228  1.00  0.00    -0.126 A  
HETATM   28  C   UNL     1      -6.879   9.612  66.820  1.00  0.00    -0.084 A  
HETATM   29  C   UNL     1      -6.634   8.455  66.116  1.00  0.00    -0.054 A  
HETATM   30  C   UNL     1      -5.735   8.566  65.033  1.00  0.00    -0.048 A  
HETATM   31  O   UNL     1      -7.263   7.271  66.486  1.00  0.00    -0.075 OA 
HETATM   32  N   UNL     1      -8.051   4.001  70.213  1.00  0.00    -0.054 N  
HETATM   33  C   UNL     1      -8.677   7.399  66.907  1.00  0.00    -0.126 C  
HETATM   34  C   UNL     1      -5.362   9.812  64.517  1.00  0.00    -0.067 A  
HETATM   35  C   UNL     1      -8.278   2.913  69.124  1.00  0.00    -0.058 C  
HETATM   36  C   UNL     1      -9.542   6.656  66.092  1.00  0.00     0.036 C  
HETATM   37  C   UNL     1      -5.877  10.973  65.086  1.00  0.00     0.205 A  
HETATM   38  C   UNL     1      -8.871   7.049  68.240  1.00  0.00    -0.126 C  
HETATM   39  C   UNL     1      -9.460   5.274  66.264  1.00  0.00    -0.166 C  
HETATM   40  C   UNL     1      -9.014   4.807  67.512  1.00  0.00    -0.118 C  
ENDROOT
BRANCH  16  41
HETATM   41  O   UNL     1     -12.752  12.933  69.518  1.00  0.00     0.260 OA 
HETATM   42  C   UNL     1     -13.010  13.806  70.625  1.00  0.00    -0.108 C  
ENDBRANCH  16  41
BRANCH  18  43
HETATM   43  O   UNL     1     -11.323  10.417  69.668  1.00  0.00    -0.242 OA 
HETATM   44  C   UNL     1     -12.751  10.354  69.552  1.00  0.00     0.511 C  
ENDBRANCH  18  43
BRANCH  30  45
HETATM   45  O   UNL     1      -5.153   7.476  64.428  1.00  0.00    -0.028 OA 
HETATM   46  C   UNL     1      -6.160   6.758  63.713  1.00  0.00    -0.035 C  
ENDBRANCH  30  45
BRANCH  36  47
HETATM   47  O   UNL     1     -10.782   7.286  65.973  1.00  0.00     0.890 OA 
HETATM   48  C   UNL     1     -11.496   7.640  67.153  1.00  0.00     1.264 C  
ENDBRANCH  36  47
TORSDOF 4
ENDMDL
MODEL       34
REMARK 921   NORMALIZED FREE ENERGY PREDICTED BY IDOCK:    4.04 KCAL/MOL
REMARK 922        TOTAL FREE ENERGY PREDICTED BY IDOCK:    4.09 KCAL/MOL
REMARK 923 INTER-LIGAND FREE ENERGY PREDICTED BY IDOCK:    3.17 KCAL/MOL
REMARK 924 INTRA-LIGAND FREE ENERGY PREDICTED BY IDOCK:    0.92 KCAL/MOL
REMARK 927      BINDING AFFINITY PREDICTED BY RF-SCORE:    0.00 PKD
ROOT
HETATM    1  C   UNL     1      -5.588  18.596  69.630  1.00  0.00    -0.230 C  
HETATM    2  C   UNL     1      -5.197  17.317  70.472  1.00  0.00    -0.261 C  
HETATM    3  C   UNL     1      -6.138  16.153  70.508  1.00  0.00     0.190 A  
HETATM    4  C   UNL     1      -7.512  16.329  70.532  1.00  0.00     2.080 A  
HETATM    5  C   UNL     1      -8.293  15.462  69.783  1.00  0.00    -0.006 A  
HETATM    6  C   UNL     1      -7.706  14.332  69.208  1.00  0.00     0.048 A  
HETATM    7  C   UNL     1      -6.500  13.917  69.721  1.00  0.00    -0.095 A  
HETATM    8  O   UNL     1      -8.367  13.851  68.111  1.00  0.00    -0.145 OA 
HETATM    9  C   UNL     1      -7.918  12.897  67.224  1.00  0.00    -0.149 A  
HETATM   10  C   UNL     1      -5.661  14.860  70.294  1.00  0.00    -0.127 A  
HETATM   11  C   UNL     1      -8.998  12.308  66.506  1.00  0.00    -0.161 A  
HETATM   12  C   UNL     1      -8.769  11.168  65.737  1.00  0.00    -0.153 A  
HETATM   13  C   UNL     1      -7.500  10.675  65.608  1.00  0.00    -0.093 A  
HETATM   14  C   UNL     1      -9.889  10.349  65.157  1.00  0.00    -0.378 C  
HETATM   15  C   UNL     1     -11.190  11.088  64.983  1.00  0.00     0.169 C  
HETATM   16  C   UNL     1      -6.402  11.299  66.225  1.00  0.00    -0.048 A  
HETATM   17  C   UNL     1      -6.202  18.564  68.230  1.00  0.00    -0.208 C  
HETATM   18  C   UNL     1      -6.586  12.482  66.954  1.00  0.00     0.254 A  
HETATM   19  N   UNL     1     -11.527  12.064  66.113  1.00  0.00    -0.357 N  
HETATM   20  C   UNL     1      -7.721  19.726  70.561  1.00  0.00     1.163 C  
HETATM   21  C   UNL     1     -12.845  12.721  65.704  1.00  0.00     0.330 C  
HETATM   22  C   UNL     1      -6.167  21.065  68.177  1.00  0.00    -0.356 C  
HETATM   23  C   UNL     1     -10.334  13.052  66.341  1.00  0.00    -0.281 C  
HETATM   24  C   UNL     1     -11.776  11.395  67.470  1.00  0.00    -0.140 C  
HETATM   25  C   UNL     1      -5.640  19.908  71.858  1.00  0.00    -0.345 C  
HETATM   26  C   UNL     1     -10.115  14.014  65.152  1.00  0.00    -0.343 C  
HETATM   27  C   UNL     1     -10.614  15.418  65.312  1.00  0.00    -0.450 A  
HETATM   28  C   UNL     1      -9.857  16.270  66.132  1.00  0.00    -0.358 A  
HETATM   29  C   UNL     1      -9.796  17.619  65.863  1.00  0.00    -0.073 A  
HETATM   30  C   UNL     1     -10.850  18.145  65.086  1.00  0.00     0.729 A  
HETATM   31  O   UNL     1      -8.735  18.375  66.348  1.00  0.00    -0.305 OA 
HETATM   32  N   UNL     1      -6.203  19.793  70.446  1.00  0.00    -0.274 N  
HETATM   33  C   UNL     1      -7.407  17.720  66.307  1.00  0.00    -0.299 C  
HETATM   34  C   UNL     1     -11.724  17.313  64.378  1.00  0.00     2.229 A  
HETATM   35  C   UNL     1      -5.799  21.081  69.671  1.00  0.00     0.085 C  
HETATM   36  C   UNL     1      -6.491  18.426  65.516  1.00  0.00    -0.268 C  
HETATM   37  C   UNL     1     -11.562  15.932  64.446  1.00  0.00    -0.234 A  
HETATM   38  C   UNL     1      -6.872  17.517  67.576  1.00  0.00    -0.176 C  
HETATM   39  C   UNL     1      -6.047  19.627  66.069  1.00  0.00    -0.191 C  
HETATM   40  C   UNL     1      -6.075  19.738  67.470  1.00  0.00    -0.209 C  
ENDROOT
BRANCH  16  41
HETATM   41  O   UNL     1      -5.166  10.722  66.086  1.00  0.00    -0.068 OA 
HETATM   42  C   UNL     1      -5.194   9.528  65.294  1.00  0.00    -0.040 C  
ENDBRANCH  16  41
BRANCH  18  43
HETATM   43  O   UNL     1      -5.562  13.322  67.301  1.00  0.00    -0.356 OA 
HETATM   44  C   UNL     1      -5.618  14.678  66.839  1.00  0.00     1.649 C  
ENDBRANCH  18  43
BRANCH  30  45
HETATM   45  O   UNL     1     -11.104  19.493  64.984  1.00  0.00    -0.292 OA 
HETATM   46  C   UNL     1     -11.169  20.048  66.300  1.00  0.00     0.495 C  
ENDBRANCH  30  45
BRANCH  36  47
HETATM   47  O   UNL     1      -5.595  17.557  64.890  1.00  0.00     0.319 OA 
HETATM   48  C   UNL     1      -5.160  17.845  63.565  1.00  0.00     0.902 C  
ENDBRANCH  36  47
TORSDOF 4
ENDMDL
MODEL       35
REMARK 921   NORMALIZED FREE ENERGY PREDICTED BY IDOCK:    4.31 KCAL/MOL
REMARK 922        TOTAL FREE ENERGY PREDICTED BY IDOCK:    4.43 KCAL/MOL
REMARK 923 INTER-LIGAND FREE ENERGY PREDICTED BY IDOCK:    3.99 KCAL/MOL
REMARK 924 INTRA-LIGAND FREE ENERGY PREDICTED BY IDOCK:    0.45 KCAL/MOL
REMARK 927      BINDING AFFINITY PREDICTED BY RF-SCORE:    0.00 PKD
ROOT
HETATM    1  C   UNL     1      -8.918   3.994  64.269  1.00  0.00    -0.138 C  
HETATM    2  C   UNL     1     -10.202   4.915  64.249  1.00  0.00     0.649 C  
HETATM    3  C   UNL     1     -10.907   5.212  65.537  1.00  0.00     0.207 A  
HETATM    4  C   UNL     1     -11.028   4.259  66.535  1.00  0.00     1.497 A  
HETATM    5  C   UNL     1     -10.887   4.673  67.851  1.00  0.00     1.021 A  
HETATM    6  C   UNL     1     -10.839   6.039  68.139  1.00  0.00    -0.281 A  
HETATM    7  C   UNL     1     -11.321   6.903  67.185  1.00  0.00     0.022 A  
HETATM    8  O   UNL     1     -10.196   6.346  69.308  1.00  0.00    -0.173 OA 
HETATM    9  C   UNL     1      -9.811   7.596  69.740  1.00  0.00    -0.181 A  
HETATM   10  C   UNL     1     -11.265   6.522  65.853  1.00  0.00     2.275 A  
HETATM   11  C   UNL     1      -9.606   7.617  71.149  1.00  0.00    -0.168 A  
HETATM   12  C   UNL     1      -9.441   8.838  71.800  1.00  0.00    -0.363 A  
HETATM   13  C   UNL     1      -9.392   9.998  71.075  1.00  0.00     1.037 A  
HETATM   14  C   UNL     1      -9.470   8.964  73.299  1.00  0.00     1.096 C  
HETATM   15  C   UNL     1      -9.144   7.698  74.046  1.00  0.00    -0.225 C  
HETATM   16  C   UNL     1      -9.490   9.993  69.673  1.00  0.00    -0.223 A  
HETATM   17  C   UNL     1      -7.794   4.089  65.301  1.00  0.00    -0.089 C  
HETATM   18  C   UNL     1      -9.594   8.778  68.982  1.00  0.00    -0.162 A  
HETATM   19  N   UNL     1      -9.715   6.421  73.423  1.00  0.00    -0.158 N  
HETATM   20  C   UNL     1      -9.483   1.601  65.075  1.00  0.00     0.012 C  
HETATM   21  C   UNL     1      -9.225   5.279  74.312  1.00  0.00    -0.118 C  
HETATM   22  C   UNL     1      -6.566   2.267  64.104  1.00  0.00    -0.027 C  
HETATM   23  C   UNL     1      -9.290   6.323  71.919  1.00  0.00    -0.149 C  
HETATM   24  C   UNL     1     -11.247   6.350  73.426  1.00  0.00     0.096 C  
HETATM   25  C   UNL     1     -10.251   2.297  62.845  1.00  0.00    -0.115 C  
HETATM   26  C   UNL     1      -7.772   6.108  71.737  1.00  0.00    -0.101 C  
HETATM   27  C   UNL     1      -7.317   4.718  71.405  1.00  0.00    -0.068 A  
HETATM   28  C   UNL     1      -7.530   4.279  70.089  1.00  0.00    -0.046 A  
HETATM   29  C   UNL     1      -6.652   3.396  69.501  1.00  0.00    -0.034 A  
HETATM   30  C   UNL     1      -5.867   2.622  70.381  1.00  0.00    -0.018 A  
HETATM   31  O   UNL     1      -6.579   3.313  68.114  1.00  0.00    -0.036 OA 
HETATM   32  N   UNL     1      -9.148   2.487  63.881  1.00  0.00    -0.100 N  
HETATM   33  C   UNL     1      -6.674   4.599  67.387  1.00  0.00    -0.051 C  
HETATM   34  C   UNL     1      -5.758   2.943  71.739  1.00  0.00    -0.009 A  
HETATM   35  C   UNL     1      -7.813   2.010  63.240  1.00  0.00    -0.056 C  
HETATM   36  C   UNL     1      -5.529   4.863  66.623  1.00  0.00    -0.013 C  
HETATM   37  C   UNL     1      -6.445   4.043  72.242  1.00  0.00    -0.021 A  
HETATM   38  C   UNL     1      -7.805   4.673  66.579  1.00  0.00    -0.099 C  
HETATM   39  C   UNL     1      -5.388   4.061  65.490  1.00  0.00    -0.009 C  
HETATM   40  C   UNL     1      -6.562   3.528  64.929  1.00  0.00    -0.040 C  
ENDROOT
BRANCH  16  41
HETATM   41  O   UNL     1      -9.476  11.197  69.019  1.00  0.00    -0.159 OA 
HETATM   42  C   UNL     1     -10.782  11.628  68.614  1.00  0.00    -0.212 C  
ENDBRANCH  16  41
BRANCH  18  43
HETATM   43  O   UNL     1      -9.365   8.653  67.638  1.00  0.00    -0.136 OA 
HETATM   44  C   UNL     1      -8.005   8.641  67.184  1.00  0.00    -0.100 C  
ENDBRANCH  18  43
BRANCH  30  45
HETATM   45  O   UNL     1      -5.178   1.501  69.981  1.00  0.00    -0.004 OA 
HETATM   46  C   UNL     1      -5.128   1.480  68.553  1.00  0.00    -0.008 C  
ENDBRANCH  30  45
BRANCH  36  47
HETATM   47  O   UNL     1      -5.273   6.234  66.561  1.00  0.00    -0.011 OA 
HETATM   48  C   UNL     1      -5.412   6.909  65.315  1.00  0.00    -0.027 C  
ENDBRANCH  36  47
TORSDOF 4
ENDMDL
MODEL       36
REMARK 921   NORMALIZED FREE ENERGY PREDICTED BY IDOCK:    5.21 KCAL/MOL
REMARK 922        TOTAL FREE ENERGY PREDICTED BY IDOCK:    5.53 KCAL/MOL
REMARK 923 INTER-LIGAND FREE ENERGY PREDICTED BY IDOCK:    6.36 KCAL/MOL
REMARK 924 INTRA-LIGAND FREE ENERGY PREDICTED BY IDOCK:   -0.82 KCAL/MOL
REMARK 927      BINDING AFFINITY PREDICTED BY RF-SCORE:    0.00 PKD
ROOT
HETATM    1  C   UNL     1     -10.711  18.746  67.976  1.00  0.00    -0.212 C  
HETATM    2  C   UNL     1     -11.129  18.614  66.457  1.00  0.00     0.293 C  
HETATM    3  C   UNL     1     -10.397  17.645  65.582  1.00  0.00    -0.120 A  
HETATM    4  C   UNL     1      -9.035  17.432  65.713  1.00  0.00     0.212 A  
HETATM    5  C   UNL     1      -8.563  16.134  65.582  1.00  0.00     0.578 A  
HETATM    6  C   UNL     1      -9.423  15.134  65.122  1.00  0.00     0.397 A  
HETATM    7  C   UNL     1     -10.557  15.534  64.455  1.00  0.00     0.128 A  
HETATM    8  O   UNL     1      -9.073  13.869  65.509  1.00  0.00     0.386 OA 
HETATM    9  C   UNL     1      -9.833  12.726  65.392  1.00  0.00    -0.128 A  
HETATM   10  C   UNL     1     -11.107  16.769  64.760  1.00  0.00    -0.025 A  
HETATM   11  C   UNL     1      -9.021  11.557  65.449  1.00  0.00     0.012 A  
HETATM   12  C   UNL     1      -9.574  10.321  65.117  1.00  0.00    -0.337 A  
HETATM   13  C   UNL     1     -10.907  10.226  64.821  1.00  0.00     0.807 A  
HETATM   14  C   UNL     1      -8.734   9.090  64.912  1.00  0.00    -0.200 C  
HETATM   15  C   UNL     1      -7.391   9.121  65.593  1.00  0.00    -0.086 C  
HETATM   16  C   UNL     1     -11.749  11.350  64.857  1.00  0.00     0.223 A  
HETATM   17  C   UNL     1     -10.394  17.569  68.898  1.00  0.00    -0.338 C  
HETATM   18  C   UNL     1     -11.241  12.596  65.248  1.00  0.00    -0.300 A  
HETATM   19  N   UNL     1      -6.688  10.481  65.563  1.00  0.00    -0.118 N  
HETATM   20  C   UNL     1      -8.284  19.613  68.215  1.00  0.00    -0.322 C  
HETATM   21  C   UNL     1      -5.387  10.285  66.341  1.00  0.00    -0.048 C  
HETATM   22  C   UNL     1     -10.039  19.170  70.788  1.00  0.00     1.911 C  
HETATM   23  C   UNL     1      -7.642  11.588  66.129  1.00  0.00     0.190 C  
HETATM   24  C   UNL     1      -6.290  10.954  64.160  1.00  0.00     0.502 C  
HETATM   25  C   UNL     1     -10.017  21.183  67.455  1.00  0.00     0.336 C  
HETATM   26  C   UNL     1      -7.931  11.419  67.636  1.00  0.00    -0.123 C  
HETATM   27  C   UNL     1      -7.192  12.322  68.576  1.00  0.00    -0.103 A  
HETATM   28  C   UNL     1      -7.630  13.654  68.649  1.00  0.00    -0.115 A  
HETATM   29  C   UNL     1      -7.526  14.356  69.830  1.00  0.00     0.178 A  
HETATM   30  C   UNL     1      -6.573  13.878  70.754  1.00  0.00     0.386 A  
HETATM   31  O   UNL     1      -8.338  15.463  70.051  1.00  0.00    -0.013 OA 
HETATM   32  N   UNL     1      -9.766  19.955  68.324  1.00  0.00    -0.378 N  
HETATM   33  C   UNL     1      -9.735  15.340  69.577  1.00  0.00    -0.219 C  
HETATM   34  C   UNL     1      -5.998  12.609  70.622  1.00  0.00     0.010 A  
HETATM   35  C   UNL     1     -10.102  20.342  69.793  1.00  0.00     0.351 C  
HETATM   36  C   UNL     1     -10.663  15.463  70.620  1.00  0.00    -0.219 C  
HETATM   37  C   UNL     1      -6.361  11.798  69.550  1.00  0.00    -0.123 A  
HETATM   38  C   UNL     1     -10.039  16.250  68.569  1.00  0.00    -0.239 C  
HETATM   39  C   UNL     1     -10.793  16.754  71.134  1.00  0.00     0.855 C  
HETATM   40  C   UNL     1     -10.477  17.822  70.277  1.00  0.00     1.230 C  
ENDROOT
BRANCH  16  41
HETATM   41  O   UNL     1     -13.065  11.185  64.507  1.00  0.00     1.328 OA 
HETATM   42  C   UNL     1     -13.356  11.668  63.189  1.00  0.00     1.019 C  
ENDBRANCH  16  41
BRANCH  18  43
HETATM   43  O   UNL     1     -12.030  13.649  65.625  1.00  0.00    -0.354 OA 
HETATM   44  C   UNL     1     -12.388  13.760  67.010  1.00  0.00    -0.247 C  
ENDBRANCH  18  43
BRANCH  30  45
HETATM   45  O   UNL     1      -6.131  14.619  71.825  1.00  0.00     0.111 OA 
HETATM   46  C   UNL     1      -5.503  13.742  72.762  1.00  0.00    -0.044 C  
ENDBRANCH  30  45
BRANCH  36  47
HETATM   47  O   UNL     1     -11.791  14.674  70.384  1.00  0.00    -0.271 OA 
HETATM   48  C   UNL     1     -13.010  14.992  71.046  1.00  0.00    -0.404 C  
ENDBRANCH  36  47
TORSDOF 4
ENDMDL
MODEL       37
REMARK 921   NORMALIZED FREE ENERGY PREDICTED BY IDOCK:    6.98 KCAL/MOL
REMARK 922        TOTAL FREE ENERGY PREDICTED BY IDOCK:    7.73 KCAL/MOL
REMARK 923 INTER-LIGAND FREE ENERGY PREDICTED BY IDOCK:    8.37 KCAL/MOL
REMARK 924 INTRA-LIGAND FREE ENERGY PREDICTED BY IDOCK:   -0.65 KCAL/MOL
REMARK 927      BINDING AFFINITY PREDICTED BY RF-SCORE:    0.00 PKD
ROOT
HETATM    1  C   UNL     1      -7.409   9.847  69.003  1.00  0.00    -0.080 C  
HETATM    2  C   UNL     1      -6.631  10.798  69.997  1.00  0.00    -0.159 C  
HETATM    3  C   UNL     1      -6.472  12.245  69.647  1.00  0.00    -0.073 A  
HETATM    4  C   UNL     1      -6.263  12.658  68.342  1.00  0.00    -0.067 A  
HETATM    5  C   UNL     1      -6.902  13.812  67.914  1.00  0.00    -0.159 A  
HETATM    6  C   UNL     1      -7.553  14.622  68.846  1.00  0.00    -0.139 A  
HETATM    7  C   UNL     1      -7.208  14.467  70.168  1.00  0.00     0.278 A  
HETATM    8  O   UNL     1      -8.553  15.395  68.320  1.00  0.00    -0.153 OA 
HETATM    9  C   UNL     1      -9.495  16.120  69.017  1.00  0.00    -0.246 A  
HETATM   10  C   UNL     1      -6.751  13.229  70.595  1.00  0.00     1.055 A  
HETATM   11  C   UNL     1     -10.062  17.145  68.207  1.00  0.00    -0.314 A  
HETATM   12  C   UNL     1     -10.858  18.124  68.799  1.00  0.00     0.405 A  
HETATM   13  C   UNL     1     -11.158  18.048  70.132  1.00  0.00     2.337 A  
HETATM   14  C   UNL     1     -11.285  19.367  68.067  1.00  0.00     0.409 C  
HETATM   15  C   UNL     1     -11.280  19.251  66.565  1.00  0.00     0.255 C  
HETATM   16  C   UNL     1     -10.693  16.989  70.930  1.00  0.00     1.122 A  
HETATM   17  C   UNL     1      -8.714  10.209  68.293  1.00  0.00    -0.120 C  
HETATM   18  C   UNL     1      -9.943  15.955  70.355  1.00  0.00     0.428 A  
HETATM   19  N   UNL     1     -10.112  18.445  65.989  1.00  0.00    -0.330 N  
HETATM   20  C   UNL     1      -6.197   9.665  66.724  1.00  0.00    -0.065 C  
HETATM   21  C   UNL     1     -10.338  18.423  64.478  1.00  0.00     4.289 C  
HETATM   22  C   UNL     1      -8.765   7.930  67.263  1.00  0.00    -0.131 C  
HETATM   23  C   UNL     1     -10.045  17.038  66.673  1.00  0.00    -0.306 C  
HETATM   24  C   UNL     1      -8.736  19.083  66.215  1.00  0.00    -0.273 C  
HETATM   25  C   UNL     1      -5.191   8.558  68.677  1.00  0.00    -0.029 C  
HETATM   26  C   UNL     1     -11.249  16.139  66.318  1.00  0.00     0.228 C  
HETATM   27  C   UNL     1     -11.020  15.066  65.297  1.00  0.00    -0.391 A  
HETATM   28  C   UNL     1     -10.307  13.932  65.718  1.00  0.00    -0.326 A  
HETATM   29  C   UNL     1     -10.579  12.698  65.171  1.00  0.00    -0.298 A  
HETATM   30  C   UNL     1     -11.205  12.704  63.906  1.00  0.00    -0.442 A  
HETATM   31  O   UNL     1     -10.238  11.542  65.865  1.00  0.00    -0.227 OA 
HETATM   32  N   UNL     1      -6.515   8.975  68.046  1.00  0.00    -0.059 N  
HETATM   33  C   UNL     1     -10.459  11.583  67.329  1.00  0.00    -0.212 C  
HETATM   34  C   UNL     1     -11.791  13.863  63.386  1.00  0.00     0.181 A  
HETATM   35  C   UNL     1      -7.333   7.680  67.771  1.00  0.00    -0.099 C  
HETATM   36  C   UNL     1     -11.365  10.603  67.756  1.00  0.00    -0.244 C  
HETATM   37  C   UNL     1     -11.750  15.044  64.121  1.00  0.00    -0.125 A  
HETATM   38  C   UNL     1      -9.275  11.474  68.051  1.00  0.00    -0.175 C  
HETATM   39  C   UNL     1     -10.873   9.298  67.717  1.00  0.00    -0.192 C  
HETATM   40  C   UNL     1      -9.481   9.133  67.818  1.00  0.00    -0.160 C  
ENDROOT
BRANCH  16  41
HETATM   41  O   UNL     1     -10.999  17.004  72.267  1.00  0.00     1.116 OA 
HETATM   42  C   UNL     1     -12.234  16.341  72.563  1.00  0.00    -0.478 C  
ENDBRANCH  16  41
BRANCH  18  43
HETATM   43  O   UNL     1      -9.735  14.745  70.964  1.00  0.00     1.313 OA 
HETATM   44  C   UNL     1     -10.723  13.722  70.785  1.00  0.00     2.072 C  
ENDBRANCH  18  43
BRANCH  30  45
HETATM   45  O   UNL     1     -11.268  11.594  63.097  1.00  0.00    -0.278 OA 
HETATM   46  C   UNL     1      -9.937  11.177  62.787  1.00  0.00    -0.161 C  
ENDBRANCH  30  45
BRANCH  36  47
HETATM   47  O   UNL     1     -12.108  11.050  68.851  1.00  0.00    -0.479 OA 
HETATM   48  C   UNL     1     -12.185  10.235  70.016  1.00  0.00    -0.120 C  
ENDBRANCH  36  47
TORSDOF 4
ENDMDL
MODEL       38
REMARK 921   NORMALIZED FREE ENERGY PREDICTED BY IDOCK:    7.34 KCAL/MOL
REMARK 922        TOTAL FREE ENERGY PREDICTED BY IDOCK:    8.17 KCAL/MOL
REMARK 923 INTER-LIGAND FREE ENERGY PREDICTED BY IDOCK:    8.76 KCAL/MOL
REMARK 924 INTRA-LIGAND FREE ENERGY PREDICTED BY IDOCK:   -0.59 KCAL/MOL
REMARK 927      BINDING AFFINITY PREDICTED BY RF-SCORE:    0.00 PKD
ROOT
HETATM    1  C   UNL     1     -10.517  15.419  69.140  1.00  0.00    -0.239 C  
HETATM    2  C   UNL     1      -9.061  15.738  68.614  1.00  0.00    -0.204 C  
HETATM    3  C   UNL     1      -7.990  14.702  68.762  1.00  0.00    -0.151 A  
HETATM    4  C   UNL     1      -7.917  13.886  69.879  1.00  0.00     1.163 A  
HETATM    5  C   UNL     1      -7.574  12.556  69.691  1.00  0.00     0.930 A  
HETATM    6  C   UNL     1      -7.116  12.134  68.441  1.00  0.00    -0.089 A  
HETATM    7  C   UNL     1      -6.653  13.101  67.580  1.00  0.00    -0.159 A  
HETATM    8  O   UNL     1      -7.303  10.801  68.192  1.00  0.00    -0.085 OA 
HETATM    9  C   UNL     1      -7.151  10.154  66.986  1.00  0.00    -0.090 A  
HETATM   10  C   UNL     1      -7.170  14.383  67.680  1.00  0.00    -0.201 A  
HETATM   11  C   UNL     1      -6.964   8.754  67.171  1.00  0.00    -0.071 A  
HETATM   12  C   UNL     1      -6.564   7.967  66.092  1.00  0.00    -0.047 A  
HETATM   13  C   UNL     1      -6.434   8.526  64.850  1.00  0.00    -0.064 A  
HETATM   14  C   UNL     1      -6.108   6.543  66.257  1.00  0.00    -0.033 C  
HETATM   15  C   UNL     1      -6.608   5.859  67.502  1.00  0.00    -0.056 C  
HETATM   16  C   UNL     1      -6.711   9.885  64.623  1.00  0.00    -0.123 A  
HETATM   17  C   UNL     1     -11.245  14.091  68.935  1.00  0.00    -0.303 C  
HETATM   18  C   UNL     1      -7.176  10.691  65.671  1.00  0.00    -0.084 A  
HETATM   19  N   UNL     1      -6.647   6.748  68.748  1.00  0.00    -0.049 N  
HETATM   20  C   UNL     1     -10.540  15.060  71.702  1.00  0.00     0.893 C  
HETATM   21  C   UNL     1      -7.221   5.868  69.859  1.00  0.00    -0.073 C  
HETATM   22  C   UNL     1     -13.249  15.031  70.103  1.00  0.00     0.095 C  
HETATM   23  C   UNL     1      -7.458   8.054  68.449  1.00  0.00    -0.103 C  
HETATM   24  C   UNL     1      -5.269   7.217  69.232  1.00  0.00    -0.015 C  
HETATM   25  C   UNL     1     -10.201  17.339  70.843  1.00  0.00     2.463 C  
HETATM   26  C   UNL     1      -8.960   7.787  68.207  1.00  0.00    -0.131 C  
HETATM   27  C   UNL     1      -9.896   8.099  69.336  1.00  0.00    -0.182 A  
HETATM   28  C   UNL     1     -10.181   9.454  69.566  1.00  0.00    -0.219 A  
HETATM   29  C   UNL     1     -11.412   9.832  70.054  1.00  0.00    -0.180 A  
HETATM   30  C   UNL     1     -12.142   8.834  70.735  1.00  0.00    -0.082 A  
HETATM   31  O   UNL     1     -11.866  11.131  69.858  1.00  0.00    -0.298 OA 
HETATM   32  N   UNL     1     -10.879  16.004  70.554  1.00  0.00    -0.279 N  
HETATM   33  C   UNL     1     -11.566  11.724  68.534  1.00  0.00    -0.321 C  
HETATM   34  C   UNL     1     -11.789   7.483  70.652  1.00  0.00    -0.205 A  
HETATM   35  C   UNL     1     -12.415  16.253  70.525  1.00  0.00     0.629 C  
HETATM   36  C   UNL     1     -12.728  12.075  67.834  1.00  0.00     2.257 C  
HETATM   37  C   UNL     1     -10.685   7.107  69.891  1.00  0.00    -0.258 A  
HETATM   38  C   UNL     1     -10.720  12.826  68.622  1.00  0.00    -0.273 C  
HETATM   39  C   UNL     1     -13.403  13.185  68.344  1.00  0.00     4.463 C  
HETATM   40  C   UNL     1     -12.644  14.124  69.063  1.00  0.00     0.286 C  
ENDROOT
BRANCH  16  41
HETATM   41  O   UNL     1      -6.518  10.384  63.360  1.00  0.00    -0.135 OA 
HETATM   42  C   UNL     1      -7.648  10.183  62.502  1.00  0.00    -0.132 C  
ENDBRANCH  16  41
BRANCH  18  43
HETATM   43  O   UNL     1      -7.775  11.907  65.480  1.00  0.00     0.904 OA 
HETATM   44  C   UNL     1      -9.186  11.932  65.229  1.00  0.00     0.094 C  
ENDBRANCH  18  43
BRANCH  30  45
HETATM   45  O   UNL     1     -13.227   9.114  71.533  1.00  0.00    -0.341 OA 
HETATM   46  C   UNL     1     -13.798   7.883  71.978  1.00  0.00    -0.251 C  
ENDBRANCH  30  45
BRANCH  36  47
HETATM   47  O   UNL     1     -12.549  11.923  66.458  1.00  0.00     0.493 OA 
HETATM   48  C   UNL     1     -12.423  13.083  65.642  1.00  0.00    -0.390 C  
ENDBRANCH  36  47
TORSDOF 4
ENDMDL
MODEL       39
REMARK 921   NORMALIZED FREE ENERGY PREDICTED BY IDOCK:    7.54 KCAL/MOL
REMARK 922        TOTAL FREE ENERGY PREDICTED BY IDOCK:    8.41 KCAL/MOL
REMARK 923 INTER-LIGAND FREE ENERGY PREDICTED BY IDOCK:    8.98 KCAL/MOL
REMARK 924 INTRA-LIGAND FREE ENERGY PREDICTED BY IDOCK:   -0.57 KCAL/MOL
REMARK 927      BINDING AFFINITY PREDICTED BY RF-SCORE:    0.00 PKD
ROOT
HETATM    1  C   UNL     1     -13.040  11.204  70.106  1.00  0.00     0.274 C  
HETATM    2  C   UNL     1     -13.893  12.499  70.411  1.00  0.00     3.038 C  
HETATM    3  C   UNL     1     -13.185  13.775  70.748  1.00  0.00    -0.077 A  
HETATM    4  C   UNL     1     -12.028  13.785  71.510  1.00  0.00     0.185 A  
HETATM    5  C   UNL     1     -11.020  14.667  71.151  1.00  0.00     0.330 A  
HETATM    6  C   UNL     1     -11.274  15.645  70.187  1.00  0.00    -0.336 A  
HETATM    7  C   UNL     1     -12.590  15.948  69.927  1.00  0.00     0.141 A  
HETATM    8  O   UNL     1     -10.160  16.095  69.533  1.00  0.00    -0.248 OA 
HETATM    9  C   UNL     1     -10.122  16.886  68.406  1.00  0.00    -0.304 A  
HETATM   10  C   UNL     1     -13.549  14.965  70.119  1.00  0.00     0.643 A  
HETATM   11  C   UNL     1      -8.862  17.537  68.272  1.00  0.00    -0.274 A  
HETATM   12  C   UNL     1      -8.711  18.552  67.329  1.00  0.00    -0.272 A  
HETATM   13  C   UNL     1      -9.743  18.859  66.485  1.00  0.00    -0.391 A  
HETATM   14  C   UNL     1      -7.504  19.449  67.296  1.00  0.00    -0.254 C  
HETATM   15  C   UNL     1      -6.270  18.874  67.940  1.00  0.00    -0.200 C  
HETATM   16  C   UNL     1     -10.962  18.161  66.530  1.00  0.00     0.233 A  
HETATM   17  C   UNL     1     -11.778  11.175  69.244  1.00  0.00    -0.401 C  
HETATM   18  C   UNL     1     -11.126  17.093  67.423  1.00  0.00     0.071 A  
HETATM   19  N   UNL     1      -6.531  18.071  69.217  1.00  0.00    -0.251 N  
HETATM   20  C   UNL     1     -11.670  10.466  72.173  1.00  0.00     1.441 C  
HETATM   21  C   UNL     1      -5.162  17.555  69.661  1.00  0.00    -0.179 C  
HETATM   22  C   UNL     1     -11.635   8.698  69.571  1.00  0.00     0.565 C  
HETATM   23  C   UNL     1      -7.603  16.962  68.943  1.00  0.00    -0.234 C  
HETATM   24  C   UNL     1      -7.082  18.901  70.383  1.00  0.00     1.079 C  
HETATM   25  C   UNL     1     -14.107  10.144  72.210  1.00  0.00     0.369 C  
HETATM   26  C   UNL     1      -7.099  15.864  67.981  1.00  0.00    -0.141 C  
HETATM   27  C   UNL     1      -6.681  14.562  68.594  1.00  0.00    -0.088 A  
HETATM   28  C   UNL     1      -7.707  13.705  69.022  1.00  0.00     0.087 A  
HETATM   29  C   UNL     1      -7.537  12.340  68.975  1.00  0.00     0.103 A  
HETATM   30  C   UNL     1      -6.203  11.881  68.951  1.00  0.00    -0.064 A  
HETATM   31  O   UNL     1      -8.648  11.504  68.949  1.00  0.00    -0.093 OA 
HETATM   32  N   UNL     1     -12.886  10.188  71.298  1.00  0.00    -0.378 N  
HETATM   33  C   UNL     1      -9.785  11.970  68.123  1.00  0.00    -0.199 C  
HETATM   34  C   UNL     1      -5.136  12.745  68.680  1.00  0.00    -0.058 A  
HETATM   35  C   UNL     1     -12.740   8.786  70.638  1.00  0.00     0.360 C  
HETATM   36  C   UNL     1     -10.095  11.073  67.092  1.00  0.00    -0.193 C  
HETATM   37  C   UNL     1      -5.389  14.092  68.438  1.00  0.00    -0.104 A  
HETATM   38  C   UNL     1     -10.924  12.228  68.879  1.00  0.00    -0.265 C  
HETATM   39  C   UNL     1     -10.696   9.886  67.514  1.00  0.00    -0.333 C  
HETATM   40  C   UNL     1     -11.413   9.923  68.723  1.00  0.00     0.039 C  
ENDROOT
BRANCH  16  41
HETATM   41  O   UNL     1     -11.965  18.553  65.681  1.00  0.00     2.725 OA 
HETATM   42  C   UNL     1     -11.530  19.514  64.711  1.00  0.00     2.708 C  
ENDBRANCH  16  41
BRANCH  18  43
HETATM   43  O   UNL     1     -12.127  16.165  67.313  1.00  0.00     0.751 OA 
HETATM   44  C   UNL     1     -11.806  14.893  66.735  1.00  0.00    -0.174 C  
ENDBRANCH  18  43
BRANCH  30  45
HETATM   45  O   UNL     1      -5.856  10.575  69.208  1.00  0.00    -0.037 OA 
HETATM   46  C   UNL     1      -5.775   9.870  67.968  1.00  0.00    -0.039 C  
ENDBRANCH  30  45
BRANCH  36  47
HETATM   47  O   UNL     1     -10.569  11.748  65.966  1.00  0.00    -0.244 OA 
HETATM   48  C   UNL     1     -10.363  11.177  64.677  1.00  0.00    -0.330 C  
ENDBRANCH  36  47
TORSDOF 4
ENDMDL
MODEL       40
REMARK 921   NORMALIZED FREE ENERGY PREDICTED BY IDOCK:    7.63 KCAL/MOL
REMARK 922        TOTAL FREE ENERGY PREDICTED BY IDOCK:    8.52 KCAL/MOL
REMARK 923 INTER-LIGAND FREE ENERGY PREDICTED BY IDOCK:    9.28 KCAL/MOL
REMARK 924 INTRA-LIGAND FREE ENERGY PREDICTED BY IDOCK:   -0.76 KCAL/MOL
REMARK 927      BINDING AFFINITY PREDICTED BY RF-SCORE:    0.00 PKD
ROOT
HETATM    1  C   UNL     1     -12.109  13.517  71.640  1.00  0.00     0.383 C  
HETATM    2  C   UNL     1     -11.826  12.116  72.317  1.00  0.00     3.488 C  
HETATM    3  C   UNL     1     -11.657  10.909  71.448  1.00  0.00     0.517 A  
HETATM    4  C   UNL     1     -12.405  10.730  70.296  1.00  0.00    -0.423 A  
HETATM    5  C   UNL     1     -11.772  10.197  69.184  1.00  0.00    -0.027 A  
HETATM    6  C   UNL     1     -10.485   9.669  69.314  1.00  0.00    -0.217 A  
HETATM    7  C   UNL     1     -10.062   9.342  70.581  1.00  0.00    -0.356 A  
HETATM    8  O   UNL     1      -9.760   9.660  68.153  1.00  0.00    -0.143 OA 
HETATM    9  C   UNL     1      -8.413   9.403  68.018  1.00  0.00    -0.120 A  
HETATM   10  C   UNL     1     -10.585  10.040  71.658  1.00  0.00     1.000 A  
HETATM   11  C   UNL     1      -8.091   9.019  66.685  1.00  0.00    -0.107 A  
HETATM   12  C   UNL     1      -6.828   8.497  66.409  1.00  0.00    -0.074 A  
HETATM   13  C   UNL     1      -5.882   8.437  67.396  1.00  0.00    -0.043 A  
HETATM   14  C   UNL     1      -6.495   7.843  65.096  1.00  0.00    -0.044 C  
HETATM   15  C   UNL     1      -7.376   8.252  63.944  1.00  0.00    -0.100 C  
HETATM   16  C   UNL     1      -6.145   8.905  68.694  1.00  0.00    -0.045 A  
HETATM   17  C   UNL     1     -11.393  14.043  70.396  1.00  0.00     0.006 C  
HETATM   18  C   UNL     1      -7.382   9.493  68.992  1.00  0.00    -0.072 A  
HETATM   19  N   UNL     1      -8.854   8.432  64.301  1.00  0.00     0.185 N  
HETATM   20  C   UNL     1     -14.362  13.514  70.368  1.00  0.00     3.558 C  
HETATM   21  C   UNL     1      -9.533   8.884  63.009  1.00  0.00     1.402 C  
HETATM   22  C   UNL     1     -12.694  16.173  70.573  1.00  0.00     0.552 C  
HETATM   23  C   UNL     1      -8.996   9.419  65.508  1.00  0.00    -0.204 C  
HETATM   24  C   UNL     1      -9.559   7.141  64.735  1.00  0.00     2.220 C  
HETATM   25  C   UNL     1     -14.407  13.499  72.826  1.00  0.00     0.482 C  
HETATM   26  C   UNL     1      -8.581  10.864  65.155  1.00  0.00    -0.081 C  
HETATM   27  C   UNL     1      -9.685  11.848  64.906  1.00  0.00    -0.158 A  
HETATM   28  C   UNL     1     -10.371  12.328  66.033  1.00  0.00    -0.273 A  
HETATM   29  C   UNL     1     -10.885  13.605  66.041  1.00  0.00    -0.275 A  
HETATM   30  C   UNL     1     -11.112  14.191  64.777  1.00  0.00    -0.387 A  
HETATM   31  O   UNL     1     -11.143  14.240  67.251  1.00  0.00    -0.290 OA 
HETATM   32  N   UNL     1     -13.614  13.974  71.614  1.00  0.00    -0.356 N  
HETATM   33  C   UNL     1     -10.145  14.015  68.321  1.00  0.00    -0.246 C  
HETATM   34  C   UNL     1     -10.569  13.645  63.609  1.00  0.00     1.017 A  
HETATM   35  C   UNL     1     -13.581  15.530  71.653  1.00  0.00    -0.481 C  
HETATM   36  C   UNL     1      -9.548  15.208  68.750  1.00  0.00    -0.219 C  
HETATM   37  C   UNL     1      -9.794  12.491  63.686  1.00  0.00     0.066 A  
HETATM   38  C   UNL     1     -10.678  13.338  69.414  1.00  0.00     0.104 C  
HETATM   39  C   UNL     1     -10.381  16.041  69.497  1.00  0.00    -0.278 C  
HETATM   40  C   UNL     1     -11.437  15.433  70.198  1.00  0.00    -0.338 C  
ENDROOT
BRANCH  16  41
HETATM   41  O   UNL     1      -5.163   8.772  69.642  1.00  0.00    -0.030 OA 
HETATM   42  C   UNL     1      -5.169   7.487  70.275  1.00  0.00    -0.023 C  
ENDBRANCH  16  41
BRANCH  18  43
HETATM   43  O   UNL     1      -7.606  10.258  70.105  1.00  0.00    -0.157 OA 
HETATM   44  C   UNL     1      -7.183  11.628  70.076  1.00  0.00     0.784 C  
ENDBRANCH  18  43
BRANCH  30  45
HETATM   45  O   UNL     1     -11.889  15.313  64.601  1.00  0.00    -0.362 OA 
HETATM   46  C   UNL     1     -11.057  16.468  64.717  1.00  0.00    -0.186 C  
ENDBRANCH  30  45
BRANCH  36  47
HETATM   47  O   UNL     1      -8.223  14.995  69.137  1.00  0.00    -0.178 OA 
HETATM   48  C   UNL     1      -7.294  16.070  69.051  1.00  0.00    -0.191 C  
ENDBRANCH  36  47
TORSDOF 4
ENDMDL
MODEL       41
REMARK 921   NORMALIZED FREE ENERGY PREDICTED BY IDOCK:    8.28 KCAL/MOL
REMARK 922        TOTAL FREE ENERGY PREDICTED BY IDOCK:    9.33 KCAL/MOL
REMARK 923 INTER-LIGAND FREE ENERGY PREDICTED BY IDOCK:    8.98 KCAL/MOL
REMARK 924 INTRA-LIGAND FREE ENERGY PREDICTED BY IDOCK:    0.35 KCAL/MOL
REMARK 927      BINDING AFFINITY PREDICTED BY RF-SCORE:    0.00 PKD
ROOT
HETATM    1  C   UNL     1      -9.099   7.144  68.397  1.00  0.00    -0.127 C  
HETATM    2  C   UNL     1     -10.530   7.261  67.735  1.00  0.00    -0.292 C  
HETATM    3  C   UNL     1     -11.331   8.507  67.950  1.00  0.00     0.911 A  
HETATM    4  C   UNL     1     -11.317   9.181  69.160  1.00  0.00     0.275 A  
HETATM    5  C   UNL     1     -11.312  10.568  69.133  1.00  0.00    -0.319 A  
HETATM    6  C   UNL     1     -11.530  11.232  67.924  1.00  0.00    -0.288 A  
HETATM    7  C   UNL     1     -12.122  10.518  66.909  1.00  0.00     2.760 A  
HETATM    8  O   UNL     1     -11.006  12.495  67.872  1.00  0.00    -0.211 OA 
HETATM    9  C   UNL     1     -10.878  13.295  66.758  1.00  0.00    -0.281 A  
HETATM   10  C   UNL     1     -11.940   9.144  66.868  1.00  0.00     5.237 A  
HETATM   11  C   UNL     1     -10.742  14.666  67.119  1.00  0.00    -0.292 A  
HETATM   12  C   UNL     1     -10.834  15.647  66.133  1.00  0.00    -0.264 A  
HETATM   13  C   UNL     1     -10.969  15.286  64.820  1.00  0.00    -0.403 A  
HETATM   14  C   UNL     1     -10.950  17.111  66.460  1.00  0.00     0.202 C  
HETATM   15  C   UNL     1     -10.427  17.500  67.818  1.00  0.00    -0.381 C  
HETATM   16  C   UNL     1     -11.004  13.937  64.430  1.00  0.00    -0.308 A  
HETATM   17  C   UNL     1      -8.058   8.262  68.425  1.00  0.00    -0.127 C  
HETATM   18  C   UNL     1     -10.851  12.925  65.387  1.00  0.00    -0.283 A  
HETATM   19  N   UNL     1     -10.726  16.492  68.931  1.00  0.00    -0.316 N  
HETATM   20  C   UNL     1      -9.246   7.186  70.980  1.00  0.00    -0.158 C  
HETATM   21  C   UNL     1     -10.071  17.065  70.187  1.00  0.00     0.772 C  
HETATM   22  C   UNL     1      -6.463   6.723  69.587  1.00  0.00    -0.044 C  
HETATM   23  C   UNL     1     -10.225  15.068  68.511  1.00  0.00    -0.227 C  
HETATM   24  C   UNL     1     -12.216  16.329  69.251  1.00  0.00     0.396 C  
HETATM   25  C   UNL     1     -10.033   5.180  69.796  1.00  0.00    -0.243 C  
HETATM   26  C   UNL     1      -8.687  14.977  68.411  1.00  0.00    -0.175 C  
HETATM   27  C   UNL     1      -7.969  14.313  69.547  1.00  0.00     0.316 A  
HETATM   28  C   UNL     1      -8.040  12.913  69.609  1.00  0.00     1.515 A  
HETATM   29  C   UNL     1      -6.990  12.186  70.124  1.00  0.00     0.905 A  
HETATM   30  C   UNL     1      -6.114  12.883  70.982  1.00  0.00     0.498 A  
HETATM   31  O   UNL     1      -6.842  10.846  69.783  1.00  0.00    -0.129 OA 
HETATM   32  N   UNL     1      -9.030   6.327  69.739  1.00  0.00    -0.139 N  
HETATM   33  C   UNL     1      -7.143  10.504  68.374  1.00  0.00    -0.078 C  
HETATM   34  C   UNL     1      -6.124  14.280  71.061  1.00  0.00    -0.119 A  
HETATM   35  C   UNL     1      -7.603   5.707  69.781  1.00  0.00    -0.075 C  
HETATM   36  C   UNL     1      -6.034   9.957  67.713  1.00  0.00    -0.047 C  
HETATM   37  C   UNL     1      -7.025  15.005  70.285  1.00  0.00     0.088 A  
HETATM   38  C   UNL     1      -8.232   9.646  68.253  1.00  0.00    -0.106 C  
HETATM   39  C   UNL     1      -5.698   8.663  68.111  1.00  0.00    -0.039 C  
HETATM   40  C   UNL     1      -6.728   7.866  68.642  1.00  0.00    -0.058 C  
ENDROOT
BRANCH  16  41
HETATM   41  O   UNL     1     -11.184  13.652  63.101  1.00  0.00     0.659 OA 
HETATM   42  C   UNL     1     -12.486  13.124  62.815  1.00  0.00     0.872 C  
ENDBRANCH  16  41
BRANCH  18  43
HETATM   43  O   UNL     1     -10.545  11.628  65.073  1.00  0.00    -0.268 OA 
HETATM   44  C   UNL     1      -9.183  11.316  64.749  1.00  0.00    -0.089 C  
ENDBRANCH  18  43
BRANCH  30  45
HETATM   45  O   UNL     1      -5.213  12.251  71.807  1.00  0.00    -0.346 OA 
HETATM   46  C   UNL     1      -5.141  10.873  71.435  1.00  0.00    -0.076 C  
ENDBRANCH  30  45
BRANCH  36  47
HETATM   47  O   UNL     1      -6.034  10.307  66.361  1.00  0.00    -0.059 OA 
HETATM   48  C   UNL     1      -5.770   9.305  65.385  1.00  0.00    -0.057 C  
ENDBRANCH  36  47
TORSDOF 4
ENDMDL
MODEL       42
REMARK 921   NORMALIZED FREE ENERGY PREDICTED BY IDOCK:    8.39 KCAL/MOL
REMARK 922        TOTAL FREE ENERGY PREDICTED BY IDOCK:    9.46 KCAL/MOL
REMARK 923 INTER-LIGAND FREE ENERGY PREDICTED BY IDOCK:    8.18 KCAL/MOL
REMARK 924 INTRA-LIGAND FREE ENERGY PREDICTED BY IDOCK:    1.28 KCAL/MOL
REMARK 927      BINDING AFFINITY PREDICTED BY RF-SCORE:    0.00 PKD
ROOT
HETATM    1  C   UNL     1     -12.122  13.669  71.457  1.00  0.00     0.166 C  
HETATM    2  C   UNL     1     -12.337  12.514  72.515  1.00  0.00     1.735 C  
HETATM    3  C   UNL     1     -12.475  11.103  72.034  1.00  0.00     0.222 A  
HETATM    4  C   UNL     1     -13.145  10.796  70.861  1.00  0.00    -0.291 A  
HETATM    5  C   UNL     1     -12.617   9.804  70.049  1.00  0.00     0.368 A  
HETATM    6  C   UNL     1     -11.568   9.014  70.525  1.00  0.00    -0.175 A  
HETATM    7  C   UNL     1     -11.370   8.980  71.885  1.00  0.00    -0.438 A  
HETATM    8  O   UNL     1     -10.789   8.461  69.544  1.00  0.00    -0.210 OA 
HETATM    9  C   UNL     1      -9.579   7.824  69.707  1.00  0.00    -0.167 A  
HETATM   10  C   UNL     1     -11.741  10.082  72.639  1.00  0.00     2.292 A  
HETATM   11  C   UNL     1      -9.282   6.986  68.594  1.00  0.00    -0.131 A  
HETATM   12  C   UNL     1      -8.221   6.086  68.677  1.00  0.00    -0.107 A  
HETATM   13  C   UNL     1      -7.423   6.072  69.788  1.00  0.00    -0.080 A  
HETATM   14  C   UNL     1      -7.999   5.004  67.656  1.00  0.00    -0.095 C  
HETATM   15  C   UNL     1      -8.616   5.270  66.308  1.00  0.00    -0.116 C  
HETATM   16  C   UNL     1      -7.634   6.960  70.856  1.00  0.00    -0.087 A  
HETATM   17  C   UNL     1     -11.181  13.586  70.255  1.00  0.00     0.305 C  
HETATM   18  C   UNL     1      -8.653   7.920  70.779  1.00  0.00    -0.132 A  
HETATM   19  N   UNL     1      -9.992   5.939  66.355  1.00  0.00    -0.146 N  
HETATM   20  C   UNL     1     -14.157  13.892  69.874  1.00  0.00     3.900 C  
HETATM   21  C   UNL     1     -10.393   6.149  64.895  1.00  0.00     2.926 C  
HETATM   22  C   UNL     1     -11.779  15.938  69.648  1.00  0.00    -0.322 C  
HETATM   23  C   UNL     1      -9.923   7.243  67.220  1.00  0.00    -0.192 C  
HETATM   24  C   UNL     1     -11.091   5.078  66.989  1.00  0.00     0.941 C  
HETATM   25  C   UNL     1     -14.404  14.626  72.207  1.00  0.00    -0.415 C  
HETATM   26  C   UNL     1      -9.060   8.348  66.573  1.00  0.00    -0.217 C  
HETATM   27  C   UNL     1      -9.786   9.471  65.896  1.00  0.00    -0.360 A  
HETATM   28  C   UNL     1     -10.382  10.433  66.727  1.00  0.00    -0.294 A  
HETATM   29  C   UNL     1     -10.479  11.743  66.314  1.00  0.00    -0.244 A  
HETATM   30  C   UNL     1     -10.413  11.961  64.922  1.00  0.00    -0.287 A  
HETATM   31  O   UNL     1     -10.629  12.756  67.255  1.00  0.00    -0.231 OA 
HETATM   32  N   UNL     1     -13.408  14.485  71.062  1.00  0.00    -0.363 N  
HETATM   33  C   UNL     1      -9.838  12.602  68.497  1.00  0.00    -0.148 C  
HETATM   34  C   UNL     1      -9.970  10.965  64.045  1.00  0.00    -0.403 A  
HETATM   35  C   UNL     1     -12.905  15.911  70.697  1.00  0.00     0.001 C  
HETATM   36  C   UNL     1      -8.941  13.662  68.690  1.00  0.00    -0.025 C  
HETATM   37  C   UNL     1      -9.594   9.724  64.549  1.00  0.00    -0.201 A  
HETATM   38  C   UNL     1     -10.639  12.453  69.625  1.00  0.00     0.534 C  
HETATM   39  C   UNL     1      -9.538  14.872  69.043  1.00  0.00    -0.204 C  
HETATM   40  C   UNL     1     -10.782  14.810  69.694  1.00  0.00    -0.207 C  
ENDROOT
BRANCH  16  41
HETATM   41  O   UNL     1      -6.820   6.858  71.955  1.00  0.00    -0.060 OA 
HETATM   42  C   UNL     1      -6.741   8.076  72.706  1.00  0.00    -0.082 C  
ENDBRANCH  16  41
BRANCH  18  43
HETATM   43  O   UNL     1      -8.722   9.014  71.599  1.00  0.00    -0.331 OA 
HETATM   44  C   UNL     1      -7.951  10.171  71.245  1.00  0.00     2.098 C  
ENDBRANCH  18  43
BRANCH  30  45
HETATM   45  O   UNL     1     -10.793  13.144  64.331  1.00  0.00    -0.356 OA 
HETATM   46  C   UNL     1     -12.144  13.427  64.699  1.00  0.00    -0.410 C  
ENDBRANCH  30  45
BRANCH  36  47
HETATM   47  O   UNL     1      -7.781  13.226  69.334  1.00  0.00     0.306 OA 
HETATM   48  C   UNL     1      -6.885  12.364  68.640  1.00  0.00    -0.087 C  
ENDBRANCH  36  47
TORSDOF 4
ENDMDL
MODEL       43
REMARK 921   NORMALIZED FREE ENERGY PREDICTED BY IDOCK:   11.26 KCAL/MOL
REMARK 922        TOTAL FREE ENERGY PREDICTED BY IDOCK:   13.00 KCAL/MOL
REMARK 923 INTER-LIGAND FREE ENERGY PREDICTED BY IDOCK:   12.86 KCAL/MOL
REMARK 924 INTRA-LIGAND FREE ENERGY PREDICTED BY IDOCK:    0.14 KCAL/MOL
REMARK 927      BINDING AFFINITY PREDICTED BY RF-SCORE:    0.00 PKD
ROOT
HETATM    1  C   UNL     1     -12.112  13.604  72.250  1.00  0.00     0.792 C  
HETATM    2  C   UNL     1     -12.087  12.033  72.420  1.00  0.00     2.767 C  
HETATM    3  C   UNL     1     -12.101  11.169  71.197  1.00  0.00    -0.302 A  
HETATM    4  C   UNL     1     -12.839  11.508  70.075  1.00  0.00     0.175 A  
HETATM    5  C   UNL     1     -12.277  11.273  68.830  1.00  0.00    -0.101 A  
HETATM    6  C   UNL     1     -11.101  10.524  68.738  1.00  0.00    -0.265 A  
HETATM    7  C   UNL     1     -10.771   9.732  69.812  1.00  0.00    -0.283 A  
HETATM    8  O   UNL     1     -10.359  10.776  67.616  1.00  0.00    -0.184 OA 
HETATM    9  C   UNL     1      -9.071  10.357  67.361  1.00  0.00    -0.135 A  
HETATM   10  C   UNL     1     -11.197  10.113  71.075  1.00  0.00    -0.322 A  
HETATM   11  C   UNL     1      -8.784  10.385  65.966  1.00  0.00    -0.163 A  
HETATM   12  C   UNL     1      -7.621   9.780  65.494  1.00  0.00    -0.118 A  
HETATM   13  C   UNL     1      -6.724   9.241  66.375  1.00  0.00    -0.071 A  
HETATM   14  C   UNL     1      -7.370   9.549  64.028  1.00  0.00    -0.115 C  
HETATM   15  C   UNL     1      -8.139  10.455  63.104  1.00  0.00    -0.141 C  
HETATM   16  C   UNL     1      -6.938   9.291  67.763  1.00  0.00    -0.081 A  
HETATM   17  C   UNL     1     -11.286  14.384  71.227  1.00  0.00     0.275 C  
HETATM   18  C   UNL     1      -8.065   9.946  68.276  1.00  0.00    -0.104 A  
HETATM   19  N   UNL     1      -9.574  10.753  63.547  1.00  0.00    -0.289 N  
HETATM   20  C   UNL     1     -14.300  14.399  71.120  1.00  0.00     0.023 C  
HETATM   21  C   UNL     1     -10.135  11.713  62.498  1.00  0.00     0.627 C  
HETATM   22  C   UNL     1     -12.214  16.523  72.135  1.00  0.00    -0.113 C  
HETATM   23  C   UNL     1      -9.579  11.296  65.016  1.00  0.00    -0.233 C  
HETATM   24  C   UNL     1     -10.498   9.529  63.555  1.00  0.00     3.499 C  
HETATM   25  C   UNL     1     -14.410  13.582  73.437  1.00  0.00     3.593 C  
HETATM   26  C   UNL     1      -8.918  12.686  65.144  1.00  0.00     0.995 C  
HETATM   27  C   UNL     1      -9.834  13.867  65.268  1.00  0.00    -0.170 A  
HETATM   28  C   UNL     1     -10.458  14.056  66.511  1.00  0.00    -0.281 A  
HETATM   29  C   UNL     1     -10.748  15.327  66.956  1.00  0.00    -0.313 A  
HETATM   30  C   UNL     1     -10.842  16.325  65.963  1.00  0.00    -0.123 A  
HETATM   31  O   UNL     1     -10.927  15.561  68.315  1.00  0.00    -0.278 OA 
HETATM   32  N   UNL     1     -13.517  14.290  72.424  1.00  0.00    -0.446 N  
HETATM   33  C   UNL     1     -10.009  14.832  69.219  1.00  0.00    -0.138 C  
HETATM   34  C   UNL     1     -10.369  16.112  64.664  1.00  0.00     0.595 A  
HETATM   35  C   UNL     1     -13.224  15.717  72.972  1.00  0.00    -0.562 C  
HETATM   36  C   UNL     1      -9.230  15.700  69.997  1.00  0.00     0.274 C  
HETATM   37  C   UNL     1      -9.801  14.885  64.332  1.00  0.00     1.590 A  
HETATM   38  C   UNL     1     -10.675  13.932  70.045  1.00  0.00     0.472 C  
HETATM   39  C   UNL     1      -9.929  16.367  71.003  1.00  0.00     2.340 C  
HETATM   40  C   UNL     1     -11.090  15.748  71.498  1.00  0.00    -0.184 C  
ENDROOT
BRANCH  16  41
HETATM   41  O   UNL     1      -6.016   8.692  68.582  1.00  0.00    -0.043 OA 
HETATM   42  C   UNL     1      -5.314   7.619  67.941  1.00  0.00    -0.031 C  
ENDBRANCH  16  41
BRANCH  18  43
HETATM   43  O   UNL     1      -8.186  10.329  69.586  1.00  0.00    -0.167 OA 
HETATM   44  C   UNL     1      -7.006  10.322  70.400  1.00  0.00    -0.072 C  
ENDBRANCH  18  43
BRANCH  30  45
HETATM   45  O   UNL     1     -11.413  17.556  66.191  1.00  0.00     0.918 OA 
HETATM   46  C   UNL     1     -10.446  18.569  65.910  1.00  0.00    -0.347 C  
ENDBRANCH  30  45
BRANCH  36  47
HETATM   47  O   UNL     1      -7.971  15.152  70.250  1.00  0.00     0.235 OA 
HETATM   48  C   UNL     1      -7.273  14.500  69.194  1.00  0.00    -0.138 C  
ENDBRANCH  36  47
TORSDOF 4
ENDMDL
MODEL       44
REMARK 921   NORMALIZED FREE ENERGY PREDICTED BY IDOCK:   13.33 KCAL/MOL
REMARK 922        TOTAL FREE ENERGY PREDICTED BY IDOCK:   15.55 KCAL/MOL
REMARK 923 INTER-LIGAND FREE ENERGY PREDICTED BY IDOCK:   13.58 KCAL/MOL
REMARK 924 INTRA-LIGAND FREE ENERGY PREDICTED BY IDOCK:    1.97 KCAL/MOL
REMARK 927      BINDING AFFINITY PREDICTED BY RF-SCORE:    0.00 PKD
ROOT
HETATM    1  C   UNL     1      -5.360  14.747  70.891  1.00  0.00    -0.141 C  
HETATM    2  C   UNL     1      -5.207  13.174  70.874  1.00  0.00    -0.152 C  
HETATM    3  C   UNL     1      -6.293  12.344  70.260  1.00  0.00     0.141 A  
HETATM    4  C   UNL     1      -7.629  12.685  70.388  1.00  0.00     3.273 A  
HETATM    5  C   UNL     1      -8.455  12.507  69.289  1.00  0.00     0.861 A  
HETATM    6  C   UNL     1      -7.977  11.809  68.178  1.00  0.00    -0.146 A  
HETATM    7  C   UNL     1      -6.880  11.001  68.363  1.00  0.00    -0.065 A  
HETATM    8  O   UNL     1      -8.606  12.121  67.003  1.00  0.00    -0.180 OA 
HETATM    9  C   UNL     1      -8.216  11.760  65.732  1.00  0.00     0.467 A  
HETATM   10  C   UNL     1      -5.973  11.329  69.358  1.00  0.00    -0.063 A  
HETATM   11  C   UNL     1      -9.303  11.838  64.815  1.00  0.00     0.071 A  
HETATM   12  C   UNL     1      -9.165  11.294  63.539  1.00  0.00    -0.154 A  
HETATM   13  C   UNL     1      -7.965  10.766  63.148  1.00  0.00     0.055 A  
HETATM   14  C   UNL     1     -10.333  11.114  62.608  1.00  0.00     0.197 C  
HETATM   15  C   UNL     1     -11.508  12.014  62.885  1.00  0.00     0.282 C  
HETATM   16  C   UNL     1      -6.848  10.770  64.000  1.00  0.00     0.402 A  
HETATM   17  C   UNL     1      -5.859  15.587  69.715  1.00  0.00    -0.138 C  
HETATM   18  C   UNL     1      -6.933  11.365  65.266  1.00  0.00     1.058 A  
HETATM   19  N   UNL     1     -11.804  12.242  64.370  1.00  0.00    -0.379 N  
HETATM   20  C   UNL     1      -7.395  15.485  72.309  1.00  0.00     5.708 C  
HETATM   21  C   UNL     1     -12.988  13.208  64.407  1.00  0.00     0.109 C  
HETATM   22  C   UNL     1      -5.494  17.662  71.066  1.00  0.00    -0.014 C  
HETATM   23  C   UNL     1     -10.513  12.744  65.102  1.00  0.00    -0.300 C  
HETATM   24  C   UNL     1     -12.245  10.982  65.125  1.00  0.00     2.280 C  
HETATM   25  C   UNL     1      -5.417  14.600  73.472  1.00  0.00    -0.026 C  
HETATM   26  C   UNL     1     -10.077  14.155  64.651  1.00  0.00    -0.047 C  
HETATM   27  C   UNL     1     -10.399  15.294  65.570  1.00  0.00    -0.408 A  
HETATM   28  C   UNL     1      -9.605  15.424  66.720  1.00  0.00    -0.257 A  
HETATM   29  C   UNL     1      -9.347  16.669  67.249  1.00  0.00    -0.230 A  
HETATM   30  C   UNL     1     -10.258  17.690  66.905  1.00  0.00    -0.334 A  
HETATM   31  O   UNL     1      -8.238  16.858  68.066  1.00  0.00    -0.193 OA 
HETATM   32  N   UNL     1      -5.876  15.372  72.239  1.00  0.00     0.797 N  
HETATM   33  C   UNL     1      -7.009  16.141  67.657  1.00  0.00    -0.151 C  
HETATM   34  C   UNL     1     -11.174  17.532  65.859  1.00  0.00     0.744 A  
HETATM   35  C   UNL     1      -5.247  16.793  72.312  1.00  0.00     1.268 C  
HETATM   36  C   UNL     1      -5.948  17.017  67.387  1.00  0.00    -0.145 C  
HETATM   37  C   UNL     1     -11.201  16.338  65.144  1.00  0.00    -0.116 A  
HETATM   38  C   UNL     1      -6.607  15.193  68.593  1.00  0.00    -0.090 C  
HETATM   39  C   UNL     1      -5.396  17.629  68.513  1.00  0.00    -0.150 C  
HETATM   40  C   UNL     1      -5.520  16.950  69.738  1.00  0.00    -0.184 C  
ENDROOT
BRANCH  16  41
HETATM   41  O   UNL     1      -5.691  10.185  63.554  1.00  0.00    -0.108 OA 
HETATM   42  C   UNL     1      -5.149  10.832  62.396  1.00  0.00    -0.149 C  
ENDBRANCH  16  41
BRANCH  18  43
HETATM   43  O   UNL     1      -5.839  11.706  66.016  1.00  0.00    -0.133 OA 
HETATM   44  C   UNL     1      -5.150  10.661  66.715  1.00  0.00    -0.047 C  
ENDBRANCH  18  43
BRANCH  30  45
HETATM   45  O   UNL     1     -10.325  18.890  67.574  1.00  0.00    -0.375 OA 
HETATM   46  C   UNL     1      -9.938  19.935  66.680  1.00  0.00    -0.457 C  
ENDBRANCH  30  45
BRANCH  36  47
HETATM   47  O   UNL     1      -5.127  16.513  66.377  1.00  0.00    -0.305 OA 
HETATM   48  C   UNL     1      -5.145  17.133  65.095  1.00  0.00     1.508 C  
ENDBRANCH  36  47
TORSDOF 4
ENDMDL
MODEL       45
REMARK 921   NORMALIZED FREE ENERGY PREDICTED BY IDOCK:   14.97 KCAL/MOL
REMARK 922        TOTAL FREE ENERGY PREDICTED BY IDOCK:   17.58 KCAL/MOL
REMARK 923 INTER-LIGAND FREE ENERGY PREDICTED BY IDOCK:   17.05 KCAL/MOL
REMARK 924 INTRA-LIGAND FREE ENERGY PREDICTED BY IDOCK:    0.53 KCAL/MOL
REMARK 927      BINDING AFFINITY PREDICTED BY RF-SCORE:    0.00 PKD
ROOT
HETATM    1  C   UNL     1      -9.052   9.632  64.720  1.00  0.00    -0.231 C  
HETATM    2  C   UNL     1      -9.242  10.998  63.948  1.00  0.00    -0.181 C  
HETATM    3  C   UNL     1     -10.215  12.005  64.480  1.00  0.00    -0.318 A  
HETATM    4  C   UNL     1     -11.412  11.624  65.061  1.00  0.00    -0.189 A  
HETATM    5  C   UNL     1     -11.846  12.322  66.178  1.00  0.00    -0.398 A  
HETATM    6  C   UNL     1     -11.188  13.496  66.551  1.00  0.00    -0.306 A  
HETATM    7  C   UNL     1     -10.414  14.116  65.600  1.00  0.00    -0.333 A  
HETATM    8  O   UNL     1     -11.311  13.813  67.877  1.00  0.00    -0.271 OA 
HETATM    9  C   UNL     1     -10.609  14.776  68.568  1.00  0.00    -0.248 A  
HETATM   10  C   UNL     1      -9.839  13.343  64.603  1.00  0.00     0.021 A  
HETATM   11  C   UNL     1     -11.289  15.156  69.761  1.00  0.00    -0.307 A  
HETATM   12  C   UNL     1     -10.856  16.276  70.470  1.00  0.00    -0.137 A  
HETATM   13  C   UNL     1      -9.736  16.949  70.065  1.00  0.00     0.921 A  
HETATM   14  C   UNL     1     -11.660  16.884  71.586  1.00  0.00     0.505 C  
HETATM   15  C   UNL     1     -12.639  15.947  72.244  1.00  0.00    -0.454 C  
HETATM   16  C   UNL     1      -8.990  16.532  68.950  1.00  0.00    -0.245 A  
HETATM   17  C   UNL     1      -8.943   9.497  66.239  1.00  0.00    -0.188 C  
HETATM   18  C   UNL     1      -9.360  15.375  68.251  1.00  0.00    -0.193 A  
HETATM   19  N   UNL     1     -13.354  14.992  71.284  1.00  0.00    -0.406 N  
HETATM   20  C   UNL     1     -11.234   8.241  64.733  1.00  0.00    10.798 C  
HETATM   21  C   UNL     1     -14.248  14.121  72.166  1.00  0.00    -0.546 C  
HETATM   22  C   UNL     1      -8.611   7.031  65.978  1.00  0.00    -0.154 C  
HETATM   23  C   UNL     1     -12.303  14.210  70.426  1.00  0.00    -0.359 C  
HETATM   24  C   UNL     1     -14.278  15.685  70.276  1.00  0.00     1.801 C  
HETATM   25  C   UNL     1      -9.990   8.446  62.622  1.00  0.00     4.200 C  
HETATM   26  C   UNL     1     -11.451  13.232  71.264  1.00  0.00     1.689 C  
HETATM   27  C   UNL     1     -11.808  11.778  71.186  1.00  0.00     0.457 A  
HETATM   28  C   UNL     1     -11.431  11.095  70.019  1.00  0.00    -0.376 A  
HETATM   29  C   UNL     1     -11.103   9.759  70.072  1.00  0.00    -0.267 A  
HETATM   30  C   UNL     1     -11.608   9.039  71.175  1.00  0.00    -0.306 A  
HETATM   31  O   UNL     1     -10.313   9.200  69.073  1.00  0.00    -0.206 OA 
HETATM   32  N   UNL     1      -9.840   8.400  64.139  1.00  0.00     2.780 N  
HETATM   33  C   UNL     1      -9.201  10.046  68.584  1.00  0.00    -0.152 C  
HETATM   34  C   UNL     1     -12.138   9.691  72.294  1.00  0.00     0.047 A  
HETATM   35  C   UNL     1      -8.982   7.150  64.489  1.00  0.00     0.913 C  
HETATM   36  C   UNL     1      -7.950   9.447  68.785  1.00  0.00    -0.092 C  
HETATM   37  C   UNL     1     -12.181  11.082  72.322  1.00  0.00     1.368 A  
HETATM   38  C   UNL     1      -9.344  10.394  67.244  1.00  0.00    -0.164 C  
HETATM   39  C   UNL     1      -7.684   8.358  67.955  1.00  0.00    -0.103 C  
HETATM   40  C   UNL     1      -8.348   8.318  66.716  1.00  0.00    -0.107 C  
ENDROOT
BRANCH  16  41
HETATM   41  O   UNL     1      -7.904  17.283  68.580  1.00  0.00    -0.245 OA 
HETATM   42  C   UNL     1      -6.874  17.303  69.576  1.00  0.00    -0.080 C  
ENDBRANCH  16  41
BRANCH  18  43
HETATM   43  O   UNL     1      -8.529  14.720  67.382  1.00  0.00    -0.175 OA 
HETATM   44  C   UNL     1      -7.135  15.052  67.403  1.00  0.00    -0.175 C  
ENDBRANCH  18  43
BRANCH  30  45
HETATM   45  O   UNL     1     -11.635   7.664  71.222  1.00  0.00    -0.267 OA 
HETATM   46  C   UNL     1     -11.778   7.256  72.584  1.00  0.00    -0.162 C  
ENDBRANCH  30  45
BRANCH  36  47
HETATM   47  O   UNL     1      -6.968  10.409  69.033  1.00  0.00    -0.061 OA 
HETATM   48  C   UNL     1      -5.853  10.504  68.152  1.00  0.00    -0.043 C  
ENDBRANCH  36  47
TORSDOF 4
ENDMDL
MODEL       46
REMARK 921   NORMALIZED FREE ENERGY PREDICTED BY IDOCK:   17.98 KCAL/MOL
REMARK 922        TOTAL FREE ENERGY PREDICTED BY IDOCK:   21.29 KCAL/MOL
REMARK 923 INTER-LIGAND FREE ENERGY PREDICTED BY IDOCK:   16.37 KCAL/MOL
REMARK 924 INTRA-LIGAND FREE ENERGY PREDICTED BY IDOCK:    4.93 KCAL/MOL
REMARK 927      BINDING AFFINITY PREDICTED BY RF-SCORE:    0.00 PKD
ROOT
HETATM    1  C   UNL     1      -7.907  15.006  69.217  1.00  0.00    -0.190 C  
HETATM    2  C   UNL     1      -6.757  14.961  68.133  1.00  0.00    -0.136 C  
HETATM    3  C   UNL     1      -6.063  13.662  67.861  1.00  0.00    -0.154 A  
HETATM    4  C   UNL     1      -5.789  12.758  68.873  1.00  0.00    -0.071 A  
HETATM    5  C   UNL     1      -5.948  11.408  68.601  1.00  0.00    -0.042 A  
HETATM    6  C   UNL     1      -6.169  10.994  67.286  1.00  0.00    -0.068 A  
HETATM    7  C   UNL     1      -5.833  11.872  66.283  1.00  0.00     0.534 A  
HETATM    8  O   UNL     1      -6.815   9.792  67.174  1.00  0.00    -0.081 OA 
HETATM    9  C   UNL     1      -7.351   9.242  66.030  1.00  0.00    -0.095 A  
HETATM   10  C   UNL     1      -5.874  13.232  66.547  1.00  0.00     2.559 A  
HETATM   11  C   UNL     1      -7.518   7.834  66.163  1.00  0.00    -0.079 A  
HETATM   12  C   UNL     1      -7.826   7.071  65.038  1.00  0.00    -0.125 A  
HETATM   13  C   UNL     1      -8.048   7.685  63.836  1.00  0.00    -0.041 A  
HETATM   14  C   UNL     1      -7.773   5.567  65.044  1.00  0.00    -0.093 C  
HETATM   15  C   UNL     1      -7.908   4.935  66.404  1.00  0.00    -0.099 C  
HETATM   16  C   UNL     1      -7.989   9.082  63.702  1.00  0.00    -0.150 A  
HETATM   17  C   UNL     1      -9.005  13.953  69.367  1.00  0.00     0.708 C  
HETATM   18  C   UNL     1      -7.744   9.884  64.825  1.00  0.00    -0.138 A  
HETATM   19  N   UNL     1      -7.189   5.681  67.531  1.00  0.00    -0.074 N  
HETATM   20  C   UNL     1      -7.007  14.433  71.574  1.00  0.00     1.891 C  
HETATM   21  C   UNL     1      -7.499   4.894  68.804  1.00  0.00    -0.065 C  
HETATM   22  C   UNL     1     -10.012  15.294  71.224  1.00  0.00     1.506 C  
HETATM   23  C   UNL     1      -7.639   7.181  67.551  1.00  0.00    -0.110 C  
HETATM   24  C   UNL     1      -5.662   5.708  67.395  1.00  0.00    -0.017 C  
HETATM   25  C   UNL     1      -6.399  16.601  70.586  1.00  0.00     0.891 C  
HETATM   26  C   UNL     1      -9.119   7.360  67.952  1.00  0.00    -0.129 C  
HETATM   27  C   UNL     1      -9.394   7.811  69.355  1.00  0.00    -0.152 A  
HETATM   28  C   UNL     1      -9.160   9.165  69.642  1.00  0.00    -0.163 A  
HETATM   29  C   UNL     1      -9.929   9.819  70.580  1.00  0.00    -0.193 A  
HETATM   30  C   UNL     1     -10.580   9.001  71.528  1.00  0.00    -0.345 A  
HETATM   31  O   UNL     1     -10.028  11.205  70.548  1.00  0.00     1.544 OA 
HETATM   32  N   UNL     1      -7.489  15.535  70.639  1.00  0.00     1.020 N  
HETATM   33  C   UNL     1     -10.124  11.813  69.201  1.00  0.00     0.126 C  
HETATM   34  C   UNL     1     -10.693   7.619  71.347  1.00  0.00    -0.247 A  
HETATM   35  C   UNL     1      -8.766  16.198  71.233  1.00  0.00     5.434 C  
HETATM   36  C   UNL     1     -11.315  12.532  69.027  1.00  0.00    -0.290 C  
HETATM   37  C   UNL     1     -10.145   7.027  70.213  1.00  0.00    -0.198 A  
HETATM   38  C   UNL     1      -9.036  12.627  68.904  1.00  0.00     0.311 C  
HETATM   39  C   UNL     1     -11.379  13.732  69.736  1.00  0.00    -0.200 C  
HETATM   40  C   UNL     1     -10.161  14.357  70.054  1.00  0.00     0.603 C  
ENDROOT
BRANCH  16  41
HETATM   41  O   UNL     1      -8.181   9.623  62.457  1.00  0.00    -0.126 OA 
HETATM   42  C   UNL     1      -8.875  10.877  62.494  1.00  0.00    -0.315 C  
ENDBRANCH  16  41
BRANCH  18  43
HETATM   43  O   UNL     1      -7.991  11.231  64.860  1.00  0.00     0.382 OA 
HETATM   44  C   UNL     1      -7.953  11.955  63.623  1.00  0.00     2.418 C  
ENDBRANCH  18  43
BRANCH  30  45
HETATM   45  O   UNL     1     -11.124   9.493  72.691  1.00  0.00     0.976 OA 
HETATM   46  C   UNL     1     -12.430   9.999  72.408  1.00  0.00     0.285 C  
ENDBRANCH  30  45
BRANCH  36  47
HETATM   47  O   UNL     1     -11.752  12.464  67.703  1.00  0.00    -0.337 OA 
HETATM   48  C   UNL     1     -11.088  11.588  66.797  1.00  0.00    -0.302 C  
ENDBRANCH  36  47
TORSDOF 4
ENDMDL
MODEL       47
REMARK 921   NORMALIZED FREE ENERGY PREDICTED BY IDOCK:   20.72 KCAL/MOL
REMARK 922        TOTAL FREE ENERGY PREDICTED BY IDOCK:   24.67 KCAL/MOL
REMARK 923 INTER-LIGAND FREE ENERGY PREDICTED BY IDOCK:   20.51 KCAL/MOL
REMARK 924 INTRA-LIGAND FREE ENERGY PREDICTED BY IDOCK:    4.16 KCAL/MOL
REMARK 927      BINDING AFFINITY PREDICTED BY RF-SCORE:    0.00 PKD
ROOT
HETATM    1  C   UNL     1      -8.695  17.657  66.444  1.00  0.00    -0.234 C  
HETATM    2  C   UNL     1      -7.529  16.866  65.728  1.00  0.00     0.527 C  
HETATM    3  C   UNL     1      -7.038  15.587  66.333  1.00  0.00     1.346 A  
HETATM    4  C   UNL     1      -6.944  15.421  67.705  1.00  0.00    -0.183 A  
HETATM    5  C   UNL     1      -7.302  14.193  68.239  1.00  0.00    -0.120 A  
HETATM    6  C   UNL     1      -7.539  13.115  67.382  1.00  0.00    -0.131 A  
HETATM    7  C   UNL     1      -7.035  13.200  66.106  1.00  0.00     3.398 A  
HETATM    8  O   UNL     1      -8.360  12.152  67.902  1.00  0.00    -0.142 OA 
HETATM    9  C   UNL     1      -8.935  11.098  67.226  1.00  0.00    -0.147 A  
HETATM   10  C   UNL     1      -6.872  14.454  65.537  1.00  0.00     9.775 A  
HETATM   11  C   UNL     1      -9.324  10.060  68.121  1.00  0.00    -0.137 A  
HETATM   12  C   UNL     1      -9.708   8.822  67.608  1.00  0.00    -0.210 A  
HETATM   13  C   UNL     1      -9.790   8.638  66.255  1.00  0.00    -0.320 A  
HETATM   14  C   UNL     1      -9.891   7.610  68.480  1.00  0.00    -0.174 C  
HETATM   15  C   UNL     1     -10.170   7.909  69.930  1.00  0.00    -0.210 C  
HETATM   16  C   UNL     1      -9.508   9.678  65.354  1.00  0.00    -0.278 A  
HETATM   17  C   UNL     1      -9.949  17.014  67.038  1.00  0.00    -0.288 C  
HETATM   18  C   UNL     1      -9.180  10.953  65.834  1.00  0.00    -0.191 A  
HETATM   19  N   UNL     1      -9.383   9.091  70.502  1.00  0.00    -0.200 N  
HETATM   20  C   UNL     1      -7.979  18.476  68.792  1.00  0.00    -0.267 C  
HETATM   21  C   UNL     1      -9.856   9.234  71.948  1.00  0.00     0.179 C  
HETATM   22  C   UNL     1     -10.798  19.285  67.655  1.00  0.00    -0.484 C  
HETATM   23  C   UNL     1      -9.594  10.358  69.605  1.00  0.00    -0.109 C  
HETATM   24  C   UNL     1      -7.867   8.871  70.559  1.00  0.00    -0.112 C  
HETATM   25  C   UNL     1      -7.006  19.579  66.821  1.00  0.00    -0.196 C  
HETATM   26  C   UNL     1     -11.041  10.894  69.652  1.00  0.00    -0.328 C  
HETATM   27  C   UNL     1     -11.291  12.106  70.499  1.00  0.00     0.704 A  
HETATM   28  C   UNL     1     -10.859  13.338  69.985  1.00  0.00     0.691 A  
HETATM   29  C   UNL     1     -11.548  14.493  70.279  1.00  0.00    -0.268 A  
HETATM   30  C   UNL     1     -12.352  14.459  71.438  1.00  0.00    -0.360 A  
HETATM   31  O   UNL     1     -11.429  15.602  69.447  1.00  0.00    -0.299 OA 
HETATM   32  N   UNL     1      -8.250  18.869  67.344  1.00  0.00    -0.268 N  
HETATM   33  C   UNL     1     -11.382  15.314  67.995  1.00  0.00    -0.338 C  
HETATM   34  C   UNL     1     -12.673  13.252  72.070  1.00  0.00    -0.211 A  
HETATM   35  C   UNL     1      -9.428  19.884  67.294  1.00  0.00    -0.365 C  
HETATM   36  C   UNL     1     -12.439  15.918  67.300  1.00  0.00     1.904 C  
HETATM   37  C   UNL     1     -12.185  12.055  71.554  1.00  0.00     0.251 A  
HETATM   38  C   UNL     1     -10.171  15.680  67.417  1.00  0.00    -0.264 C  
HETATM   39  C   UNL     1     -12.341  17.305  67.180  1.00  0.00     3.778 C  
HETATM   40  C   UNL     1     -11.051  17.863  67.226  1.00  0.00     0.141 C  
ENDROOT
BRANCH  16  41
HETATM   41  O   UNL     1      -9.570   9.407  64.011  1.00  0.00     0.151 OA 
HETATM   42  C   UNL     1     -10.347  10.367  63.283  1.00  0.00     0.436 C  
ENDBRANCH  16  41
BRANCH  18  43
HETATM   43  O   UNL     1      -9.215  12.084  65.062  1.00  0.00     0.060 OA 
HETATM   44  C   UNL     1      -8.068  12.384  64.255  1.00  0.00     3.986 C  
ENDBRANCH  18  43
BRANCH  30  45
HETATM   45  O   UNL     1     -12.853  15.592  72.036  1.00  0.00    -0.362 OA 
HETATM   46  C   UNL     1     -14.196  15.790  71.588  1.00  0.00     0.002 C  
ENDBRANCH  30  45
BRANCH  36  47
HETATM   47  O   UNL     1     -12.835  15.137  66.213  1.00  0.00     0.785 OA 
HETATM   48  C   UNL     1     -11.954  14.131  65.725  1.00  0.00    -0.402 C  
ENDBRANCH  36  47
TORSDOF 4
ENDMDL
MODEL       48
REMARK 921   NORMALIZED FREE ENERGY PREDICTED BY IDOCK:   20.84 KCAL/MOL
REMARK 922        TOTAL FREE ENERGY PREDICTED BY IDOCK:   24.83 KCAL/MOL
REMARK 923 INTER-LIGAND FREE ENERGY PREDICTED BY IDOCK:   24.83 KCAL/MOL
REMARK 924 INTRA-LIGAND FREE ENERGY PREDICTED BY IDOCK:   -0.00 KCAL/MOL
REMARK 927      BINDING AFFINITY PREDICTED BY RF-SCORE:    0.00 PKD
ROOT
HETATM    1  C   UNL     1      -6.861  13.148  70.201  1.00  0.00     0.601 C  
HETATM    2  C   UNL     1      -5.638  12.428  70.899  1.00  0.00    -0.109 C  
HETATM    3  C   UNL     1      -5.896  11.246  71.782  1.00  0.00     0.903 A  
HETATM    4  C   UNL     1      -7.010  11.181  72.602  1.00  0.00     7.020 A  
HETATM    5  C   UNL     1      -7.656   9.961  72.726  1.00  0.00     3.373 A  
HETATM    6  C   UNL     1      -7.060   8.811  72.202  1.00  0.00     0.028 A  
HETATM    7  C   UNL     1      -5.711   8.861  71.946  1.00  0.00    -0.062 A  
HETATM    8  O   UNL     1      -7.940   7.808  71.898  1.00  0.00    -0.093 OA 
HETATM    9  C   UNL     1      -7.676   6.662  71.182  1.00  0.00    -0.097 A  
HETATM   10  C   UNL     1      -5.137  10.085  71.635  1.00  0.00    -0.077 A  
HETATM   11  C   UNL     1      -8.645   5.652  71.447  1.00  0.00    -0.132 A  
HETATM   12  C   UNL     1      -8.419   4.351  71.000  1.00  0.00    -0.105 A  
HETATM   13  C   UNL     1      -7.316   4.071  70.240  1.00  0.00    -0.042 A  
HETATM   14  C   UNL     1      -9.260   3.187  71.447  1.00  0.00    -0.189 C  
HETATM   15  C   UNL     1     -10.635   3.552  71.940  1.00  0.00     0.373 C  
HETATM   16  C   UNL     1      -6.399   5.073  69.880  1.00  0.00    -0.030 A  
HETATM   17  C   UNL     1      -8.032  12.426  69.534  1.00  0.00     1.044 C  
HETATM   18  C   UNL     1      -6.627   6.403  70.260  1.00  0.00    -0.045 A  
HETATM   19  N   UNL     1     -10.699   4.840  72.765  1.00  0.00    -0.213 N  
HETATM   20  C   UNL     1      -8.468  14.185  71.944  1.00  0.00     7.940 C  
HETATM   21  C   UNL     1     -12.175   5.031  73.111  1.00  0.00     0.419 C  
HETATM   22  C   UNL     1      -8.997  14.639  68.877  1.00  0.00    -0.136 C  
HETATM   23  C   UNL     1     -10.045   6.019  71.967  1.00  0.00    -0.186 C  
HETATM   24  C   UNL     1      -9.943   4.772  74.098  1.00  0.00    -0.181 C  
HETATM   25  C   UNL     1      -6.277  15.245  71.596  1.00  0.00     0.971 C  
HETATM   26  C   UNL     1     -10.851   6.413  70.710  1.00  0.00    -0.321 C  
HETATM   27  C   UNL     1     -11.697   7.647  70.802  1.00  0.00    -0.260 A  
HETATM   28  C   UNL     1     -11.027   8.879  70.750  1.00  0.00    -0.305 A  
HETATM   29  C   UNL     1     -11.637   9.979  70.189  1.00  0.00    -0.252 A  
HETATM   30  C   UNL     1     -13.047   9.942  70.128  1.00  0.00     0.430 A  
HETATM   31  O   UNL     1     -10.865  11.036  69.722  1.00  0.00    -0.231 OA 
HETATM   32  N   UNL     1      -7.383  14.453  70.908  1.00  0.00     1.222 N  
HETATM   33  C   UNL     1      -9.610  10.660  69.031  1.00  0.00    -0.195 C  
HETATM   34  C   UNL     1     -13.757   8.754  70.331  1.00  0.00     1.226 A  
HETATM   35  C   UNL     1      -7.962  15.343  69.770  1.00  0.00    -0.041 C  
HETATM   36  C   UNL     1      -9.580  11.111  67.704  1.00  0.00    -0.170 C  
HETATM   37  C   UNL     1     -13.066   7.579  70.611  1.00  0.00     0.271 A  
HETATM   38  C   UNL     1      -8.476  11.104  69.704  1.00  0.00     0.615 C  
HETATM   39  C   UNL     1      -9.420  12.490  67.561  1.00  0.00    -0.185 C  
HETATM   40  C   UNL     1      -8.773  13.174  68.605  1.00  0.00     0.045 C  
ENDROOT
BRANCH  16  41
HETATM   41  O   UNL     1      -5.294   4.710  69.153  1.00  0.00    -0.007 OA 
HETATM   42  C   UNL     1      -5.622   3.941  67.989  1.00  0.00    -0.021 C  
ENDBRANCH  16  41
BRANCH  18  43
HETATM   43  O   UNL     1      -5.987   7.471  69.691  1.00  0.00    -0.023 OA 
HETATM   44  C   UNL     1      -6.763   8.375  68.893  1.00  0.00    -0.053 C  
ENDBRANCH  18  43
BRANCH  30  45
HETATM   45  O   UNL     1     -13.814  11.057  69.887  1.00  0.00     1.413 OA 
HETATM   46  C   UNL     1     -13.630  11.981  70.961  1.00  0.00     1.072 C  
ENDBRANCH  30  45
BRANCH  36  47
HETATM   47  O   UNL     1      -8.871  10.225  66.890  1.00  0.00    -0.132 OA 
HETATM   48  C   UNL     1      -9.549   9.104  66.331  1.00  0.00    -0.245 C  
ENDBRANCH  36  47
TORSDOF 4
ENDMDL
MODEL       49
REMARK 921   NORMALIZED FREE ENERGY PREDICTED BY IDOCK:   22.20 KCAL/MOL
REMARK 922        TOTAL FREE ENERGY PREDICTED BY IDOCK:   26.50 KCAL/MOL
REMARK 923 INTER-LIGAND FREE ENERGY PREDICTED BY IDOCK:   27.01 KCAL/MOL
REMARK 924 INTRA-LIGAND FREE ENERGY PREDICTED BY IDOCK:   -0.51 KCAL/MOL
REMARK 927      BINDING AFFINITY PREDICTED BY RF-SCORE:    0.00 PKD
ROOT
HETATM    1  C   UNL     1      -9.646  18.856  68.542  1.00  0.00    -0.380 C  
HETATM    2  C   UNL     1      -9.548  18.442  70.064  1.00  0.00     1.271 C  
HETATM    3  C   UNL     1      -9.992  17.072  70.476  1.00  0.00     1.871 A  
HETATM    4  C   UNL     1     -11.086  16.456  69.891  1.00  0.00    -0.313 A  
HETATM    5  C   UNL     1     -11.005  15.097  69.630  1.00  0.00    -0.291 A  
HETATM    6  C   UNL     1      -9.934  14.361  70.142  1.00  0.00     0.917 A  
HETATM    7  C   UNL     1      -9.234  14.912  71.190  1.00  0.00     2.913 A  
HETATM    8  O   UNL     1      -9.645  13.222  69.441  1.00  0.00     0.581 OA 
HETATM    9  C   UNL     1      -8.531  12.424  69.577  1.00  0.00     1.464 A  
HETATM   10  C   UNL     1      -9.182  16.293  71.303  1.00  0.00     4.863 A  
HETATM   11  C   UNL     1      -8.763  11.118  69.058  1.00  0.00    -0.027 A  
HETATM   12  C   UNL     1      -7.841  10.104  69.313  1.00  0.00    -0.134 A  
HETATM   13  C   UNL     1      -6.684  10.387  69.985  1.00  0.00    -0.145 A  
HETATM   14  C   UNL     1      -8.130   8.658  69.018  1.00  0.00    -0.121 C  
HETATM   15  C   UNL     1      -9.188   8.425  67.971  1.00  0.00    -0.136 C  
HETATM   16  C   UNL     1      -6.386  11.690  70.419  1.00  0.00     0.140 A  
HETATM   17  C   UNL     1      -9.249  17.961  67.368  1.00  0.00    -0.253 C  
HETATM   18  C   UNL     1      -7.260  12.745  70.125  1.00  0.00     1.460 A  
HETATM   19  N   UNL     1     -10.371   9.394  68.030  1.00  0.00    -0.208 N  
HETATM   20  C   UNL     1     -12.101  18.875  67.723  1.00  0.00     3.216 C  
HETATM   21  C   UNL     1     -11.279   9.002  66.864  1.00  0.00     0.983 C  
HETATM   22  C   UNL     1      -9.808  19.819  65.787  1.00  0.00    -0.289 C  
HETATM   23  C   UNL     1      -9.854  10.872  68.001  1.00  0.00    -0.171 C  
HETATM   24  C   UNL     1     -11.220   9.277  69.302  1.00  0.00     0.092 C  
HETATM   25  C   UNL     1     -11.366  20.650  69.258  1.00  0.00     2.268 C  
HETATM   26  C   UNL     1      -9.203  11.255  66.654  1.00  0.00    -0.191 C  
HETATM   27  C   UNL     1     -10.024  12.084  65.713  1.00  0.00    -0.266 A  
HETATM   28  C   UNL     1     -10.162  13.446  66.024  1.00  0.00    -0.301 A  
HETATM   29  C   UNL     1     -10.286  14.379  65.020  1.00  0.00    -0.374 A  
HETATM   30  C   UNL     1     -10.737  13.894  63.774  1.00  0.00     0.936 A  
HETATM   31  O   UNL     1      -9.967  15.710  65.268  1.00  0.00    -0.335 OA 
HETATM   32  N   UNL     1     -10.902  19.717  68.145  1.00  0.00    -0.094 N  
HETATM   33  C   UNL     1      -8.780  15.939  66.122  1.00  0.00    -0.293 C  
HETATM   34  C   UNL     1     -10.760  12.525  63.486  1.00  0.00    -0.417 A  
HETATM   35  C   UNL     1     -10.444  20.602  66.949  1.00  0.00     0.355 C  
HETATM   36  C   UNL     1      -7.781  16.666  65.459  1.00  0.00     1.709 C  
HETATM   37  C   UNL     1     -10.338  11.614  64.450  1.00  0.00    -0.362 A  
HETATM   38  C   UNL     1      -9.098  16.565  67.323  1.00  0.00    -0.214 C  
HETATM   39  C   UNL     1      -8.080  18.014  65.257  1.00  0.00     1.667 C  
HETATM   40  C   UNL     1      -8.981  18.614  66.154  1.00  0.00    -0.134 C  
ENDROOT
BRANCH  16  41
HETATM   41  O   UNL     1      -5.227  11.888  71.124  1.00  0.00    -0.153 OA 
HETATM   42  C   UNL     1      -5.205  11.184  72.372  1.00  0.00     0.405 C  
ENDBRANCH  16  41
BRANCH  18  43
HETATM   43  O   UNL     1      -6.907  14.065  70.211  1.00  0.00     0.053 OA 
HETATM   44  C   UNL     1      -5.862  14.540  69.351  1.00  0.00    -0.097 C  
ENDBRANCH  18  43
BRANCH  30  45
HETATM   45  O   UNL     1     -11.200  14.717  62.774  1.00  0.00     3.039 OA 
HETATM   46  C   UNL     1     -12.373  15.388  63.239  1.00  0.00     1.890 C  
ENDBRANCH  30  45
BRANCH  36  47
HETATM   47  O   UNL     1      -6.510  16.276  65.886  1.00  0.00     0.792 OA 
HETATM   48  C   UNL     1      -5.631  17.254  66.430  1.00  0.00    -0.173 C  
ENDBRANCH  36  47
TORSDOF 4
ENDMDL
MODEL       50
REMARK 921   NORMALIZED FREE ENERGY PREDICTED BY IDOCK:   24.75 KCAL/MOL
REMARK 922        TOTAL FREE ENERGY PREDICTED BY IDOCK:   29.64 KCAL/MOL
REMARK 923 INTER-LIGAND FREE ENERGY PREDICTED BY IDOCK:   29.21 KCAL/MOL
REMARK 924 INTRA-LIGAND FREE ENERGY PREDICTED BY IDOCK:    0.43 KCAL/MOL
REMARK 927      BINDING AFFINITY PREDICTED BY RF-SCORE:    0.00 PKD
ROOT
HETATM    1  C   UNL     1      -6.862  11.128  69.241  1.00  0.00    -0.110 C  
HETATM    2  C   UNL     1      -6.812  11.127  70.821  1.00  0.00     1.264 C  
HETATM    3  C   UNL     1      -7.712  10.198  71.576  1.00  0.00     2.352 A  
HETATM    4  C   UNL     1      -9.000   9.923  71.147  1.00  0.00     1.107 A  
HETATM    5  C   UNL     1      -9.463   8.622  71.270  1.00  0.00    -0.289 A  
HETATM    6  C   UNL     1      -8.718   7.694  72.000  1.00  0.00    -0.117 A  
HETATM    7  C   UNL     1      -7.782   8.186  72.879  1.00  0.00    -0.190 A  
HETATM    8  O   UNL     1      -8.940   6.390  71.647  1.00  0.00    -0.143 OA 
HETATM    9  C   UNL     1      -8.207   5.290  72.033  1.00  0.00    -0.118 A  
HETATM   10  C   UNL     1      -7.200   9.415  72.611  1.00  0.00     1.049 A  
HETATM   11  C   UNL     1      -8.959   4.089  71.884  1.00  0.00    -0.156 A  
HETATM   12  C   UNL     1      -8.476   2.904  72.437  1.00  0.00    -0.078 A  
HETATM   13  C   UNL     1      -7.250   2.884  73.044  1.00  0.00    -0.044 A  
HETATM   14  C   UNL     1      -9.316   1.661  72.539  1.00  0.00    -0.117 C  
HETATM   15  C   UNL     1     -10.460   1.587  71.562  1.00  0.00     0.234 C  
HETATM   16  C   UNL     1      -6.445   4.033  73.114  1.00  0.00    -0.036 A  
HETATM   17  C   UNL     1      -6.927   9.873  68.370  1.00  0.00    -0.068 C  
HETATM   18  C   UNL     1      -6.872   5.226  72.514  1.00  0.00    -0.075 A  
HETATM   19  N   UNL     1     -11.176   2.918  71.314  1.00  0.00     2.848 N  
HETATM   20  C   UNL     1      -9.179  11.879  68.367  1.00  0.00    -0.173 C  
HETATM   21  C   UNL     1     -12.251   2.614  70.271  1.00  0.00    15.248 C  
HETATM   22  C   UNL     1      -6.856  11.311  66.324  1.00  0.00    -0.001 C  
HETATM   23  C   UNL     1     -10.138   4.015  70.899  1.00  0.00     0.009 C  
HETATM   24  C   UNL     1     -11.905   3.479  72.541  1.00  0.00     1.499 C  
HETATM   25  C   UNL     1      -7.707  13.568  69.381  1.00  0.00     0.480 C  
HETATM   26  C   UNL     1      -9.496   3.744  69.521  1.00  0.00    -0.257 C  
HETATM   27  C   UNL     1     -10.008   4.545  68.362  1.00  0.00    -0.103 A  
HETATM   28  C   UNL     1      -9.593   5.884  68.284  1.00  0.00    -0.134 A  
HETATM   29  C   UNL     1      -9.428   6.490  67.059  1.00  0.00    -0.138 A  
HETATM   30  C   UNL     1     -10.125   5.907  65.979  1.00  0.00     0.139 A  
HETATM   31  O   UNL     1      -8.609   7.607  66.944  1.00  0.00    -0.118 OA 
HETATM   32  N   UNL     1      -7.721  12.269  68.582  1.00  0.00    -0.107 N  
HETATM   33  C   UNL     1      -7.362   7.575  67.742  1.00  0.00    -0.103 C  
HETATM   34  C   UNL     1     -10.690   4.630  66.077  1.00  0.00    -0.126 A  
HETATM   35  C   UNL     1      -7.054  12.557  67.206  1.00  0.00    -0.112 C  
HETATM   36  C   UNL     1      -6.216   7.655  66.939  1.00  0.00    -0.049 C  
HETATM   37  C   UNL     1     -10.575   3.917  67.267  1.00  0.00     1.526 A  
HETATM   38  C   UNL     1      -7.324   8.570  68.714  1.00  0.00    -0.090 C  
HETATM   39  C   UNL     1      -5.993   8.907  66.365  1.00  0.00    -0.055 C  
HETATM   40  C   UNL     1      -6.525  10.024  67.033  1.00  0.00    -0.069 C  
ENDROOT
BRANCH  16  41
HETATM   41  O   UNL     1      -5.248   3.946  73.776  1.00  0.00    -0.003 OA 
HETATM   42  C   UNL     1      -5.126   2.749  74.554  1.00  0.00     0.000 C  
ENDBRANCH  16  41
BRANCH  18  43
HETATM   43  O   UNL     1      -6.036   6.277  72.247  1.00  0.00    -0.037 OA 
HETATM   44  C   UNL     1      -5.142   6.707  73.282  1.00  0.00    -0.037 C  
ENDBRANCH  18  43
BRANCH  30  45
HETATM   45  O   UNL     1     -10.315   6.548  64.777  1.00  0.00     3.169 OA 
HETATM   46  C   UNL     1      -9.468   5.944  63.797  1.00  0.00     1.555 C  
ENDBRANCH  30  45
BRANCH  36  47
HETATM   47  O   UNL     1      -5.161   6.931  67.497  1.00  0.00    -0.007 OA 
HETATM   48  C   UNL     1      -5.275   5.516  67.612  1.00  0.00    -0.004 C  
ENDBRANCH  36  47
TORSDOF 4
ENDMDL
MODEL       51
REMARK 921   NORMALIZED FREE ENERGY PREDICTED BY IDOCK:   25.48 KCAL/MOL
REMARK 922        TOTAL FREE ENERGY PREDICTED BY IDOCK:   30.55 KCAL/MOL
REMARK 923 INTER-LIGAND FREE ENERGY PREDICTED BY IDOCK:   31.35 KCAL/MOL
REMARK 924 INTRA-LIGAND FREE ENERGY PREDICTED BY IDOCK:   -0.80 KCAL/MOL
REMARK 927      BINDING AFFINITY PREDICTED BY RF-SCORE:    0.00 PKD
ROOT
HETATM    1  C   UNL     1     -10.144  11.832  69.476  1.00  0.00     0.604 C  
HETATM    2  C   UNL     1     -10.329  11.824  71.046  1.00  0.00     5.318 C  
HETATM    3  C   UNL     1     -10.874  10.597  71.709  1.00  0.00     3.038 A  
HETATM    4  C   UNL     1     -11.862   9.828  71.116  1.00  0.00    -0.466 A  
HETATM    5  C   UNL     1     -11.770   8.450  71.231  1.00  0.00    -0.325 A  
HETATM    6  C   UNL     1     -10.827   7.894  72.097  1.00  0.00    -0.269 A  
HETATM    7  C   UNL     1     -10.310   8.710  73.076  1.00  0.00     0.460 A  
HETATM    8  O   UNL     1     -10.447   6.619  71.775  1.00  0.00    -0.207 OA 
HETATM    9  C   UNL     1      -9.396   5.906  72.308  1.00  0.00    -0.144 A  
HETATM   10  C   UNL     1     -10.244  10.074  72.838  1.00  0.00     6.588 A  
HETATM   11  C   UNL     1      -9.565   4.506  72.107  1.00  0.00    -0.206 A  
HETATM   12  C   UNL     1      -8.730   3.612  72.774  1.00  0.00    -0.100 A  
HETATM   13  C   UNL     1      -7.703   4.082  73.547  1.00  0.00    -0.080 A  
HETATM   14  C   UNL     1      -8.998   2.132  72.813  1.00  0.00    -0.084 C  
HETATM   15  C   UNL     1      -9.858   1.616  71.690  1.00  0.00    -0.147 C  
HETATM   16  C   UNL     1      -7.454   5.459  73.678  1.00  0.00    -0.091 A  
HETATM   17  C   UNL     1      -9.568  10.674  68.661  1.00  0.00    -0.179 C  
HETATM   18  C   UNL     1      -8.235   6.384  72.972  1.00  0.00    -0.116 A  
HETATM   19  N   UNL     1     -11.008   2.542  71.286  1.00  0.00     1.920 N  
HETATM   20  C   UNL     1     -12.413  11.588  68.256  1.00  0.00     0.956 C  
HETATM   21  C   UNL     1     -11.704   1.844  70.118  1.00  0.00     8.288 C  
HETATM   22  C   UNL     1      -9.790  12.051  66.583  1.00  0.00    -0.220 C  
HETATM   23  C   UNL     1     -10.457   3.974  70.972  1.00  0.00     0.499 C  
HETATM   24  C   UNL     1     -12.072   2.737  72.373  1.00  0.00     2.487 C  
HETATM   25  C   UNL     1     -11.917  13.713  69.390  1.00  0.00    -0.342 C  
HETATM   26  C   UNL     1      -9.567   4.012  69.710  1.00  0.00    -0.280 C  
HETATM   27  C   UNL     1     -10.186   4.554  68.457  1.00  0.00     0.079 A  
HETATM   28  C   UNL     1     -10.343   5.947  68.379  1.00  0.00    -0.261 A  
HETATM   29  C   UNL     1     -10.262   6.588  67.164  1.00  0.00    -0.198 A  
HETATM   30  C   UNL     1     -10.497   5.790  66.024  1.00  0.00     0.157 A  
HETATM   31  O   UNL     1      -9.959   7.945  67.115  1.00  0.00    -0.183 OA 
HETATM   32  N   UNL     1     -11.287  12.535  68.654  1.00  0.00    -0.264 N  
HETATM   33  C   UNL     1      -8.936   8.410  68.080  1.00  0.00    -0.138 C  
HETATM   34  C   UNL     1     -10.503   4.393  66.098  1.00  0.00    -0.084 A  
HETATM   35  C   UNL     1     -10.601  13.093  67.373  1.00  0.00    -0.242 C  
HETATM   36  C   UNL     1      -7.818   8.964  67.442  1.00  0.00    -0.097 C  
HETATM   37  C   UNL     1     -10.283   3.769  67.322  1.00  0.00     0.641 A  
HETATM   38  C   UNL     1      -9.447   9.317  69.003  1.00  0.00    -0.155 C  
HETATM   39  C   UNL     1      -8.041  10.208  66.850  1.00  0.00    -0.121 C  
HETATM   40  C   UNL     1      -9.071  10.999  67.388  1.00  0.00    -0.143 C  
ENDROOT
BRANCH  16  41
HETATM   41  O   UNL     1      -6.433   5.857  74.504  1.00  0.00    -0.073 OA 
HETATM   42  C   UNL     1      -5.139   5.686  73.912  1.00  0.00    -0.023 C  
ENDBRANCH  16  41
BRANCH  18  43
HETATM   43  O   UNL     1      -7.868   7.689  72.778  1.00  0.00    -0.091 OA 
HETATM   44  C   UNL     1      -7.202   8.027  71.554  1.00  0.00    -0.071 C  
ENDBRANCH  18  43
BRANCH  30  45
HETATM   45  O   UNL     1     -10.754   6.318  64.780  1.00  0.00     3.667 OA 
HETATM   46  C   UNL     1      -9.686   5.959  63.901  1.00  0.00     2.146 C  
ENDBRANCH  30  45
BRANCH  36  47
HETATM   47  O   UNL     1      -6.653   8.723  68.173  1.00  0.00    -0.059 OA 
HETATM   48  C   UNL     1      -5.726   7.752  67.700  1.00  0.00    -0.037 C  
ENDBRANCH  36  47
TORSDOF 4
ENDMDL
MODEL       52
REMARK 921   NORMALIZED FREE ENERGY PREDICTED BY IDOCK:   26.30 KCAL/MOL
REMARK 922        TOTAL FREE ENERGY PREDICTED BY IDOCK:   31.56 KCAL/MOL
REMARK 923 INTER-LIGAND FREE ENERGY PREDICTED BY IDOCK:   31.28 KCAL/MOL
REMARK 924 INTRA-LIGAND FREE ENERGY PREDICTED BY IDOCK:    0.28 KCAL/MOL
REMARK 927      BINDING AFFINITY PREDICTED BY RF-SCORE:    0.00 PKD
ROOT
HETATM    1  C   UNL     1     -12.151   6.950  69.498  1.00  0.00     0.561 C  
HETATM    2  C   UNL     1     -12.987   8.082  68.778  1.00  0.00     7.797 C  
HETATM    3  C   UNL     1     -12.643   9.517  69.036  1.00  0.00     2.775 A  
HETATM    4  C   UNL     1     -12.239   9.954  70.287  1.00  0.00    -0.118 A  
HETATM    5  C   UNL     1     -11.224  10.897  70.351  1.00  0.00    -0.191 A  
HETATM    6  C   UNL     1     -10.793  11.522  69.179  1.00  0.00    -0.195 A  
HETATM    7  C   UNL     1     -11.635  11.478  68.093  1.00  0.00    -0.378 A  
HETATM    8  O   UNL     1      -9.513  12.002  69.234  1.00  0.00     0.343 OA 
HETATM    9  C   UNL     1      -8.754  12.466  68.182  1.00  0.00    -0.190 A  
HETATM   10  C   UNL     1     -12.507  10.407  67.970  1.00  0.00     2.869 A  
HETATM   11  C   UNL     1      -7.692  13.299  68.637  1.00  0.00    -0.080 A  
HETATM   12  C   UNL     1      -6.962  14.046  67.714  1.00  0.00    -0.188 A  
HETATM   13  C   UNL     1      -7.212  13.911  66.376  1.00  0.00     2.579 A  
HETATM   14  C   UNL     1      -6.002  15.126  68.130  1.00  0.00    -0.142 C  
HETATM   15  C   UNL     1      -5.471  14.996  69.533  1.00  0.00    -0.093 C  
HETATM   16  C   UNL     1      -8.187  13.019  65.897  1.00  0.00     1.715 A  
HETATM   17  C   UNL     1     -10.629   6.953  69.648  1.00  0.00    -0.258 C  
HETATM   18  C   UNL     1      -8.896  12.207  66.792  1.00  0.00    -0.198 A  
HETATM   19  N   UNL     1      -6.497  14.515  70.563  1.00  0.00    -0.133 N  
HETATM   20  C   UNL     1     -12.426   7.061  72.068  1.00  0.00    -0.244 C  
HETATM   21  C   UNL     1      -5.734  14.415  71.883  1.00  0.00    -0.052 C  
HETATM   22  C   UNL     1     -10.756   4.725  70.781  1.00  0.00     0.187 C  
HETATM   23  C   UNL     1      -7.159  13.181  70.076  1.00  0.00     0.822 C  
HETATM   24  C   UNL     1      -7.656  15.490  70.801  1.00  0.00     1.786 C  
HETATM   25  C   UNL     1     -14.328   6.277  70.721  1.00  0.00     2.971 C  
HETATM   26  C   UNL     1      -6.169  11.996  70.042  1.00  0.00    -0.110 C  
HETATM   27  C   UNL     1      -6.254  11.007  71.165  1.00  0.00     0.591 A  
HETATM   28  C   UNL     1      -7.327  10.102  71.133  1.00  0.00     1.058 A  
HETATM   29  C   UNL     1      -7.182   8.834  71.647  1.00  0.00    -0.071 A  
HETATM   30  C   UNL     1      -6.146   8.661  72.590  1.00  0.00    -0.077 A  
HETATM   31  O   UNL     1      -8.030   7.814  71.227  1.00  0.00    -0.090 OA 
HETATM   32  N   UNL     1     -12.805   6.328  70.786  1.00  0.00     0.737 N  
HETATM   33  C   UNL     1      -8.371   7.815  69.786  1.00  0.00    -0.131 C  
HETATM   34  C   UNL     1      -5.143   9.622  72.759  1.00  0.00    -0.054 A  
HETATM   35  C   UNL     1     -12.287   4.862  70.854  1.00  0.00     5.660 C  
HETATM   36  C   UNL     1      -7.961   6.638  69.144  1.00  0.00    -0.112 C  
HETATM   37  C   UNL     1      -5.166  10.782  71.990  1.00  0.00     0.159 A  
HETATM   38  C   UNL     1      -9.727   8.026  69.559  1.00  0.00    -0.170 C  
HETATM   39  C   UNL     1      -8.706   5.505  69.472  1.00  0.00    -0.105 C  
HETATM   40  C   UNL     1     -10.029   5.708  69.901  1.00  0.00    -0.268 C  
ENDROOT
BRANCH  16  41
HETATM   41  O   UNL     1      -8.411  12.970  64.545  1.00  0.00     3.020 OA 
HETATM   42  C   UNL     1      -9.670  12.372  64.210  1.00  0.00     0.018 C  
ENDBRANCH  16  41
BRANCH  18  43
HETATM   43  O   UNL     1      -9.606  11.101  66.409  1.00  0.00    -0.190 OA 
HETATM   44  C   UNL     1      -8.905   9.856  66.297  1.00  0.00    -0.143 C  
ENDBRANCH  18  43
BRANCH  30  45
HETATM   45  O   UNL     1      -6.058   7.562  73.413  1.00  0.00    -0.058 OA 
HETATM   46  C   UNL     1      -7.098   7.639  74.390  1.00  0.00    -0.117 C  
ENDBRANCH  30  45
BRANCH  36  47
HETATM   47  O   UNL     1      -7.598   6.891  67.819  1.00  0.00    -0.102 OA 
HETATM   48  C   UNL     1      -8.311   6.245  66.770  1.00  0.00    -0.110 C  
ENDBRANCH  36  47
TORSDOF 4
ENDMDL
MODEL       53
REMARK 921   NORMALIZED FREE ENERGY PREDICTED BY IDOCK:   27.85 KCAL/MOL
REMARK 922        TOTAL FREE ENERGY PREDICTED BY IDOCK:   33.47 KCAL/MOL
REMARK 923 INTER-LIGAND FREE ENERGY PREDICTED BY IDOCK:   34.27 KCAL/MOL
REMARK 924 INTRA-LIGAND FREE ENERGY PREDICTED BY IDOCK:   -0.80 KCAL/MOL
REMARK 927      BINDING AFFINITY PREDICTED BY RF-SCORE:    0.00 PKD
ROOT
HETATM    1  C   UNL     1     -10.154   6.340  67.258  1.00  0.00    -0.163 C  
HETATM    2  C   UNL     1     -11.472   7.040  66.736  1.00  0.00     0.928 C  
HETATM    3  C   UNL     1     -11.909   8.328  67.361  1.00  0.00     3.492 A  
HETATM    4  C   UNL     1     -11.756   8.568  68.717  1.00  0.00     1.550 A  
HETATM    5  C   UNL     1     -11.370   9.839  69.114  1.00  0.00    -0.031 A  
HETATM    6  C   UNL     1     -11.352  10.875  68.178  1.00  0.00    -0.315 A  
HETATM    7  C   UNL     1     -12.079  10.696  67.025  1.00  0.00     2.261 A  
HETATM    8  O   UNL     1     -10.501  11.901  68.488  1.00  0.00    -0.213 OA 
HETATM    9  C   UNL     1     -10.117  12.938  67.667  1.00  0.00    -0.221 A  
HETATM   10  C   UNL     1     -12.278   9.407  66.557  1.00  0.00     7.790 A  
HETATM   11  C   UNL     1      -9.624  14.040  68.422  1.00  0.00    -0.222 A  
HETATM   12  C   UNL     1      -9.407  15.263  67.788  1.00  0.00    -0.196 A  
HETATM   13  C   UNL     1      -9.586  15.373  66.436  1.00  0.00    -0.319 A  
HETATM   14  C   UNL     1      -9.129  16.529  68.551  1.00  0.00    -0.231 C  
HETATM   15  C   UNL     1      -8.572  16.325  69.935  1.00  0.00     0.797 C  
HETATM   16  C   UNL     1      -9.975  14.272  65.654  1.00  0.00    -0.320 A  
HETATM   17  C   UNL     1      -8.847   7.069  67.575  1.00  0.00    -0.119 C  
HETATM   18  C   UNL     1     -10.141  13.013  66.248  1.00  0.00    -0.282 A  
HETATM   19  N   UNL     1      -9.176  15.144  70.701  1.00  0.00     1.090 N  
HETATM   20  C   UNL     1     -10.380   5.626  69.735  1.00  0.00    -0.282 C  
HETATM   21  C   UNL     1      -8.437  15.104  72.038  1.00  0.00     6.123 C  
HETATM   22  C   UNL     1      -7.781   4.875  68.131  1.00  0.00    -0.082 C  
HETATM   23  C   UNL     1      -9.069  13.839  69.842  1.00  0.00     2.000 C  
HETATM   24  C   UNL     1     -10.665  15.303  71.030  1.00  0.00    -0.007 C  
HETATM   25  C   UNL     1     -11.641   4.373  68.037  1.00  0.00     6.888 C  
HETATM   26  C   UNL     1      -7.612  13.368  69.642  1.00  0.00     0.759 C  
HETATM   27  C   UNL     1      -7.147  12.219  70.484  1.00  0.00     2.256 A  
HETATM   28  C   UNL     1      -7.601  10.942  70.120  1.00  0.00     0.667 A  
HETATM   29  C   UNL     1      -6.810   9.835  70.334  1.00  0.00    -0.135 A  
HETATM   30  C   UNL     1      -5.809   9.970  71.320  1.00  0.00    -0.005 A  
HETATM   31  O   UNL     1      -7.023   8.677  69.594  1.00  0.00    -0.049 OA 
HETATM   32  N   UNL     1     -10.361   5.164  68.282  1.00  0.00    -0.114 N  
HETATM   33  C   UNL     1      -7.352   8.880  68.165  1.00  0.00    -0.084 C  
HETATM   34  C   UNL     1      -5.440  11.222  71.821  1.00  0.00     0.343 A  
HETATM   35  C   UNL     1      -9.161   4.198  68.061  1.00  0.00    -0.147 C  
HETATM   36  C   UNL     1      -6.412   8.283  67.313  1.00  0.00    -0.058 C  
HETATM   37  C   UNL     1      -6.077  12.367  71.350  1.00  0.00     1.253 A  
HETATM   38  C   UNL     1      -8.629   8.430  67.842  1.00  0.00    -0.131 C  
HETATM   39  C   UNL     1      -6.459   6.889  67.281  1.00  0.00    -0.049 C  
HETATM   40  C   UNL     1      -7.686   6.279  67.594  1.00  0.00    -0.098 C  
ENDROOT
BRANCH  16  41
HETATM   41  O   UNL     1     -10.177  14.469  64.312  1.00  0.00     0.046 OA 
HETATM   42  C   UNL     1     -11.399  15.160  64.028  1.00  0.00     0.311 C  
ENDBRANCH  16  41
BRANCH  18  43
HETATM   43  O   UNL     1     -10.190  11.844  65.538  1.00  0.00    -0.237 OA 
HETATM   44  C   UNL     1      -8.968  11.342  64.980  1.00  0.00     0.068 C  
ENDBRANCH  18  43
BRANCH  30  45
HETATM   45  O   UNL     1      -5.147   8.895  71.866  1.00  0.00    -0.035 OA 
HETATM   46  C   UNL     1      -5.429   8.846  73.266  1.00  0.00    -0.092 C  
ENDBRANCH  30  45
BRANCH  36  47
HETATM   47  O   UNL     1      -6.265   9.017  66.135  1.00  0.00    -0.061 OA 
HETATM   48  C   UNL     1      -5.346  10.104  66.106  1.00  0.00    -0.052 C  
ENDBRANCH  36  47
TORSDOF 4
ENDMDL
MODEL       54
REMARK 921   NORMALIZED FREE ENERGY PREDICTED BY IDOCK:   27.88 KCAL/MOL
REMARK 922        TOTAL FREE ENERGY PREDICTED BY IDOCK:   33.51 KCAL/MOL
REMARK 923 INTER-LIGAND FREE ENERGY PREDICTED BY IDOCK:   32.72 KCAL/MOL
REMARK 924 INTRA-LIGAND FREE ENERGY PREDICTED BY IDOCK:    0.79 KCAL/MOL
REMARK 927      BINDING AFFINITY PREDICTED BY RF-SCORE:    0.00 PKD
ROOT
HETATM    1  C   UNL     1     -10.682  15.946  71.804  1.00  0.00     0.892 C  
HETATM    2  C   UNL     1     -10.942  14.444  72.223  1.00  0.00     2.060 C  
HETATM    3  C   UNL     1     -11.586  13.515  71.240  1.00  0.00     1.002 A  
HETATM    4  C   UNL     1     -12.586  13.943  70.383  1.00  0.00    -0.350 A  
HETATM    5  C   UNL     1     -12.577  13.463  69.082  1.00  0.00     0.409 A  
HETATM    6  C   UNL     1     -11.708  12.425  68.739  1.00  0.00    -0.332 A  
HETATM    7  C   UNL     1     -11.194  11.667  69.764  1.00  0.00    -0.203 A  
HETATM    8  O   UNL     1     -11.386  12.376  67.409  1.00  0.00    -0.280 OA 
HETATM    9  C   UNL     1     -10.402  11.611  66.822  1.00  0.00    -0.222 A  
HETATM   10  C   UNL     1     -11.041  12.251  71.011  1.00  0.00     2.891 A  
HETATM   11  C   UNL     1     -10.640  11.445  65.427  1.00  0.00    -0.333 A  
HETATM   12  C   UNL     1      -9.888  10.516  64.710  1.00  0.00    -0.387 A  
HETATM   13  C   UNL     1      -8.875   9.834  65.326  1.00  0.00    -0.206 A  
HETATM   14  C   UNL     1     -10.241  10.105  63.306  1.00  0.00     0.676 C  
HETATM   15  C   UNL     1     -11.074  11.102  62.545  1.00  0.00     1.398 C  
HETATM   16  C   UNL     1      -8.556  10.055  66.677  1.00  0.00    -0.125 A  
HETATM   17  C   UNL     1     -10.133  16.390  70.448  1.00  0.00     0.768 C  
HETATM   18  C   UNL     1      -9.249  11.027  67.411  1.00  0.00    -0.151 A  
HETATM   19  N   UNL     1     -12.150  11.805  63.377  1.00  0.00    -0.441 N  
HETATM   20  C   UNL     1     -12.900  17.194  71.337  1.00  0.00     5.997 C  
HETATM   21  C   UNL     1     -12.826  12.788  62.422  1.00  0.00     2.685 C  
HETATM   22  C   UNL     1     -10.178  18.767  71.230  1.00  0.00     3.108 C  
HETATM   23  C   UNL     1     -11.504  12.452  64.649  1.00  0.00    -0.331 C  
HETATM   24  C   UNL     1     -13.252  10.875  63.898  1.00  0.00     3.700 C  
HETATM   25  C   UNL     1     -12.341  16.633  73.665  1.00  0.00    -0.291 C  
HETATM   26  C   UNL     1     -10.555  13.622  64.313  1.00  0.00    -0.245 C  
HETATM   27  C   UNL     1     -11.082  15.009  64.526  1.00  0.00    -0.248 A  
HETATM   28  C   UNL     1     -11.157  15.461  65.853  1.00  0.00    -0.247 A  
HETATM   29  C   UNL     1     -10.982  16.796  66.143  1.00  0.00     0.132 A  
HETATM   30  C   UNL     1     -11.207  17.696  65.080  1.00  0.00     0.810 A  
HETATM   31  O   UNL     1     -10.602  17.182  67.424  1.00  0.00    -0.337 OA 
HETATM   32  N   UNL     1     -11.744  16.992  72.309  1.00  0.00     0.236 N  
HETATM   33  C   UNL     1      -9.602  16.314  68.087  1.00  0.00    -0.219 C  
HETATM   34  C   UNL     1     -11.294  17.257  63.755  1.00  0.00     4.188 A  
HETATM   35  C   UNL     1     -10.967  18.331  72.477  1.00  0.00     3.087 C  
HETATM   36  C   UNL     1      -8.425  17.006  68.404  1.00  0.00    -0.239 C  
HETATM   37  C   UNL     1     -11.168  15.900  63.471  1.00  0.00     2.254 A  
HETATM   38  C   UNL     1     -10.105  15.696  69.228  1.00  0.00    -0.258 C  
HETATM   39  C   UNL     1      -8.550  17.917  69.454  1.00  0.00     0.476 C  
HETATM   40  C   UNL     1      -9.559  17.671  70.401  1.00  0.00     2.599 C  
ENDROOT
BRANCH  16  41
HETATM   41  O   UNL     1      -7.556   9.304  67.238  1.00  0.00    -0.091 OA 
HETATM   42  C   UNL     1      -7.561   7.943  66.786  1.00  0.00    -0.098 C  
ENDBRANCH  16  41
BRANCH  18  43
HETATM   43  O   UNL     1      -8.802  11.535  68.601  1.00  0.00    -0.163 OA 
HETATM   44  C   UNL     1      -7.423  11.339  68.942  1.00  0.00    -0.123 C  
ENDBRANCH  18  43
BRANCH  30  45
HETATM   45  O   UNL     1     -11.374  19.049  65.268  1.00  0.00     0.059 OA 
HETATM   46  C   UNL     1     -10.355  19.517  66.154  1.00  0.00    -0.520 C  
ENDBRANCH  30  45
BRANCH  36  47
HETATM   47  O   UNL     1      -7.312  16.167  68.320  1.00  0.00    -0.133 OA 
HETATM   48  C   UNL     1      -6.071  16.705  67.876  1.00  0.00    -0.128 C  
ENDBRANCH  36  47
TORSDOF 4
ENDMDL
MODEL       55
REMARK 921   NORMALIZED FREE ENERGY PREDICTED BY IDOCK:   28.44 KCAL/MOL
REMARK 922        TOTAL FREE ENERGY PREDICTED BY IDOCK:   34.19 KCAL/MOL
REMARK 923 INTER-LIGAND FREE ENERGY PREDICTED BY IDOCK:   31.78 KCAL/MOL
REMARK 924 INTRA-LIGAND FREE ENERGY PREDICTED BY IDOCK:    2.42 KCAL/MOL
REMARK 927      BINDING AFFINITY PREDICTED BY RF-SCORE:    0.00 PKD
ROOT
HETATM    1  C   UNL     1      -8.201   8.238  66.871  1.00  0.00    -0.103 C  
HETATM    2  C   UNL     1      -8.095   9.014  65.498  1.00  0.00    -0.110 C  
HETATM    3  C   UNL     1      -8.952  10.222  65.276  1.00  0.00    -0.214 A  
HETATM    4  C   UNL     1     -10.250  10.292  65.756  1.00  0.00    -0.289 A  
HETATM    5  C   UNL     1     -10.687  11.499  66.278  1.00  0.00    -0.321 A  
HETATM    6  C   UNL     1      -9.901  12.642  66.118  1.00  0.00    -0.259 A  
HETATM    7  C   UNL     1      -8.943  12.616  65.132  1.00  0.00     0.995 A  
HETATM    8  O   UNL     1     -10.114  13.610  67.061  1.00  0.00    -0.242 OA 
HETATM    9  C   UNL     1      -9.350  14.735  67.283  1.00  0.00    -0.206 A  
HETATM   10  C   UNL     1      -8.390  11.396  64.773  1.00  0.00     0.621 A  
HETATM   11  C   UNL     1     -10.086  15.730  67.987  1.00  0.00    -0.228 A  
HETATM   12  C   UNL     1      -9.565  17.018  68.100  1.00  0.00    -0.266 A  
HETATM   13  C   UNL     1      -8.318  17.295  67.610  1.00  0.00    -0.209 A  
HETATM   14  C   UNL     1     -10.380  18.177  68.604  1.00  0.00    -0.315 C  
HETATM   15  C   UNL     1     -11.557  17.797  69.464  1.00  0.00     2.973 C  
HETATM   16  C   UNL     1      -7.530  16.303  67.001  1.00  0.00    -0.222 A  
HETATM   17  C   UNL     1      -8.277   8.905  68.245  1.00  0.00    -0.121 C  
HETATM   18  C   UNL     1      -7.997  14.984  66.927  1.00  0.00    -0.074 A  
HETATM   19  N   UNL     1     -12.303  16.540  69.009  1.00  0.00     0.795 N  
HETATM   20  C   UNL     1     -10.560   7.229  67.208  1.00  0.00    -0.325 C  
HETATM   21  C   UNL     1     -13.410  16.327  70.041  1.00  0.00     2.770 C  
HETATM   22  C   UNL     1      -8.302   6.645  69.319  1.00  0.00    -0.124 C  
HETATM   23  C   UNL     1     -11.299  15.348  68.854  1.00  0.00    -0.314 C  
HETATM   24  C   UNL     1     -12.997  16.678  67.648  1.00  0.00     4.485 C  
HETATM   25  C   UNL     1      -9.081   6.211  65.528  1.00  0.00     0.075 C  
HETATM   26  C   UNL     1     -10.702  14.886  70.201  1.00  0.00    -0.116 C  
HETATM   27  C   UNL     1     -11.269  13.636  70.803  1.00  0.00     0.940 A  
HETATM   28  C   UNL     1     -10.878  12.420  70.221  1.00  0.00     1.398 A  
HETATM   29  C   UNL     1     -10.767  11.285  70.993  1.00  0.00     2.716 A  
HETATM   30  C   UNL     1     -11.492  11.284  72.204  1.00  0.00     4.235 A  
HETATM   31  O   UNL     1      -9.971  10.229  70.562  1.00  0.00     0.035 OA 
HETATM   32  N   UNL     1      -9.102   6.949  66.862  1.00  0.00    -0.133 N  
HETATM   33  C   UNL     1      -8.696  10.610  69.912  1.00  0.00     0.475 C  
HETATM   34  C   UNL     1     -12.032  12.461  72.734  1.00  0.00     4.722 A  
HETATM   35  C   UNL     1      -8.489   6.001  67.934  1.00  0.00    -0.115 C  
HETATM   36  C   UNL     1      -7.580  10.109  70.598  1.00  0.00     0.464 C  
HETATM   37  C   UNL     1     -11.863  13.662  72.052  1.00  0.00     1.145 A  
HETATM   38  C   UNL     1      -8.640  10.220  68.578  1.00  0.00    -0.126 C  
HETATM   39  C   UNL     1      -7.399   8.730  70.486  1.00  0.00    -0.066 C  
HETATM   40  C   UNL     1      -7.925   8.103  69.343  1.00  0.00    -0.114 C  
ENDROOT
BRANCH  16  41
HETATM   41  O   UNL     1      -6.308  16.666  66.496  1.00  0.00    -0.273 OA 
HETATM   42  C   UNL     1      -5.677  15.615  65.754  1.00  0.00     5.655 C  
ENDBRANCH  16  41
BRANCH  18  43
HETATM   43  O   UNL     1      -7.189  13.911  66.661  1.00  0.00     0.594 OA 
HETATM   44  C   UNL     1      -7.162  12.837  67.611  1.00  0.00    -0.141 C  
ENDBRANCH  18  43
BRANCH  30  45
HETATM   45  O   UNL     1     -11.735  10.141  72.930  1.00  0.00     2.420 OA 
HETATM   46  C   UNL     1     -11.921   9.053  72.023  1.00  0.00    -0.363 C  
ENDBRANCH  30  45
BRANCH  36  47
HETATM   47  O   UNL     1      -6.495  10.980  70.493  1.00  0.00    -0.309 OA 
HETATM   48  C   UNL     1      -5.247  10.480  70.023  1.00  0.00    -0.040 C  
ENDBRANCH  36  47
TORSDOF 4
ENDMDL
MODEL       56
REMARK 921   NORMALIZED FREE ENERGY PREDICTED BY IDOCK:   29.48 KCAL/MOL
REMARK 922        TOTAL FREE ENERGY PREDICTED BY IDOCK:   35.49 KCAL/MOL
REMARK 923 INTER-LIGAND FREE ENERGY PREDICTED BY IDOCK:   35.84 KCAL/MOL
REMARK 924 INTRA-LIGAND FREE ENERGY PREDICTED BY IDOCK:   -0.36 KCAL/MOL
REMARK 927      BINDING AFFINITY PREDICTED BY RF-SCORE:    0.00 PKD
ROOT
HETATM    1  C   UNL     1      -7.688  17.698  70.040  1.00  0.00     1.695 C  
HETATM    2  C   UNL     1      -8.342  18.492  68.840  1.00  0.00    -0.195 C  
HETATM    3  C   UNL     1      -8.329  17.885  67.472  1.00  0.00    -0.228 A  
HETATM    4  C   UNL     1      -7.249  17.149  67.013  1.00  0.00    -0.219 A  
HETATM    5  C   UNL     1      -7.508  16.015  66.258  1.00  0.00     0.419 A  
HETATM    6  C   UNL     1      -8.809  15.769  65.813  1.00  0.00     0.121 A  
HETATM    7  C   UNL     1      -9.682  16.830  65.796  1.00  0.00    -0.161 A  
HETATM    8  O   UNL     1      -9.078  14.451  65.559  1.00  0.00     0.287 OA 
HETATM    9  C   UNL     1     -10.311  13.887  65.318  1.00  0.00    -0.378 A  
HETATM   10  C   UNL     1      -9.495  17.860  66.706  1.00  0.00    -0.289 A  
HETATM   11  C   UNL     1     -10.187  12.636  64.649  1.00  0.00    -0.319 A  
HETATM   12  C   UNL     1     -11.323  12.028  64.116  1.00  0.00    -0.455 A  
HETATM   13  C   UNL     1     -12.554  12.591  64.311  1.00  0.00    -0.485 A  
HETATM   14  C   UNL     1     -11.245  10.846  63.189  1.00  0.00     0.769 C  
HETATM   15  C   UNL     1      -9.977  10.040  63.297  1.00  0.00     0.525 C  
HETATM   16  C   UNL     1     -12.713  13.772  65.055  1.00  0.00    -0.336 A  
HETATM   17  C   UNL     1      -7.860  16.199  70.289  1.00  0.00     1.498 C  
HETATM   18  C   UNL     1     -11.601  14.376  65.658  1.00  0.00    -0.347 A  
HETATM   19  N   UNL     1      -8.708  10.868  63.510  1.00  0.00    -0.099 N  
HETATM   20  C   UNL     1      -5.147  17.366  69.680  1.00  0.00    -0.169 C  
HETATM   21  C   UNL     1      -7.573   9.851  63.635  1.00  0.00    -0.134 C  
HETATM   22  C   UNL     1      -6.476  16.405  72.364  1.00  0.00     4.477 C  
HETATM   23  C   UNL     1      -8.889  11.817  64.743  1.00  0.00     0.573 C  
HETATM   24  C   UNL     1      -8.346  11.782  62.333  1.00  0.00     0.917 C  
HETATM   25  C   UNL     1      -5.967  19.619  70.226  1.00  0.00    -0.275 C  
HETATM   26  C   UNL     1      -8.991  11.052  66.081  1.00  0.00    -0.203 C  
HETATM   27  C   UNL     1      -7.769  11.031  66.948  1.00  0.00    -0.140 A  
HETATM   28  C   UNL     1      -7.472  12.209  67.652  1.00  0.00    -0.129 A  
HETATM   29  C   UNL     1      -6.856  12.145  68.882  1.00  0.00    -0.100 A  
HETATM   30  C   UNL     1      -6.138  10.962  69.157  1.00  0.00    -0.044 A  
HETATM   31  O   UNL     1      -6.969  13.211  69.769  1.00  0.00     0.141 OA 
HETATM   32  N   UNL     1      -6.228  18.132  70.435  1.00  0.00     0.131 N  
HETATM   33  C   UNL     1      -8.297  13.863  69.824  1.00  0.00     1.256 C  
HETATM   34  C   UNL     1      -6.294   9.813  68.374  1.00  0.00    -0.054 A  
HETATM   35  C   UNL     1      -6.101  17.841  71.958  1.00  0.00     2.322 C  
HETATM   36  C   UNL     1      -8.871  13.793  71.101  1.00  0.00     7.539 C  
HETATM   37  C   UNL     1      -7.169   9.833  67.292  1.00  0.00    -0.086 A  
HETATM   38  C   UNL     1      -8.259  15.188  69.400  1.00  0.00    -0.197 C  
HETATM   39  C   UNL     1      -8.265  14.607  72.058  1.00  0.00     5.773 C  
HETATM   40  C   UNL     1      -7.596  15.754  71.595  1.00  0.00     5.108 C  
ENDROOT
BRANCH  16  41
HETATM   41  O   UNL     1     -13.973  14.300  65.172  1.00  0.00     0.546 OA 
HETATM   42  C   UNL     1     -14.028  15.693  64.837  1.00  0.00     3.590 C  
ENDBRANCH  16  41
BRANCH  18  43
HETATM   43  O   UNL     1     -11.698  15.314  66.651  1.00  0.00    -0.140 OA 
HETATM   44  C   UNL     1     -11.703  14.858  68.011  1.00  0.00    -0.320 C  
ENDBRANCH  18  43
BRANCH  30  45
HETATM   45  O   UNL     1      -5.230  10.860  70.185  1.00  0.00    -0.046 OA 
HETATM   46  C   UNL     1      -5.359   9.568  70.783  1.00  0.00    -0.045 C  
ENDBRANCH  30  45
BRANCH  36  47
HETATM   47  O   UNL     1     -10.262  13.703  71.021  1.00  0.00     3.551 OA 
HETATM   48  C   UNL     1     -11.054  14.804  71.454  1.00  0.00     0.197 C  
ENDBRANCH  36  47
TORSDOF 4
ENDMDL
MODEL       57
REMARK 921   NORMALIZED FREE ENERGY PREDICTED BY IDOCK:   30.37 KCAL/MOL
REMARK 922        TOTAL FREE ENERGY PREDICTED BY IDOCK:   36.58 KCAL/MOL
REMARK 923 INTER-LIGAND FREE ENERGY PREDICTED BY IDOCK:   37.07 KCAL/MOL
REMARK 924 INTRA-LIGAND FREE ENERGY PREDICTED BY IDOCK:   -0.49 KCAL/MOL
REMARK 927      BINDING AFFINITY PREDICTED BY RF-SCORE:    0.00 PKD
ROOT
HETATM    1  C   UNL     1      -7.549   6.496  72.036  1.00  0.00    -0.093 C  
HETATM    2  C   UNL     1      -6.931   7.898  72.427  1.00  0.00    -0.080 C  
HETATM    3  C   UNL     1      -6.917   8.996  71.410  1.00  0.00    -0.073 A  
HETATM    4  C   UNL     1      -6.689   8.741  70.067  1.00  0.00    -0.039 A  
HETATM    5  C   UNL     1      -7.430   9.452  69.135  1.00  0.00    -0.073 A  
HETATM    6  C   UNL     1      -8.213  10.528  69.556  1.00  0.00    -0.079 A  
HETATM    7  C   UNL     1      -7.920  11.081  70.781  1.00  0.00     3.383 A  
HETATM    8  O   UNL     1      -9.265  10.818  68.730  1.00  0.00    -0.175 OA 
HETATM    9  C   UNL     1     -10.315  11.670  68.991  1.00  0.00    -0.092 A  
HETATM   10  C   UNL     1      -7.351  10.276  71.755  1.00  0.00     2.752 A  
HETATM   11  C   UNL     1     -10.951  12.091  67.788  1.00  0.00    -0.279 A  
HETATM   12  C   UNL     1     -11.879  13.130  67.830  1.00  0.00    -0.390 A  
HETATM   13  C   UNL     1     -12.236  13.679  69.032  1.00  0.00    -0.245 A  
HETATM   14  C   UNL     1     -12.404  13.794  66.587  1.00  0.00    -0.403 C  
HETATM   15  C   UNL     1     -12.310  12.961  65.336  1.00  0.00    -0.485 C  
HETATM   16  C   UNL     1     -11.697  13.210  70.242  1.00  0.00    -0.127 A  
HETATM   17  C   UNL     1      -8.848   6.304  71.253  1.00  0.00    -0.139 C  
HETATM   18  C   UNL     1     -10.809  12.126  70.242  1.00  0.00     1.368 A  
HETATM   19  N   UNL     1     -11.033  12.125  65.218  1.00  0.00    -0.296 N  
HETATM   20  C   UNL     1      -6.209   5.373  70.128  1.00  0.00    -0.023 C  
HETATM   21  C   UNL     1     -11.178  11.340  63.915  1.00  0.00    -0.156 C  
HETATM   22  C   UNL     1      -8.593   3.824  71.476  1.00  0.00    -0.112 C  
HETATM   23  C   UNL     1     -10.844  11.251  66.503  1.00  0.00    -0.265 C  
HETATM   24  C   UNL     1      -9.749  12.953  65.087  1.00  0.00     0.041 C  
HETATM   25  C   UNL     1      -5.187   5.492  72.361  1.00  0.00    -0.017 C  
HETATM   26  C   UNL     1     -11.922  10.155  66.648  1.00  0.00     3.421 C  
HETATM   27  C   UNL     1     -11.524   8.756  66.283  1.00  0.00     3.647 A  
HETATM   28  C   UNL     1     -10.712   8.069  67.199  1.00  0.00    -0.285 A  
HETATM   29  C   UNL     1     -10.817   6.703  67.331  1.00  0.00    -0.363 A  
HETATM   30  C   UNL     1     -11.376   6.014  66.234  1.00  0.00     0.846 A  
HETATM   31  O   UNL     1     -10.386   6.085  68.500  1.00  0.00    -0.166 OA 
HETATM   32  N   UNL     1      -6.516   5.384  71.621  1.00  0.00    -0.038 N  
HETATM   33  C   UNL     1     -10.684   6.808  69.757  1.00  0.00    -0.249 C  
HETATM   34  C   UNL     1     -12.060   6.690  65.217  1.00  0.00     8.364 A  
HETATM   35  C   UNL     1      -7.171   4.031  72.025  1.00  0.00    -0.055 C  
HETATM   36  C   UNL     1     -11.496   6.060  70.620  1.00  0.00    -0.158 C  
HETATM   37  C   UNL     1     -12.186   8.075  65.278  1.00  0.00    14.748 A  
HETATM   38  C   UNL     1      -9.532   7.211  70.427  1.00  0.00    -0.162 C  
HETATM   39  C   UNL     1     -10.861   4.973  71.222  1.00  0.00     0.011 C  
HETATM   40  C   UNL     1      -9.466   5.049  71.376  1.00  0.00    -0.206 C  
ENDROOT
BRANCH  16  41
HETATM   41  O   UNL     1     -12.070  13.838  71.403  1.00  0.00    -0.250 OA 
HETATM   42  C   UNL     1     -13.331  13.380  71.905  1.00  0.00    -0.451 C  
ENDBRANCH  16  41
BRANCH  18  43
HETATM   43  O   UNL     1     -10.499  11.404  71.363  1.00  0.00     3.860 OA 
HETATM   44  C   UNL     1     -11.251  10.212  71.626  1.00  0.00     0.482 C  
ENDBRANCH  18  43
BRANCH  30  45
HETATM   45  O   UNL     1     -11.274   4.652  66.074  1.00  0.00     0.217 OA 
HETATM   46  C   UNL     1      -9.911   4.269  66.265  1.00  0.00    -0.220 C  
ENDBRANCH  30  45
BRANCH  36  47
HETATM   47  O   UNL     1     -12.338   6.891  71.362  1.00  0.00    -0.348 OA 
HETATM   48  C   UNL     1     -12.301   6.824  72.784  1.00  0.00     0.521 C  
ENDBRANCH  36  47
TORSDOF 4
ENDMDL
MODEL       58
REMARK 921   NORMALIZED FREE ENERGY PREDICTED BY IDOCK:   30.89 KCAL/MOL
REMARK 922        TOTAL FREE ENERGY PREDICTED BY IDOCK:   37.23 KCAL/MOL
REMARK 923 INTER-LIGAND FREE ENERGY PREDICTED BY IDOCK:   36.08 KCAL/MOL
REMARK 924 INTRA-LIGAND FREE ENERGY PREDICTED BY IDOCK:    1.14 KCAL/MOL
REMARK 927      BINDING AFFINITY PREDICTED BY RF-SCORE:    0.00 PKD
ROOT
HETATM    1  C   UNL     1     -10.315   8.598  65.448  1.00  0.00     1.980 C  
HETATM    2  C   UNL     1     -11.332   9.766  65.131  1.00  0.00     3.732 C  
HETATM    3  C   UNL     1     -11.499  10.875  66.123  1.00  0.00     0.504 A  
HETATM    4  C   UNL     1     -11.464  10.641  67.488  1.00  0.00    -0.097 A  
HETATM    5  C   UNL     1     -10.819  11.569  68.292  1.00  0.00    -0.257 A  
HETATM    6  C   UNL     1     -10.416  12.789  67.744  1.00  0.00    -0.223 A  
HETATM    7  C   UNL     1     -11.011  13.180  66.568  1.00  0.00    -0.303 A  
HETATM    8  O   UNL     1      -9.377  13.387  68.404  1.00  0.00    -0.206 OA 
HETATM    9  C   UNL     1      -8.638  14.469  67.980  1.00  0.00    -0.162 A  
HETATM   10  C   UNL     1     -11.473  12.204  65.699  1.00  0.00    -0.408 A  
HETATM   11  C   UNL     1      -7.979  15.105  69.070  1.00  0.00    -0.188 A  
HETATM   12  C   UNL     1      -7.376  16.347  68.877  1.00  0.00    -0.214 A  
HETATM   13  C   UNL     1      -7.347  16.906  67.628  1.00  0.00    -0.170 A  
HETATM   14  C   UNL     1      -6.882  17.191  70.020  1.00  0.00     0.604 C  
HETATM   15  C   UNL     1      -6.577  16.429  71.284  1.00  0.00     2.610 C  
HETATM   16  C   UNL     1      -7.902  16.249  66.517  1.00  0.00    -0.263 A  
HETATM   17  C   UNL     1      -8.917   8.794  66.035  1.00  0.00    -0.235 C  
HETATM   18  C   UNL     1      -8.460  14.972  66.663  1.00  0.00    -0.157 A  
HETATM   19  N   UNL     1      -7.557  15.296  71.600  1.00  0.00     3.213 N  
HETATM   20  C   UNL     1     -11.032   7.266  67.548  1.00  0.00    -0.151 C  
HETATM   21  C   UNL     1      -7.031  14.647  72.879  1.00  0.00     3.368 C  
HETATM   22  C   UNL     1      -8.530   6.326  65.889  1.00  0.00    -0.146 C  
HETATM   23  C   UNL     1      -7.681  14.336  70.369  1.00  0.00     1.356 C  
HETATM   24  C   UNL     1      -8.985  15.765  71.905  1.00  0.00     6.741 C  
HETATM   25  C   UNL     1     -12.345   6.996  65.487  1.00  0.00    10.062 C  
HETATM   26  C   UNL     1      -6.380  13.554  70.084  1.00  0.00    -0.015 C  
HETATM   27  C   UNL     1      -6.337  12.122  70.524  1.00  0.00     0.418 A  
HETATM   28  C   UNL     1      -7.054  11.198  69.747  1.00  0.00    -0.008 A  
HETATM   29  C   UNL     1      -6.608   9.902  69.621  1.00  0.00    -0.056 A  
HETATM   30  C   UNL     1      -5.740   9.443  70.635  1.00  0.00    -0.052 A  
HETATM   31  O   UNL     1      -7.014   9.132  68.537  1.00  0.00    -0.066 OA 
HETATM   32  N   UNL     1     -10.947   7.278  66.026  1.00  0.00     1.821 N  
HETATM   33  C   UNL     1      -7.095   9.840  67.239  1.00  0.00    -0.085 C  
HETATM   34  C   UNL     1      -5.129  10.327  71.530  1.00  0.00    -0.083 A  
HETATM   35  C   UNL     1     -10.017   6.124  65.550  1.00  0.00     0.824 C  
HETATM   36  C   UNL     1      -6.239   9.286  66.277  1.00  0.00    -0.064 C  
HETATM   37  C   UNL     1      -5.385  11.691  71.432  1.00  0.00     0.044 A  
HETATM   38  C   UNL     1      -8.393   9.891  66.739  1.00  0.00    -0.125 C  
HETATM   39  C   UNL     1      -6.638   8.040  65.792  1.00  0.00    -0.045 C  
HETATM   40  C   UNL     1      -8.010   7.740  65.842  1.00  0.00    -0.107 C  
ENDROOT
BRANCH  16  41
HETATM   41  O   UNL     1      -7.873  16.890  65.305  1.00  0.00     0.779 OA 
HETATM   42  C   UNL     1      -7.021  18.043  65.304  1.00  0.00     0.459 C  
ENDBRANCH  16  41
BRANCH  18  43
HETATM   43  O   UNL     1      -8.717  14.136  65.610  1.00  0.00     0.859 OA 
HETATM   44  C   UNL     1      -9.724  14.529  64.667  1.00  0.00     0.866 C  
ENDBRANCH  18  43
BRANCH  30  45
HETATM   45  O   UNL     1      -5.452   8.112  70.827  1.00  0.00    -0.029 OA 
HETATM   46  C   UNL     1      -5.483   7.834  72.229  1.00  0.00    -0.036 C  
ENDBRANCH  30  45
BRANCH  36  47
HETATM   47  O   UNL     1      -5.759  10.268  65.408  1.00  0.00    -0.080 OA 
HETATM   48  C   UNL     1      -5.908  10.083  64.004  1.00  0.00    -0.129 C  
ENDBRANCH  36  47
TORSDOF 4
ENDMDL
MODEL       59
REMARK 921   NORMALIZED FREE ENERGY PREDICTED BY IDOCK:   31.64 KCAL/MOL
REMARK 922        TOTAL FREE ENERGY PREDICTED BY IDOCK:   38.15 KCAL/MOL
REMARK 923 INTER-LIGAND FREE ENERGY PREDICTED BY IDOCK:   38.44 KCAL/MOL
REMARK 924 INTRA-LIGAND FREE ENERGY PREDICTED BY IDOCK:   -0.28 KCAL/MOL
REMARK 927      BINDING AFFINITY PREDICTED BY RF-SCORE:    0.00 PKD
ROOT
HETATM    1  C   UNL     1     -12.110   9.054  68.914  1.00  0.00     2.230 C  
HETATM    2  C   UNL     1     -12.870  10.349  68.417  1.00  0.00     3.697 C  
HETATM    3  C   UNL     1     -12.490  11.680  68.988  1.00  0.00     0.271 A  
HETATM    4  C   UNL     1     -12.135  11.826  70.319  1.00  0.00    -0.426 A  
HETATM    5  C   UNL     1     -11.093  12.688  70.624  1.00  0.00     1.781 A  
HETATM    6  C   UNL     1     -10.583  13.527  69.630  1.00  0.00     0.425 A  
HETATM    7  C   UNL     1     -11.370  13.749  68.526  1.00  0.00    -0.318 A  
HETATM    8  O   UNL     1      -9.291  13.927  69.840  1.00  0.00     1.158 OA 
HETATM    9  C   UNL     1      -8.465  14.569  68.943  1.00  0.00    -0.110 A  
HETATM   10  C   UNL     1     -12.271  12.768  68.142  1.00  0.00     0.031 A  
HETATM   11  C   UNL     1      -7.400  15.239  69.609  1.00  0.00    -0.188 A  
HETATM   12  C   UNL     1      -6.599  16.131  68.897  1.00  0.00    -0.138 A  
HETATM   13  C   UNL     1      -6.787  16.292  67.551  1.00  0.00    -0.189 A  
HETATM   14  C   UNL     1      -5.624  17.056  69.572  1.00  0.00    -0.183 C  
HETATM   15  C   UNL     1      -5.170  16.610  70.937  1.00  0.00    -0.165 C  
HETATM   16  C   UNL     1      -7.766  15.565  66.853  1.00  0.00    -0.165 A  
HETATM   17  C   UNL     1     -10.599   8.958  69.124  1.00  0.00    -0.211 C  
HETATM   18  C   UNL     1      -8.546  14.615  67.525  1.00  0.00    -0.187 A  
HETATM   19  N   UNL     1      -6.261  15.968  71.797  1.00  0.00     1.714 N  
HETATM   20  C   UNL     1     -12.510   8.633  71.435  1.00  0.00    -0.301 C  
HETATM   21  C   UNL     1      -5.569  15.559  73.097  1.00  0.00     1.109 C  
HETATM   22  C   UNL     1     -10.859   6.550  69.752  1.00  0.00    -0.351 C  
HETATM   23  C   UNL     1      -6.943  14.798  71.010  1.00  0.00     0.949 C  
HETATM   24  C   UNL     1      -7.397  16.921  72.189  1.00  0.00     9.793 C  
HETATM   25  C   UNL     1     -14.368   8.236  69.874  1.00  0.00     4.137 C  
HETATM   26  C   UNL     1      -5.994  13.604  70.767  1.00  0.00    -0.130 C  
HETATM   27  C   UNL     1      -6.169  12.405  71.649  1.00  0.00     2.137 A  
HETATM   28  C   UNL     1      -7.270  11.576  71.380  1.00  0.00     5.278 A  
HETATM   29  C   UNL     1      -7.194  10.222  71.619  1.00  0.00     2.289 A  
HETATM   30  C   UNL     1      -6.213   9.809  72.546  1.00  0.00     0.711 A  
HETATM   31  O   UNL     1      -8.054   9.352  70.957  1.00  0.00    -0.300 OA 
HETATM   32  N   UNL     1     -12.849   8.204  70.012  1.00  0.00     1.557 N  
HETATM   33  C   UNL     1      -8.322   9.671  69.536  1.00  0.00    -0.152 C  
HETATM   34  C   UNL     1      -5.187  10.667  72.957  1.00  0.00     0.403 A  
HETATM   35  C   UNL     1     -12.386   6.736  69.789  1.00  0.00     0.747 C  
HETATM   36  C   UNL     1      -7.922   8.640  68.676  1.00  0.00    -0.115 C  
HETATM   37  C   UNL     1      -5.132  11.963  72.452  1.00  0.00     0.302 A  
HETATM   38  C   UNL     1      -9.658   9.985  69.303  1.00  0.00    -0.227 C  
HETATM   39  C   UNL     1      -8.720   7.497  68.725  1.00  0.00    -0.128 C  
HETATM   40  C   UNL     1     -10.056   7.663  69.132  1.00  0.00    -0.194 C  
ENDROOT
BRANCH  16  41
HETATM   41  O   UNL     1      -7.924  15.812  65.514  1.00  0.00     1.563 OA 
HETATM   42  C   UNL     1      -9.293  15.757  65.094  1.00  0.00     0.793 C  
ENDBRANCH  16  41
BRANCH  18  43
HETATM   43  O   UNL     1      -9.274  13.647  66.886  1.00  0.00    -0.237 OA 
HETATM   44  C   UNL     1      -8.583  12.477  66.428  1.00  0.00     0.124 C  
ENDBRANCH  18  43
BRANCH  30  45
HETATM   45  O   UNL     1      -6.204   8.559  73.120  1.00  0.00    -0.098 OA 
HETATM   46  C   UNL     1      -6.890   8.625  74.371  1.00  0.00    -0.109 C  
ENDBRANCH  30  45
BRANCH  36  47
HETATM   47  O   UNL     1      -7.484   9.150  67.452  1.00  0.00    -0.084 OA 
HETATM   48  C   UNL     1      -6.087   9.311  67.228  1.00  0.00    -0.057 C  
ENDBRANCH  36  47
TORSDOF 4
ENDMDL
MODEL       60
REMARK 921   NORMALIZED FREE ENERGY PREDICTED BY IDOCK:   32.41 KCAL/MOL
REMARK 922        TOTAL FREE ENERGY PREDICTED BY IDOCK:   39.10 KCAL/MOL
REMARK 923 INTER-LIGAND FREE ENERGY PREDICTED BY IDOCK:   37.48 KCAL/MOL
REMARK 924 INTRA-LIGAND FREE ENERGY PREDICTED BY IDOCK:    1.62 KCAL/MOL
REMARK 927      BINDING AFFINITY PREDICTED BY RF-SCORE:    0.00 PKD
ROOT
HETATM    1  C   UNL     1     -10.872  11.619  70.446  1.00  0.00     1.251 C  
HETATM    2  C   UNL     1     -12.118  10.832  71.020  1.00  0.00    -0.452 C  
HETATM    3  C   UNL     1     -12.677   9.684  70.238  1.00  0.00     0.277 A  
HETATM    4  C   UNL     1     -12.733   9.705  68.854  1.00  0.00     3.322 A  
HETATM    5  C   UNL     1     -12.444   8.532  68.173  1.00  0.00     6.623 A  
HETATM    6  C   UNL     1     -12.317   7.338  68.885  1.00  0.00     2.893 A  
HETATM    7  C   UNL     1     -12.861   7.295  70.148  1.00  0.00     0.904 A  
HETATM    8  O   UNL     1     -11.549   6.390  68.265  1.00  0.00    -0.029 OA 
HETATM    9  C   UNL     1     -11.077   5.217  68.811  1.00  0.00     0.765 A  
HETATM   10  C   UNL     1     -12.953   8.473  70.873  1.00  0.00     0.181 A  
HETATM   11  C   UNL     1     -10.731   4.278  67.798  1.00  0.00     1.326 A  
HETATM   12  C   UNL     1     -10.456   2.958  68.152  1.00  0.00     2.724 A  
HETATM   13  C   UNL     1     -10.437   2.594  69.471  1.00  0.00     2.311 A  
HETATM   14  C   UNL     1     -10.329   1.859  67.133  1.00  0.00     2.511 C  
HETATM   15  C   UNL     1      -9.976   2.322  65.744  1.00  0.00     0.887 C  
HETATM   16  C   UNL     1     -10.676   3.527  70.494  1.00  0.00     2.236 A  
HETATM   17  C   UNL     1      -9.648  10.964  69.807  1.00  0.00     0.430 C  
HETATM   18  C   UNL     1     -10.893   4.875  70.177  1.00  0.00     0.563 A  
HETATM   19  N   UNL     1     -10.654   3.625  65.312  1.00  0.00     0.255 N  
HETATM   20  C   UNL     1     -11.442  12.787  68.209  1.00  0.00    -0.314 C  
HETATM   21  C   UNL     1     -10.120   3.918  63.910  1.00  0.00    -0.188 C  
HETATM   22  C   UNL     1      -8.615  13.225  69.517  1.00  0.00     1.383 C  
HETATM   23  C   UNL     1     -10.386   4.745  66.373  1.00  0.00    -0.273 C  
HETATM   24  C   UNL     1     -12.180   3.529  65.185  1.00  0.00     6.847 C  
HETATM   25  C   UNL     1     -12.404  13.696  70.282  1.00  0.00    -0.322 C  
HETATM   26  C   UNL     1      -8.903   5.170  66.436  1.00  0.00    -0.120 C  
HETATM   27  C   UNL     1      -8.536   6.459  65.764  1.00  0.00    -0.148 A  
HETATM   28  C   UNL     1      -8.897   7.643  66.425  1.00  0.00    -0.179 A  
HETATM   29  C   UNL     1      -8.116   8.771  66.305  1.00  0.00    -0.107 A  
HETATM   30  C   UNL     1      -7.275   8.826  65.173  1.00  0.00    -0.087 A  
HETATM   31  O   UNL     1      -8.185   9.768  67.272  1.00  0.00    -0.116 OA 
HETATM   32  N   UNL     1     -11.197  12.967  69.703  1.00  0.00    -0.080 N  
HETATM   33  C   UNL     1      -8.306   9.299  68.671  1.00  0.00    -0.118 C  
HETATM   34  C   UNL     1      -7.018   7.691  64.396  1.00  0.00    -0.060 A  
HETATM   35  C   UNL     1      -9.951  13.875  69.918  1.00  0.00     1.193 C  
HETATM   36  C   UNL     1      -7.235   9.726  69.468  1.00  0.00    -0.087 C  
HETATM   37  C   UNL     1      -7.610   6.478  64.736  1.00  0.00    -0.099 A  
HETATM   38  C   UNL     1      -9.508   9.678  69.260  1.00  0.00    -0.184 C  
HETATM   39  C   UNL     1      -7.238  11.088  69.768  1.00  0.00    -0.008 C  
HETATM   40  C   UNL     1      -8.481  11.745  69.762  1.00  0.00     1.689 C  
ENDROOT
BRANCH  16  41
HETATM   41  O   UNL     1     -10.683   3.080  71.790  1.00  0.00     0.421 OA 
HETATM   42  C   UNL     1      -9.385   3.110  72.397  1.00  0.00    -0.107 C  
ENDBRANCH  16  41
BRANCH  18  43
HETATM   43  O   UNL     1     -10.806   5.889  71.093  1.00  0.00    -0.257 OA 
HETATM   44  C   UNL     1     -11.740   5.898  72.181  1.00  0.00    -0.227 C  
ENDBRANCH  18  43
BRANCH  30  45
HETATM   45  O   UNL     1      -6.672   9.986  64.744  1.00  0.00    -0.117 OA 
HETATM   46  C   UNL     1      -7.670  10.840  64.182  1.00  0.00     0.298 C  
ENDBRANCH  30  45
BRANCH  36  47
HETATM   47  O   UNL     1      -6.936   8.782  70.453  1.00  0.00    -0.040 OA 
HETATM   48  C   UNL     1      -7.843   7.708  70.683  1.00  0.00    -0.097 C  
ENDBRANCH  36  47
TORSDOF 4
ENDMDL
MODEL       61
REMARK 921   NORMALIZED FREE ENERGY PREDICTED BY IDOCK:   32.91 KCAL/MOL
REMARK 922        TOTAL FREE ENERGY PREDICTED BY IDOCK:   39.71 KCAL/MOL
REMARK 923 INTER-LIGAND FREE ENERGY PREDICTED BY IDOCK:   36.96 KCAL/MOL
REMARK 924 INTRA-LIGAND FREE ENERGY PREDICTED BY IDOCK:    2.75 KCAL/MOL
REMARK 927      BINDING AFFINITY PREDICTED BY RF-SCORE:    0.00 PKD
ROOT
HETATM    1  C   UNL     1      -9.647   5.380  72.277  1.00  0.00    -0.155 C  
HETATM    2  C   UNL     1      -9.266   6.561  73.256  1.00  0.00    -0.140 C  
HETATM    3  C   UNL     1      -8.647   7.803  72.693  1.00  0.00    -0.191 A  
HETATM    4  C   UNL     1      -7.744   7.754  71.644  1.00  0.00    -0.091 A  
HETATM    5  C   UNL     1      -7.825   8.735  70.668  1.00  0.00    -0.112 A  
HETATM    6  C   UNL     1      -8.655   9.840  70.873  1.00  0.00     0.506 A  
HETATM    7  C   UNL     1      -9.041  10.109  72.165  1.00  0.00     5.462 A  
HETATM    8  O   UNL     1      -9.076  10.450  69.723  1.00  0.00    -0.125 OA 
HETATM    9  C   UNL     1     -10.055  11.412  69.604  1.00  0.00     0.506 A  
HETATM   10  C   UNL     1      -9.131   9.057  73.064  1.00  0.00     1.043 A  
HETATM   11  C   UNL     1      -9.917  12.143  68.390  1.00  0.00    -0.206 A  
HETATM   12  C   UNL     1     -10.666  13.304  68.200  1.00  0.00    -0.264 A  
HETATM   13  C   UNL     1     -11.585  13.685  69.138  1.00  0.00    -0.356 A  
HETATM   14  C   UNL     1     -10.400  14.259  67.068  1.00  0.00    -0.267 C  
HETATM   15  C   UNL     1      -9.690  13.656  65.885  1.00  0.00    -0.187 C  
HETATM   16  C   UNL     1     -11.811  12.924  70.298  1.00  0.00    -0.213 A  
HETATM   17  C   UNL     1     -10.326   5.559  70.919  1.00  0.00    -0.310 C  
HETATM   18  C   UNL     1     -11.122  11.719  70.491  1.00  0.00     1.127 A  
HETATM   19  N   UNL     1      -8.596  12.645  66.241  1.00  0.00     0.168 N  
HETATM   20  C   UNL     1      -7.550   4.396  71.123  1.00  0.00    -0.067 C  
HETATM   21  C   UNL     1      -8.056  12.140  64.904  1.00  0.00     2.473 C  
HETATM   22  C   UNL     1     -10.362   3.073  70.632  1.00  0.00     1.047 C  
HETATM   23  C   UNL     1      -9.178  11.538  67.184  1.00  0.00    -0.169 C  
HETATM   24  C   UNL     1      -7.404  13.247  66.994  1.00  0.00     0.276 C  
HETATM   25  C   UNL     1      -7.891   3.940  73.515  1.00  0.00    -0.083 C  
HETATM   26  C   UNL     1     -10.219  10.638  66.484  1.00  0.00    -0.288 C  
HETATM   27  C   UNL     1      -9.761   9.279  66.049  1.00  0.00    -0.359 A  
HETATM   28  C   UNL     1      -9.610   8.310  67.053  1.00  0.00    -0.249 A  
HETATM   29  C   UNL     1      -9.841   6.981  66.777  1.00  0.00    -0.186 A  
HETATM   30  C   UNL     1      -9.754   6.605  65.419  1.00  0.00     1.060 A  
HETATM   31  O   UNL     1     -10.142   6.101  67.810  1.00  0.00    -0.128 OA 
HETATM   32  N   UNL     1      -8.614   4.196  72.197  1.00  0.00    -0.105 N  
HETATM   33  C   UNL     1     -11.033   6.631  68.867  1.00  0.00    -0.267 C  
HETATM   34  C   UNL     1      -9.744   7.559  64.395  1.00  0.00     3.321 A  
HETATM   35  C   UNL     1      -9.453   2.928  71.865  1.00  0.00    -0.133 C  
HETATM   36  C   UNL     1     -12.221   5.895  68.979  1.00  0.00     3.637 C  
HETATM   37  C   UNL     1      -9.810   8.912  64.716  1.00  0.00     1.154 A  
HETATM   38  C   UNL     1     -10.407   6.702  70.107  1.00  0.00    -0.236 C  
HETATM   39  C   UNL     1     -12.069   4.625  69.536  1.00  0.00     9.631 C  
HETATM   40  C   UNL     1     -10.977   4.428  70.399  1.00  0.00     1.805 C  
ENDROOT
BRANCH  16  41
HETATM   41  O   UNL     1     -12.718  13.392  71.214  1.00  0.00    -0.354 OA 
HETATM   42  C   UNL     1     -13.997  12.755  71.107  1.00  0.00     1.554 C  
ENDBRANCH  16  41
BRANCH  18  43
HETATM   43  O   UNL     1     -11.504  10.767  71.398  1.00  0.00     0.119 OA 
HETATM   44  C   UNL     1     -12.794  10.162  71.235  1.00  0.00    -0.410 C  
ENDBRANCH  18  43
BRANCH  30  45
HETATM   45  O   UNL     1      -9.654   5.296  65.010  1.00  0.00     0.066 OA 
HETATM   46  C   UNL     1     -10.030   4.447  66.096  1.00  0.00    -0.238 C  
ENDBRANCH  30  45
BRANCH  36  47
HETATM   47  O   UNL     1     -13.285   6.716  69.358  1.00  0.00     3.541 OA 
HETATM   48  C   UNL     1     -13.074   8.120  69.467  1.00  0.00     4.356 C  
ENDBRANCH  36  47
TORSDOF 4
ENDMDL
MODEL       62
REMARK 921   NORMALIZED FREE ENERGY PREDICTED BY IDOCK:   36.42 KCAL/MOL
REMARK 922        TOTAL FREE ENERGY PREDICTED BY IDOCK:   44.05 KCAL/MOL
REMARK 923 INTER-LIGAND FREE ENERGY PREDICTED BY IDOCK:   44.85 KCAL/MOL
REMARK 924 INTRA-LIGAND FREE ENERGY PREDICTED BY IDOCK:   -0.80 KCAL/MOL
REMARK 927      BINDING AFFINITY PREDICTED BY RF-SCORE:    0.00 PKD
ROOT
HETATM    1  C   UNL     1     -11.460   6.927  65.695  1.00  0.00     5.105 C  
HETATM    2  C   UNL     1     -12.109   7.896  66.762  1.00  0.00     5.922 C  
HETATM    3  C   UNL     1     -11.866   7.642  68.218  1.00  0.00     2.022 A  
HETATM    4  C   UNL     1     -11.797   6.358  68.731  1.00  0.00     0.811 A  
HETATM    5  C   UNL     1     -10.848   6.097  69.707  1.00  0.00    -0.421 A  
HETATM    6  C   UNL     1     -10.147   7.158  70.285  1.00  0.00    -0.188 A  
HETATM    7  C   UNL     1     -10.689   8.415  70.158  1.00  0.00    -0.238 A  
HETATM    8  O   UNL     1      -8.930   6.813  70.807  1.00  0.00    -0.149 OA 
HETATM    9  C   UNL     1      -7.941   7.667  71.240  1.00  0.00    -0.094 A  
HETATM   10  C   UNL     1     -11.484   8.690  69.056  1.00  0.00     0.716 A  
HETATM   11  C   UNL     1      -7.042   7.010  72.128  1.00  0.00    -0.072 A  
HETATM   12  C   UNL     1      -6.117   7.763  72.850  1.00  0.00    -0.061 A  
HETATM   13  C   UNL     1      -6.021   9.112  72.639  1.00  0.00     0.047 A  
HETATM   14  C   UNL     1      -5.311   7.184  73.980  1.00  0.00    -0.046 C  
HETATM   15  C   UNL     1      -5.147   5.687  73.938  1.00  0.00    -0.023 C  
HETATM   16  C   UNL     1      -6.829   9.767  71.694  1.00  0.00     0.638 A  
HETATM   17  C   UNL     1     -10.026   6.402  65.753  1.00  0.00     0.541 C  
HETATM   18  C   UNL     1      -7.725   9.031  70.907  1.00  0.00    -0.128 A  
HETATM   19  N   UNL     1      -6.389   4.920  73.477  1.00  0.00    -0.056 N  
HETATM   20  C   UNL     1     -12.373   4.517  65.927  1.00  0.00     6.562 C  
HETATM   21  C   UNL     1      -5.980   3.448  73.470  1.00  0.00    -0.007 C  
HETATM   22  C   UNL     1     -10.394   5.211  63.583  1.00  0.00     1.553 C  
HETATM   23  C   UNL     1      -6.884   5.480  72.101  1.00  0.00    -0.075 C  
HETATM   24  C   UNL     1      -7.588   5.034  74.427  1.00  0.00    -0.089 C  
HETATM   25  C   UNL     1     -13.862   6.248  65.017  1.00  0.00    10.983 C  
HETATM   26  C   UNL     1      -5.897   5.197  70.947  1.00  0.00    -0.017 C  
HETATM   27  C   UNL     1      -6.243   4.076  70.014  1.00  0.00    -0.027 A  
HETATM   28  C   UNL     1      -7.257   4.324  69.076  1.00  0.00    -0.051 A  
HETATM   29  C   UNL     1      -7.223   3.717  67.840  1.00  0.00    -0.059 A  
HETATM   30  C   UNL     1      -6.454   2.538  67.749  1.00  0.00    -0.032 A  
HETATM   31  O   UNL     1      -7.921   4.277  66.775  1.00  0.00    -0.097 OA 
HETATM   32  N   UNL     1     -12.406   5.809  65.119  1.00  0.00     4.569 N  
HETATM   33  C   UNL     1      -7.890   5.755  66.691  1.00  0.00    -0.101 C  
HETATM   34  C   UNL     1      -5.542   2.180  68.748  1.00  0.00    -0.018 A  
HETATM   35  C   UNL     1     -11.896   5.530  63.675  1.00  0.00     5.825 C  
HETATM   36  C   UNL     1      -7.311   6.206  65.497  1.00  0.00    -0.080 C  
HETATM   37  C   UNL     1      -5.393   2.995  69.866  1.00  0.00    -0.012 A  
HETATM   38  C   UNL     1      -9.149   6.325  66.847  1.00  0.00    -0.132 C  
HETATM   39  C   UNL     1      -8.094   6.010  64.359  1.00  0.00    -0.119 C  
HETATM   40  C   UNL     1      -9.486   5.937  64.542  1.00  0.00     1.066 C  
ENDROOT
BRANCH  16  41
HETATM   41  O   UNL     1      -6.706  11.127  71.569  1.00  0.00     1.369 OA 
HETATM   42  C   UNL     1      -5.740  11.511  70.583  1.00  0.00    -0.118 C  
ENDBRANCH  16  41
BRANCH  18  43
HETATM   43  O   UNL     1      -8.297   9.516  69.761  1.00  0.00    -0.129 OA 
HETATM   44  C   UNL     1      -7.665   9.209  68.511  1.00  0.00    -0.093 C  
ENDBRANCH  18  43
BRANCH  30  45
HETATM   45  O   UNL     1      -6.556   1.658  66.697  1.00  0.00    -0.029 OA 
HETATM   46  C   UNL     1      -5.447   1.862  65.819  1.00  0.00    -0.009 C  
ENDBRANCH  30  45
BRANCH  36  47
HETATM   47  O   UNL     1      -6.632   7.411  65.693  1.00  0.00    -0.044 OA 
HETATM   48  C   UNL     1      -6.570   8.353  64.628  1.00  0.00    -0.065 C  
ENDBRANCH  36  47
TORSDOF 4
ENDMDL
MODEL       63
REMARK 921   NORMALIZED FREE ENERGY PREDICTED BY IDOCK:   38.64 KCAL/MOL
REMARK 922        TOTAL FREE ENERGY PREDICTED BY IDOCK:   46.78 KCAL/MOL
REMARK 923 INTER-LIGAND FREE ENERGY PREDICTED BY IDOCK:   46.94 KCAL/MOL
REMARK 924 INTRA-LIGAND FREE ENERGY PREDICTED BY IDOCK:   -0.15 KCAL/MOL
REMARK 927      BINDING AFFINITY PREDICTED BY RF-SCORE:    0.00 PKD
ROOT
HETATM    1  C   UNL     1      -7.303   5.643  68.336  1.00  0.00    -0.076 C  
HETATM    2  C   UNL     1      -6.151   6.093  69.320  1.00  0.00    -0.029 C  
HETATM    3  C   UNL     1      -5.528   7.443  69.144  1.00  0.00    -0.015 A  
HETATM    4  C   UNL     1      -5.309   7.984  67.888  1.00  0.00    -0.033 A  
HETATM    5  C   UNL     1      -5.540   9.340  67.714  1.00  0.00    -0.038 A  
HETATM    6  C   UNL     1      -5.776  10.145  68.830  1.00  0.00    -0.034 A  
HETATM    7  C   UNL     1      -5.386   9.656  70.055  1.00  0.00    -0.032 A  
HETATM    8  O   UNL     1      -6.486  11.285  68.564  1.00  0.00    -0.049 OA 
HETATM    9  C   UNL     1      -7.044  12.148  69.481  1.00  0.00     0.194 A  
HETATM   10  C   UNL     1      -5.355   8.283  70.244  1.00  0.00    -0.022 A  
HETATM   11  C   UNL     1      -7.288  13.428  68.905  1.00  0.00    -0.033 A  
HETATM   12  C   UNL     1      -7.631  14.497  69.731  1.00  0.00     0.160 A  
HETATM   13  C   UNL     1      -7.813  14.294  71.072  1.00  0.00     3.154 A  
HETATM   14  C   UNL     1      -7.660  15.918  69.240  1.00  0.00    -0.221 C  
HETATM   15  C   UNL     1      -7.837  16.070  67.752  1.00  0.00    -0.140 C  
HETATM   16  C   UNL     1      -7.677  13.019  71.647  1.00  0.00     9.536 A  
HETATM   17  C   UNL     1      -8.458   6.535  67.880  1.00  0.00    -0.118 C  
HETATM   18  C   UNL     1      -7.394  11.911  70.837  1.00  0.00     4.337 A  
HETATM   19  N   UNL     1      -7.085  15.036  66.909  1.00  0.00     0.271 N  
HETATM   20  C   UNL     1      -6.449   5.468  65.899  1.00  0.00    -0.040 C  
HETATM   21  C   UNL     1      -7.444  15.354  65.458  1.00  0.00     5.417 C  
HETATM   22  C   UNL     1      -9.401   4.618  66.578  1.00  0.00    -0.151 C  
HETATM   23  C   UNL     1      -7.452  13.590  67.384  1.00  0.00    -0.122 C  
HETATM   24  C   UNL     1      -5.558  15.131  67.011  1.00  0.00     0.954 C  
HETATM   25  C   UNL     1      -5.718   3.769  67.520  1.00  0.00    -0.022 C  
HETATM   26  C   UNL     1      -8.923  13.218  67.096  1.00  0.00    -0.229 C  
HETATM   27  C   UNL     1      -9.181  12.325  65.920  1.00  0.00    -0.031 A  
HETATM   28  C   UNL     1      -8.875  10.964  66.079  1.00  0.00    -0.198 A  
HETATM   29  C   UNL     1      -9.612  10.005  65.421  1.00  0.00    -0.279 A  
HETATM   30  C   UNL     1     -10.312  10.439  64.274  1.00  0.00     0.013 A  
HETATM   31  O   UNL     1      -9.636   8.700  65.899  1.00  0.00    -0.220 OA 
HETATM   32  N   UNL     1      -6.865   4.704  67.151  1.00  0.00    -0.055 N  
HETATM   33  C   UNL     1      -9.691   8.556  67.372  1.00  0.00    -0.170 C  
HETATM   34  C   UNL     1     -10.500  11.798  64.003  1.00  0.00    -0.415 A  
HETATM   35  C   UNL     1      -8.107   3.823  66.832  1.00  0.00    -0.095 C  
HETATM   36  C   UNL     1     -10.840   7.873  67.796  1.00  0.00    -0.024 C  
HETATM   37  C   UNL     1      -9.978  12.751  64.873  1.00  0.00    -0.159 A  
HETATM   38  C   UNL     1      -8.559   7.936  67.891  1.00  0.00    -0.125 C  
HETATM   39  C   UNL     1     -10.843   6.507  67.514  1.00  0.00    -0.433 C  
HETATM   40  C   UNL     1      -9.594   5.874  67.386  1.00  0.00    -0.117 C  
ENDROOT
BRANCH  16  41
HETATM   41  O   UNL     1      -7.832  12.901  73.004  1.00  0.00    11.156 OA 
HETATM   42  C   UNL     1      -6.765  13.509  73.743  1.00  0.00     3.045 C  
ENDBRANCH  16  41
BRANCH  18  43
HETATM   43  O   UNL     1      -7.568  10.615  71.244  1.00  0.00     1.678 OA 
HETATM   44  C   UNL     1      -8.855  10.013  71.047  1.00  0.00     1.340 C  
ENDBRANCH  18  43
BRANCH  30  45
HETATM   45  O   UNL     1     -10.836   9.571  63.344  1.00  0.00     3.833 OA 
HETATM   46  C   UNL     1      -9.998   8.416  63.273  1.00  0.00     4.806 C  
ENDBRANCH  30  45
BRANCH  36  47
HETATM   47  O   UNL     1     -11.273   8.344  69.037  1.00  0.00     0.158 OA 
HETATM   48  C   UNL     1     -12.116   7.519  69.836  1.00  0.00     0.606 C  
ENDBRANCH  36  47
TORSDOF 4
ENDMDL
MODEL       64
REMARK 921   NORMALIZED FREE ENERGY PREDICTED BY IDOCK:   39.06 KCAL/MOL
REMARK 922        TOTAL FREE ENERGY PREDICTED BY IDOCK:   47.31 KCAL/MOL
REMARK 923 INTER-LIGAND FREE ENERGY PREDICTED BY IDOCK:   46.77 KCAL/MOL
REMARK 924 INTRA-LIGAND FREE ENERGY PREDICTED BY IDOCK:    0.54 KCAL/MOL
REMARK 927      BINDING AFFINITY PREDICTED BY RF-SCORE:    0.00 PKD
ROOT
HETATM    1  C   UNL     1      -9.729  11.621  64.314  1.00  0.00    -0.173 C  
HETATM    2  C   UNL     1      -8.632  10.961  63.387  1.00  0.00    -0.020 C  
HETATM    3  C   UNL     1      -7.676   9.972  63.980  1.00  0.00    -0.143 A  
HETATM    4  C   UNL     1      -7.177  10.123  65.263  1.00  0.00    -0.141 A  
HETATM    5  C   UNL     1      -7.041   8.986  66.047  1.00  0.00    -0.085 A  
HETATM    6  C   UNL     1      -7.206   7.728  65.465  1.00  0.00    -0.064 A  
HETATM    7  C   UNL     1      -7.103   7.646  64.096  1.00  0.00    -0.068 A  
HETATM    8  O   UNL     1      -7.572   6.744  66.343  1.00  0.00    -0.086 OA 
HETATM    9  C   UNL     1      -8.007   5.474  66.033  1.00  0.00    -0.106 A  
HETATM   10  C   UNL     1      -7.437   8.757  63.337  1.00  0.00    -0.107 A  
HETATM   11  C   UNL     1      -7.854   4.590  67.138  1.00  0.00    -0.097 A  
HETATM   12  C   UNL     1      -8.020   3.219  66.948  1.00  0.00    -0.080 A  
HETATM   13  C   UNL     1      -8.410   2.741  65.727  1.00  0.00    -0.093 A  
HETATM   14  C   UNL     1      -7.635   2.207  67.993  1.00  0.00    -0.055 C  
HETATM   15  C   UNL     1      -7.583   2.739  69.401  1.00  0.00    -0.043 C  
HETATM   16  C   UNL     1      -8.666   3.604  64.648  1.00  0.00    -0.109 A  
HETATM   17  C   UNL     1     -10.560  10.868  65.352  1.00  0.00    -0.243 C  
HETATM   18  C   UNL     1      -8.570   4.991  64.821  1.00  0.00    -0.150 A  
HETATM   19  N   UNL     1      -7.013   4.155  69.530  1.00  0.00    -0.045 N  
HETATM   20  C   UNL     1      -8.651  13.049  66.184  1.00  0.00     0.607 C  
HETATM   21  C   UNL     1      -7.101   4.496  71.017  1.00  0.00    -0.037 C  
HETATM   22  C   UNL     1     -11.782  12.986  65.884  1.00  0.00    -0.442 C  
HETATM   23  C   UNL     1      -7.784   5.131  68.577  1.00  0.00    -0.079 C  
HETATM   24  C   UNL     1      -5.535   4.276  69.141  1.00  0.00    -0.012 C  
HETATM   25  C   UNL     1      -8.570  13.891  63.876  1.00  0.00     9.022 C  
HETATM   26  C   UNL     1      -9.254   5.346  68.998  1.00  0.00    -0.149 C  
HETATM   27  C   UNL     1      -9.578   6.628  69.704  1.00  0.00    -0.156 A  
HETATM   28  C   UNL     1      -9.642   7.787  68.915  1.00  0.00    -0.154 A  
HETATM   29  C   UNL     1     -10.506   8.806  69.247  1.00  0.00    -0.219 A  
HETATM   30  C   UNL     1     -10.930   8.848  70.592  1.00  0.00    -0.241 A  
HETATM   31  O   UNL     1     -10.912   9.714  68.275  1.00  0.00    -0.206 OA 
HETATM   32  N   UNL     1      -9.394  13.061  64.854  1.00  0.00     0.499 N  
HETATM   33  C   UNL     1     -11.182   9.144  66.935  1.00  0.00     0.915 C  
HETATM   34  C   UNL     1     -10.740   7.762  71.453  1.00  0.00    -0.250 A  
HETATM   35  C   UNL     1     -10.768  13.771  65.034  1.00  0.00    -0.382 C  
HETATM   36  C   UNL     1     -12.507   9.351  66.528  1.00  0.00    10.264 C  
HETATM   37  C   UNL     1     -10.109   6.614  70.982  1.00  0.00    -0.207 A  
HETATM   38  C   UNL     1     -10.312   9.627  65.963  1.00  0.00    -0.160 C  
HETATM   39  C   UNL     1     -12.815  10.670  66.192  1.00  0.00     8.145 C  
HETATM   40  C   UNL     1     -11.756  11.485  65.756  1.00  0.00     0.181 C  
ENDROOT
BRANCH  16  41
HETATM   41  O   UNL     1      -9.012   3.049  63.443  1.00  0.00    -0.092 OA 
HETATM   42  C   UNL     1     -10.129   2.156  63.540  1.00  0.00    -0.136 C  
ENDBRANCH  16  41
BRANCH  18  43
HETATM   43  O   UNL     1      -9.108   5.900  63.949  1.00  0.00     0.464 OA 
HETATM   44  C   UNL     1      -8.964   5.653  62.544  1.00  0.00     0.199 C  
ENDBRANCH  18  43
BRANCH  30  45
HETATM   45  O   UNL     1     -11.534   9.949  71.153  1.00  0.00    -0.350 OA 
HETATM   46  C   UNL     1     -12.742   9.533  71.793  1.00  0.00    -0.404 C  
ENDBRANCH  30  45
BRANCH  36  47
HETATM   47  O   UNL     1     -12.960   8.292  65.738  1.00  0.00    13.864 OA 
HETATM   48  C   UNL     1     -12.278   7.043  65.795  1.00  0.00     8.198 C  
ENDBRANCH  36  47
TORSDOF 4
ENDMDL
MODEL       65
REMARK 921   NORMALIZED FREE ENERGY PREDICTED BY IDOCK:   41.26 KCAL/MOL
REMARK 922        TOTAL FREE ENERGY PREDICTED BY IDOCK:   50.02 KCAL/MOL
REMARK 923 INTER-LIGAND FREE ENERGY PREDICTED BY IDOCK:   49.34 KCAL/MOL
REMARK 924 INTRA-LIGAND FREE ENERGY PREDICTED BY IDOCK:    0.69 KCAL/MOL
REMARK 927      BINDING AFFINITY PREDICTED BY RF-SCORE:    0.00 PKD
ROOT
HETATM    1  C   UNL     1      -9.250   4.292  63.358  1.00  0.00    -0.135 C  
HETATM    2  C   UNL     1     -10.443   5.235  62.929  1.00  0.00     1.762 C  
HETATM    3  C   UNL     1     -11.212   5.964  63.988  1.00  0.00     6.566 A  
HETATM    4  C   UNL     1     -11.490   5.383  65.214  1.00  0.00     1.815 A  
HETATM    5  C   UNL     1     -11.410   6.181  66.346  1.00  0.00     0.608 A  
HETATM    6  C   UNL     1     -11.264   7.563  66.203  1.00  0.00     2.826 A  
HETATM    7  C   UNL     1     -11.596   8.110  64.986  1.00  0.00    11.997 A  
HETATM    8  O   UNL     1     -10.685   8.182  67.277  1.00  0.00    -0.298 OA 
HETATM    9  C   UNL     1     -10.224   9.479  67.337  1.00  0.00    -0.227 A  
HETATM   10  C   UNL     1     -11.476   7.327  63.849  1.00  0.00    19.190 A  
HETATM   11  C   UNL     1     -10.123   9.930  68.685  1.00  0.00    -0.191 A  
HETATM   12  C   UNL     1      -9.900  11.282  68.941  1.00  0.00    -0.153 A  
HETATM   13  C   UNL     1      -9.695  12.149  67.902  1.00  0.00    -0.200 A  
HETATM   14  C   UNL     1     -10.028  11.874  70.317  1.00  0.00     3.009 C  
HETATM   15  C   UNL     1      -9.870  10.890  71.447  1.00  0.00     5.732 C  
HETATM   16  C   UNL     1      -9.689  11.709  66.568  1.00  0.00    -0.206 A  
HETATM   17  C   UNL     1      -8.201   4.638  64.415  1.00  0.00    -0.112 C  
HETATM   18  C   UNL     1      -9.848  10.347  66.277  1.00  0.00    -0.218 A  
HETATM   19  N   UNL     1     -10.505   9.520  71.195  1.00  0.00    -0.315 N  
HETATM   20  C   UNL     1     -10.081   2.313  64.803  1.00  0.00     0.380 C  
HETATM   21  C   UNL     1     -10.184   8.687  72.436  1.00  0.00    -0.249 C  
HETATM   22  C   UNL     1      -7.053   2.461  63.964  1.00  0.00    -0.044 C  
HETATM   23  C   UNL     1      -9.980   8.928  69.843  1.00  0.00    -0.188 C  
HETATM   24  C   UNL     1     -12.033   9.546  71.070  1.00  0.00    -0.328 C  
HETATM   25  C   UNL     1     -10.618   2.316  62.403  1.00  0.00    -0.128 C  
HETATM   26  C   UNL     1      -8.477   8.574  69.885  1.00  0.00    -0.125 C  
HETATM   27  C   UNL     1      -8.123   7.126  70.044  1.00  0.00    -0.127 A  
HETATM   28  C   UNL     1      -8.276   6.309  68.913  1.00  0.00    -0.113 A  
HETATM   29  C   UNL     1      -7.439   5.234  68.714  1.00  0.00    -0.074 A  
HETATM   30  C   UNL     1      -6.792   4.730  69.863  1.00  0.00    -0.048 A  
HETATM   31  O   UNL     1      -7.270   4.714  67.435  1.00  0.00    -0.070 OA 
HETATM   32  N   UNL     1      -9.583   2.756  63.432  1.00  0.00    -0.097 N  
HETATM   33  C   UNL     1      -7.198   5.710  66.341  1.00  0.00    -0.077 C  
HETATM   34  C   UNL     1      -6.756   5.455  71.059  1.00  0.00    -0.044 A  
HETATM   35  C   UNL     1      -8.251   2.021  63.103  1.00  0.00    -0.072 C  
HETATM   36  C   UNL     1      -5.981   5.650  65.649  1.00  0.00    -0.025 C  
HETATM   37  C   UNL     1      -7.379   6.697  71.129  1.00  0.00    -0.079 A  
HETATM   38  C   UNL     1      -8.255   5.594  65.444  1.00  0.00    -0.132 C  
HETATM   39  C   UNL     1      -5.827   4.525  64.837  1.00  0.00    -0.014 C  
HETATM   40  C   UNL     1      -6.999   3.915  64.356  1.00  0.00    -0.046 C  
ENDROOT
BRANCH  16  41
HETATM   41  O   UNL     1      -9.521  12.643  65.578  1.00  0.00    -0.090 OA 
HETATM   42  C   UNL     1      -9.235  13.951  66.090  1.00  0.00    -0.011 C  
ENDBRANCH  16  41
BRANCH  18  43
HETATM   43  O   UNL     1      -9.532   9.792  65.066  1.00  0.00    -0.252 OA 
HETATM   44  C   UNL     1     -10.159  10.330  63.894  1.00  0.00     0.058 C  
ENDBRANCH  18  43
BRANCH  30  45
HETATM   45  O   UNL     1      -6.177   3.500  69.897  1.00  0.00    -0.026 OA 
HETATM   46  C   UNL     1      -7.104   2.538  70.402  1.00  0.00    -0.033 C  
ENDBRANCH  30  45
BRANCH  36  47
HETATM   47  O   UNL     1      -5.602   6.913  65.192  1.00  0.00    -0.030 OA 
HETATM   48  C   UNL     1      -5.380   7.110  63.800  1.00  0.00    -0.029 C  
ENDBRANCH  36  47
TORSDOF 4
ENDMDL
MODEL       66
REMARK 921   NORMALIZED FREE ENERGY PREDICTED BY IDOCK:   42.04 KCAL/MOL
REMARK 922        TOTAL FREE ENERGY PREDICTED BY IDOCK:   50.98 KCAL/MOL
REMARK 923 INTER-LIGAND FREE ENERGY PREDICTED BY IDOCK:   49.81 KCAL/MOL
REMARK 924 INTRA-LIGAND FREE ENERGY PREDICTED BY IDOCK:    1.17 KCAL/MOL
REMARK 927      BINDING AFFINITY PREDICTED BY RF-SCORE:    0.00 PKD
ROOT
HETATM    1  C   UNL     1      -7.608  14.629  69.283  1.00  0.00    -0.113 C  
HETATM    2  C   UNL     1      -7.218  15.029  67.804  1.00  0.00    -0.186 C  
HETATM    3  C   UNL     1      -6.596  14.000  66.912  1.00  0.00     1.333 A  
HETATM    4  C   UNL     1      -5.698  13.063  67.397  1.00  0.00    -0.009 A  
HETATM    5  C   UNL     1      -5.780  11.768  66.908  1.00  0.00    -0.142 A  
HETATM    6  C   UNL     1      -6.603  11.499  65.813  1.00  0.00     0.693 A  
HETATM    7  C   UNL     1      -6.982  12.564  65.031  1.00  0.00     6.434 A  
HETATM    8  O   UNL     1      -7.028  10.200  65.733  1.00  0.00    -0.108 OA 
HETATM    9  C   UNL     1      -8.003   9.696  64.901  1.00  0.00    -0.124 A  
HETATM   10  C   UNL     1      -7.073  13.819  65.613  1.00  0.00     7.400 A  
HETATM   11  C   UNL     1      -7.868   8.287  64.740  1.00  0.00    -0.129 A  
HETATM   12  C   UNL     1      -8.612   7.634  63.759  1.00  0.00     0.425 A  
HETATM   13  C   UNL     1      -9.526   8.332  63.017  1.00  0.00     2.295 A  
HETATM   14  C   UNL     1      -8.347   6.208  63.360  1.00  0.00     0.078 C  
HETATM   15  C   UNL     1      -7.645   5.380  64.404  1.00  0.00    -0.075 C  
HETATM   16  C   UNL     1      -9.749   9.704  63.227  1.00  0.00     0.724 A  
HETATM   17  C   UNL     1      -8.293  13.321  69.680  1.00  0.00     1.572 C  
HETATM   18  C   UNL     1      -9.064  10.378  64.247  1.00  0.00    -0.238 A  
HETATM   19  N   UNL     1      -6.555   6.121  65.182  1.00  0.00    -0.042 N  
HETATM   20  C   UNL     1      -5.522  13.982  70.669  1.00  0.00    -0.145 C  
HETATM   21  C   UNL     1      -6.023   5.112  66.200  1.00  0.00    -0.023 C  
HETATM   22  C   UNL     1      -8.341  14.090  72.060  1.00  0.00     8.616 C  
HETATM   23  C   UNL     1      -7.136   7.439  65.795  1.00  0.00    -0.065 C  
HETATM   24  C   UNL     1      -5.356   6.553  64.329  1.00  0.00    -0.026 C  
HETATM   25  C   UNL     1      -5.854  16.348  70.091  1.00  0.00    -0.167 C  
HETATM   26  C   UNL     1      -8.185   7.178  66.898  1.00  0.00    -0.117 C  
HETATM   27  C   UNL     1      -7.734   7.345  68.318  1.00  0.00    -0.120 A  
HETATM   28  C   UNL     1      -7.583   8.660  68.784  1.00  0.00    -0.096 A  
HETATM   29  C   UNL     1      -7.821   8.960  70.107  1.00  0.00    -0.097 A  
HETATM   30  C   UNL     1      -7.742   7.881  71.012  1.00  0.00    -0.084 A  
HETATM   31  O   UNL     1      -8.122  10.266  70.477  1.00  0.00     0.002 OA 
HETATM   32  N   UNL     1      -6.581  15.044  70.399  1.00  0.00    -0.066 N  
HETATM   33  C   UNL     1      -9.005  11.010  69.551  1.00  0.00     0.383 C  
HETATM   34  C   UNL     1      -7.732   6.554  70.569  1.00  0.00    -0.105 A  
HETATM   35  C   UNL     1      -7.427  15.271  71.686  1.00  0.00     3.535 C  
HETATM   36  C   UNL     1     -10.196  11.420  70.167  1.00  0.00     1.395 C  
HETATM   37  C   UNL     1      -7.792   6.284  69.205  1.00  0.00    -0.105 A  
HETATM   38  C   UNL     1      -8.373  12.108  68.976  1.00  0.00     0.319 C  
HETATM   39  C   UNL     1     -10.047  12.453  71.093  1.00  0.00     8.423 C  
HETATM   40  C   UNL     1      -8.951  13.317  70.920  1.00  0.00     8.486 C  
ENDROOT
BRANCH  16  41
HETATM   41  O   UNL     1     -10.649  10.345  62.416  1.00  0.00     0.809 OA 
HETATM   42  C   UNL     1     -11.210  11.517  63.022  1.00  0.00     0.163 C  
ENDBRANCH  16  41
BRANCH  18  43
HETATM   43  O   UNL     1      -9.447  11.599  64.735  1.00  0.00    -0.179 OA 
HETATM   44  C   UNL     1      -9.928  11.664  66.084  1.00  0.00    -0.221 C  
ENDBRANCH  18  43
BRANCH  30  45
HETATM   45  O   UNL     1      -7.649   8.051  72.374  1.00  0.00    -0.096 OA 
HETATM   46  C   UNL     1      -8.321   6.967  73.018  1.00  0.00    -0.114 C  
ENDBRANCH  30  45
BRANCH  36  47
HETATM   47  O   UNL     1     -11.255  11.427  69.257  1.00  0.00    -0.240 OA 
HETATM   48  C   UNL     1     -12.210  12.482  69.313  1.00  0.00    -0.036 C  
ENDBRANCH  36  47
TORSDOF 4
ENDMDL
MODEL       67
REMARK 921   NORMALIZED FREE ENERGY PREDICTED BY IDOCK:   46.30 KCAL/MOL
REMARK 922        TOTAL FREE ENERGY PREDICTED BY IDOCK:   56.24 KCAL/MOL
REMARK 923 INTER-LIGAND FREE ENERGY PREDICTED BY IDOCK:   56.10 KCAL/MOL
REMARK 924 INTRA-LIGAND FREE ENERGY PREDICTED BY IDOCK:    0.14 KCAL/MOL
REMARK 927      BINDING AFFINITY PREDICTED BY RF-SCORE:    0.00 PKD
ROOT
HETATM    1  C   UNL     1      -6.168  14.508  70.877  1.00  0.00    -0.047 C  
HETATM    2  C   UNL     1      -5.351  13.613  71.892  1.00  0.00    -0.181 C  
HETATM    3  C   UNL     1      -6.031  12.453  72.551  1.00  0.00     2.345 A  
HETATM    4  C   UNL     1      -7.358  12.515  72.943  1.00  0.00    11.884 A  
HETATM    5  C   UNL     1      -8.146  11.389  72.755  1.00  0.00    17.191 A  
HETATM    6  C   UNL     1      -7.544  10.185  72.382  1.00  0.00     4.161 A  
HETATM    7  C   UNL     1      -6.192  10.061  72.599  1.00  0.00     1.090 A  
HETATM    8  O   UNL     1      -8.377   9.317  71.730  1.00  0.00    -0.284 OA 
HETATM    9  C   UNL     1      -8.019   8.165  71.065  1.00  0.00    -0.095 A  
HETATM   10  C   UNL     1      -5.409  11.205  72.587  1.00  0.00     0.667 A  
HETATM   11  C   UNL     1      -9.130   7.286  70.917  1.00  0.00    -0.151 A  
HETATM   12  C   UNL     1      -8.917   5.980  70.480  1.00  0.00    -0.150 A  
HETATM   13  C   UNL     1      -7.661   5.576  70.118  1.00  0.00    -0.085 A  
HETATM   14  C   UNL     1      -9.990   4.926  70.535  1.00  0.00    -0.311 C  
HETATM   15  C   UNL     1     -11.399   5.458  70.561  1.00  0.00     0.564 C  
HETATM   16  C   UNL     1      -6.566   6.456  70.160  1.00  0.00    -0.045 A  
HETATM   17  C   UNL     1      -7.115  13.967  69.805  1.00  0.00     0.223 C  
HETATM   18  C   UNL     1      -6.755   7.793  70.533  1.00  0.00    -0.038 A  
HETATM   19  N   UNL     1     -11.590   6.721  71.406  1.00  0.00    -0.288 N  
HETATM   20  C   UNL     1      -8.143  15.703  72.047  1.00  0.00     7.377 C  
HETATM   21  C   UNL     1     -13.063   7.098  71.248  1.00  0.00    -0.300 C  
HETATM   22  C   UNL     1      -7.532  16.305  69.020  1.00  0.00    -0.220 C  
HETATM   23  C   UNL     1     -10.571   7.823  70.959  1.00  0.00    -0.213 C  
HETATM   24  C   UNL     1     -11.351   6.518  72.907  1.00  0.00    -0.137 C  
HETATM   25  C   UNL     1      -5.858  16.471  72.532  1.00  0.00     2.176 C  
HETATM   26  C   UNL     1     -10.845   8.355  69.536  1.00  0.00    -0.126 C  
HETATM   27  C   UNL     1     -11.522   9.688  69.426  1.00  0.00     0.048 A  
HETATM   28  C   UNL     1     -10.736  10.820  69.689  1.00  0.00    -0.261 A  
HETATM   29  C   UNL     1     -10.985  12.006  69.035  1.00  0.00    -0.210 A  
HETATM   30  C   UNL     1     -12.282  12.159  68.500  1.00  0.00     0.158 A  
HETATM   31  O   UNL     1      -9.982  12.963  68.930  1.00  0.00    -0.064 OA 
HETATM   32  N   UNL     1      -6.745  15.852  71.457  1.00  0.00     2.380 N  
HETATM   33  C   UNL     1      -8.619  12.442  68.677  1.00  0.00     0.032 C  
HETATM   34  C   UNL     1     -13.152  11.072  68.368  1.00  0.00     4.059 A  
HETATM   35  C   UNL     1      -6.791  16.842  70.257  1.00  0.00     0.991 C  
HETATM   36  C   UNL     1      -8.083  12.920  67.473  1.00  0.00    -0.181 C  
HETATM   37  C   UNL     1     -12.740   9.808  68.781  1.00  0.00     3.412 A  
HETATM   38  C   UNL     1      -7.741  12.712  69.722  1.00  0.00     1.386 C  
HETATM   39  C   UNL     1      -7.726  14.269  67.490  1.00  0.00    -0.208 C  
HETATM   40  C   UNL     1      -7.400  14.832  68.737  1.00  0.00    -0.129 C  
ENDROOT
BRANCH  16  41
HETATM   41  O   UNL     1      -5.330   5.967  69.823  1.00  0.00    -0.011 OA 
HETATM   42  C   UNL     1      -5.313   4.541  69.684  1.00  0.00    -0.008 C  
ENDBRANCH  16  41
BRANCH  18  43
HETATM   43  O   UNL     1      -5.838   8.781  70.290  1.00  0.00    -0.030 OA 
HETATM   44  C   UNL     1      -5.630   9.187  68.931  1.00  0.00    -0.037 C  
ENDBRANCH  18  43
BRANCH  30  45
HETATM   45  O   UNL     1     -12.786  13.373  68.094  1.00  0.00     0.453 OA 
HETATM   46  C   UNL     1     -12.023  13.836  66.978  1.00  0.00    -0.413 C  
ENDBRANCH  30  45
BRANCH  36  47
HETATM   47  O   UNL     1      -7.247  11.970  66.884  1.00  0.00    -0.125 OA 
HETATM   48  C   UNL     1      -5.853  12.000  67.171  1.00  0.00    -0.150 C  
ENDBRANCH  36  47
TORSDOF 4
ENDMDL
MODEL       68
REMARK 921   NORMALIZED FREE ENERGY PREDICTED BY IDOCK:   49.29 KCAL/MOL
REMARK 922        TOTAL FREE ENERGY PREDICTED BY IDOCK:   59.93 KCAL/MOL
REMARK 923 INTER-LIGAND FREE ENERGY PREDICTED BY IDOCK:   59.58 KCAL/MOL
REMARK 924 INTRA-LIGAND FREE ENERGY PREDICTED BY IDOCK:    0.35 KCAL/MOL
REMARK 927      BINDING AFFINITY PREDICTED BY RF-SCORE:    0.00 PKD
ROOT
HETATM    1  C   UNL     1      -8.089  15.545  70.260  1.00  0.00     0.877 C  
HETATM    2  C   UNL     1      -8.041  16.397  68.929  1.00  0.00    -0.236 C  
HETATM    3  C   UNL     1      -7.646  15.726  67.650  1.00  0.00    -0.177 A  
HETATM    4  C   UNL     1      -6.669  14.745  67.615  1.00  0.00    -0.198 A  
HETATM    5  C   UNL     1      -6.870  13.655  66.781  1.00  0.00     1.458 A  
HETATM    6  C   UNL     1      -7.923  13.677  65.864  1.00  0.00     2.830 A  
HETATM    7  C   UNL     1      -8.461  14.903  65.550  1.00  0.00     2.406 A  
HETATM    8  O   UNL     1      -8.364  12.439  65.483  1.00  0.00     0.941 OA 
HETATM    9  C   UNL     1      -9.507  12.149  64.770  1.00  0.00     0.161 A  
HETATM   10  C   UNL     1      -8.407  15.915  66.496  1.00  0.00    -0.330 A  
HETATM   11  C   UNL     1      -9.423  10.866  64.157  1.00  0.00    -0.295 A  
HETATM   12  C   UNL     1     -10.376  10.494  63.210  1.00  0.00     0.155 A  
HETATM   13  C   UNL     1     -11.428  11.325  62.938  1.00  0.00     0.625 A  
HETATM   14  C   UNL     1     -10.219   9.274  62.345  1.00  0.00     2.772 C  
HETATM   15  C   UNL     1      -9.305   8.215  62.903  1.00  0.00     1.901 C  
HETATM   16  C   UNL     1     -11.587  12.552  63.604  1.00  0.00    -0.504 A  
HETATM   17  C   UNL     1      -8.676  14.138  70.375  1.00  0.00     2.621 C  
HETATM   18  C   UNL     1     -10.683  12.929  64.606  1.00  0.00    -0.353 A  
HETATM   19  N   UNL     1      -8.061   8.754  63.613  1.00  0.00    -0.163 N  
HETATM   20  C   UNL     1      -5.747  14.642  70.889  1.00  0.00    -0.154 C  
HETATM   21  C   UNL     1      -7.319   7.520  64.129  1.00  0.00    -0.091 C  
HETATM   22  C   UNL     1      -8.176  14.150  72.827  1.00  0.00     8.985 C  
HETATM   23  C   UNL     1      -8.478   9.787  64.714  1.00  0.00    -0.164 C  
HETATM   24  C   UNL     1      -7.083   9.498  62.695  1.00  0.00    -0.102 C  
HETATM   25  C   UNL     1      -6.183  17.048  71.155  1.00  0.00     1.696 C  
HETATM   26  C   UNL     1      -9.250   9.140  65.884  1.00  0.00    -0.286 C  
HETATM   27  C   UNL     1      -8.488   8.899  67.152  1.00  0.00    -0.106 A  
HETATM   28  C   UNL     1      -8.224  10.019  67.955  1.00  0.00    -0.116 A  
HETATM   29  C   UNL     1      -8.153   9.891  69.324  1.00  0.00    -0.128 A  
HETATM   30  C   UNL     1      -7.879   8.596  69.813  1.00  0.00    -0.093 A  
HETATM   31  O   UNL     1      -8.352  11.003  70.135  1.00  0.00     0.745 OA 
HETATM   32  N   UNL     1      -6.832  15.668  71.198  1.00  0.00     1.462 N  
HETATM   33  C   UNL     1      -9.417  11.934  69.699  1.00  0.00     1.481 C  
HETATM   34  C   UNL     1      -7.981   7.467  68.992  1.00  0.00    -0.122 A  
HETATM   35  C   UNL     1      -7.362  15.443  72.644  1.00  0.00     6.309 C  
HETATM   36  C   UNL     1     -10.433  12.064  70.656  1.00  0.00     3.599 C  
HETATM   37  C   UNL     1      -8.351   7.618  67.659  1.00  0.00    -0.118 A  
HETATM   38  C   UNL     1      -8.923  13.192  69.367  1.00  0.00     1.187 C  
HETATM   39  C   UNL     1     -10.070  12.777  71.799  1.00  0.00    12.467 C  
HETATM   40  C   UNL     1      -9.035  13.720  71.666  1.00  0.00    10.161 C  
ENDROOT
BRANCH  16  41
HETATM   41  O   UNL     1     -12.643  13.350  63.247  1.00  0.00    -0.715 OA 
HETATM   42  C   UNL     1     -12.454  14.723  63.614  1.00  0.00     0.602 C  
ENDBRANCH  16  41
BRANCH  18  43
HETATM   43  O   UNL     1     -10.936  13.919  65.517  1.00  0.00    -0.292 OA 
HETATM   44  C   UNL     1     -11.668  13.575  66.701  1.00  0.00    -0.387 C  
ENDBRANCH  18  43
BRANCH  30  45
HETATM   45  O   UNL     1      -7.479   8.353  71.106  1.00  0.00    -0.068 OA 
HETATM   46  C   UNL     1      -7.415   6.940  71.309  1.00  0.00    -0.082 C  
ENDBRANCH  30  45
BRANCH  36  47
HETATM   47  O   UNL     1     -11.671  12.279  70.047  1.00  0.00    -0.306 OA 
HETATM   48  C   UNL     1     -12.290  13.556  70.167  1.00  0.00    -0.275 C  
ENDBRANCH  36  47
TORSDOF 4
ENDMDL
MODEL       69
REMARK 921   NORMALIZED FREE ENERGY PREDICTED BY IDOCK:   52.75 KCAL/MOL
REMARK 922        TOTAL FREE ENERGY PREDICTED BY IDOCK:   64.19 KCAL/MOL
REMARK 923 INTER-LIGAND FREE ENERGY PREDICTED BY IDOCK:   61.28 KCAL/MOL
REMARK 924 INTRA-LIGAND FREE ENERGY PREDICTED BY IDOCK:    2.91 KCAL/MOL
REMARK 927      BINDING AFFINITY PREDICTED BY RF-SCORE:    0.00 PKD
ROOT
HETATM    1  C   UNL     1     -11.149  13.867  72.155  1.00  0.00     3.405 C  
HETATM    2  C   UNL     1     -12.004  12.542  72.056  1.00  0.00     1.928 C  
HETATM    3  C   UNL     1     -12.209  11.906  70.715  1.00  0.00    -0.401 A  
HETATM    4  C   UNL     1     -12.385  12.665  69.570  1.00  0.00    -0.002 A  
HETATM    5  C   UNL     1     -11.779  12.231  68.402  1.00  0.00    -0.390 A  
HETATM    6  C   UNL     1     -11.198  10.961  68.360  1.00  0.00    -0.285 A  
HETATM    7  C   UNL     1     -11.587  10.058  69.321  1.00  0.00    -0.043 A  
HETATM    8  O   UNL     1     -10.211  10.823  67.422  1.00  0.00    -0.189 OA 
HETATM    9  C   UNL     1      -9.328   9.773  67.295  1.00  0.00    -0.138 A  
HETATM   10  C   UNL     1     -12.008  10.536  70.552  1.00  0.00    -0.436 A  
HETATM   11  C   UNL     1      -8.773   9.719  65.985  1.00  0.00    -0.156 A  
HETATM   12  C   UNL     1      -8.042   8.598  65.595  1.00  0.00    -0.110 A  
HETATM   13  C   UNL     1      -7.791   7.599  66.496  1.00  0.00    -0.105 A  
HETATM   14  C   UNL     1      -7.640   8.354  64.167  1.00  0.00    -0.125 C  
HETATM   15  C   UNL     1      -7.581   9.588  63.306  1.00  0.00    -0.115 C  
HETATM   16  C   UNL     1      -8.242   7.678  67.825  1.00  0.00    -0.119 A  
HETATM   17  C   UNL     1      -9.834  14.114  71.415  1.00  0.00     5.050 C  
HETATM   18  C   UNL     1      -8.926   8.818  68.267  1.00  0.00    -0.141 A  
HETATM   19  N   UNL     1      -8.692  10.608  63.573  1.00  0.00    -0.172 N  
HETATM   20  C   UNL     1     -12.264  15.811  70.862  1.00  0.00    -0.413 C  
HETATM   21  C   UNL     1      -8.407  11.777  62.631  1.00  0.00     0.910 C  
HETATM   22  C   UNL     1      -9.649  16.348  72.526  1.00  0.00     9.290 C  
HETATM   23  C   UNL     1      -8.727  10.973  65.095  1.00  0.00    -0.061 C  
HETATM   24  C   UNL     1     -10.101  10.108  63.234  1.00  0.00     0.507 C  
HETATM   25  C   UNL     1     -13.298  15.059  72.963  1.00  0.00    -0.467 C  
HETATM   26  C   UNL     1      -7.474  11.748  65.557  1.00  0.00     1.337 C  
HETATM   27  C   UNL     1      -7.618  13.229  65.742  1.00  0.00     4.050 A  
HETATM   28  C   UNL     1      -8.299  13.660  66.891  1.00  0.00    -0.017 A  
HETATM   29  C   UNL     1      -7.956  14.848  67.497  1.00  0.00    -0.178 A  
HETATM   30  C   UNL     1      -7.281  15.786  66.687  1.00  0.00     0.220 A  
HETATM   31  O   UNL     1      -8.274  15.061  68.834  1.00  0.00    -0.157 OA 
HETATM   32  N   UNL     1     -11.968  15.208  72.231  1.00  0.00    -0.382 N  
HETATM   33  C   UNL     1      -8.112  13.892  69.728  1.00  0.00     1.059 C  
HETATM   34  C   UNL     1      -6.724  15.422  65.456  1.00  0.00     7.694 A  
HETATM   35  C   UNL     1     -11.087  16.194  73.051  1.00  0.00     1.505 C  
HETATM   36  C   UNL     1      -7.183  14.130  70.750  1.00  0.00     1.372 C  
HETATM   37  C   UNL     1      -6.843  14.110  65.008  1.00  0.00    14.772 A  
HETATM   38  C   UNL     1      -9.317  13.469  70.279  1.00  0.00     3.656 C  
HETATM   39  C   UNL     1      -7.618  15.013  71.738  1.00  0.00     3.704 C  
HETATM   40  C   UNL     1      -9.005  15.118  71.941  1.00  0.00     5.291 C  
ENDROOT
BRANCH  16  41
HETATM   41  O   UNL     1      -7.989   6.619  68.658  1.00  0.00    -0.115 OA 
HETATM   42  C   UNL     1      -8.913   5.537  68.482  1.00  0.00    -0.110 C  
ENDBRANCH  16  41
BRANCH  18  43
HETATM   43  O   UNL     1      -9.107   9.124  69.590  1.00  0.00    -0.145 OA 
HETATM   44  C   UNL     1      -9.035  10.503  69.978  1.00  0.00     0.490 C  
ENDBRANCH  18  43
BRANCH  30  45
HETATM   45  O   UNL     1      -7.141  17.110  67.032  1.00  0.00    -0.158 OA 
HETATM   46  C   UNL     1      -5.780  17.346  67.399  1.00  0.00    -0.135 C  
ENDBRANCH  30  45
BRANCH  36  47
HETATM   47  O   UNL     1      -6.502  12.960  71.092  1.00  0.00     0.427 OA 
HETATM   48  C   UNL     1      -5.212  13.056  71.686  1.00  0.00    -0.126 C  
ENDBRANCH  36  47
TORSDOF 4
ENDMDL
MODEL       70
REMARK 921   NORMALIZED FREE ENERGY PREDICTED BY IDOCK:   53.05 KCAL/MOL
REMARK 922        TOTAL FREE ENERGY PREDICTED BY IDOCK:   64.57 KCAL/MOL
REMARK 923 INTER-LIGAND FREE ENERGY PREDICTED BY IDOCK:   62.99 KCAL/MOL
REMARK 924 INTRA-LIGAND FREE ENERGY PREDICTED BY IDOCK:    1.58 KCAL/MOL
REMARK 927      BINDING AFFINITY PREDICTED BY RF-SCORE:    0.00 PKD
ROOT
HETATM    1  C   UNL     1     -13.466  15.052  65.831  1.00  0.00     2.182 C  
HETATM    2  C   UNL     1     -13.726  14.055  64.632  1.00  0.00     2.361 C  
HETATM    3  C   UNL     1     -12.627  13.134  64.200  1.00  0.00    -0.261 A  
HETATM    4  C   UNL     1     -11.301  13.534  64.200  1.00  0.00    -0.370 A  
HETATM    5  C   UNL     1     -10.344  12.618  64.610  1.00  0.00    -0.354 A  
HETATM    6  C   UNL     1     -10.710  11.284  64.805  1.00  0.00    -0.285 A  
HETATM    7  C   UNL     1     -11.876  10.857  64.216  1.00  0.00     1.414 A  
HETATM    8  O   UNL     1      -9.902  10.600  65.673  1.00  0.00    -0.222 OA 
HETATM    9  C   UNL     1     -10.135   9.356  66.217  1.00  0.00    -0.258 A  
HETATM   10  C   UNL     1     -12.888  11.779  63.998  1.00  0.00    -0.181 A  
HETATM   11  C   UNL     1      -8.928   8.759  66.680  1.00  0.00    -0.168 A  
HETATM   12  C   UNL     1      -8.924   7.414  67.047  1.00  0.00    -0.142 A  
HETATM   13  C   UNL     1     -10.092   6.702  67.042  1.00  0.00    -0.247 A  
HETATM   14  C   UNL     1      -7.654   6.652  67.305  1.00  0.00    -0.100 C  
HETATM   15  C   UNL     1      -6.468   7.504  67.675  1.00  0.00    -0.057 C  
HETATM   16  C   UNL     1     -11.315   7.297  66.687  1.00  0.00     1.220 A  
HETATM   17  C   UNL     1     -12.749  14.685  67.130  1.00  0.00     0.898 C  
HETATM   18  C   UNL     1     -11.365   8.662  66.372  1.00  0.00     2.738 A  
HETATM   19  N   UNL     1      -6.368   8.827  66.911  1.00  0.00    -0.059 N  
HETATM   20  C   UNL     1     -11.603  16.754  65.259  1.00  0.00     0.872 C  
HETATM   21  C   UNL     1      -5.135   9.532  67.476  1.00  0.00    -0.036 C  
HETATM   22  C   UNL     1     -13.152  17.002  67.985  1.00  0.00     5.391 C  
HETATM   23  C   UNL     1      -7.709   9.624  67.043  1.00  0.00    -0.095 C  
HETATM   24  C   UNL     1      -6.126   8.667  65.405  1.00  0.00    -0.049 C  
HETATM   25  C   UNL     1     -13.781  16.986  64.142  1.00  0.00     8.988 C  
HETATM   26  C   UNL     1      -7.977  10.115  68.482  1.00  0.00    -0.104 C  
HETATM   27  C   UNL     1      -7.707  11.561  68.770  1.00  0.00    -0.124 A  
HETATM   28  C   UNL     1      -8.642  12.489  68.287  1.00  0.00    -0.173 A  
HETATM   29  C   UNL     1      -8.883  13.656  68.977  1.00  0.00     0.333 A  
HETATM   30  C   UNL     1      -7.863  14.079  69.855  1.00  0.00     0.906 A  
HETATM   31  O   UNL     1     -10.079  14.339  68.787  1.00  0.00    -0.232 OA 
HETATM   32  N   UNL     1     -13.101  16.529  65.428  1.00  0.00     4.748 N  
HETATM   33  C   UNL     1     -11.287  13.494  68.648  1.00  0.00    -0.288 C  
HETATM   34  C   UNL     1      -6.823  13.224  70.236  1.00  0.00     0.699 A  
HETATM   35  C   UNL     1     -13.632  17.423  66.585  1.00  0.00    12.116 C  
HETATM   36  C   UNL     1     -12.235  13.754  69.648  1.00  0.00    -0.305 C  
HETATM   37  C   UNL     1      -6.782  11.927  69.732  1.00  0.00     0.046 A  
HETATM   38  C   UNL     1     -11.882  13.613  67.396  1.00  0.00    -0.429 C  
HETATM   39  C   UNL     1     -12.894  14.977  69.521  1.00  0.00     0.239 C  
HETATM   40  C   UNL     1     -12.991  15.524  68.230  1.00  0.00     2.202 C  
ENDROOT
BRANCH  16  41
HETATM   41  O   UNL     1     -12.436   6.509  66.663  1.00  0.00     3.263 OA 
HETATM   42  C   UNL     1     -12.280   5.341  65.847  1.00  0.00     3.847 C  
ENDBRANCH  16  41
BRANCH  18  43
HETATM   43  O   UNL     1     -12.527   9.386  66.340  1.00  0.00     7.296 OA 
HETATM   44  C   UNL     1     -12.589  10.593  67.111  1.00  0.00     5.260 C  
ENDBRANCH  18  43
BRANCH  30  45
HETATM   45  O   UNL     1      -7.805  15.350  70.379  1.00  0.00     0.413 OA 
HETATM   46  C   UNL     1      -8.085  16.287  69.337  1.00  0.00    -0.048 C  
ENDBRANCH  30  45
BRANCH  36  47
HETATM   47  O   UNL     1     -12.941  12.597  69.983  1.00  0.00     0.399 OA 
HETATM   48  C   UNL     1     -13.034  12.213  71.351  1.00  0.00    -0.257 C  
ENDBRANCH  36  47
TORSDOF 4
ENDMDL
MODEL       71
REMARK 921   NORMALIZED FREE ENERGY PREDICTED BY IDOCK:   56.18 KCAL/MOL
REMARK 922        TOTAL FREE ENERGY PREDICTED BY IDOCK:   68.43 KCAL/MOL
REMARK 923 INTER-LIGAND FREE ENERGY PREDICTED BY IDOCK:   65.78 KCAL/MOL
REMARK 924 INTRA-LIGAND FREE ENERGY PREDICTED BY IDOCK:    2.64 KCAL/MOL
REMARK 927      BINDING AFFINITY PREDICTED BY RF-SCORE:    0.00 PKD
ROOT
HETATM    1  C   UNL     1     -11.922  11.925  70.446  1.00  0.00    -0.311 C  
HETATM    2  C   UNL     1     -11.602  11.498  68.958  1.00  0.00    -0.383 C  
HETATM    3  C   UNL     1     -11.493  12.557  67.905  1.00  0.00    -0.369 A  
HETATM    4  C   UNL     1     -12.315  13.672  67.907  1.00  0.00     0.008 A  
HETATM    5  C   UNL     1     -11.756  14.893  67.560  1.00  0.00    -0.328 A  
HETATM    6  C   UNL     1     -10.466  14.931  67.027  1.00  0.00    -0.272 A  
HETATM    7  C   UNL     1      -9.963  13.763  66.507  1.00  0.00    -0.290 A  
HETATM    8  O   UNL     1      -9.817  16.123  67.207  1.00  0.00    -0.235 OA 
HETATM    9  C   UNL     1      -8.483  16.383  66.984  1.00  0.00    -0.197 A  
HETATM   10  C   UNL     1     -10.414  12.557  67.021  1.00  0.00    -0.246 A  
HETATM   11  C   UNL     1      -8.248  17.778  66.818  1.00  0.00    -0.275 A  
HETATM   12  C   UNL     1      -7.008  18.215  66.355  1.00  0.00    -0.270 A  
HETATM   13  C   UNL     1      -6.001  17.312  66.146  1.00  0.00    -0.086 A  
HETATM   14  C   UNL     1      -6.763  19.633  65.919  1.00  0.00    -0.267 C  
HETATM   15  C   UNL     1      -7.714  20.647  66.499  1.00  0.00    -0.049 C  
HETATM   16  C   UNL     1      -6.178  15.942  66.400  1.00  0.00     1.600 A  
HETATM   17  C   UNL     1     -11.287  13.113  71.169  1.00  0.00     1.980 C  
HETATM   18  C   UNL     1      -7.391  15.476  66.925  1.00  0.00    -0.023 A  
HETATM   19  N   UNL     1      -9.166  20.172  66.611  1.00  0.00    -0.361 N  
HETATM   20  C   UNL     1     -14.253  13.035  70.631  1.00  0.00     3.297 C  
HETATM   21  C   UNL     1      -9.925  21.329  67.258  1.00  0.00     0.667 C  
HETATM   22  C   UNL     1     -12.566  12.518  73.235  1.00  0.00     4.534 C  
HETATM   23  C   UNL     1      -9.226  18.816  67.394  1.00  0.00    -0.282 C  
HETATM   24  C   UNL     1      -9.846  19.903  65.263  1.00  0.00     0.657 C  
HETATM   25  C   UNL     1     -14.139  10.612  70.225  1.00  0.00     2.498 C  
HETATM   26  C   UNL     1      -8.830  18.962  68.879  1.00  0.00    -0.267 C  
HETATM   27  C   UNL     1      -9.944  18.980  69.882  1.00  0.00     0.593 A  
HETATM   28  C   UNL     1     -10.555  17.750  70.173  1.00  0.00     1.128 A  
HETATM   29  C   UNL     1     -11.062  17.506  71.430  1.00  0.00     1.944 A  
HETATM   30  C   UNL     1     -11.368  18.644  72.207  1.00  0.00     4.508 A  
HETATM   31  O   UNL     1     -11.239  16.197  71.863  1.00  0.00    -0.156 OA 
HETATM   32  N   UNL     1     -13.424  11.782  70.892  1.00  0.00     0.593 N  
HETATM   33  C   UNL     1     -10.175  15.242  71.477  1.00  0.00     1.392 C  
HETATM   34  C   UNL     1     -10.903  19.916  71.856  1.00  0.00     5.437 A  
HETATM   35  C   UNL     1     -13.383  11.498  72.422  1.00  0.00     0.281 C  
HETATM   36  C   UNL     1      -9.547  14.669  72.592  1.00  0.00     6.762 C  
HETATM   37  C   UNL     1     -10.129  20.073  70.710  1.00  0.00     1.500 A  
HETATM   38  C   UNL     1     -10.639  14.238  70.632  1.00  0.00     1.042 C  
HETATM   39  C   UNL     1     -10.327  13.748  73.290  1.00  0.00     8.716 C  
HETATM   40  C   UNL     1     -11.338  13.085  72.572  1.00  0.00     5.886 C  
ENDROOT
BRANCH  16  41
HETATM   41  O   UNL     1      -5.137  15.093  66.125  1.00  0.00     2.580 OA 
HETATM   42  C   UNL     1      -5.242  13.841  66.815  1.00  0.00     1.942 C  
ENDBRANCH  16  41
BRANCH  18  43
HETATM   43  O   UNL     1      -7.540  14.244  67.503  1.00  0.00    -0.163 OA 
HETATM   44  C   UNL     1      -7.633  14.177  68.932  1.00  0.00    -0.098 C  
ENDBRANCH  18  43
BRANCH  30  45
HETATM   45  O   UNL     1     -12.150  18.590  73.337  1.00  0.00     3.109 OA 
HETATM   46  C   UNL     1     -11.635  17.576  74.202  1.00  0.00     0.594 C  
ENDBRANCH  30  45
BRANCH  36  47
HETATM   47  O   UNL     1      -8.201  14.407  72.328  1.00  0.00     4.580 OA 
HETATM   48  C   UNL     1      -7.505  15.226  71.395  1.00  0.00     2.885 C  
ENDBRANCH  36  47
TORSDOF 4
ENDMDL
MODEL       72
REMARK 921   NORMALIZED FREE ENERGY PREDICTED BY IDOCK:   57.12 KCAL/MOL
REMARK 922        TOTAL FREE ENERGY PREDICTED BY IDOCK:   69.59 KCAL/MOL
REMARK 923 INTER-LIGAND FREE ENERGY PREDICTED BY IDOCK:   69.18 KCAL/MOL
REMARK 924 INTRA-LIGAND FREE ENERGY PREDICTED BY IDOCK:    0.41 KCAL/MOL
REMARK 927      BINDING AFFINITY PREDICTED BY RF-SCORE:    0.00 PKD
ROOT
HETATM    1  C   UNL     1     -13.489   9.216  71.548  1.00  0.00    -0.356 C  
HETATM    2  C   UNL     1     -14.172   9.553  70.163  1.00  0.00     1.664 C  
HETATM    3  C   UNL     1     -13.308   9.753  68.955  1.00  0.00     4.755 A  
HETATM    4  C   UNL     1     -12.077  10.382  69.037  1.00  0.00     0.133 A  
HETATM    5  C   UNL     1     -11.035   9.875  68.276  1.00  0.00    -0.248 A  
HETATM    6  C   UNL     1     -11.301   8.901  67.310  1.00  0.00     1.191 A  
HETATM    7  C   UNL     1     -12.602   8.773  66.884  1.00  0.00    11.442 A  
HETATM    8  O   UNL     1     -10.229   8.110  66.998  1.00  0.00    -0.250 OA 
HETATM    9  C   UNL     1     -10.242   6.950  66.255  1.00  0.00     0.215 A  
HETATM   10  C   UNL     1     -13.624   9.114  67.756  1.00  0.00    17.459 A  
HETATM   11  C   UNL     1      -8.948   6.650  65.741  1.00  0.00    -0.050 A  
HETATM   12  C   UNL     1      -8.807   5.651  64.779  1.00  0.00     0.057 A  
HETATM   13  C   UNL     1      -9.894   4.911  64.398  1.00  0.00     0.374 A  
HETATM   14  C   UNL     1      -7.530   5.445  64.011  1.00  0.00    -0.061 C  
HETATM   15  C   UNL     1      -6.293   5.976  64.687  1.00  0.00    -0.033 C  
HETATM   16  C   UNL     1     -11.162   5.122  64.965  1.00  0.00     1.190 A  
HETATM   17  C   UNL     1     -12.342   8.223  71.735  1.00  0.00    -0.366 C  
HETATM   18  C   UNL     1     -11.327   6.074  65.980  1.00  0.00     1.388 A  
HETATM   19  N   UNL     1      -6.484   7.309  65.415  1.00  0.00    -0.043 N  
HETATM   20  C   UNL     1     -11.971  11.151  72.351  1.00  0.00     2.917 C  
HETATM   21  C   UNL     1      -5.131   7.623  66.053  1.00  0.00    -0.025 C  
HETATM   22  C   UNL     1     -12.404   8.644  74.201  1.00  0.00     7.073 C  
HETATM   23  C   UNL     1      -7.683   7.204  66.418  1.00  0.00    -0.100 C  
HETATM   24  C   UNL     1      -6.816   8.489  64.493  1.00  0.00    -0.069 C  
HETATM   25  C   UNL     1     -14.408  11.470  72.421  1.00  0.00     1.354 C  
HETATM   26  C   UNL     1      -7.401   6.243  67.593  1.00  0.00    -0.084 C  
HETATM   27  C   UNL     1      -7.045   6.865  68.910  1.00  0.00    -0.089 A  
HETATM   28  C   UNL     1      -8.095   7.442  69.642  1.00  0.00    -0.128 A  
HETATM   29  C   UNL     1      -8.065   7.438  71.019  1.00  0.00    -0.101 A  
HETATM   30  C   UNL     1      -6.794   7.290  71.612  1.00  0.00    -0.055 A  
HETATM   31  O   UNL     1      -9.248   7.572  71.738  1.00  0.00    -0.139 OA 
HETATM   32  N   UNL     1     -13.301  10.428  72.533  1.00  0.00     0.011 N  
HETATM   33  C   UNL     1     -10.421   6.855  71.186  1.00  0.00    -0.212 C  
HETATM   34  C   UNL     1      -5.686   6.865  70.871  1.00  0.00    -0.027 A  
HETATM   35  C   UNL     1     -13.368   9.821  73.964  1.00  0.00     7.312 C  
HETATM   36  C   UNL     1     -10.932   5.906  72.082  1.00  0.00    -0.266 C  
HETATM   37  C   UNL     1      -5.831   6.591  69.514  1.00  0.00    -0.014 A  
HETATM   38  C   UNL     1     -11.436   7.719  70.787  1.00  0.00    -0.285 C  
HETATM   39  C   UNL     1     -11.594   6.445  73.186  1.00  0.00     0.233 C  
HETATM   40  C   UNL     1     -12.162   7.722  73.035  1.00  0.00     0.361 C  
ENDROOT
BRANCH  16  41
HETATM   41  O   UNL     1     -12.211   4.371  64.502  1.00  0.00     1.432 OA 
HETATM   42  C   UNL     1     -11.891   3.639  63.312  1.00  0.00     1.926 C  
ENDBRANCH  16  41
BRANCH  18  43
HETATM   43  O   UNL     1     -12.419   6.118  66.804  1.00  0.00     3.345 OA 
HETATM   44  C   UNL     1     -12.214   5.896  68.206  1.00  0.00     4.736 C  
ENDBRANCH  18  43
BRANCH  30  45
HETATM   45  O   UNL     1      -6.549   7.566  72.937  1.00  0.00    -0.062 OA 
HETATM   46  C   UNL     1      -7.136   6.537  73.736  1.00  0.00    -0.081 C  
ENDBRANCH  30  45
BRANCH  36  47
HETATM   47  O   UNL     1     -11.463   4.809  71.400  1.00  0.00     0.773 OA 
HETATM   48  C   UNL     1     -10.638   3.671  71.171  1.00  0.00     0.978 C  
ENDBRANCH  36  47
TORSDOF 4
ENDMDL
MODEL       73
REMARK 921   NORMALIZED FREE ENERGY PREDICTED BY IDOCK:   58.29 KCAL/MOL
REMARK 922        TOTAL FREE ENERGY PREDICTED BY IDOCK:   71.03 KCAL/MOL
REMARK 923 INTER-LIGAND FREE ENERGY PREDICTED BY IDOCK:   67.69 KCAL/MOL
REMARK 924 INTRA-LIGAND FREE ENERGY PREDICTED BY IDOCK:    3.34 KCAL/MOL
REMARK 927      BINDING AFFINITY PREDICTED BY RF-SCORE:    0.00 PKD
ROOT
HETATM    1  C   UNL     1      -8.933   7.359  65.485  1.00  0.00     0.117 C  
HETATM    2  C   UNL     1     -10.016   8.181  64.679  1.00  0.00     3.240 C  
HETATM    3  C   UNL     1     -10.958   9.072  65.426  1.00  0.00     3.748 A  
HETATM    4  C   UNL     1     -11.464   8.719  66.666  1.00  0.00     2.615 A  
HETATM    5  C   UNL     1     -11.586   9.712  67.627  1.00  0.00     1.189 A  
HETATM    6  C   UNL     1     -11.401  11.047  67.262  1.00  0.00    -0.188 A  
HETATM    7  C   UNL     1     -11.497  11.355  65.925  1.00  0.00     0.027 A  
HETATM    8  O   UNL     1     -11.023  11.866  68.291  1.00  0.00    -0.204 OA 
HETATM    9  C   UNL     1     -10.567  13.162  68.196  1.00  0.00    -0.245 A  
HETATM   10  C   UNL     1     -11.177  10.380  64.993  1.00  0.00     1.197 A  
HETATM   11  C   UNL     1     -10.711  13.853  69.433  1.00  0.00    -0.051 A  
HETATM   12  C   UNL     1     -10.524  15.234  69.472  1.00  0.00    -0.265 A  
HETATM   13  C   UNL     1     -10.122  15.902  68.348  1.00  0.00    -0.223 A  
HETATM   14  C   UNL     1     -10.897  16.065  70.670  1.00  0.00    -0.183 C  
HETATM   15  C   UNL     1     -10.962  15.308  71.970  1.00  0.00     0.138 C  
HETATM   16  C   UNL     1      -9.875  15.226  67.141  1.00  0.00    -0.224 A  
HETATM   17  C   UNL     1      -8.093   7.917  66.634  1.00  0.00    -0.107 C  
HETATM   18  C   UNL     1      -9.992  13.830  67.082  1.00  0.00    -0.243 A  
HETATM   19  N   UNL     1     -11.554  13.900  71.862  1.00  0.00     1.014 N  
HETATM   20  C   UNL     1     -10.038   5.658  67.091  1.00  0.00    -0.183 C  
HETATM   21  C   UNL     1     -11.477  13.316  73.272  1.00  0.00     6.144 C  
HETATM   22  C   UNL     1      -6.906   5.721  66.809  1.00  0.00    -0.063 C  
HETATM   23  C   UNL     1     -10.795  13.083  70.762  1.00  0.00     2.895 C  
HETATM   24  C   UNL     1     -13.032  13.867  71.457  1.00  0.00    -0.358 C  
HETATM   25  C   UNL     1     -10.123   5.211  64.675  1.00  0.00     0.749 C  
HETATM   26  C   UNL     1      -9.330  12.778  71.143  1.00  0.00    11.994 C  
HETATM   27  C   UNL     1      -9.027  11.392  71.628  1.00  0.00    12.234 A  
HETATM   28  C   UNL     1      -8.978  10.379  70.657  1.00  0.00     1.477 A  
HETATM   29  C   UNL     1      -8.130   9.305  70.816  1.00  0.00    -0.156 A  
HETATM   30  C   UNL     1      -7.712   9.035  72.137  1.00  0.00     0.339 A  
HETATM   31  O   UNL     1      -7.735   8.565  69.708  1.00  0.00    -0.087 OA 
HETATM   32  N   UNL     1      -9.290   5.855  65.778  1.00  0.00    -0.061 N  
HETATM   33  C   UNL     1      -7.451   9.345  68.482  1.00  0.00    -0.080 C  
HETATM   34  C   UNL     1      -7.889   9.966  73.166  1.00  0.00     4.296 A  
HETATM   35  C   UNL     1      -7.929   5.104  65.839  1.00  0.00    -0.108 C  
HETATM   36  C   UNL     1      -6.128   9.188  68.047  1.00  0.00    -0.050 C  
HETATM   37  C   UNL     1      -8.501  11.186  72.890  1.00  0.00    17.022 A  
HETATM   38  C   UNL     1      -8.325   9.043  67.442  1.00  0.00    -0.112 C  
HETATM   39  C   UNL     1      -5.840   7.938  67.498  1.00  0.00    -0.038 C  
HETATM   40  C   UNL     1      -6.909   7.223  66.931  1.00  0.00    -0.069 C  
ENDROOT
BRANCH  16  41
HETATM   41  O   UNL     1      -9.516  15.967  66.045  1.00  0.00    -0.307 OA 
HETATM   42  C   UNL     1     -10.092  15.477  64.827  1.00  0.00     0.286 C  
ENDBRANCH  16  41
BRANCH  18  43
HETATM   43  O   UNL     1      -9.465  13.070  66.072  1.00  0.00    -0.209 OA 
HETATM   44  C   UNL     1      -8.054  12.812  66.090  1.00  0.00     1.085 C  
ENDBRANCH  18  43
BRANCH  30  45
HETATM   45  O   UNL     1      -7.128   7.847  72.508  1.00  0.00    -0.073 OA 
HETATM   46  C   UNL     1      -6.845   7.088  71.331  1.00  0.00    -0.060 C  
ENDBRANCH  30  45
BRANCH  36  47
HETATM   47  O   UNL     1      -5.657  10.356  67.444  1.00  0.00    -0.041 OA 
HETATM   48  C   UNL     1      -6.481  11.028  66.496  1.00  0.00    -0.132 C  
ENDBRANCH  36  47
TORSDOF 4
ENDMDL
MODEL       74
REMARK 921   NORMALIZED FREE ENERGY PREDICTED BY IDOCK:   61.38 KCAL/MOL
REMARK 922        TOTAL FREE ENERGY PREDICTED BY IDOCK:   74.84 KCAL/MOL
REMARK 923 INTER-LIGAND FREE ENERGY PREDICTED BY IDOCK:   74.41 KCAL/MOL
REMARK 924 INTRA-LIGAND FREE ENERGY PREDICTED BY IDOCK:    0.43 KCAL/MOL
REMARK 927      BINDING AFFINITY PREDICTED BY RF-SCORE:    0.00 PKD
ROOT
HETATM    1  C   UNL     1      -7.533   9.313  63.605  1.00  0.00    -0.106 C  
HETATM    2  C   UNL     1      -7.289   7.752  63.626  1.00  0.00    -0.100 C  
HETATM    3  C   UNL     1      -7.155   7.054  64.944  1.00  0.00    -0.064 A  
HETATM    4  C   UNL     1      -6.509   7.644  66.018  1.00  0.00    -0.042 A  
HETATM    5  C   UNL     1      -7.051   7.466  67.282  1.00  0.00    -0.084 A  
HETATM    6  C   UNL     1      -8.085   6.544  67.462  1.00  0.00    -0.121 A  
HETATM    7  C   UNL     1      -8.252   5.586  66.490  1.00  0.00    -0.105 A  
HETATM    8  O   UNL     1      -8.883   6.797  68.544  1.00  0.00    -0.124 OA 
HETATM    9  C   UNL     1     -10.086   6.197  68.846  1.00  0.00    -0.173 A  
HETATM   10  C   UNL     1      -7.870   5.881  65.191  1.00  0.00    -0.107 A  
HETATM   11  C   UNL     1     -10.403   6.341  70.227  1.00  0.00    -0.258 A  
HETATM   12  C   UNL     1     -11.458   5.607  70.768  1.00  0.00     0.198 A  
HETATM   13  C   UNL     1     -12.231   4.822  69.957  1.00  0.00     8.626 A  
HETATM   14  C   UNL     1     -11.698   5.511  72.250  1.00  0.00    -0.127 C  
HETATM   15  C   UNL     1     -11.113   6.639  73.060  1.00  0.00    -0.205 C  
HETATM   16  C   UNL     1     -12.000   4.744  68.573  1.00  0.00     8.622 A  
HETATM   17  C   UNL     1      -8.501  10.056  64.526  1.00  0.00    -0.180 C  
HETATM   18  C   UNL     1     -10.988   5.516  67.986  1.00  0.00     0.207 A  
HETATM   19  N   UNL     1      -9.740   7.122  72.585  1.00  0.00    -0.153 N  
HETATM   20  C   UNL     1      -5.536  10.597  64.634  1.00  0.00    -0.077 C  
HETATM   21  C   UNL     1      -9.373   8.281  73.512  1.00  0.00    -0.018 C  
HETATM   22  C   UNL     1      -7.929  12.199  63.368  1.00  0.00     3.170 C  
HETATM   23  C   UNL     1      -9.795   7.481  71.062  1.00  0.00    -0.179 C  
HETATM   24  C   UNL     1      -8.622   6.081  72.726  1.00  0.00    -0.124 C  
HETATM   25  C   UNL     1      -5.240   9.543  62.432  1.00  0.00    -0.083 C  
HETATM   26  C   UNL     1     -10.679   8.712  70.766  1.00  0.00    -0.260 C  
HETATM   27  C   UNL     1      -9.974  10.008  70.502  1.00  0.00    -0.038 A  
HETATM   28  C   UNL     1      -9.364  10.153  69.246  1.00  0.00    -0.227 A  
HETATM   29  C   UNL     1      -9.283  11.393  68.652  1.00  0.00    -0.146 A  
HETATM   30  C   UNL     1      -9.381  12.503  69.517  1.00  0.00     1.563 A  
HETATM   31  O   UNL     1      -9.117  11.492  67.275  1.00  0.00    -0.160 OA 
HETATM   32  N   UNL     1      -6.261  10.203  63.352  1.00  0.00    -0.137 N  
HETATM   33  C   UNL     1      -9.879  10.515  66.464  1.00  0.00    -0.206 C  
HETATM   34  C   UNL     1      -9.839  12.368  70.833  1.00  0.00     7.839 A  
HETATM   35  C   UNL     1      -6.780  11.484  62.636  1.00  0.00     1.056 C  
HETATM   36  C   UNL     1     -10.777  11.138  65.586  1.00  0.00    -0.185 C  
HETATM   37  C   UNL     1     -10.198  11.110  71.309  1.00  0.00     5.001 A  
HETATM   38  C   UNL     1      -9.052   9.650  65.753  1.00  0.00    -0.230 C  
HETATM   39  C   UNL     1     -10.178  11.792  64.509  1.00  0.00    -0.327 C  
HETATM   40  C   UNL     1      -8.919  11.325  64.093  1.00  0.00     0.105 C  
ENDROOT
BRANCH  16  41
HETATM   41  O   UNL     1     -12.788   3.903  67.831  1.00  0.00    19.125 OA 
HETATM   42  C   UNL     1     -12.274   3.674  66.513  1.00  0.00    12.592 C  
ENDBRANCH  16  41
BRANCH  18  43
HETATM   43  O   UNL     1     -10.906   5.755  66.640  1.00  0.00    -0.297 OA 
HETATM   44  C   UNL     1     -11.409   7.004  66.146  1.00  0.00     2.522 C  
ENDBRANCH  18  43
BRANCH  30  45
HETATM   45  O   UNL     1      -9.021  13.777  69.144  1.00  0.00     0.197 OA 
HETATM   46  C   UNL     1      -9.473  14.692  70.144  1.00  0.00     0.865 C  
ENDBRANCH  30  45
BRANCH  36  47
HETATM   47  O   UNL     1     -11.919  10.358  65.400  1.00  0.00     2.144 OA 
HETATM   48  C   UNL     1     -12.953  10.835  64.544  1.00  0.00     5.222 C  
ENDBRANCH  36  47
TORSDOF 4
ENDMDL
MODEL       75
REMARK 921   NORMALIZED FREE ENERGY PREDICTED BY IDOCK:   68.47 KCAL/MOL
REMARK 922        TOTAL FREE ENERGY PREDICTED BY IDOCK:   83.59 KCAL/MOL
REMARK 923 INTER-LIGAND FREE ENERGY PREDICTED BY IDOCK:   82.77 KCAL/MOL
REMARK 924 INTRA-LIGAND FREE ENERGY PREDICTED BY IDOCK:    0.82 KCAL/MOL
REMARK 927      BINDING AFFINITY PREDICTED BY RF-SCORE:    0.00 PKD
ROOT
HETATM    1  C   UNL     1     -10.940   9.396  69.234  1.00  0.00    -0.117 C  
HETATM    2  C   UNL     1     -11.440  10.010  70.602  1.00  0.00    -0.425 C  
HETATM    3  C   UNL     1     -10.724  11.196  71.172  1.00  0.00     2.740 A  
HETATM    4  C   UNL     1      -9.350  11.335  71.069  1.00  0.00     6.501 A  
HETATM    5  C   UNL     1      -8.840  12.599  70.814  1.00  0.00     8.870 A  
HETATM    6  C   UNL     1      -9.688  13.706  70.877  1.00  0.00     5.709 A  
HETATM    7  C   UNL     1     -10.872  13.557  71.561  1.00  0.00     4.308 A  
HETATM    8  O   UNL     1      -9.273  14.778  70.134  1.00  0.00     0.399 OA 
HETATM    9  C   UNL     1      -9.997  15.911  69.834  1.00  0.00    -0.142 A  
HETATM   10  C   UNL     1     -11.448  12.298  71.627  1.00  0.00     3.254 A  
HETATM   11  C   UNL     1      -9.142  16.988  69.464  1.00  0.00     0.420 A  
HETATM   12  C   UNL     1      -9.668  18.274  69.352  1.00  0.00     0.130 A  
HETATM   13  C   UNL     1     -11.011  18.479  69.515  1.00  0.00     1.800 A  
HETATM   14  C   UNL     1      -8.797  19.492  69.211  1.00  0.00    -0.001 C  
HETATM   15  C   UNL     1      -7.420  19.226  68.664  1.00  0.00    -0.345 C  
HETATM   16  C   UNL     1     -11.890  17.415  69.781  1.00  0.00     3.102 A  
HETATM   17  C   UNL     1     -10.530  10.214  68.009  1.00  0.00    -0.249 C  
HETATM   18  C   UNL     1     -11.404  16.102  69.838  1.00  0.00    -0.317 A  
HETATM   19  N   UNL     1      -6.769  17.935  69.167  1.00  0.00    -0.251 N  
HETATM   20  C   UNL     1      -8.537   8.460  69.439  1.00  0.00    -0.129 C  
HETATM   21  C   UNL     1      -5.420  17.853  68.454  1.00  0.00    -0.160 C  
HETATM   22  C   UNL     1     -10.126   8.091  66.749  1.00  0.00    -0.357 C  
HETATM   23  C   UNL     1      -7.728  16.721  68.920  1.00  0.00    -0.242 C  
HETATM   24  C   UNL     1      -6.468  17.926  70.671  1.00  0.00     1.205 C  
HETATM   25  C   UNL     1     -10.365   7.240  70.542  1.00  0.00    -0.206 C  
HETATM   26  C   UNL     1      -7.925  16.407  67.421  1.00  0.00    -0.179 C  
HETATM   27  C   UNL     1      -7.167  15.240  66.864  1.00  0.00     0.186 A  
HETATM   28  C   UNL     1      -7.647  13.961  67.188  1.00  0.00     0.045 A  
HETATM   29  C   UNL     1      -7.501  12.920  66.299  1.00  0.00     1.747 A  
HETATM   30  C   UNL     1      -6.481  13.064  65.335  1.00  0.00     8.034 A  
HETATM   31  O   UNL     1      -8.339  11.813  66.386  1.00  0.00    -0.142 OA 
HETATM   32  N   UNL     1     -10.021   8.124  69.348  1.00  0.00    -0.183 N  
HETATM   33  C   UNL     1      -9.755  12.102  66.706  1.00  0.00    -0.207 C  
HETATM   34  C   UNL     1      -5.869  14.300  65.096  1.00  0.00    15.211 A  
HETATM   35  C   UNL     1     -10.287   7.297  68.057  1.00  0.00    -0.197 C  
HETATM   36  C   UNL     1     -10.626  11.668  65.696  1.00  0.00    -0.275 C  
HETATM   37  C   UNL     1      -6.264  15.415  65.831  1.00  0.00     5.589 A  
HETATM   38  C   UNL     1     -10.147  11.564  67.927  1.00  0.00    -0.202 C  
HETATM   39  C   UNL     1     -10.773  10.284  65.609  1.00  0.00     0.082 C  
HETATM   40  C   UNL     1     -10.544   9.538  66.779  1.00  0.00    -0.208 C  
ENDROOT
BRANCH  16  41
HETATM   41  O   UNL     1     -13.216  17.704  69.975  1.00  0.00    10.135 OA 
HETATM   42  C   UNL     1     -13.905  16.689  70.716  1.00  0.00     5.806 C  
ENDBRANCH  16  41
BRANCH  18  43
HETATM   43  O   UNL     1     -12.208  14.996  69.762  1.00  0.00    -0.310 OA 
HETATM   44  C   UNL     1     -12.488  14.455  68.464  1.00  0.00     0.201 C  
ENDBRANCH  18  43
BRANCH  30  45
HETATM   45  O   UNL     1      -6.006  12.014  64.584  1.00  0.00     2.802 OA 
HETATM   46  C   UNL     1      -5.176  11.197  65.412  1.00  0.00     0.059 C  
ENDBRANCH  30  45
BRANCH  36  47
HETATM   47  O   UNL     1     -11.736  12.509  65.598  1.00  0.00    -0.381 OA 
HETATM   48  C   UNL     1     -11.561  13.912  65.766  1.00  0.00    -0.338 C  
ENDBRANCH  36  47
TORSDOF 4
ENDMDL
MODEL       76
REMARK 921   NORMALIZED FREE ENERGY PREDICTED BY IDOCK:   69.35 KCAL/MOL
REMARK 922        TOTAL FREE ENERGY PREDICTED BY IDOCK:   84.67 KCAL/MOL
REMARK 923 INTER-LIGAND FREE ENERGY PREDICTED BY IDOCK:   80.64 KCAL/MOL
REMARK 924 INTRA-LIGAND FREE ENERGY PREDICTED BY IDOCK:    4.03 KCAL/MOL
REMARK 927      BINDING AFFINITY PREDICTED BY RF-SCORE:    0.00 PKD
ROOT
HETATM    1  C   UNL     1     -10.447  11.064  64.138  1.00  0.00    -0.366 C  
HETATM    2  C   UNL     1     -11.862  11.760  64.025  1.00  0.00    -0.402 C  
HETATM    3  C   UNL     1     -12.537  12.242  65.271  1.00  0.00     0.068 A  
HETATM    4  C   UNL     1     -12.454  11.540  66.462  1.00  0.00     2.396 A  
HETATM    5  C   UNL     1     -12.314  12.264  67.636  1.00  0.00     0.610 A  
HETATM    6  C   UNL     1     -12.470  13.652  67.610  1.00  0.00     0.215 A  
HETATM    7  C   UNL     1     -13.132  14.192  66.534  1.00  0.00     1.008 A  
HETATM    8  O   UNL     1     -11.826  14.311  68.622  1.00  0.00    -0.323 OA 
HETATM    9  C   UNL     1     -11.624  15.669  68.732  1.00  0.00    -0.384 A  
HETATM   10  C   UNL     1     -13.084  13.525  65.320  1.00  0.00    -0.127 A  
HETATM   11  C   UNL     1     -11.354  16.045  70.079  1.00  0.00    -0.353 A  
HETATM   12  C   UNL     1     -11.353  17.395  70.426  1.00  0.00     1.711 A  
HETATM   13  C   UNL     1     -11.527  18.349  69.462  1.00  0.00     3.765 A  
HETATM   14  C   UNL     1     -11.325  17.859  71.857  1.00  0.00     2.842 C  
HETATM   15  C   UNL     1     -10.763  16.862  72.835  1.00  0.00     3.884 C  
HETATM   16  C   UNL     1     -11.694  18.005  68.110  1.00  0.00     1.844 A  
HETATM   17  C   UNL     1      -9.301  11.556  65.023  1.00  0.00    -0.107 C  
HETATM   18  C   UNL     1     -11.638  16.662  67.715  1.00  0.00     0.370 A  
HETATM   19  N   UNL     1     -11.154  15.407  72.562  1.00  0.00    -0.063 N  
HETATM   20  C   UNL     1     -10.580   8.867  65.499  1.00  0.00     2.109 C  
HETATM   21  C   UNL     1     -10.443  14.584  73.636  1.00  0.00     4.838 C  
HETATM   22  C   UNL     1      -7.861   9.703  64.157  1.00  0.00    -0.130 C  
HETATM   23  C   UNL     1     -10.796  15.025  71.086  1.00  0.00     0.065 C  
HETATM   24  C   UNL     1     -12.653  15.118  72.713  1.00  0.00    -0.390 C  
HETATM   25  C   UNL     1     -11.563   8.908  63.245  1.00  0.00    15.097 C  
HETATM   26  C   UNL     1      -9.274  14.993  70.825  1.00  0.00     1.812 C  
HETATM   27  C   UNL     1      -8.620  13.646  70.772  1.00  0.00     5.658 A  
HETATM   28  C   UNL     1      -8.828  12.887  69.609  1.00  0.00     2.007 A  
HETATM   29  C   UNL     1      -7.851  12.028  69.157  1.00  0.00     0.253 A  
HETATM   30  C   UNL     1      -6.909  11.600  70.116  1.00  0.00     0.462 A  
HETATM   31  O   UNL     1      -7.836  11.636  67.823  1.00  0.00    -0.116 OA 
HETATM   32  N   UNL     1     -10.453   9.491  64.114  1.00  0.00     2.249 N  
HETATM   33  C   UNL     1      -8.173  12.691  66.840  1.00  0.00    -0.044 C  
HETATM   34  C   UNL     1      -6.783  12.239  71.355  1.00  0.00     3.702 A  
HETATM   35  C   UNL     1      -9.093   9.075  63.482  1.00  0.00     0.332 C  
HETATM   36  C   UNL     1      -7.125  12.933  65.940  1.00  0.00     3.831 C  
HETATM   37  C   UNL     1      -7.611  13.316  71.659  1.00  0.00     7.716 A  
HETATM   38  C   UNL     1      -9.340  12.412  66.136  1.00  0.00    -0.155 C  
HETATM   39  C   UNL     1      -6.915  11.919  65.005  1.00  0.00     3.175 C  
HETATM   40  C   UNL     1      -8.016  11.107  64.679  1.00  0.00     0.588 C  
ENDROOT
BRANCH  16  41
HETATM   41  O   UNL     1     -11.906  19.014  67.206  1.00  0.00     1.050 OA 
HETATM   42  C   UNL     1     -11.085  18.898  66.037  1.00  0.00     0.314 C  
ENDBRANCH  16  41
BRANCH  18  43
HETATM   43  O   UNL     1     -11.460  16.262  66.418  1.00  0.00     0.321 OA 
HETATM   44  C   UNL     1     -11.831  17.175  65.375  1.00  0.00     2.335 C  
ENDBRANCH  18  43
BRANCH  30  45
HETATM   45  O   UNL     1      -6.071  10.528  69.916  1.00  0.00    -0.057 OA 
HETATM   46  C   UNL     1      -5.825   9.897  71.174  1.00  0.00    -0.058 C  
ENDBRANCH  30  45
BRANCH  36  47
HETATM   47  O   UNL     1      -7.095  14.274  65.555  1.00  0.00     6.257 OA 
HETATM   48  C   UNL     1      -7.926  15.210  66.235  1.00  0.00     0.830 C  
ENDBRANCH  36  47
TORSDOF 4
ENDMDL
MODEL       77
REMARK 921   NORMALIZED FREE ENERGY PREDICTED BY IDOCK:   70.17 KCAL/MOL
REMARK 922        TOTAL FREE ENERGY PREDICTED BY IDOCK:   85.69 KCAL/MOL
REMARK 923 INTER-LIGAND FREE ENERGY PREDICTED BY IDOCK:   85.43 KCAL/MOL
REMARK 924 INTRA-LIGAND FREE ENERGY PREDICTED BY IDOCK:    0.26 KCAL/MOL
REMARK 927      BINDING AFFINITY PREDICTED BY RF-SCORE:    0.00 PKD
ROOT
HETATM    1  C   UNL     1      -9.983   4.211  66.392  1.00  0.00    -0.155 C  
HETATM    2  C   UNL     1     -11.062   5.213  65.815  1.00  0.00     0.193 C  
HETATM    3  C   UNL     1     -11.429   6.425  66.614  1.00  0.00     0.554 A  
HETATM    4  C   UNL     1     -11.514   6.388  67.995  1.00  0.00     0.176 A  
HETATM    5  C   UNL     1     -11.041   7.481  68.707  1.00  0.00     0.159 A  
HETATM    6  C   UNL     1     -10.695   8.648  68.022  1.00  0.00    -0.074 A  
HETATM    7  C   UNL     1     -11.198   8.808  66.753  1.00  0.00     1.178 A  
HETATM    8  O   UNL     1      -9.787   9.436  68.676  1.00  0.00    -0.156 OA 
HETATM    9  C   UNL     1      -9.108  10.520  68.163  1.00  0.00    -0.141 A  
HETATM   10  C   UNL     1     -11.479   7.678  66.001  1.00  0.00     4.548 A  
HETATM   11  C   UNL     1      -8.624  11.366  69.201  1.00  0.00     0.171 A  
HETATM   12  C   UNL     1      -8.118  12.624  68.880  1.00  0.00     0.212 A  
HETATM   13  C   UNL     1      -8.011  13.004  67.570  1.00  0.00    -0.177 A  
HETATM   14  C   UNL     1      -7.823  13.666  69.925  1.00  0.00     1.314 C  
HETATM   15  C   UNL     1      -7.582  13.123  71.309  1.00  0.00     6.605 C  
HETATM   16  C   UNL     1      -8.388  12.145  66.523  1.00  0.00     0.020 A  
HETATM   17  C   UNL     1      -8.676   4.631  67.065  1.00  0.00    -0.104 C  
HETATM   18  C   UNL     1      -8.842  10.850  66.807  1.00  0.00    -0.145 A  
HETATM   19  N   UNL     1      -8.484  11.949  71.702  1.00  0.00    13.106 N  
HETATM   20  C   UNL     1     -10.789   3.117  68.594  1.00  0.00     4.759 C  
HETATM   21  C   UNL     1      -8.036  11.542  73.105  1.00  0.00    18.943 C  
HETATM   22  C   UNL     1      -8.056   2.220  67.321  1.00  0.00    -0.071 C  
HETATM   23  C   UNL     1      -8.394  10.820  70.620  1.00  0.00     2.605 C  
HETATM   24  C   UNL     1      -9.972  12.305  71.806  1.00  0.00    13.917 C  
HETATM   25  C   UNL     1     -11.854   2.429  66.487  1.00  0.00    14.045 C  
HETATM   26  C   UNL     1      -7.006  10.144  70.571  1.00  0.00    -0.059 C  
HETATM   27  C   UNL     1      -6.880   8.799  71.221  1.00  0.00    -0.082 A  
HETATM   28  C   UNL     1      -7.427   7.708  70.529  1.00  0.00    -0.079 A  
HETATM   29  C   UNL     1      -6.856   6.460  70.637  1.00  0.00    -0.063 A  
HETATM   30  C   UNL     1      -6.060   6.238  71.781  1.00  0.00    -0.041 A  
HETATM   31  O   UNL     1      -7.078   5.508  69.648  1.00  0.00    -0.060 OA 
HETATM   32  N   UNL     1     -10.550   2.926  67.101  1.00  0.00     2.942 N  
HETATM   33  C   UNL     1      -7.089   6.017  68.257  1.00  0.00    -0.082 C  
HETATM   34  C   UNL     1      -5.625   7.297  72.586  1.00  0.00    -0.037 A  
HETATM   35  C   UNL     1      -9.477   1.820  66.886  1.00  0.00     0.191 C  
HETATM   36  C   UNL     1      -6.092   5.426  67.468  1.00  0.00    -0.030 C  
HETATM   37  C   UNL     1      -5.992   8.601  72.264  1.00  0.00    -0.071 A  
HETATM   38  C   UNL     1      -8.327   5.863  67.641  1.00  0.00    -0.104 C  
HETATM   39  C   UNL     1      -6.325   4.091  67.139  1.00  0.00    -0.040 C  
HETATM   40  C   UNL     1      -7.663   3.660  67.111  1.00  0.00    -0.079 C  
ENDROOT
BRANCH  16  41
HETATM   41  O   UNL     1      -8.292  12.611  65.237  1.00  0.00     1.675 OA 
HETATM   42  C   UNL     1      -9.482  12.382  64.471  1.00  0.00     0.313 C  
ENDBRANCH  16  41
BRANCH  18  43
HETATM   43  O   UNL     1      -8.913   9.853  65.871  1.00  0.00    -0.142 OA 
HETATM   44  C   UNL     1      -7.689   9.236  65.449  1.00  0.00    -0.099 C  
ENDBRANCH  18  43
BRANCH  30  45
HETATM   45  O   UNL     1      -5.675   4.984  72.194  1.00  0.00    -0.014 OA 
HETATM   46  C   UNL     1      -6.373   4.664  73.399  1.00  0.00    -0.049 C  
ENDBRANCH  30  45
BRANCH  36  47
HETATM   47  O   UNL     1      -5.615   6.322  66.509  1.00  0.00    -0.012 OA 
HETATM   48  C   UNL     1      -6.274   6.405  65.250  1.00  0.00    -0.031 C  
ENDBRANCH  36  47
TORSDOF 4
ENDMDL
MODEL       78
REMARK 921   NORMALIZED FREE ENERGY PREDICTED BY IDOCK:   71.65 KCAL/MOL
REMARK 922        TOTAL FREE ENERGY PREDICTED BY IDOCK:   87.51 KCAL/MOL
REMARK 923 INTER-LIGAND FREE ENERGY PREDICTED BY IDOCK:   87.91 KCAL/MOL
REMARK 924 INTRA-LIGAND FREE ENERGY PREDICTED BY IDOCK:   -0.39 KCAL/MOL
REMARK 927      BINDING AFFINITY PREDICTED BY RF-SCORE:    0.00 PKD
ROOT
HETATM    1  C   UNL     1     -11.887  16.153  69.166  1.00  0.00    -0.178 C  
HETATM    2  C   UNL     1     -12.607  16.069  67.761  1.00  0.00     1.981 C  
HETATM    3  C   UNL     1     -11.904  15.397  66.622  1.00  0.00     0.277 A  
HETATM    4  C   UNL     1     -10.535  15.514  66.443  1.00  0.00    -0.310 A  
HETATM    5  C   UNL     1      -9.835  14.391  66.028  1.00  0.00    -0.342 A  
HETATM    6  C   UNL     1     -10.538  13.259  65.609  1.00  0.00    -0.283 A  
HETATM    7  C   UNL     1     -11.855  13.430  65.252  1.00  0.00    -0.373 A  
HETATM    8  O   UNL     1      -9.841  12.087  65.726  1.00  0.00    -0.236 OA 
HETATM    9  C   UNL     1     -10.339  10.809  65.597  1.00  0.00    -0.230 A  
HETATM   10  C   UNL     1     -12.576  14.457  65.841  1.00  0.00    -0.275 A  
HETATM   11  C   UNL     1      -9.301   9.876  65.316  1.00  0.00    -0.309 A  
HETATM   12  C   UNL     1      -9.632   8.580  64.923  1.00  0.00     0.969 A  
HETATM   13  C   UNL     1     -10.943   8.189  64.892  1.00  0.00     8.425 A  
HETATM   14  C   UNL     1      -8.614   7.618  64.373  1.00  0.00     0.278 C  
HETATM   15  C   UNL     1      -7.190   7.912  64.765  1.00  0.00    -0.074 C  
HETATM   16  C   UNL     1     -11.979   9.063  65.264  1.00  0.00    11.004 A  
HETATM   17  C   UNL     1     -11.117  15.007  69.821  1.00  0.00    -0.297 C  
HETATM   18  C   UNL     1     -11.678  10.352  65.723  1.00  0.00     2.420 A  
HETATM   19  N   UNL     1      -6.828   9.399  64.795  1.00  0.00    -0.091 N  
HETATM   20  C   UNL     1      -9.721  17.562  69.036  1.00  0.00    -0.187 C  
HETATM   21  C   UNL     1      -5.372   9.456  65.256  1.00  0.00    -0.041 C  
HETATM   22  C   UNL     1     -10.692  16.456  71.816  1.00  0.00     1.532 C  
HETATM   23  C   UNL     1      -7.842  10.179  65.699  1.00  0.00    -0.145 C  
HETATM   24  C   UNL     1      -6.879  10.088  63.426  1.00  0.00    -0.132 C  
HETATM   25  C   UNL     1     -11.882  18.724  68.882  1.00  0.00     4.633 C  
HETATM   26  C   UNL     1      -7.731   9.800  67.192  1.00  0.00    -0.095 C  
HETATM   27  C   UNL     1      -7.011  10.763  68.087  1.00  0.00    -0.072 A  
HETATM   28  C   UNL     1      -7.699  11.933  68.442  1.00  0.00    -0.131 A  
HETATM   29  C   UNL     1      -7.480  12.522  69.668  1.00  0.00     0.792 A  
HETATM   30  C   UNL     1      -6.259  12.206  70.299  1.00  0.00     0.008 A  
HETATM   31  O   UNL     1      -8.441  13.369  70.211  1.00  0.00     2.882 OA 
HETATM   32  N   UNL     1     -11.175  17.518  69.491  1.00  0.00     0.899 N  
HETATM   33  C   UNL     1      -9.849  12.953  70.015  1.00  0.00     2.769 C  
HETATM   34  C   UNL     1      -5.467  11.136  69.868  1.00  0.00    -0.058 A  
HETATM   35  C   UNL     1     -11.238  17.667  71.039  1.00  0.00     2.285 C  
HETATM   36  C   UNL     1     -10.514  12.744  71.231  1.00  0.00     7.002 C  
HETATM   37  C   UNL     1      -5.883  10.368  68.784  1.00  0.00    -0.040 A  
HETATM   38  C   UNL     1     -10.568  13.853  69.236  1.00  0.00    -0.062 C  
HETATM   39  C   UNL     1     -10.800  13.907  71.946  1.00  0.00     3.884 C  
HETATM   40  C   UNL     1     -10.932  15.098  71.210  1.00  0.00    -0.155 C  
ENDROOT
BRANCH  16  41
HETATM   41  O   UNL     1     -13.271   8.614  65.166  1.00  0.00    18.259 OA 
HETATM   42  C   UNL     1     -13.967   9.159  64.038  1.00  0.00    16.828 C  
ENDBRANCH  16  41
BRANCH  18  43
HETATM   43  O   UNL     1     -12.569  11.138  66.404  1.00  0.00     2.218 OA 
HETATM   44  C   UNL     1     -12.634  11.003  67.830  1.00  0.00     2.534 C  
ENDBRANCH  18  43
BRANCH  30  45
HETATM   45  O   UNL     1      -5.754  12.927  71.357  1.00  0.00    -0.373 OA 
HETATM   46  C   UNL     1      -5.270  14.179  70.867  1.00  0.00    -0.128 C  
ENDBRANCH  30  45
BRANCH  36  47
HETATM   47  O   UNL     1     -11.465  11.729  71.114  1.00  0.00     0.834 OA 
HETATM   48  C   UNL     1     -12.838  12.078  70.973  1.00  0.00    -0.187 C  
ENDBRANCH  36  47
TORSDOF 4
ENDMDL
MODEL       79
REMARK 921   NORMALIZED FREE ENERGY PREDICTED BY IDOCK:   72.37 KCAL/MOL
REMARK 922        TOTAL FREE ENERGY PREDICTED BY IDOCK:   88.40 KCAL/MOL
REMARK 923 INTER-LIGAND FREE ENERGY PREDICTED BY IDOCK:   88.84 KCAL/MOL
REMARK 924 INTRA-LIGAND FREE ENERGY PREDICTED BY IDOCK:   -0.44 KCAL/MOL
REMARK 927      BINDING AFFINITY PREDICTED BY RF-SCORE:    0.00 PKD
ROOT
HETATM    1  C   UNL     1     -11.849   7.020  66.705  1.00  0.00     2.873 C  
HETATM    2  C   UNL     1     -12.663   8.375  66.734  1.00  0.00    12.940 C  
HETATM    3  C   UNL     1     -12.371   9.377  67.809  1.00  0.00     5.626 A  
HETATM    4  C   UNL     1     -12.061   8.987  69.101  1.00  0.00     1.774 A  
HETATM    5  C   UNL     1     -11.075   9.692  69.775  1.00  0.00    -0.247 A  
HETATM    6  C   UNL     1     -10.583  10.878  69.227  1.00  0.00    -0.217 A  
HETATM    7  C   UNL     1     -11.350  11.497  68.268  1.00  0.00    -0.352 A  
HETATM    8  O   UNL     1      -9.320  11.209  69.640  1.00  0.00     0.297 OA 
HETATM    9  C   UNL     1      -8.506  12.188  69.115  1.00  0.00     0.534 A  
HETATM   10  C   UNL     1     -12.186  10.720  67.482  1.00  0.00     1.783 A  
HETATM   11  C   UNL     1      -7.496  12.573  70.043  1.00  0.00     1.640 A  
HETATM   12  C   UNL     1      -6.725  13.705  69.787  1.00  0.00     0.059 A  
HETATM   13  C   UNL     1      -6.883  14.388  68.612  1.00  0.00    -0.096 A  
HETATM   14  C   UNL     1      -5.820  14.316  70.822  1.00  0.00    -0.199 C  
HETATM   15  C   UNL     1      -5.380  13.375  71.913  1.00  0.00    -0.110 C  
HETATM   16  C   UNL     1      -7.803  13.968  67.636  1.00  0.00    -0.176 A  
HETATM   17  C   UNL     1     -10.341   6.904  66.930  1.00  0.00    -0.332 C  
HETATM   18  C   UNL     1      -8.549  12.798  67.833  1.00  0.00    -0.181 A  
HETATM   19  N   UNL     1      -6.460  12.400  72.390  1.00  0.00     4.146 N  
HETATM   20  C   UNL     1     -12.295   5.603  68.823  1.00  0.00     6.156 C  
HETATM   21  C   UNL     1      -5.783  11.528  73.448  1.00  0.00     1.882 C  
HETATM   22  C   UNL     1     -10.490   4.439  66.525  1.00  0.00     0.089 C  
HETATM   23  C   UNL     1      -7.056  11.621  71.169  1.00  0.00     4.035 C  
HETATM   24  C   UNL     1      -7.655  13.071  73.078  1.00  0.00    11.628 C  
HETATM   25  C   UNL     1     -14.085   5.799  67.149  1.00  0.00    23.563 C  
HETATM   26  C   UNL     1      -6.038  10.663  70.512  1.00  0.00    -0.113 C  
HETATM   27  C   UNL     1      -6.173   9.205  70.830  1.00  0.00    -0.062 A  
HETATM   28  C   UNL     1      -7.220   8.513  70.200  1.00  0.00    -0.051 A  
HETATM   29  C   UNL     1      -7.079   7.182  69.879  1.00  0.00    -0.073 A  
HETATM   30  C   UNL     1      -6.103   6.468  70.607  1.00  0.00    -0.031 A  
HETATM   31  O   UNL     1      -7.873   6.621  68.884  1.00  0.00    -0.107 OA 
HETATM   32  N   UNL     1     -12.572   5.772  67.334  1.00  0.00     7.193 N  
HETATM   33  C   UNL     1      -8.118   7.476  67.700  1.00  0.00    -0.118 C  
HETATM   34  C   UNL     1      -5.136   7.126  71.375  1.00  0.00    -0.027 A  
HETATM   35  C   UNL     1     -12.025   4.537  66.562  1.00  0.00     6.304 C  
HETATM   36  C   UNL     1      -7.639   6.894  66.517  1.00  0.00    -0.089 C  
HETATM   37  C   UNL     1      -5.137   8.516  71.436  1.00  0.00    -0.029 A  
HETATM   38  C   UNL     1      -9.461   7.807  67.549  1.00  0.00    -0.170 C  
HETATM   39  C   UNL     1      -8.377   5.800  66.066  1.00  0.00    -0.126 C  
HETATM   40  C   UNL     1      -9.730   5.737  66.442  1.00  0.00    -0.175 C  
ENDROOT
BRANCH  16  41
HETATM   41  O   UNL     1      -7.936  14.727  66.503  1.00  0.00     0.174 OA 
HETATM   42  C   UNL     1      -8.715  15.912  66.714  1.00  0.00    -0.269 C  
ENDBRANCH  16  41
BRANCH  18  43
HETATM   43  O   UNL     1      -9.207  12.144  66.826  1.00  0.00    -0.196 OA 
HETATM   44  C   UNL     1      -8.653  10.908  66.352  1.00  0.00    -0.160 C  
ENDBRANCH  18  43
BRANCH  30  45
HETATM   45  O   UNL     1      -6.044   5.094  70.630  1.00  0.00    -0.020 OA 
HETATM   46  C   UNL     1      -6.419   4.642  71.933  1.00  0.00    -0.023 C  
ENDBRANCH  30  45
BRANCH  36  47
HETATM   47  O   UNL     1      -7.196   7.870  65.623  1.00  0.00    -0.068 OA 
HETATM   48  C   UNL     1      -5.828   8.265  65.649  1.00  0.00    -0.044 C  
ENDBRANCH  36  47
TORSDOF 4
ENDMDL
MODEL       80
REMARK 921   NORMALIZED FREE ENERGY PREDICTED BY IDOCK:   74.90 KCAL/MOL
REMARK 922        TOTAL FREE ENERGY PREDICTED BY IDOCK:   91.53 KCAL/MOL
REMARK 923 INTER-LIGAND FREE ENERGY PREDICTED BY IDOCK:   83.77 KCAL/MOL
REMARK 924 INTRA-LIGAND FREE ENERGY PREDICTED BY IDOCK:    7.75 KCAL/MOL
REMARK 927      BINDING AFFINITY PREDICTED BY RF-SCORE:    0.00 PKD
ROOT
HETATM    1  C   UNL     1      -9.610   7.775  72.387  1.00  0.00    -0.181 C  
HETATM    2  C   UNL     1      -8.894   8.904  73.230  1.00  0.00     0.735 C  
HETATM    3  C   UNL     1      -8.199  10.020  72.512  1.00  0.00     5.005 A  
HETATM    4  C   UNL     1      -7.506   9.805  71.333  1.00  0.00     0.776 A  
HETATM    5  C   UNL     1      -7.603  10.764  70.336  1.00  0.00     1.015 A  
HETATM    6  C   UNL     1      -8.209  11.990  70.620  1.00  0.00     6.081 A  
HETATM    7  C   UNL     1      -8.325  12.346  71.943  1.00  0.00    17.050 A  
HETATM    8  O   UNL     1      -8.724  12.631  69.526  1.00  0.00     1.088 OA 
HETATM    9  C   UNL     1      -9.552  13.732  69.522  1.00  0.00     0.872 A  
HETATM   10  C   UNL     1      -8.419  11.343  72.896  1.00  0.00    19.426 A  
HETATM   11  C   UNL     1      -9.514  14.404  68.267  1.00  0.00    -0.207 A  
HETATM   12  C   UNL     1     -10.100  15.663  68.146  1.00  0.00    -0.222 A  
HETATM   13  C   UNL     1     -10.778  16.206  69.203  1.00  0.00    -0.292 A  
HETATM   14  C   UNL     1      -9.890  16.538  66.940  1.00  0.00    -0.262 C  
HETATM   15  C   UNL     1      -9.490  15.804  65.687  1.00  0.00    -0.217 C  
HETATM   16  C   UNL     1     -10.916  15.517  70.420  1.00  0.00    -0.339 A  
HETATM   17  C   UNL     1     -10.475   8.026  71.151  1.00  0.00    -0.230 C  
HETATM   18  C   UNL     1     -10.393  14.224  70.556  1.00  0.00     1.284 A  
HETATM   19  N   UNL     1      -8.517  14.642  65.909  1.00  0.00     0.945 N  
HETATM   20  C   UNL     1      -7.913   6.447  70.953  1.00  0.00    -0.112 C  
HETATM   21  C   UNL     1      -8.295  14.028  64.527  1.00  0.00     8.105 C  
HETATM   22  C   UNL     1     -10.934   5.571  70.997  1.00  0.00    -0.193 C  
HETATM   23  C   UNL     1      -9.090  13.663  66.988  1.00  0.00    -0.248 C  
HETATM   24  C   UNL     1      -7.137  15.067  66.425  1.00  0.00     2.172 C  
HETATM   25  C   UNL     1      -7.907   6.106  73.389  1.00  0.00    -0.099 C  
HETATM   26  C   UNL     1     -10.359  12.921  66.513  1.00  0.00    -0.272 C  
HETATM   27  C   UNL     1     -10.192  11.497  66.077  1.00  0.00    -0.283 A  
HETATM   28  C   UNL     1     -10.020  10.540  67.089  1.00  0.00    -0.234 A  
HETATM   29  C   UNL     1     -10.492   9.258  66.920  1.00  0.00    -0.214 A  
HETATM   30  C   UNL     1     -10.695   8.842  65.587  1.00  0.00     2.420 A  
HETATM   31  O   UNL     1     -10.743   8.460  68.031  1.00  0.00    -0.168 OA 
HETATM   32  N   UNL     1      -8.796   6.442  72.196  1.00  0.00    -0.137 N  
HETATM   33  C   UNL     1     -11.351   9.149  69.193  1.00  0.00     0.309 C  
HETATM   34  C   UNL     1     -10.716   9.758  64.530  1.00  0.00     2.353 A  
HETATM   35  C   UNL     1      -9.861   5.314  72.070  1.00  0.00    -0.174 C  
HETATM   36  C   UNL     1     -12.600   8.611  69.535  1.00  0.00     2.726 C  
HETATM   37  C   UNL     1     -10.522  11.111  64.790  1.00  0.00    -0.388 A  
HETATM   38  C   UNL     1     -10.520   9.149  70.309  1.00  0.00    -0.257 C  
HETATM   39  C   UNL     1     -12.549   7.346  70.121  1.00  0.00     0.651 C  
HETATM   40  C   UNL     1     -11.368   7.000  70.801  1.00  0.00    -0.339 C  
ENDROOT
BRANCH  16  41
HETATM   41  O   UNL     1     -11.572  16.143  71.448  1.00  0.00    -0.445 OA 
HETATM   42  C   UNL     1     -12.753  15.444  71.863  1.00  0.00    -0.387 C  
ENDBRANCH  16  41
BRANCH  18  43
HETATM   43  O   UNL     1     -10.755  13.365  71.560  1.00  0.00     3.985 OA 
HETATM   44  C   UNL     1     -10.462  11.972  71.392  1.00  0.00     7.491 C  
ENDBRANCH  18  43
BRANCH  30  45
HETATM   45  O   UNL     1     -10.865   7.524  65.232  1.00  0.00     4.227 OA 
HETATM   46  C   UNL     1      -9.655   6.815  65.510  1.00  0.00     0.723 C  
ENDBRANCH  30  45
BRANCH  36  47
HETATM   47  O   UNL     1     -13.448   9.597  70.042  1.00  0.00     0.646 OA 
HETATM   48  C   UNL     1     -13.017  10.378  71.152  1.00  0.00    -0.412 C  
ENDBRANCH  36  47
TORSDOF 4
ENDMDL
MODEL       81
REMARK 921   NORMALIZED FREE ENERGY PREDICTED BY IDOCK:   84.32 KCAL/MOL
REMARK 922        TOTAL FREE ENERGY PREDICTED BY IDOCK:  103.14 KCAL/MOL
REMARK 923 INTER-LIGAND FREE ENERGY PREDICTED BY IDOCK:   93.40 KCAL/MOL
REMARK 924 INTRA-LIGAND FREE ENERGY PREDICTED BY IDOCK:    9.74 KCAL/MOL
REMARK 927      BINDING AFFINITY PREDICTED BY RF-SCORE:    0.00 PKD
ROOT
HETATM    1  C   UNL     1     -11.225  10.037  64.917  1.00  0.00     2.730 C  
HETATM    2  C   UNL     1     -12.212  11.185  64.462  1.00  0.00     1.232 C  
HETATM    3  C   UNL     1     -12.277  12.449  65.262  1.00  0.00    -0.418 A  
HETATM    4  C   UNL     1     -12.171  12.442  66.643  1.00  0.00     0.081 A  
HETATM    5  C   UNL     1     -11.444  13.457  67.246  1.00  0.00    -0.374 A  
HETATM    6  C   UNL     1     -11.027  14.549  66.482  1.00  0.00    -0.321 A  
HETATM    7  C   UNL     1     -11.674  14.770  65.289  1.00  0.00    -0.311 A  
HETATM    8  O   UNL     1      -9.928  15.197  66.977  1.00  0.00    -0.237 OA 
HETATM    9  C   UNL     1      -9.173  16.157  66.340  1.00  0.00    -0.300 A  
HETATM   10  C   UNL     1     -12.225  13.687  64.621  1.00  0.00    -0.448 A  
HETATM   11  C   UNL     1      -8.427  16.932  67.274  1.00  0.00    -0.213 A  
HETATM   12  C   UNL     1      -7.788  18.094  66.844  1.00  0.00    -0.249 A  
HETATM   13  C   UNL     1      -7.811  18.437  65.520  1.00  0.00     0.498 A  
HETATM   14  C   UNL     1      -7.195  19.090  67.803  1.00  0.00    -0.258 C  
HETATM   15  C   UNL     1      -6.846  18.533  69.159  1.00  0.00    -0.249 C  
HETATM   16  C   UNL     1      -8.456  17.634  64.564  1.00  0.00     7.086 A  
HETATM   17  C   UNL     1      -9.788  10.260  65.390  1.00  0.00    -0.362 C  
HETATM   18  C   UNL     1      -9.054  16.427  64.951  1.00  0.00     2.786 A  
HETATM   19  N   UNL     1      -7.849  17.517  69.710  1.00  0.00     0.807 N  
HETATM   20  C   UNL     1     -11.868   9.106  67.244  1.00  0.00     3.692 C  
HETATM   21  C   UNL     1      -7.274  17.062  71.051  1.00  0.00     4.310 C  
HETATM   22  C   UNL     1      -9.507   7.786  65.638  1.00  0.00     0.294 C  
HETATM   23  C   UNL     1      -8.083  16.374  68.665  1.00  0.00    -0.218 C  
HETATM   24  C   UNL     1      -9.237  18.098  70.006  1.00  0.00     1.777 C  
HETATM   25  C   UNL     1     -13.310   8.563  65.328  1.00  0.00    23.480 C  
HETATM   26  C   UNL     1      -6.832  15.493  68.448  1.00  0.00    -0.115 C  
HETATM   27  C   UNL     1      -6.819  14.153  69.119  1.00  0.00    -0.113 A  
HETATM   28  C   UNL     1      -7.616  13.150  68.545  1.00  0.00    -0.122 A  
HETATM   29  C   UNL     1      -7.229  11.830  68.615  1.00  0.00    -0.112 A  
HETATM   30  C   UNL     1      -6.322  11.503  69.645  1.00  0.00    -0.133 A  
HETATM   31  O   UNL     1      -7.729  10.912  67.698  1.00  0.00    -0.105 OA 
HETATM   32  N   UNL     1     -11.873   8.862  65.739  1.00  0.00     6.826 N  
HETATM   33  C   UNL     1      -7.859  11.400  66.306  1.00  0.00    -0.015 C  
HETATM   34  C   UNL     1      -5.625  12.492  70.347  1.00  0.00    -0.161 A  
HETATM   35  C   UNL     1     -11.018   7.602  65.415  1.00  0.00     5.788 C  
HETATM   36  C   UNL     1      -7.084  10.654  65.407  1.00  0.00    -0.011 C  
HETATM   37  C   UNL     1      -5.833  13.833  70.035  1.00  0.00    -0.137 A  
HETATM   38  C   UNL     1      -9.181  11.431  65.872  1.00  0.00    -0.231 C  
HETATM   39  C   UNL     1      -7.558   9.366  65.158  1.00  0.00    -0.108 C  
HETATM   40  C   UNL     1      -8.936   9.145  65.328  1.00  0.00    -0.246 C  
ENDROOT
BRANCH  16  41
HETATM   41  O   UNL     1      -8.474  18.065  63.263  1.00  0.00    16.065 OA 
HETATM   42  C   UNL     1      -7.179  18.039  62.649  1.00  0.00    15.057 C  
ENDBRANCH  16  41
BRANCH  18  43
HETATM   43  O   UNL     1      -9.405  15.442  64.067  1.00  0.00     3.405 OA 
HETATM   44  C   UNL     1      -9.996  14.245  64.592  1.00  0.00     0.236 C  
ENDBRANCH  18  43
BRANCH  30  45
HETATM   45  O   UNL     1      -6.075  10.210  70.042  1.00  0.00    -0.048 OA 
HETATM   46  C   UNL     1      -7.260   9.436  69.845  1.00  0.00    -0.083 C  
ENDBRANCH  30  45
BRANCH  36  47
HETATM   47  O   UNL     1      -6.618  11.455  64.362  1.00  0.00     1.135 OA 
HETATM   48  C   UNL     1      -7.412  11.595  63.189  1.00  0.00     1.811 C  
ENDBRANCH  36  47
TORSDOF 4
ENDMDL
MODEL       82
REMARK 921   NORMALIZED FREE ENERGY PREDICTED BY IDOCK:   86.90 KCAL/MOL
REMARK 922        TOTAL FREE ENERGY PREDICTED BY IDOCK:  106.33 KCAL/MOL
REMARK 923 INTER-LIGAND FREE ENERGY PREDICTED BY IDOCK:  103.25 KCAL/MOL
REMARK 924 INTRA-LIGAND FREE ENERGY PREDICTED BY IDOCK:    3.08 KCAL/MOL
REMARK 927      BINDING AFFINITY PREDICTED BY RF-SCORE:    0.00 PKD
ROOT
HETATM    1  C   UNL     1     -10.757   8.782  67.017  1.00  0.00    -0.116 C  
HETATM    2  C   UNL     1      -9.634   8.671  68.125  1.00  0.00    -0.162 C  
HETATM    3  C   UNL     1      -8.545   9.698  68.162  1.00  0.00    -0.119 A  
HETATM    4  C   UNL     1      -8.008  10.232  67.002  1.00  0.00    -0.111 A  
HETATM    5  C   UNL     1      -7.706  11.585  66.988  1.00  0.00    -0.158 A  
HETATM    6  C   UNL     1      -7.750  12.312  68.180  1.00  0.00    -0.138 A  
HETATM    7  C   UNL     1      -7.702  11.600  69.355  1.00  0.00     0.280 A  
HETATM    8  O   UNL     1      -7.959  13.654  68.014  1.00  0.00    -0.128 OA 
HETATM    9  C   UNL     1      -8.259  14.574  68.995  1.00  0.00    -0.076 A  
HETATM   10  C   UNL     1      -8.196  10.305  69.369  1.00  0.00    -0.171 A  
HETATM   11  C   UNL     1      -7.953  15.899  68.571  1.00  0.00    -0.152 A  
HETATM   12  C   UNL     1      -7.968  16.937  69.502  1.00  0.00     0.378 A  
HETATM   13  C   UNL     1      -8.356  16.693  70.791  1.00  0.00     4.467 A  
HETATM   14  C   UNL     1      -7.421  18.304  69.195  1.00  0.00    -0.112 C  
HETATM   15  C   UNL     1      -7.367  18.649  67.730  1.00  0.00    -0.229 C  
HETATM   16  C   UNL     1      -8.760  15.413  71.207  1.00  0.00     3.709 A  
HETATM   17  C   UNL     1     -11.447  10.082  66.603  1.00  0.00     1.183 C  
HETATM   18  C   UNL     1      -8.817  14.361  70.284  1.00  0.00     1.774 A  
HETATM   19  N   UNL     1      -6.959  17.492  66.814  1.00  0.00    -0.184 N  
HETATM   20  C   UNL     1      -9.767   8.527  64.640  1.00  0.00     1.717 C  
HETATM   21  C   UNL     1      -7.018  18.055  65.394  1.00  0.00     0.189 C  
HETATM   22  C   UNL     1     -12.880   8.791  65.009  1.00  0.00    20.490 C  
HETATM   23  C   UNL     1      -7.880  16.252  67.076  1.00  0.00    -0.218 C  
HETATM   24  C   UNL     1      -5.524  16.995  67.027  1.00  0.00    -0.165 C  
HETATM   25  C   UNL     1      -9.890   6.535  66.075  1.00  0.00     0.241 C  
HETATM   26  C   UNL     1      -9.344  16.490  66.646  1.00  0.00    -0.279 C  
HETATM   27  C   UNL     1      -9.782  15.873  65.352  1.00  0.00    -0.093 A  
HETATM   28  C   UNL     1     -10.016  14.489  65.356  1.00  0.00    -0.352 A  
HETATM   29  C   UNL     1     -10.976  13.944  64.534  1.00  0.00    -0.369 A  
HETATM   30  C   UNL     1     -11.340  14.714  63.409  1.00  0.00     1.886 A  
HETATM   31  O   UNL     1     -11.529  12.705  64.841  1.00  0.00    -0.303 OA 
HETATM   32  N   UNL     1     -10.567   7.863  65.754  1.00  0.00     1.898 N  
HETATM   33  C   UNL     1     -11.792  12.456  66.277  1.00  0.00    -0.364 C  
HETATM   34  C   UNL     1     -10.986  16.064  63.300  1.00  0.00     4.576 A  
HETATM   35  C   UNL     1     -12.003   7.548  65.244  1.00  0.00    11.900 C  
HETATM   36  C   UNL     1     -13.150  12.219  66.534  1.00  0.00     3.720 C  
HETATM   37  C   UNL     1     -10.249  16.664  64.317  1.00  0.00     2.913 A  
HETATM   38  C   UNL     1     -11.029  11.410  66.786  1.00  0.00    -0.347 C  
HETATM   39  C   UNL     1     -13.622  10.988  66.080  1.00  0.00    12.524 C  
HETATM   40  C   UNL     1     -12.686   9.946  65.955  1.00  0.00    11.548 C  
ENDROOT
BRANCH  16  41
HETATM   41  O   UNL     1      -9.094  15.236  72.525  1.00  0.00     5.418 OA 
HETATM   42  C   UNL     1     -10.438  15.636  72.818  1.00  0.00     3.046 C  
ENDBRANCH  16  41
BRANCH  18  43
HETATM   43  O   UNL     1      -9.496  13.193  70.510  1.00  0.00     4.431 OA 
HETATM   44  C   UNL     1     -10.886  13.145  70.162  1.00  0.00     1.040 C  
ENDBRANCH  18  43
BRANCH  30  45
HETATM   45  O   UNL     1     -12.041  14.198  62.344  1.00  0.00     1.206 OA 
HETATM   46  C   UNL     1     -11.933  12.774  62.372  1.00  0.00     2.700 C  
ENDBRANCH  30  45
BRANCH  36  47
HETATM   47  O   UNL     1     -13.512  12.700  67.793  1.00  0.00     3.862 OA 
HETATM   48  C   UNL     1     -12.520  12.796  68.811  1.00  0.00     0.494 C  
ENDBRANCH  36  47
TORSDOF 4
ENDMDL
MODEL       83
REMARK 921   NORMALIZED FREE ENERGY PREDICTED BY IDOCK:   91.57 KCAL/MOL
REMARK 922        TOTAL FREE ENERGY PREDICTED BY IDOCK:  112.09 KCAL/MOL
REMARK 923 INTER-LIGAND FREE ENERGY PREDICTED BY IDOCK:  110.42 KCAL/MOL
REMARK 924 INTRA-LIGAND FREE ENERGY PREDICTED BY IDOCK:    1.67 KCAL/MOL
REMARK 927      BINDING AFFINITY PREDICTED BY RF-SCORE:    0.00 PKD
ROOT
HETATM    1  C   UNL     1      -9.642   9.093  67.695  1.00  0.00    -0.149 C  
HETATM    2  C   UNL     1     -10.288   9.694  69.007  1.00  0.00    -0.218 C  
HETATM    3  C   UNL     1      -9.869  11.057  69.466  1.00  0.00     0.125 A  
HETATM    4  C   UNL     1      -8.560  11.495  69.343  1.00  0.00     0.584 A  
HETATM    5  C   UNL     1      -8.347  12.814  68.974  1.00  0.00     0.426 A  
HETATM    6  C   UNL     1      -9.426  13.701  68.944  1.00  0.00     0.127 A  
HETATM    7  C   UNL     1     -10.554  13.348  69.645  1.00  0.00     0.428 A  
HETATM    8  O   UNL     1      -9.253  14.770  68.106  1.00  0.00    -0.185 OA 
HETATM    9  C   UNL     1     -10.211  15.678  67.712  1.00  0.00    -0.252 A  
HETATM   10  C   UNL     1     -10.830  12.001  69.825  1.00  0.00     0.285 A  
HETATM   11  C   UNL     1      -9.618  16.885  67.243  1.00  0.00    -0.246 A  
HETATM   12  C   UNL     1     -10.420  18.002  67.020  1.00  0.00    -0.361 A  
HETATM   13  C   UNL     1     -11.777  17.910  67.172  1.00  0.00     1.877 A  
HETATM   14  C   UNL     1      -9.847  19.370  66.768  1.00  0.00    -0.453 C  
HETATM   15  C   UNL     1      -8.437  19.377  66.238  1.00  0.00    -0.334 C  
HETATM   16  C   UNL     1     -12.395  16.702  67.536  1.00  0.00     2.277 A  
HETATM   17  C   UNL     1      -9.411   9.873  66.401  1.00  0.00    -0.213 C  
HETATM   18  C   UNL     1     -11.625  15.544  67.707  1.00  0.00    -0.187 A  
HETATM   19  N   UNL     1      -7.518  18.317  66.850  1.00  0.00    -0.209 N  
HETATM   20  C   UNL     1      -7.092   8.749  67.969  1.00  0.00    -0.079 C  
HETATM   21  C   UNL     1      -6.175  18.482  66.139  1.00  0.00    -0.192 C  
HETATM   22  C   UNL     1      -8.516   7.795  65.331  1.00  0.00    -0.124 C  
HETATM   23  C   UNL     1      -8.172  16.900  66.717  1.00  0.00    -0.240 C  
HETATM   24  C   UNL     1      -7.245  18.508  68.347  1.00  0.00    -0.276 C  
HETATM   25  C   UNL     1      -8.612   7.247  69.186  1.00  0.00    -0.133 C  
HETATM   26  C   UNL     1      -8.271  16.420  65.252  1.00  0.00     2.689 C  
HETATM   27  C   UNL     1      -7.260  15.411  64.797  1.00  0.00    12.646 A  
HETATM   28  C   UNL     1      -7.441  14.090  65.235  1.00  0.00     9.127 A  
HETATM   29  C   UNL     1      -7.050  13.035  64.441  1.00  0.00    12.826 A  
HETATM   30  C   UNL     1      -6.075  13.324  63.462  1.00  0.00    15.429 A  
HETATM   31  O   UNL     1      -7.615  11.779  64.630  1.00  0.00     1.808 OA 
HETATM   32  N   UNL     1      -8.460   8.078  67.916  1.00  0.00    -0.125 N  
HETATM   33  C   UNL     1      -9.065  11.765  64.931  1.00  0.00     0.261 C  
HETATM   34  C   UNL     1      -5.757  14.640  63.112  1.00  0.00    20.105 A  
HETATM   35  C   UNL     1      -8.512   7.102  66.705  1.00  0.00    -0.121 C  
HETATM   36  C   UNL     1      -9.800  11.058  63.969  1.00  0.00    -0.313 C  
HETATM   37  C   UNL     1      -6.405  15.696  63.747  1.00  0.00    21.406 A  
HETATM   38  C   UNL     1      -9.343  11.261  66.198  1.00  0.00    -0.230 C  
HETATM   39  C   UNL     1      -9.628   9.675  64.005  1.00  0.00     0.149 C  
HETATM   40  C   UNL     1      -9.252   9.106  65.235  1.00  0.00    -0.243 C  
ENDROOT
BRANCH  16  41
HETATM   41  O   UNL     1     -13.755  16.697  67.711  1.00  0.00     5.233 OA 
HETATM   42  C   UNL     1     -14.143  16.404  69.059  1.00  0.00     6.901 C  
ENDBRANCH  16  41
BRANCH  18  43
HETATM   43  O   UNL     1     -12.156  14.282  67.733  1.00  0.00    -0.363 OA 
HETATM   44  C   UNL     1     -12.156  13.525  66.515  1.00  0.00    -0.408 C  
ENDBRANCH  18  43
BRANCH  30  45
HETATM   45  O   UNL     1      -5.363  12.347  62.805  1.00  0.00     1.718 OA 
HETATM   46  C   UNL     1      -6.110  11.130  62.846  1.00  0.00     0.423 C  
ENDBRANCH  30  45
BRANCH  36  47
HETATM   47  O   UNL     1     -11.071  11.613  63.802  1.00  0.00    -0.374 OA 
HETATM   48  C   UNL     1     -11.264  12.998  64.071  1.00  0.00    -0.405 C  
ENDBRANCH  36  47
TORSDOF 4
ENDMDL
MODEL       84
REMARK 921   NORMALIZED FREE ENERGY PREDICTED BY IDOCK:   95.78 KCAL/MOL
REMARK 922        TOTAL FREE ENERGY PREDICTED BY IDOCK:  117.29 KCAL/MOL
REMARK 923 INTER-LIGAND FREE ENERGY PREDICTED BY IDOCK:  117.39 KCAL/MOL
REMARK 924 INTRA-LIGAND FREE ENERGY PREDICTED BY IDOCK:   -0.10 KCAL/MOL
REMARK 927      BINDING AFFINITY PREDICTED BY RF-SCORE:    0.00 PKD
ROOT
HETATM    1  C   UNL     1     -11.149  12.675  70.296  1.00  0.00     0.932 C  
HETATM    2  C   UNL     1     -10.484  11.776  71.413  1.00  0.00     6.844 C  
HETATM    3  C   UNL     1     -10.599  10.286  71.313  1.00  0.00     0.875 A  
HETATM    4  C   UNL     1     -11.749   9.676  70.842  1.00  0.00    -0.412 A  
HETATM    5  C   UNL     1     -11.610   8.567  70.021  1.00  0.00     0.182 A  
HETATM    6  C   UNL     1     -10.351   7.982  69.866  1.00  0.00    -0.221 A  
HETATM    7  C   UNL     1      -9.400   8.270  70.816  1.00  0.00    -0.183 A  
HETATM    8  O   UNL     1     -10.195   7.281  68.701  1.00  0.00    -0.172 OA 
HETATM    9  C   UNL     1      -9.019   6.785  68.182  1.00  0.00    -0.118 A  
HETATM   10  C   UNL     1      -9.470   9.484  71.482  1.00  0.00     0.387 A  
HETATM   11  C   UNL     1      -9.266   5.742  67.245  1.00  0.00    -0.110 A  
HETATM   12  C   UNL     1      -8.203   4.963  66.790  1.00  0.00    -0.107 A  
HETATM   13  C   UNL     1      -6.925   5.257  67.179  1.00  0.00    -0.065 A  
HETATM   14  C   UNL     1      -8.409   3.698  66.003  1.00  0.00    -0.106 C  
HETATM   15  C   UNL     1      -9.730   3.608  65.284  1.00  0.00    -0.144 C  
HETATM   16  C   UNL     1      -6.646   6.345  68.023  1.00  0.00    -0.066 A  
HETATM   17  C   UNL     1     -11.083  12.392  68.796  1.00  0.00    -0.307 C  
HETATM   18  C   UNL     1      -7.682   7.187  68.449  1.00  0.00    -0.120 A  
HETATM   19  N   UNL     1     -10.922   4.170  66.062  1.00  0.00     0.823 N  
HETATM   20  C   UNL     1     -13.720  12.388  70.258  1.00  0.00     2.884 C  
HETATM   21  C   UNL     1     -12.125   4.016  65.133  1.00  0.00     4.298 C  
HETATM   22  C   UNL     1     -12.362  14.498  68.361  1.00  0.00    -0.011 C  
HETATM   23  C   UNL     1     -10.619   5.636  66.521  1.00  0.00    -0.255 C  
HETATM   24  C   UNL     1     -11.259   3.397  67.343  1.00  0.00     6.814 C  
HETATM   25  C   UNL     1     -12.707  13.610  72.136  1.00  0.00    -0.165 C  
HETATM   26  C   UNL     1     -10.522   6.627  65.340  1.00  0.00     2.629 C  
HETATM   27  C   UNL     1     -11.706   7.513  65.096  1.00  0.00    11.383 A  
HETATM   28  C   UNL     1     -11.883   8.591  65.977  1.00  0.00     7.485 A  
HETATM   29  C   UNL     1     -12.451   9.764  65.533  1.00  0.00    10.611 A  
HETATM   30  C   UNL     1     -13.247   9.668  64.372  1.00  0.00    15.262 A  
HETATM   31  O   UNL     1     -12.221  10.950  66.223  1.00  0.00     1.327 OA 
HETATM   32  N   UNL     1     -12.553  13.286  70.654  1.00  0.00    -0.273 N  
HETATM   33  C   UNL     1     -10.845  11.137  66.738  1.00  0.00    -0.268 C  
HETATM   34  C   UNL     1     -13.212   8.535  63.552  1.00  0.00    21.173 A  
HETATM   35  C   UNL     1     -12.641  14.626  69.868  1.00  0.00    -0.180 C  
HETATM   36  C   UNL     1     -10.228  12.275  66.202  1.00  0.00    -0.239 C  
HETATM   37  C   UNL     1     -12.382   7.469  63.889  1.00  0.00    23.219 A  
HETATM   38  C   UNL     1     -10.799  11.189  68.128  1.00  0.00    -0.266 C  
HETATM   39  C   UNL     1     -10.730  13.488  66.674  1.00  0.00    -0.282 C  
HETATM   40  C   UNL     1     -11.327  13.484  67.947  1.00  0.00    -0.320 C  
ENDROOT
BRANCH  16  41
HETATM   41  O   UNL     1      -5.345   6.552  68.405  1.00  0.00    -0.010 OA 
HETATM   42  C   UNL     1      -5.186   6.629  69.827  1.00  0.00    -0.014 C  
ENDBRANCH  16  41
BRANCH  18  43
HETATM   43  O   UNL     1      -7.474   8.430  68.984  1.00  0.00    -0.089 OA 
HETATM   44  C   UNL     1      -6.799   9.405  68.178  1.00  0.00    -0.064 C  
ENDBRANCH  18  43
BRANCH  30  45
HETATM   45  O   UNL     1     -14.118  10.657  63.977  1.00  0.00     3.661 OA 
HETATM   46  C   UNL     1     -13.361  11.769  63.497  1.00  0.00     0.526 C  
ENDBRANCH  30  45
BRANCH  36  47
HETATM   47  O   UNL     1      -8.852  12.080  66.063  1.00  0.00    -0.101 OA 
HETATM   48  C   UNL     1      -8.347  11.547  64.843  1.00  0.00     0.742 C  
ENDBRANCH  36  47
TORSDOF 4
ENDMDL
MODEL       85
REMARK 921   NORMALIZED FREE ENERGY PREDICTED BY IDOCK:   98.06 KCAL/MOL
REMARK 922        TOTAL FREE ENERGY PREDICTED BY IDOCK:  120.11 KCAL/MOL
REMARK 923 INTER-LIGAND FREE ENERGY PREDICTED BY IDOCK:  114.13 KCAL/MOL
REMARK 924 INTRA-LIGAND FREE ENERGY PREDICTED BY IDOCK:    5.98 KCAL/MOL
REMARK 927      BINDING AFFINITY PREDICTED BY RF-SCORE:    0.00 PKD
ROOT
HETATM    1  C   UNL     1     -11.614   8.761  63.706  1.00  0.00    15.828 C  
HETATM    2  C   UNL     1     -12.095  10.038  62.907  1.00  0.00     7.004 C  
HETATM    3  C   UNL     1     -12.760  11.154  63.651  1.00  0.00     1.235 A  
HETATM    4  C   UNL     1     -13.619  10.912  64.710  1.00  0.00     7.048 A  
HETATM    5  C   UNL     1     -13.556  11.757  65.807  1.00  0.00     6.997 A  
HETATM    6  C   UNL     1     -12.797  12.927  65.729  1.00  0.00     0.328 A  
HETATM    7  C   UNL     1     -12.474  13.388  64.474  1.00  0.00    -0.359 A  
HETATM    8  O   UNL     1     -12.367  13.402  66.939  1.00  0.00    -0.328 OA 
HETATM    9  C   UNL     1     -11.439  14.396  67.157  1.00  0.00    -0.362 A  
HETATM   10  C   UNL     1     -12.359  12.473  63.439  1.00  0.00    -0.577 A  
HETATM   11  C   UNL     1     -11.572  14.949  68.463  1.00  0.00    -0.347 A  
HETATM   12  C   UNL     1     -10.881  16.116  68.787  1.00  0.00    -0.310 A  
HETATM   13  C   UNL     1     -10.019  16.673  67.882  1.00  0.00    -0.254 A  
HETATM   14  C   UNL     1     -11.157  16.894  70.044  1.00  0.00     0.218 C  
HETATM   15  C   UNL     1     -11.789  16.098  71.155  1.00  0.00    -0.366 C  
HETATM   16  C   UNL     1      -9.795  16.088  66.624  1.00  0.00    -0.260 A  
HETATM   17  C   UNL     1     -10.896   8.797  65.055  1.00  0.00     5.331 C  
HETATM   18  C   UNL     1     -10.424  14.882  66.290  1.00  0.00    -0.302 A  
HETATM   19  N   UNL     1     -12.838  15.081  70.697  1.00  0.00    -0.366 N  
HETATM   20  C   UNL     1     -13.609   7.509  64.777  1.00  0.00    20.139 C  
HETATM   21  C   UNL     1     -13.300  14.370  71.969  1.00  0.00    -0.384 C  
HETATM   22  C   UNL     1     -10.713   6.302  65.002  1.00  0.00     3.861 C  
HETATM   23  C   UNL     1     -12.232  14.146  69.597  1.00  0.00    -0.326 C  
HETATM   24  C   UNL     1     -14.089  15.705  70.068  1.00  0.00     2.251 C  
HETATM   25  C   UNL     1     -13.332   7.397  62.336  1.00  0.00    12.866 C  
HETATM   26  C   UNL     1     -11.117  13.224  70.138  1.00  0.00     0.466 C  
HETATM   27  C   UNL     1     -11.484  11.794  70.399  1.00  0.00     0.067 A  
HETATM   28  C   UNL     1     -11.619  10.960  69.277  1.00  0.00    -0.388 A  
HETATM   29  C   UNL     1     -11.305   9.622  69.365  1.00  0.00     0.002 A  
HETATM   30  C   UNL     1     -11.321   9.064  70.661  1.00  0.00    -0.265 A  
HETATM   31  O   UNL     1     -10.994   8.907  68.213  1.00  0.00    -0.051 OA 
HETATM   32  N   UNL     1     -12.577   7.518  63.655  1.00  0.00    21.662 N  
HETATM   33  C   UNL     1     -10.173   9.626  67.212  1.00  0.00    -0.233 C  
HETATM   34  C   UNL     1     -11.346   9.870  71.804  1.00  0.00     0.112 A  
HETATM   35  C   UNL     1     -11.657   6.269  63.788  1.00  0.00    11.185 C  
HETATM   36  C   UNL     1      -8.951   8.983  66.967  1.00  0.00    -0.126 C  
HETATM   37  C   UNL     1     -11.365  11.256  71.668  1.00  0.00     2.630 A  
HETATM   38  C   UNL     1     -10.847   9.825  66.011  1.00  0.00     0.413 C  
HETATM   39  C   UNL     1      -9.054   7.792  66.248  1.00  0.00    -0.221 C  
HETATM   40  C   UNL     1     -10.165   7.648  65.399  1.00  0.00     2.459 C  
ENDROOT
BRANCH  16  41
HETATM   41  O   UNL     1      -8.950  16.727  65.754  1.00  0.00    -0.508 OA 
HETATM   42  C   UNL     1      -7.831  17.338  66.410  1.00  0.00    -0.310 C  
ENDBRANCH  16  41
BRANCH  18  43
HETATM   43  O   UNL     1     -10.023  14.084  65.251  1.00  0.00    -0.320 OA 
HETATM   44  C   UNL     1     -10.467  12.720  65.240  1.00  0.00    -0.292 C  
ENDBRANCH  18  43
BRANCH  30  45
HETATM   45  O   UNL     1     -11.334   7.709  70.892  1.00  0.00    -0.268 OA 
HETATM   46  C   UNL     1     -10.909   7.469  72.235  1.00  0.00    -0.258 C  
ENDBRANCH  30  45
BRANCH  36  47
HETATM   47  O   UNL     1      -7.949   9.909  66.672  1.00  0.00    -0.111 OA 
HETATM   48  C   UNL     1      -6.820  10.007  67.534  1.00  0.00    -0.081 C  
ENDBRANCH  36  47
TORSDOF 4
ENDMDL
MODEL       86
REMARK 921   NORMALIZED FREE ENERGY PREDICTED BY IDOCK:   98.56 KCAL/MOL
REMARK 922        TOTAL FREE ENERGY PREDICTED BY IDOCK:  120.71 KCAL/MOL
REMARK 923 INTER-LIGAND FREE ENERGY PREDICTED BY IDOCK:  119.48 KCAL/MOL
REMARK 924 INTRA-LIGAND FREE ENERGY PREDICTED BY IDOCK:    1.24 KCAL/MOL
REMARK 927      BINDING AFFINITY PREDICTED BY RF-SCORE:    0.00 PKD
ROOT
HETATM    1  C   UNL     1     -11.999  16.292  65.463  1.00  0.00     1.347 C  
HETATM    2  C   UNL     1     -13.105  16.159  66.584  1.00  0.00     4.931 C  
HETATM    3  C   UNL     1     -13.486  14.795  67.072  1.00  0.00     4.360 A  
HETATM    4  C   UNL     1     -13.553  13.709  66.216  1.00  0.00     2.879 A  
HETATM    5  C   UNL     1     -13.092  12.485  66.678  1.00  0.00     3.126 A  
HETATM    6  C   UNL     1     -12.778  12.337  68.031  1.00  0.00     2.017 A  
HETATM    7  C   UNL     1     -13.300  13.260  68.905  1.00  0.00     3.489 A  
HETATM    8  O   UNL     1     -11.877  11.341  68.295  1.00  0.00    -0.516 OA 
HETATM    9  C   UNL     1     -11.227  11.104  69.486  1.00  0.00    -0.277 A  
HETATM   10  C   UNL     1     -13.568  14.539  68.441  1.00  0.00     5.499 A  
HETATM   11  C   UNL     1     -10.747   9.765  69.556  1.00  0.00    -0.255 A  
HETATM   12  C   UNL     1     -10.270   9.271  70.769  1.00  0.00    -0.353 A  
HETATM   13  C   UNL     1     -10.187  10.095  71.858  1.00  0.00     2.966 A  
HETATM   14  C   UNL     1      -9.982   7.810  70.987  1.00  0.00    -0.191 C  
HETATM   15  C   UNL     1      -9.713   7.024  69.732  1.00  0.00    -0.168 C  
HETATM   16  C   UNL     1     -10.560  11.448  71.785  1.00  0.00     7.217 A  
HETATM   17  C   UNL     1     -10.692  15.499  65.428  1.00  0.00    -0.422 C  
HETATM   18  C   UNL     1     -10.984  11.994  70.566  1.00  0.00     1.652 A  
HETATM   19  N   UNL     1     -10.587   7.411  68.535  1.00  0.00    -0.185 N  
HETATM   20  C   UNL     1     -12.755  15.180  63.252  1.00  0.00     2.071 C  
HETATM   21  C   UNL     1     -10.112   6.527  67.381  1.00  0.00    -0.162 C  
HETATM   22  C   UNL     1     -10.021  16.732  63.356  1.00  0.00    10.791 C  
HETATM   23  C   UNL     1     -10.487   8.952  68.276  1.00  0.00    -0.195 C  
HETATM   24  C   UNL     1     -12.080   7.117  68.723  1.00  0.00     1.954 C  
HETATM   25  C   UNL     1     -13.833  17.283  63.932  1.00  0.00    11.454 C  
HETATM   26  C   UNL     1      -9.087   9.392  67.797  1.00  0.00    -0.134 C  
HETATM   27  C   UNL     1      -8.926   9.673  66.333  1.00  0.00    -0.179 A  
HETATM   28  C   UNL     1      -9.461  10.881  65.858  1.00  0.00    -0.241 A  
HETATM   29  C   UNL     1      -8.863  11.539  64.806  1.00  0.00     0.344 A  
HETATM   30  C   UNL     1      -8.049  10.752  63.964  1.00  0.00     0.172 A  
HETATM   31  O   UNL     1      -9.079  12.901  64.628  1.00  0.00     0.856 OA 
HETATM   32  N   UNL     1     -12.531  16.492  63.996  1.00  0.00     1.615 N  
HETATM   33  C   UNL     1      -9.117  13.713  65.866  1.00  0.00     0.358 C  
HETATM   34  C   UNL     1      -7.625   9.473  64.343  1.00  0.00    -0.122 A  
HETATM   35  C   UNL     1     -11.439  17.323  63.262  1.00  0.00     7.931 C  
HETATM   36  C   UNL     1      -8.119  14.697  65.886  1.00  0.00     2.343 C  
HETATM   37  C   UNL     1      -8.021   8.954  65.572  1.00  0.00    -0.107 A  
HETATM   38  C   UNL     1     -10.360  14.301  66.081  1.00  0.00    -0.305 C  
HETATM   39  C   UNL     1      -8.330  15.759  65.006  1.00  0.00     4.578 C  
HETATM   40  C   UNL     1      -9.659  16.041  64.645  1.00  0.00     2.191 C  
ENDROOT
BRANCH  16  41
HETATM   41  O   UNL     1     -10.490  12.201  72.929  1.00  0.00    13.890 OA 
HETATM   42  C   UNL     1      -9.862  11.509  74.015  1.00  0.00    23.253 C  
ENDBRANCH  16  41
BRANCH  18  43
HETATM   43  O   UNL     1     -11.048  13.340  70.324  1.00  0.00     0.305 OA 
HETATM   44  C   UNL     1     -11.720  14.167  71.283  1.00  0.00     0.087 C  
ENDBRANCH  18  43
BRANCH  30  45
HETATM   45  O   UNL     1      -7.634  11.169  62.721  1.00  0.00     0.121 OA 
HETATM   46  C   UNL     1      -6.381  10.549  62.424  1.00  0.00    -0.141 C  
ENDBRANCH  30  45
BRANCH  36  47
HETATM   47  O   UNL     1      -7.673  14.931  67.188  1.00  0.00    -0.202 OA 
HETATM   48  C   UNL     1      -8.564  14.711  68.277  1.00  0.00    -0.167 C  
ENDBRANCH  36  47
TORSDOF 4
ENDMDL
MODEL       87
REMARK 921   NORMALIZED FREE ENERGY PREDICTED BY IDOCK:  108.12 KCAL/MOL
REMARK 922        TOTAL FREE ENERGY PREDICTED BY IDOCK:  132.51 KCAL/MOL
REMARK 923 INTER-LIGAND FREE ENERGY PREDICTED BY IDOCK:  120.69 KCAL/MOL
REMARK 924 INTRA-LIGAND FREE ENERGY PREDICTED BY IDOCK:   11.82 KCAL/MOL
REMARK 927      BINDING AFFINITY PREDICTED BY RF-SCORE:    0.00 PKD
ROOT
HETATM    1  C   UNL     1      -8.409  15.427  70.375  1.00  0.00     1.165 C  
HETATM    2  C   UNL     1      -8.457  15.709  68.820  1.00  0.00    -0.192 C  
HETATM    3  C   UNL     1      -8.048  14.626  67.871  1.00  0.00    -0.149 A  
HETATM    4  C   UNL     1      -7.005  13.762  68.159  1.00  0.00    -0.120 A  
HETATM    5  C   UNL     1      -7.149  12.427  67.810  1.00  0.00    -0.120 A  
HETATM    6  C   UNL     1      -8.224  12.040  67.007  1.00  0.00    -0.169 A  
HETATM    7  C   UNL     1      -8.856  13.022  66.282  1.00  0.00     0.177 A  
HETATM    8  O   UNL     1      -8.586  10.728  67.145  1.00  0.00    -0.127 OA 
HETATM    9  C   UNL     1      -9.723  10.125  66.653  1.00  0.00    -0.192 A  
HETATM   10  C   UNL     1      -8.850  14.319  66.771  1.00  0.00    -0.207 A  
HETATM   11  C   UNL     1      -9.564   8.712  66.567  1.00  0.00    -0.303 A  
HETATM   12  C   UNL     1     -10.512   7.956  65.881  1.00  0.00     1.543 A  
HETATM   13  C   UNL     1     -11.628   8.560  65.369  1.00  0.00     8.871 A  
HETATM   14  C   UNL     1     -10.292   6.509  65.533  1.00  0.00     1.753 C  
HETATM   15  C   UNL     1      -9.291   5.794  66.402  1.00  0.00    -0.156 C  
HETATM   16  C   UNL     1     -11.857   9.937  65.529  1.00  0.00     5.148 A  
HETATM   17  C   UNL     1      -8.891  14.139  71.042  1.00  0.00     4.949 C  
HETATM   18  C   UNL     1     -10.956  10.716  66.268  1.00  0.00     0.053 A  
HETATM   19  N   UNL     1      -8.070   6.631  66.793  1.00  0.00    -0.111 N  
HETATM   20  C   UNL     1      -5.994  14.964  71.178  1.00  0.00     0.112 C  
HETATM   21  C   UNL     1      -7.229   5.730  67.697  1.00  0.00    -0.076 C  
HETATM   22  C   UNL     1      -8.330  15.109  73.279  1.00  0.00    10.014 C  
HETATM   23  C   UNL     1      -8.531   7.980  67.441  1.00  0.00    -0.126 C  
HETATM   24  C   UNL     1      -7.172   7.024  65.613  1.00  0.00    -0.073 C  
HETATM   25  C   UNL     1      -6.593  17.261  70.538  1.00  0.00     1.292 C  
HETATM   26  C   UNL     1      -9.224   7.784  68.807  1.00  0.00    -0.139 C  
HETATM   27  C   UNL     1      -8.414   8.086  70.031  1.00  0.00    -0.129 A  
HETATM   28  C   UNL     1      -8.210   9.441  70.338  1.00  0.00    -0.214 A  
HETATM   29  C   UNL     1      -8.095   9.847  71.648  1.00  0.00     2.128 A  
HETATM   30  C   UNL     1      -7.717   8.853  72.575  1.00  0.00     0.319 A  
HETATM   31  O   UNL     1      -8.351  11.171  71.988  1.00  0.00     9.020 OA 
HETATM   32  N   UNL     1      -7.140  15.968  71.132  1.00  0.00     2.524 N  
HETATM   33  C   UNL     1      -9.491  11.806  71.288  1.00  0.00    10.638 C  
HETATM   34  C   UNL     1      -7.760   7.493  72.248  1.00  0.00    -0.099 A  
HETATM   35  C   UNL     1      -7.615  16.279  72.580  1.00  0.00    12.297 C  
HETATM   36  C   UNL     1     -10.489  12.232  72.175  1.00  0.00    12.643 C  
HETATM   37  C   UNL     1      -8.173   7.105  70.977  1.00  0.00    -0.109 A  
HETATM   38  C   UNL     1      -9.097  12.868  70.480  1.00  0.00     6.549 C  
HETATM   39  C   UNL     1     -10.148  13.345  72.944  1.00  0.00    12.876 C  
HETATM   40  C   UNL     1      -9.187  14.223  72.412  1.00  0.00     8.608 C  
ENDROOT
BRANCH  16  41
HETATM   41  O   UNL     1     -12.975  10.479  64.951  1.00  0.00     5.122 OA 
HETATM   42  C   UNL     1     -12.678  11.272  63.795  1.00  0.00     0.885 C  
ENDBRANCH  16  41
BRANCH  18  43
HETATM   43  O   UNL     1     -11.255  11.963  66.749  1.00  0.00    -0.294 OA 
HETATM   44  C   UNL     1     -10.170  12.799  67.174  1.00  0.00    -0.233 C  
ENDBRANCH  18  43
BRANCH  30  45
HETATM   45  O   UNL     1      -7.267   9.143  73.842  1.00  0.00    -0.282 OA 
HETATM   46  C   UNL     1      -7.115  10.558  73.961  1.00  0.00     4.565 C  
ENDBRANCH  30  45
BRANCH  36  47
HETATM   47  O   UNL     1     -11.754  12.130  71.594  1.00  0.00     1.290 OA 
HETATM   48  C   UNL     1     -12.405  13.311  71.138  1.00  0.00    -0.232 C  
ENDBRANCH  36  47
TORSDOF 4
ENDMDL
MODEL       88
REMARK 921   NORMALIZED FREE ENERGY PREDICTED BY IDOCK:  111.50 KCAL/MOL
REMARK 922        TOTAL FREE ENERGY PREDICTED BY IDOCK:  136.68 KCAL/MOL
REMARK 923 INTER-LIGAND FREE ENERGY PREDICTED BY IDOCK:  133.37 KCAL/MOL
REMARK 924 INTRA-LIGAND FREE ENERGY PREDICTED BY IDOCK:    3.31 KCAL/MOL
REMARK 927      BINDING AFFINITY PREDICTED BY RF-SCORE:    0.00 PKD
ROOT
HETATM    1  C   UNL     1     -11.974  18.217  72.477  1.00  0.00     4.768 C  
HETATM    2  C   UNL     1     -12.972  17.047  72.844  1.00  0.00     1.946 C  
HETATM    3  C   UNL     1     -13.611  16.261  71.741  1.00  0.00     1.171 A  
HETATM    4  C   UNL     1     -14.005  16.860  70.556  1.00  0.00     8.588 A  
HETATM    5  C   UNL     1     -13.798  16.164  69.374  1.00  0.00     4.375 A  
HETATM    6  C   UNL     1     -13.403  14.826  69.426  1.00  0.00     1.729 A  
HETATM    7  C   UNL     1     -13.615  14.150  70.604  1.00  0.00     0.225 A  
HETATM    8  O   UNL     1     -12.736  14.392  68.312  1.00  0.00     0.289 OA 
HETATM    9  C   UNL     1     -12.050  13.206  68.166  1.00  0.00    -0.184 A  
HETATM   10  C   UNL     1     -13.623  14.867  71.790  1.00  0.00    -0.500 A  
HETATM   11  C   UNL     1     -11.887  12.869  66.791  1.00  0.00    -0.452 A  
HETATM   12  C   UNL     1     -11.427  11.599  66.447  1.00  0.00    -0.238 A  
HETATM   13  C   UNL     1     -11.056  10.718  67.425  1.00  0.00    -0.363 A  
HETATM   14  C   UNL     1     -11.465  11.083  65.034  1.00  0.00     0.378 C  
HETATM   15  C   UNL     1     -11.502  12.150  63.972  1.00  0.00    -0.411 C  
HETATM   16  C   UNL     1     -11.112  11.065  68.786  1.00  0.00    -0.239 A  
HETATM   17  C   UNL     1     -10.894  18.134  71.397  1.00  0.00     2.873 C  
HETATM   18  C   UNL     1     -11.510  12.354  69.166  1.00  0.00    -0.302 A  
HETATM   19  N   UNL     1     -12.370  13.365  64.315  1.00  0.00    -0.363 N  
HETATM   20  C   UNL     1     -13.168  20.102  71.167  1.00  0.00    23.199 C  
HETATM   21  C   UNL     1     -12.221  14.320  63.131  1.00  0.00     0.970 C  
HETATM   22  C   UNL     1     -10.152  20.449  71.990  1.00  0.00     3.451 C  
HETATM   23  C   UNL     1     -11.942  13.953  65.702  1.00  0.00    -0.392 C  
HETATM   24  C   UNL     1     -13.867  13.055  64.439  1.00  0.00     2.778 C  
HETATM   25  C   UNL     1     -13.664  19.846  73.561  1.00  0.00    22.170 C  
HETATM   26  C   UNL     1     -10.529  14.575  65.680  1.00  0.00    -0.351 C  
HETATM   27  C   UNL     1     -10.444  16.070  65.617  1.00  0.00    -0.416 A  
HETATM   28  C   UNL     1     -10.727  16.772  66.799  1.00  0.00    -0.117 A  
HETATM   29  C   UNL     1     -10.094  17.965  67.067  1.00  0.00    -0.340 A  
HETATM   30  C   UNL     1      -9.565  18.650  65.953  1.00  0.00     0.107 A  
HETATM   31  O   UNL     1     -10.006  18.423  68.377  1.00  0.00    -0.341 OA 
HETATM   32  N   UNL     1     -12.580  19.668  72.504  1.00  0.00    16.998 N  
HETATM   33  C   UNL     1      -9.741  17.389  69.403  1.00  0.00     0.104 C  
HETATM   34  C   UNL     1      -9.414  18.023  64.712  1.00  0.00     4.263 A  
HETATM   35  C   UNL     1     -11.398  20.609  72.879  1.00  0.00    13.274 C  
HETATM   36  C   UNL     1      -8.545  17.623  70.097  1.00  0.00     2.648 C  
HETATM   37  C   UNL     1      -9.804  16.695  64.561  1.00  0.00     2.868 A  
HETATM   38  C   UNL     1     -10.789  17.253  70.308  1.00  0.00     0.749 C  
HETATM   39  C   UNL     1      -8.586  18.702  70.980  1.00  0.00     5.661 C  
HETATM   40  C   UNL     1      -9.842  19.058  71.502  1.00  0.00     3.924 C  
ENDROOT
BRANCH  16  41
HETATM   41  O   UNL     1     -10.764  10.115  69.711  1.00  0.00    -0.241 OA 
HETATM   42  C   UNL     1     -10.977  10.547  71.061  1.00  0.00     0.483 C  
ENDBRANCH  16  41
BRANCH  18  43
HETATM   43  O   UNL     1     -11.283  12.878  70.410  1.00  0.00     0.350 OA 
HETATM   44  C   UNL     1      -9.943  12.849  70.919  1.00  0.00     7.156 C  
ENDBRANCH  18  43
BRANCH  30  45
HETATM   45  O   UNL     1      -9.182  19.971  66.000  1.00  0.00    -0.375 OA 
HETATM   46  C   UNL     1      -8.908  20.321  67.358  1.00  0.00    -0.344 C  
ENDBRANCH  30  45
BRANCH  36  47
HETATM   47  O   UNL     1      -7.938  16.422  70.468  1.00  0.00     1.973 OA 
HETATM   48  C   UNL     1      -8.053  15.292  69.609  1.00  0.00    -0.125 C  
ENDBRANCH  36  47
TORSDOF 4
ENDMDL
MODEL       89
REMARK 921   NORMALIZED FREE ENERGY PREDICTED BY IDOCK:  112.41 KCAL/MOL
REMARK 922        TOTAL FREE ENERGY PREDICTED BY IDOCK:  137.80 KCAL/MOL
REMARK 923 INTER-LIGAND FREE ENERGY PREDICTED BY IDOCK:  134.82 KCAL/MOL
REMARK 924 INTRA-LIGAND FREE ENERGY PREDICTED BY IDOCK:    2.98 KCAL/MOL
REMARK 927      BINDING AFFINITY PREDICTED BY RF-SCORE:    0.00 PKD
ROOT
HETATM    1  C   UNL     1     -11.183  13.831  72.138  1.00  0.00     3.334 C  
HETATM    2  C   UNL     1     -12.361  12.811  72.401  1.00  0.00     1.072 C  
HETATM    3  C   UNL     1     -13.065  12.195  71.231  1.00  0.00    -0.210 A  
HETATM    4  C   UNL     1     -13.315  12.912  70.073  1.00  0.00     1.548 A  
HETATM    5  C   UNL     1     -13.167  12.260  68.859  1.00  0.00     3.342 A  
HETATM    6  C   UNL     1     -12.982  10.876  68.841  1.00  0.00     1.997 A  
HETATM    7  C   UNL     1     -13.343  10.176  69.968  1.00  0.00     0.633 A  
HETATM    8  O   UNL     1     -12.343  10.406  67.725  1.00  0.00     1.085 OA 
HETATM    9  C   UNL     1     -11.839   9.139  67.529  1.00  0.00     3.268 A  
HETATM   10  C   UNL     1     -13.291  10.819  71.195  1.00  0.00    -0.114 A  
HETATM   11  C   UNL     1     -11.673   8.858  66.142  1.00  0.00     5.611 A  
HETATM   12  C   UNL     1     -11.397   7.554  65.736  1.00  0.00     5.105 A  
HETATM   13  C   UNL     1     -11.204   6.573  66.670  1.00  0.00     0.093 A  
HETATM   14  C   UNL     1     -11.454   7.129  64.294  1.00  0.00    15.876 C  
HETATM   15  C   UNL     1     -11.285   8.247  63.298  1.00  0.00    15.904 C  
HETATM   16  C   UNL     1     -11.263   6.848  68.047  1.00  0.00     0.001 A  
HETATM   17  C   UNL     1     -10.084  13.644  71.092  1.00  0.00     5.630 C  
HETATM   18  C   UNL     1     -11.477   8.160  68.492  1.00  0.00     1.134 A  
HETATM   19  N   UNL     1     -11.972   9.559  63.686  1.00  0.00    10.217 N  
HETATM   20  C   UNL     1     -12.022  15.947  70.908  1.00  0.00    -0.394 C  
HETATM   21  C   UNL     1     -11.631  10.544  62.568  1.00  0.00     3.084 C  
HETATM   22  C   UNL     1      -9.025  15.781  71.849  1.00  0.00     6.671 C  
HETATM   23  C   UNL     1     -11.518   9.997  65.120  1.00  0.00     3.319 C  
HETATM   24  C   UNL     1     -13.502   9.476  63.743  1.00  0.00    14.824 C  
HETATM   25  C   UNL     1     -12.649  15.639  73.266  1.00  0.00    -0.503 C  
HETATM   26  C   UNL     1     -10.026  10.394  65.183  1.00  0.00    -0.390 C  
HETATM   27  C   UNL     1      -9.713  11.859  65.213  1.00  0.00    -0.214 A  
HETATM   28  C   UNL     1      -9.935  12.529  66.427  1.00  0.00    -0.262 A  
HETATM   29  C   UNL     1      -9.141  13.594  66.788  1.00  0.00    -0.217 A  
HETATM   30  C   UNL     1      -8.467  14.251  65.736  1.00  0.00     1.836 A  
HETATM   31  O   UNL     1      -9.038  13.959  68.126  1.00  0.00    -0.181 OA 
HETATM   32  N   UNL     1     -11.562  15.355  72.235  1.00  0.00    -0.458 N  
HETATM   33  C   UNL     1      -8.976  12.841  69.094  1.00  0.00     0.737 C  
HETATM   34  C   UNL     1      -8.362  13.678  64.464  1.00  0.00     7.131 A  
HETATM   35  C   UNL     1     -10.267  16.081  72.705  1.00  0.00     5.208 C  
HETATM   36  C   UNL     1      -7.788  12.850  69.839  1.00  0.00     1.910 C  
HETATM   37  C   UNL     1      -8.942  12.436  64.220  1.00  0.00     1.231 A  
HETATM   38  C   UNL     1     -10.069  12.819  69.955  1.00  0.00     1.907 C  
HETATM   39  C   UNL     1      -7.701  13.871  70.786  1.00  0.00     2.967 C  
HETATM   40  C   UNL     1      -8.909  14.387  71.287  1.00  0.00     4.837 C  
ENDROOT
BRANCH  16  41
HETATM   41  O   UNL     1     -11.103   5.806  68.923  1.00  0.00    -0.265 OA 
HETATM   42  C   UNL     1     -10.295   4.748  68.390  1.00  0.00     0.104 C  
ENDBRANCH  16  41
BRANCH  18  43
HETATM   43  O   UNL     1     -11.225   8.573  69.773  1.00  0.00    -0.129 OA 
HETATM   44  C   UNL     1     -10.695   9.892  69.963  1.00  0.00    -0.292 C  
ENDBRANCH  18  43
BRANCH  30  45
HETATM   45  O   UNL     1      -7.891  15.492  65.875  1.00  0.00     0.850 OA 
HETATM   46  C   UNL     1      -6.470  15.339  65.876  1.00  0.00     5.721 C  
ENDBRANCH  30  45
BRANCH  36  47
HETATM   47  O   UNL     1      -7.386  11.551  70.156  1.00  0.00     0.363 OA 
HETATM   48  C   UNL     1      -6.087  11.114  69.770  1.00  0.00    -0.107 C  
ENDBRANCH  36  47
TORSDOF 4
ENDMDL
MODEL       90
REMARK 921   NORMALIZED FREE ENERGY PREDICTED BY IDOCK:  120.16 KCAL/MOL
REMARK 922        TOTAL FREE ENERGY PREDICTED BY IDOCK:  147.37 KCAL/MOL
REMARK 923 INTER-LIGAND FREE ENERGY PREDICTED BY IDOCK:  145.31 KCAL/MOL
REMARK 924 INTRA-LIGAND FREE ENERGY PREDICTED BY IDOCK:    2.06 KCAL/MOL
REMARK 927      BINDING AFFINITY PREDICTED BY RF-SCORE:    0.00 PKD
ROOT
HETATM    1  C   UNL     1      -6.562  16.506  72.340  1.00  0.00     5.376 C  
HETATM    2  C   UNL     1      -6.992  15.394  73.379  1.00  0.00     5.635 C  
HETATM    3  C   UNL     1      -8.269  14.645  73.157  1.00  0.00     8.409 A  
HETATM    4  C   UNL     1      -9.395  15.264  72.640  1.00  0.00     7.248 A  
HETATM    5  C   UNL     1     -10.167  14.557  71.731  1.00  0.00     3.285 A  
HETATM    6  C   UNL     1      -9.916  13.198  71.527  1.00  0.00    10.483 A  
HETATM    7  C   UNL     1      -9.200  12.536  72.496  1.00  0.00    23.535 A  
HETATM    8  O   UNL     1     -10.323  12.727  70.308  1.00  0.00     1.891 OA 
HETATM    9  C   UNL     1     -10.021  11.505  69.749  1.00  0.00     0.980 A  
HETATM   10  C   UNL     1      -8.291  13.254  73.258  1.00  0.00    14.665 A  
HETATM   11  C   UNL     1     -10.954  11.158  68.729  1.00  0.00    -0.268 A  
HETATM   12  C   UNL     1     -10.953   9.864  68.211  1.00  0.00    -0.248 A  
HETATM   13  C   UNL     1     -10.008   8.964  68.621  1.00  0.00    -0.192 A  
HETATM   14  C   UNL     1     -12.054   9.350  67.323  1.00  0.00     5.013 C  
HETATM   15  C   UNL     1     -12.834  10.417  66.601  1.00  0.00     9.318 C  
HETATM   16  C   UNL     1      -9.014   9.314  69.551  1.00  0.00    -0.152 A  
HETATM   17  C   UNL     1      -6.657  16.362  70.821  1.00  0.00     1.438 C  
HETATM   18  C   UNL     1      -8.947  10.624  70.045  1.00  0.00     0.683 A  
HETATM   19  N   UNL     1     -13.108  11.678  67.425  1.00  0.00     4.700 N  
HETATM   20  C   UNL     1      -8.264  18.454  72.283  1.00  0.00    12.307 C  
HETATM   21  C   UNL     1     -13.860  12.622  66.488  1.00  0.00     8.082 C  
HETATM   22  C   UNL     1      -5.637  18.632  70.562  1.00  0.00    -0.201 C  
HETATM   23  C   UNL     1     -11.766  12.243  68.001  1.00  0.00    -0.356 C  
HETATM   24  C   UNL     1     -14.018  11.453  68.639  1.00  0.00     9.285 C  
HETATM   25  C   UNL     1      -6.811  18.229  74.253  1.00  0.00    10.660 C  
HETATM   26  C   UNL     1     -10.822  12.784  66.905  1.00  0.00    -0.278 C  
HETATM   27  C   UNL     1     -10.758  14.272  66.736  1.00  0.00    -0.287 A  
HETATM   28  C   UNL     1     -10.036  14.989  67.702  1.00  0.00    -0.225 A  
HETATM   29  C   UNL     1      -9.372  16.145  67.357  1.00  0.00    -0.217 A  
HETATM   30  C   UNL     1      -9.829  16.799  66.193  1.00  0.00    -0.309 A  
HETATM   31  O   UNL     1      -8.316  16.598  68.141  1.00  0.00    -0.183 OA 
HETATM   32  N   UNL     1      -6.889  17.989  72.749  1.00  0.00     5.699 N  
HETATM   33  C   UNL     1      -7.411  15.552  68.668  1.00  0.00    -0.131 C  
HETATM   34  C   UNL     1     -10.681  16.164  65.283  1.00  0.00    -0.386 A  
HETATM   35  C   UNL     1      -5.791  18.863  72.076  1.00  0.00     0.514 C  
HETATM   36  C   UNL     1      -6.092  15.719  68.225  1.00  0.00    -0.113 C  
HETATM   37  C   UNL     1     -11.100  14.860  65.531  1.00  0.00    -0.353 A  
HETATM   38  C   UNL     1      -7.434  15.476  70.057  1.00  0.00     0.160 C  
HETATM   39  C   UNL     1      -5.418  16.799  68.796  1.00  0.00    -0.124 C  
HETATM   40  C   UNL     1      -5.847  17.226  70.065  1.00  0.00    -0.230 C  
ENDROOT
BRANCH  16  41
HETATM   41  O   UNL     1      -8.127   8.347  69.946  1.00  0.00    -0.113 OA 
HETATM   42  C   UNL     1      -7.334   8.743  71.072  1.00  0.00    -0.092 C  
ENDBRANCH  16  41
BRANCH  18  43
HETATM   43  O   UNL     1      -7.846  11.136  70.680  1.00  0.00     1.475 OA 
HETATM   44  C   UNL     1      -6.737  11.554  69.873  1.00  0.00     0.005 C  
ENDBRANCH  18  43
BRANCH  30  45
HETATM   45  O   UNL     1      -9.492  18.096  65.882  1.00  0.00    -0.518 OA 
HETATM   46  C   UNL     1      -9.376  18.843  67.095  1.00  0.00    -0.300 C  
ENDBRANCH  30  45
BRANCH  36  47
HETATM   47  O   UNL     1      -5.456  14.486  68.069  1.00  0.00    -0.120 OA 
HETATM   48  C   UNL     1      -6.225  13.354  67.675  1.00  0.00    -0.138 C  
ENDBRANCH  36  47
TORSDOF 4
ENDMDL
MODEL       91
REMARK 921   NORMALIZED FREE ENERGY PREDICTED BY IDOCK:  139.04 KCAL/MOL
REMARK 922        TOTAL FREE ENERGY PREDICTED BY IDOCK:  170.66 KCAL/MOL
REMARK 923 INTER-LIGAND FREE ENERGY PREDICTED BY IDOCK:  163.84 KCAL/MOL
REMARK 924 INTRA-LIGAND FREE ENERGY PREDICTED BY IDOCK:    6.82 KCAL/MOL
REMARK 927      BINDING AFFINITY PREDICTED BY RF-SCORE:    0.00 PKD
ROOT
HETATM    1  C   UNL     1      -6.977  12.027  70.419  1.00  0.00     1.465 C  
HETATM    2  C   UNL     1      -7.174  11.443  71.875  1.00  0.00     7.050 C  
HETATM    3  C   UNL     1      -8.380  10.605  72.167  1.00  0.00     8.714 A  
HETATM    4  C   UNL     1      -9.614  10.885  71.603  1.00  0.00     7.771 A  
HETATM    5  C   UNL     1     -10.397   9.819  71.188  1.00  0.00    -0.081 A  
HETATM    6  C   UNL     1     -10.026   8.518  71.535  1.00  0.00    -0.244 A  
HETATM    7  C   UNL     1      -9.145   8.371  72.580  1.00  0.00    -0.311 A  
HETATM    8  O   UNL     1     -10.506   7.552  70.693  1.00  0.00    -0.212 OA 
HETATM    9  C   UNL     1     -10.136   6.225  70.657  1.00  0.00    -0.189 A  
HETATM   10  C   UNL     1      -8.243   9.391  72.840  1.00  0.00     2.040 A  
HETATM   11  C   UNL     1     -11.129   5.429  70.016  1.00  0.00     0.167 A  
HETATM   12  C   UNL     1     -11.045   4.040  70.088  1.00  0.00     3.708 A  
HETATM   13  C   UNL     1      -9.971   3.451  70.698  1.00  0.00     0.100 A  
HETATM   14  C   UNL     1     -12.171   3.140  69.659  1.00  0.00    18.339 C  
HETATM   15  C   UNL     1     -13.133   3.755  68.676  1.00  0.00    29.176 C  
HETATM   16  C   UNL     1      -8.928   4.215  71.248  1.00  0.00    -0.114 A  
HETATM   17  C   UNL     1      -7.215  11.245  69.127  1.00  0.00    -0.115 C  
HETATM   18  C   UNL     1      -8.949   5.612  71.138  1.00  0.00    -0.138 A  
HETATM   19  N   UNL     1     -13.451   5.231  68.930  1.00  0.00    16.462 N  
HETATM   20  C   UNL     1      -8.873  13.673  69.796  1.00  0.00     1.821 C  
HETATM   21  C   UNL     1     -14.394   5.645  67.801  1.00  0.00    27.736 C  
HETATM   22  C   UNL     1      -6.476  13.237  67.807  1.00  0.00    -0.161 C  
HETATM   23  C   UNL     1     -12.123   6.056  69.024  1.00  0.00     2.453 C  
HETATM   24  C   UNL     1     -14.199   5.497  70.242  1.00  0.00    10.263 C  
HETATM   25  C   UNL     1      -7.205  14.385  71.456  1.00  0.00     2.593 C  
HETATM   26  C   UNL     1     -11.363   6.127  67.682  1.00  0.00     0.108 C  
HETATM   27  C   UNL     1     -11.477   7.402  66.902  1.00  0.00     1.189 A  
HETATM   28  C   UNL     1     -10.737   8.499  67.371  1.00  0.00    -0.215 A  
HETATM   29  C   UNL     1     -10.241   9.431  66.487  1.00  0.00    -0.238 A  
HETATM   30  C   UNL     1     -10.884   9.502  65.233  1.00  0.00     2.226 A  
HETATM   31  O   UNL     1      -9.163  10.229  66.854  1.00  0.00    -0.148 OA 
HETATM   32  N   UNL     1      -7.415  13.524  70.216  1.00  0.00     1.390 N  
HETATM   33  C   UNL     1      -8.101   9.555  67.636  1.00  0.00    -0.110 C  
HETATM   34  C   UNL     1     -11.755   8.495  64.799  1.00  0.00    13.742 A  
HETATM   35  C   UNL     1      -6.494  14.082  69.093  1.00  0.00    -0.113 C  
HETATM   36  C   UNL     1      -6.861   9.586  66.983  1.00  0.00    -0.084 C  
HETATM   37  C   UNL     1     -12.005   7.401  65.623  1.00  0.00     8.818 A  
HETATM   38  C   UNL     1      -7.969  10.078  68.919  1.00  0.00    -0.101 C  
HETATM   39  C   UNL     1      -6.250  10.840  66.953  1.00  0.00    -0.076 C  
HETATM   40  C   UNL     1      -6.586  11.744  67.976  1.00  0.00    -0.060 C  
ENDROOT
BRANCH  16  41
HETATM   41  O   UNL     1      -7.906   3.556  71.881  1.00  0.00    -0.059 OA 
HETATM   42  C   UNL     1      -8.087   2.135  71.902  1.00  0.00    -0.048 C  
ENDBRANCH  16  41
BRANCH  18  43
HETATM   43  O   UNL     1      -7.848   6.402  71.341  1.00  0.00    -0.101 OA 
HETATM   44  C   UNL     1      -7.861   7.301  72.458  1.00  0.00    -0.095 C  
ENDBRANCH  18  43
BRANCH  30  45
HETATM   45  O   UNL     1     -10.722  10.558  64.367  1.00  0.00    -0.119 OA 
HETATM   46  C   UNL     1      -9.606  10.286  63.517  1.00  0.00    -0.266 C  
ENDBRANCH  30  45
BRANCH  36  47
HETATM   47  O   UNL     1      -6.117   8.439  67.267  1.00  0.00    -0.052 OA 
HETATM   48  C   UNL     1      -6.311   7.273  66.473  1.00  0.00    -0.044 C  
ENDBRANCH  36  47
TORSDOF 4
ENDMDL
