MODEL        1
REMARK 921   NORMALIZED FREE ENERGY PREDICTED BY IDOCK:   -5.57 KCAL/MOL
REMARK 922        TOTAL FREE ENERGY PREDICTED BY IDOCK:   -9.13 KCAL/MOL
REMARK 923 INTER-LIGAND FREE ENERGY PREDICTED BY IDOCK:   -8.49 KCAL/MOL
REMARK 924 INTRA-LIGAND FREE ENERGY PREDICTED BY IDOCK:   -0.64 KCAL/MOL
REMARK 927      BINDING AFFINITY PREDICTED BY RF-SCORE:    0.00 PKD
ROOT
HETATM    1  C   UNL     1     -13.541  15.689  72.972  1.00  0.00    -0.532 C  
HETATM    2  O   UNL     1     -13.241  14.317  73.205  1.00  0.00    -0.616 OA 
ENDROOT
BRANCH   2   3
HETATM    3  C   UNL     1     -13.820  13.489  72.195  1.00  0.00    -0.533 C  
BRANCH   3   4
HETATM    4  C   UNL     1     -12.786  12.460  71.726  1.00  0.00    -0.350 C  
BRANCH   4   5
HETATM    5  C   UNL     1     -12.354  12.700  70.302  1.00  0.00    -0.269 A  
HETATM    6  C   UNL     1     -12.262  14.010  69.826  1.00  0.00    -0.396 A  
HETATM    7  C   UNL     1     -11.882  14.264  68.511  1.00  0.00    -0.382 A  
HETATM    8  C   UNL     1     -11.570  13.219  67.640  1.00  0.00    -0.346 A  
HETATM    9  C   UNL     1     -12.033  11.647  69.435  1.00  0.00    -0.381 A  
HETATM   10  C   UNL     1     -11.646  11.907  68.110  1.00  0.00    -0.400 A  
BRANCH   8  11
HETATM   11  O   UNL     1     -11.183  13.384  66.332  1.00  0.00    -0.296 OA 
BRANCH  11  12
HETATM   12  C   UNL     1     -11.993  14.308  65.582  1.00  0.00    -0.386 C  
BRANCH  12  13
HETATM   13  C   UNL     1     -11.134  15.338  64.835  1.00  0.00    -0.424 C  
HETATM   14  H   UNL     1     -11.420  16.730  63.474  1.00  0.00     0.000 HD 
HETATM   15  O   UNL     1     -11.952  16.093  63.936  1.00  0.00    -0.947 OA 
BRANCH  13  16
HETATM   16  C   UNL     1     -10.388  16.297  65.780  1.00  0.00    -0.374 C  
BRANCH  16  17
HETATM   17  N   UNL     1     -10.538  17.697  65.372  1.00  0.00    -0.625 NA 
HETATM   18  H   UNL     1     -11.404  17.827  64.849  1.00  0.00     0.000 HD 
BRANCH  17  19
HETATM   19  C   UNL     1     -10.458  18.651  66.484  1.00  0.00    -0.420 C  
HETATM   20  C   UNL     1     -10.391  17.970  67.853  1.00  0.00    -0.402 C  
HETATM   21  C   UNL     1      -9.201  19.502  66.277  1.00  0.00    -0.416 C  
ENDBRANCH  17  19
ENDBRANCH  16  17
ENDBRANCH  13  16
ENDBRANCH  12  13
ENDBRANCH  11  12
ENDBRANCH   8  11
ENDBRANCH   4   5
ENDBRANCH   3   4
ENDBRANCH   2   3
TORSDOF 9
ENDMDL
MODEL        2
REMARK 921   NORMALIZED FREE ENERGY PREDICTED BY IDOCK:   -5.51 KCAL/MOL
REMARK 922        TOTAL FREE ENERGY PREDICTED BY IDOCK:   -9.05 KCAL/MOL
REMARK 923 INTER-LIGAND FREE ENERGY PREDICTED BY IDOCK:   -8.36 KCAL/MOL
REMARK 924 INTRA-LIGAND FREE ENERGY PREDICTED BY IDOCK:   -0.69 KCAL/MOL
REMARK 927      BINDING AFFINITY PREDICTED BY RF-SCORE:    0.00 PKD
ROOT
HETATM    1  C   UNL     1     -13.470  15.803  73.130  1.00  0.00    -0.561 C  
HETATM    2  O   UNL     1     -13.079  14.437  73.218  1.00  0.00    -0.587 OA 
ENDROOT
BRANCH   2   3
HETATM    3  C   UNL     1     -13.883  13.619  72.366  1.00  0.00    -0.589 C  
BRANCH   3   4
HETATM    4  C   UNL     1     -13.068  12.407  71.907  1.00  0.00    -0.471 C  
BRANCH   4   5
HETATM    5  C   UNL     1     -12.388  12.650  70.583  1.00  0.00    -0.375 A  
HETATM    6  C   UNL     1     -12.257  13.957  70.111  1.00  0.00    -0.425 A  
HETATM    7  C   UNL     1     -11.648  14.213  68.886  1.00  0.00    -0.345 A  
HETATM    8  C   UNL     1     -11.142  13.173  68.105  1.00  0.00    -0.255 A  
HETATM    9  C   UNL     1     -11.872  11.602  69.810  1.00  0.00    -0.428 A  
HETATM   10  C   UNL     1     -11.254  11.864  68.576  1.00  0.00    -0.308 A  
BRANCH   8  11
HETATM   11  O   UNL     1     -10.524  13.341  66.890  1.00  0.00    -0.258 OA 
BRANCH  11  12
HETATM   12  C   UNL     1     -10.267  14.712  66.535  1.00  0.00    -0.278 C  
BRANCH  12  13
HETATM   13  C   UNL     1     -11.240  15.211  65.458  1.00  0.00    -0.320 C  
HETATM   14  H   UNL     1     -11.301  16.676  64.144  1.00  0.00     0.000 HD 
HETATM   15  O   UNL     1     -10.699  16.367  64.811  1.00  0.00    -0.700 OA 
BRANCH  13  16
HETATM   16  C   UNL     1     -11.572  14.140  64.403  1.00  0.00    -0.362 C  
BRANCH  16  17
HETATM   17  N   UNL     1     -10.389  13.364  64.018  1.00  0.00    -0.706 NA 
HETATM   18  H   UNL     1      -9.762  13.248  64.814  1.00  0.00     0.000 HD 
BRANCH  17  19
HETATM   19  C   UNL     1     -10.704  12.064  63.413  1.00  0.00    -0.417 C  
HETATM   20  C   UNL     1     -10.094  10.886  64.178  1.00  0.00    -0.416 C  
HETATM   21  C   UNL     1     -12.228  11.920  63.387  1.00  0.00    -0.561 C  
ENDBRANCH  17  19
ENDBRANCH  16  17
ENDBRANCH  13  16
ENDBRANCH  12  13
ENDBRANCH  11  12
ENDBRANCH   8  11
ENDBRANCH   4   5
ENDBRANCH   3   4
ENDBRANCH   2   3
TORSDOF 9
ENDMDL
MODEL        3
REMARK 921   NORMALIZED FREE ENERGY PREDICTED BY IDOCK:   -5.42 KCAL/MOL
REMARK 922        TOTAL FREE ENERGY PREDICTED BY IDOCK:   -8.91 KCAL/MOL
REMARK 923 INTER-LIGAND FREE ENERGY PREDICTED BY IDOCK:   -8.07 KCAL/MOL
REMARK 924 INTRA-LIGAND FREE ENERGY PREDICTED BY IDOCK:   -0.83 KCAL/MOL
REMARK 927      BINDING AFFINITY PREDICTED BY RF-SCORE:    0.00 PKD
ROOT
HETATM    1  C   UNL     1     -12.546  16.020  73.332  1.00  0.00    -0.561 C  
HETATM    2  O   UNL     1     -13.920  15.980  72.961  1.00  0.00    -0.564 OA 
ENDROOT
BRANCH   2   3
HETATM    3  C   UNL     1     -14.167  14.927  72.028  1.00  0.00    -0.546 C  
BRANCH   3   4
HETATM    4  C   UNL     1     -13.601  13.616  72.579  1.00  0.00    -0.675 C  
BRANCH   4   5
HETATM    5  C   UNL     1     -12.948  12.784  71.504  1.00  0.00    -0.388 A  
HETATM    6  C   UNL     1     -12.984  11.391  71.600  1.00  0.00    -0.523 A  
HETATM    7  C   UNL     1     -12.377  10.596  70.632  1.00  0.00    -0.462 A  
HETATM    8  C   UNL     1     -11.730  11.168  69.536  1.00  0.00    -0.335 A  
HETATM    9  C   UNL     1     -12.309  13.365  70.401  1.00  0.00    -0.382 A  
HETATM   10  C   UNL     1     -11.702  12.559  69.423  1.00  0.00    -0.383 A  
BRANCH   8  11
HETATM   11  O   UNL     1     -11.112  10.456  68.537  1.00  0.00    -0.247 OA 
BRANCH  11  12
HETATM   12  C   UNL     1      -9.849  10.999  68.110  1.00  0.00    -0.176 C  
BRANCH  12  13
HETATM   13  C   UNL     1      -9.713  10.988  66.582  1.00  0.00    -0.195 C  
HETATM   14  H   UNL     1     -10.208   9.785  65.104  1.00  0.00     0.000 HD 
HETATM   15  O   UNL     1     -10.292   9.792  66.050  1.00  0.00    -0.221 OA 
BRANCH  13  16
HETATM   16  C   UNL     1     -10.358  12.214  65.911  1.00  0.00    -0.255 C  
BRANCH  16  17
HETATM   17  N   UNL     1     -11.820  12.190  66.014  1.00  0.00    -0.561 NA 
HETATM   18  H   UNL     1     -12.124  12.608  66.893  1.00  0.00     0.000 HD 
BRANCH  17  19
HETATM   19  C   UNL     1     -12.505  12.818  64.878  1.00  0.00    -0.497 C  
HETATM   20  C   UNL     1     -12.202  14.313  64.749  1.00  0.00    -0.456 C  
HETATM   21  C   UNL     1     -12.053  12.095  63.606  1.00  0.00    -0.648 C  
ENDBRANCH  17  19
ENDBRANCH  16  17
ENDBRANCH  13  16
ENDBRANCH  12  13
ENDBRANCH  11  12
ENDBRANCH   8  11
ENDBRANCH   4   5
ENDBRANCH   3   4
ENDBRANCH   2   3
TORSDOF 9
ENDMDL
MODEL        4
REMARK 921   NORMALIZED FREE ENERGY PREDICTED BY IDOCK:   -5.41 KCAL/MOL
REMARK 922        TOTAL FREE ENERGY PREDICTED BY IDOCK:   -8.90 KCAL/MOL
REMARK 923 INTER-LIGAND FREE ENERGY PREDICTED BY IDOCK:   -7.87 KCAL/MOL
REMARK 924 INTRA-LIGAND FREE ENERGY PREDICTED BY IDOCK:   -1.03 KCAL/MOL
REMARK 927      BINDING AFFINITY PREDICTED BY RF-SCORE:    0.00 PKD
ROOT
HETATM    1  C   UNL     1     -12.581  15.880  73.572  1.00  0.00    -0.578 C  
HETATM    2  O   UNL     1     -13.895  15.925  73.024  1.00  0.00    -0.592 OA 
ENDROOT
BRANCH   2   3
HETATM    3  C   UNL     1     -14.155  14.769  72.226  1.00  0.00    -0.488 C  
BRANCH   3   4
HETATM    4  C   UNL     1     -12.901  13.892  72.176  1.00  0.00    -0.392 C  
BRANCH   4   5
HETATM    5  C   UNL     1     -12.480  13.587  70.760  1.00  0.00    -0.428 A  
HETATM    6  C   UNL     1     -12.268  12.260  70.380  1.00  0.00    -0.371 A  
HETATM    7  C   UNL     1     -11.863  11.947  69.085  1.00  0.00    -0.371 A  
HETATM    8  C   UNL     1     -11.671  12.948  68.132  1.00  0.00    -0.352 A  
HETATM    9  C   UNL     1     -12.299  14.596  69.805  1.00  0.00    -0.306 A  
HETATM   10  C   UNL     1     -11.895  14.277  68.499  1.00  0.00    -0.382 A  
BRANCH   8  11
HETATM   11  O   UNL     1     -11.278  12.724  66.835  1.00  0.00    -0.270 OA 
BRANCH  11  12
HETATM   12  C   UNL     1     -12.282  13.022  65.847  1.00  0.00    -0.432 C  
BRANCH  12  13
HETATM   13  C   UNL     1     -11.657  13.500  64.529  1.00  0.00    -0.381 C  
HETATM   14  H   UNL     1     -12.259  14.457  62.918  1.00  0.00     0.000 HD 
HETATM   15  O   UNL     1     -12.645  14.161  63.734  1.00  0.00    -0.804 OA 
BRANCH  13  16
HETATM   16  C   UNL     1     -10.454  14.437  64.739  1.00  0.00    -0.367 C  
BRANCH  16  17
HETATM   17  N   UNL     1     -10.845  15.699  65.375  1.00  0.00    -0.377 NA 
HETATM   18  H   UNL     1     -11.641  15.556  65.996  1.00  0.00     0.000 HD 
BRANCH  17  19
HETATM   19  C   UNL     1      -9.750  16.370  66.085  1.00  0.00    -0.327 C  
HETATM   20  C   UNL     1     -10.236  17.242  67.246  1.00  0.00    -0.320 C  
HETATM   21  C   UNL     1      -8.811  15.286  66.622  1.00  0.00    -0.328 C  
ENDBRANCH  17  19
ENDBRANCH  16  17
ENDBRANCH  13  16
ENDBRANCH  12  13
ENDBRANCH  11  12
ENDBRANCH   8  11
ENDBRANCH   4   5
ENDBRANCH   3   4
ENDBRANCH   2   3
TORSDOF 9
ENDMDL
MODEL        5
REMARK 921   NORMALIZED FREE ENERGY PREDICTED BY IDOCK:   -5.41 KCAL/MOL
REMARK 922        TOTAL FREE ENERGY PREDICTED BY IDOCK:   -8.89 KCAL/MOL
REMARK 923 INTER-LIGAND FREE ENERGY PREDICTED BY IDOCK:   -8.32 KCAL/MOL
REMARK 924 INTRA-LIGAND FREE ENERGY PREDICTED BY IDOCK:   -0.57 KCAL/MOL
REMARK 927      BINDING AFFINITY PREDICTED BY RF-SCORE:    0.00 PKD
ROOT
HETATM    1  C   UNL     1     -14.208   8.469  71.955  1.00  0.00    -0.455 C  
HETATM    2  O   UNL     1     -13.268   9.355  72.554  1.00  0.00    -0.426 OA 
ENDROOT
BRANCH   2   3
HETATM    3  C   UNL     1     -13.171  10.573  71.815  1.00  0.00    -0.417 C  
BRANCH   3   4
HETATM    4  C   UNL     1     -11.915  10.539  70.940  1.00  0.00    -0.481 C  
BRANCH   4   5
HETATM    5  C   UNL     1     -11.881  11.678  69.953  1.00  0.00    -0.434 A  
HETATM    6  C   UNL     1     -11.773  11.398  68.589  1.00  0.00    -0.394 A  
HETATM    7  C   UNL     1     -11.723  12.428  67.653  1.00  0.00    -0.412 A  
HETATM    8  C   UNL     1     -11.794  13.763  68.052  1.00  0.00    -0.373 A  
HETATM    9  C   UNL     1     -11.963  13.016  70.359  1.00  0.00    -0.337 A  
HETATM   10  C   UNL     1     -11.917  14.053  69.413  1.00  0.00    -0.390 A  
BRANCH   8  11
HETATM   11  O   UNL     1     -11.756  14.836  67.195  1.00  0.00    -0.376 OA 
BRANCH  11  12
HETATM   12  C   UNL     1     -11.772  14.484  65.799  1.00  0.00    -0.344 C  
BRANCH  12  13
HETATM   13  C   UNL     1     -10.932  15.456  64.959  1.00  0.00    -0.436 C  
HETATM   14  H   UNL     1     -11.267  16.850  63.611  1.00  0.00     0.000 HD 
HETATM   15  O   UNL     1     -11.787  16.248  64.130  1.00  0.00    -0.852 OA 
BRANCH  13  16
HETATM   16  C   UNL     1     -10.046  16.380  65.815  1.00  0.00    -0.327 C  
BRANCH  16  17
HETATM   17  N   UNL     1     -10.445  17.785  65.699  1.00  0.00    -0.628 NA 
HETATM   18  H   UNL     1     -11.322  17.868  65.184  1.00  0.00     0.000 HD 
BRANCH  17  19
HETATM   19  C   UNL     1     -10.536  18.484  66.987  1.00  0.00    -0.402 C  
HETATM   20  C   UNL     1     -10.001  17.654  68.157  1.00  0.00    -0.330 C  
HETATM   21  C   UNL     1      -9.727  19.779  66.870  1.00  0.00    -0.504 C  
ENDBRANCH  17  19
ENDBRANCH  16  17
ENDBRANCH  13  16
ENDBRANCH  12  13
ENDBRANCH  11  12
ENDBRANCH   8  11
ENDBRANCH   4   5
ENDBRANCH   3   4
ENDBRANCH   2   3
TORSDOF 9
ENDMDL
MODEL        6
REMARK 921   NORMALIZED FREE ENERGY PREDICTED BY IDOCK:   -5.39 KCAL/MOL
REMARK 922        TOTAL FREE ENERGY PREDICTED BY IDOCK:   -8.86 KCAL/MOL
REMARK 923 INTER-LIGAND FREE ENERGY PREDICTED BY IDOCK:   -8.03 KCAL/MOL
REMARK 924 INTRA-LIGAND FREE ENERGY PREDICTED BY IDOCK:   -0.83 KCAL/MOL
REMARK 927      BINDING AFFINITY PREDICTED BY RF-SCORE:    0.00 PKD
ROOT
HETATM    1  C   UNL     1     -12.477  15.556  74.305  1.00  0.00    -0.643 C  
HETATM    2  O   UNL     1     -13.319  16.305  73.435  1.00  0.00    -0.561 OA 
ENDROOT
BRANCH   2   3
HETATM    3  C   UNL     1     -13.987  15.449  72.508  1.00  0.00    -0.543 C  
BRANCH   3   4
HETATM    4  C   UNL     1     -13.063  15.164  71.321  1.00  0.00    -0.512 C  
BRANCH   4   5
HETATM    5  C   UNL     1     -12.833  13.687  71.123  1.00  0.00    -0.399 A  
HETATM    6  C   UNL     1     -13.435  12.778  71.996  1.00  0.00    -0.540 A  
HETATM    7  C   UNL     1     -13.229  11.409  71.850  1.00  0.00    -0.485 A  
HETATM    8  C   UNL     1     -12.429  10.910  70.822  1.00  0.00    -0.394 A  
HETATM    9  C   UNL     1     -12.036  13.192  70.083  1.00  0.00    -0.392 A  
HETATM   10  C   UNL     1     -11.834  11.809  69.936  1.00  0.00    -0.423 A  
BRANCH   8  11
HETATM   11  O   UNL     1     -12.179   9.576  70.607  1.00  0.00    -0.234 OA 
BRANCH  11  12
HETATM   12  C   UNL     1     -11.750   8.853  71.775  1.00  0.00    -0.362 C  
BRANCH  12  13
HETATM   13  C   UNL     1     -12.236   7.397  71.752  1.00  0.00    -0.326 C  
HETATM   14  H   UNL     1     -13.903   6.445  71.318  1.00  0.00     0.000 HD 
HETATM   15  O   UNL     1     -13.603   7.346  71.333  1.00  0.00    -0.379 OA 
BRANCH  13  16
HETATM   16  C   UNL     1     -11.385   6.494  70.842  1.00  0.00    -0.337 C  
BRANCH  16  17
HETATM   17  N   UNL     1     -11.701   6.690  69.424  1.00  0.00    -0.648 NA 
HETATM   18  H   UNL     1     -12.216   7.559  69.288  1.00  0.00     0.000 HD 
BRANCH  17  19
HETATM   19  C   UNL     1     -10.528   6.641  68.542  1.00  0.00    -0.213 C  
HETATM   20  C   UNL     1     -10.887   6.330  67.087  1.00  0.00    -0.460 C  
HETATM   21  C   UNL     1      -9.834   8.004  68.616  1.00  0.00    -0.182 C  
ENDBRANCH  17  19
ENDBRANCH  16  17
ENDBRANCH  13  16
ENDBRANCH  12  13
ENDBRANCH  11  12
ENDBRANCH   8  11
ENDBRANCH   4   5
ENDBRANCH   3   4
ENDBRANCH   2   3
TORSDOF 9
ENDMDL
MODEL        7
REMARK 921   NORMALIZED FREE ENERGY PREDICTED BY IDOCK:   -5.37 KCAL/MOL
REMARK 922        TOTAL FREE ENERGY PREDICTED BY IDOCK:   -8.83 KCAL/MOL
REMARK 923 INTER-LIGAND FREE ENERGY PREDICTED BY IDOCK:   -8.23 KCAL/MOL
REMARK 924 INTRA-LIGAND FREE ENERGY PREDICTED BY IDOCK:   -0.60 KCAL/MOL
REMARK 927      BINDING AFFINITY PREDICTED BY RF-SCORE:    0.00 PKD
ROOT
HETATM    1  C   UNL     1     -14.342   8.330  71.940  1.00  0.00    -0.476 C  
HETATM    2  O   UNL     1     -13.120   9.056  72.020  1.00  0.00    -0.352 OA 
ENDROOT
BRANCH   2   3
HETATM    3  C   UNL     1     -13.199  10.273  71.277  1.00  0.00    -0.356 C  
BRANCH   3   4
HETATM    4  C   UNL     1     -11.795  10.686  70.826  1.00  0.00    -0.459 C  
BRANCH   4   5
HETATM    5  C   UNL     1     -11.830  11.808  69.819  1.00  0.00    -0.420 A  
HETATM    6  C   UNL     1     -12.081  13.111  70.255  1.00  0.00    -0.399 A  
HETATM    7  C   UNL     1     -12.136  14.165  69.348  1.00  0.00    -0.372 A  
HETATM    8  C   UNL     1     -11.929  13.951  67.985  1.00  0.00    -0.355 A  
HETATM    9  C   UNL     1     -11.611  11.587  68.453  1.00  0.00    -0.375 A  
HETATM   10  C   UNL     1     -11.663  12.654  67.541  1.00  0.00    -0.429 A  
BRANCH   8  11
HETATM   11  O   UNL     1     -11.962  14.936  67.028  1.00  0.00    -0.293 OA 
BRANCH  11  12
HETATM   12  C   UNL     1     -11.979  14.450  65.673  1.00  0.00    -0.354 C  
BRANCH  12  13
HETATM   13  C   UNL     1     -11.179  15.363  64.733  1.00  0.00    -0.395 C  
HETATM   14  H   UNL     1     -11.577  16.744  63.388  1.00  0.00     0.000 HD 
HETATM   15  O   UNL     1     -12.072  16.179  63.970  1.00  0.00    -0.889 OA 
BRANCH  13  16
HETATM   16  C   UNL     1     -10.172  16.259  65.477  1.00  0.00    -0.298 C  
BRANCH  16  17
HETATM   17  N   UNL     1     -10.604  17.659  65.510  1.00  0.00    -0.615 NA 
HETATM   18  H   UNL     1     -11.616  17.721  65.621  1.00  0.00     0.000 HD 
BRANCH  17  19
HETATM   19  C   UNL     1      -9.923  18.466  66.529  1.00  0.00    -0.379 C  
HETATM   20  C   UNL     1     -10.119  19.972  66.329  1.00  0.00    -0.603 C  
HETATM   21  C   UNL     1     -10.480  18.057  67.895  1.00  0.00    -0.408 C  
ENDBRANCH  17  19
ENDBRANCH  16  17
ENDBRANCH  13  16
ENDBRANCH  12  13
ENDBRANCH  11  12
ENDBRANCH   8  11
ENDBRANCH   4   5
ENDBRANCH   3   4
ENDBRANCH   2   3
TORSDOF 9
ENDMDL
MODEL        8
REMARK 921   NORMALIZED FREE ENERGY PREDICTED BY IDOCK:   -5.24 KCAL/MOL
REMARK 922        TOTAL FREE ENERGY PREDICTED BY IDOCK:   -8.64 KCAL/MOL
REMARK 923 INTER-LIGAND FREE ENERGY PREDICTED BY IDOCK:   -7.62 KCAL/MOL
REMARK 924 INTRA-LIGAND FREE ENERGY PREDICTED BY IDOCK:   -1.02 KCAL/MOL
REMARK 927      BINDING AFFINITY PREDICTED BY RF-SCORE:    0.00 PKD
ROOT
HETATM    1  C   UNL     1     -12.585   8.080  71.524  1.00  0.00    -0.312 C  
HETATM    2  O   UNL     1     -13.458   8.995  72.178  1.00  0.00    -0.394 OA 
ENDROOT
BRANCH   2   3
HETATM    3  C   UNL     1     -13.145  10.342  71.823  1.00  0.00    -0.462 C  
BRANCH   3   4
HETATM    4  C   UNL     1     -11.860  10.364  70.991  1.00  0.00    -0.458 C  
BRANCH   4   5
HETATM    5  C   UNL     1     -11.897  11.424  69.919  1.00  0.00    -0.435 A  
HETATM    6  C   UNL     1     -12.224  12.737  70.266  1.00  0.00    -0.351 A  
HETATM    7  C   UNL     1     -12.282  13.735  69.297  1.00  0.00    -0.307 A  
HETATM    8  C   UNL     1     -12.003  13.453  67.960  1.00  0.00    -0.322 A  
HETATM    9  C   UNL     1     -11.605  11.137  68.579  1.00  0.00    -0.385 A  
HETATM   10  C   UNL     1     -11.661  12.147  67.605  1.00  0.00    -0.413 A  
BRANCH   8  11
HETATM   11  O   UNL     1     -12.034  14.379  66.945  1.00  0.00    -0.410 OA 
BRANCH  11  12
HETATM   12  C   UNL     1     -11.050  15.424  67.062  1.00  0.00    -0.273 C  
BRANCH  12  13
HETATM   13  C   UNL     1     -10.380  15.725  65.714  1.00  0.00    -0.369 C  
HETATM   14  H   UNL     1      -8.543  15.859  65.021  1.00  0.00     0.000 HD 
HETATM   15  O   UNL     1      -8.957  15.672  65.855  1.00  0.00    -0.320 OA 
BRANCH  13  16
HETATM   16  C   UNL     1     -10.822  14.766  64.594  1.00  0.00    -0.292 C  
BRANCH  16  17
HETATM   17  N   UNL     1     -10.109  13.487  64.655  1.00  0.00    -0.630 NA 
HETATM   18  H   UNL     1     -10.035  13.162  65.619  1.00  0.00     0.000 HD 
BRANCH  17  19
HETATM   19  C   UNL     1     -10.690  12.443  63.801  1.00  0.00    -0.451 C  
HETATM   20  C   UNL     1     -10.366  11.027  64.284  1.00  0.00    -0.430 C  
HETATM   21  C   UNL     1     -12.208  12.643  63.791  1.00  0.00    -0.600 C  
ENDBRANCH  17  19
ENDBRANCH  16  17
ENDBRANCH  13  16
ENDBRANCH  12  13
ENDBRANCH  11  12
ENDBRANCH   8  11
ENDBRANCH   4   5
ENDBRANCH   3   4
ENDBRANCH   2   3
TORSDOF 9
ENDMDL
MODEL        9
REMARK 921   NORMALIZED FREE ENERGY PREDICTED BY IDOCK:   -5.24 KCAL/MOL
REMARK 922        TOTAL FREE ENERGY PREDICTED BY IDOCK:   -8.63 KCAL/MOL
REMARK 923 INTER-LIGAND FREE ENERGY PREDICTED BY IDOCK:   -7.93 KCAL/MOL
REMARK 924 INTRA-LIGAND FREE ENERGY PREDICTED BY IDOCK:   -0.70 KCAL/MOL
REMARK 927      BINDING AFFINITY PREDICTED BY RF-SCORE:    0.00 PKD
ROOT
HETATM    1  C   UNL     1     -12.412  15.682  74.404  1.00  0.00    -0.634 C  
HETATM    2  O   UNL     1     -13.572  16.099  73.691  1.00  0.00    -0.584 OA 
ENDROOT
BRANCH   2   3
HETATM    3  C   UNL     1     -13.635  15.475  72.408  1.00  0.00    -0.538 C  
BRANCH   3   4
HETATM    4  C   UNL     1     -12.289  14.814  72.097  1.00  0.00    -0.408 C  
BRANCH   4   5
HETATM    5  C   UNL     1     -12.061  14.667  70.613  1.00  0.00    -0.385 A  
HETATM    6  C   UNL     1     -11.860  15.809  69.835  1.00  0.00    -0.355 A  
HETATM    7  C   UNL     1     -11.662  15.707  68.461  1.00  0.00    -0.339 A  
HETATM    8  C   UNL     1     -11.646  14.463  67.829  1.00  0.00    -0.356 A  
HETATM    9  C   UNL     1     -12.035  13.414  69.987  1.00  0.00    -0.407 A  
HETATM   10  C   UNL     1     -11.831  13.315  68.600  1.00  0.00    -0.380 A  
BRANCH   8  11
HETATM   11  O   UNL     1     -11.453  14.276  66.482  1.00  0.00    -0.335 OA 
BRANCH  11  12
HETATM   12  C   UNL     1     -12.585  13.719  65.788  1.00  0.00    -0.480 C  
BRANCH  12  13
HETATM   13  C   UNL     1     -12.173  13.069  64.460  1.00  0.00    -0.416 C  
HETATM   14  H   UNL     1     -12.360  13.475  62.543  1.00  0.00     0.000 HD 
HETATM   15  O   UNL     1     -12.615  13.877  63.365  1.00  0.00    -0.853 OA 
BRANCH  13  16
HETATM   16  C   UNL     1     -10.656  12.837  64.348  1.00  0.00    -0.379 C  
BRANCH  16  17
HETATM   17  N   UNL     1     -10.298  11.431  64.557  1.00  0.00    -0.290 NA 
HETATM   18  H   UNL     1      -9.450  11.196  64.041  1.00  0.00     0.000 HD 
BRANCH  17  19
HETATM   19  C   UNL     1     -10.165  11.056  65.969  1.00  0.00    -0.252 C  
HETATM   20  C   UNL     1      -9.998   9.548  66.174  1.00  0.00    -0.342 C  
HETATM   21  C   UNL     1      -8.941  11.784  66.531  1.00  0.00    -0.196 C  
ENDBRANCH  17  19
ENDBRANCH  16  17
ENDBRANCH  13  16
ENDBRANCH  12  13
ENDBRANCH  11  12
ENDBRANCH   8  11
ENDBRANCH   4   5
ENDBRANCH   3   4
ENDBRANCH   2   3
TORSDOF 9
ENDMDL
MODEL       10
REMARK 921   NORMALIZED FREE ENERGY PREDICTED BY IDOCK:   -5.24 KCAL/MOL
REMARK 922        TOTAL FREE ENERGY PREDICTED BY IDOCK:   -8.63 KCAL/MOL
REMARK 923 INTER-LIGAND FREE ENERGY PREDICTED BY IDOCK:   -7.67 KCAL/MOL
REMARK 924 INTRA-LIGAND FREE ENERGY PREDICTED BY IDOCK:   -0.96 KCAL/MOL
REMARK 927      BINDING AFFINITY PREDICTED BY RF-SCORE:    0.00 PKD
ROOT
HETATM    1  C   UNL     1     -14.365   8.427  71.815  1.00  0.00    -0.472 C  
HETATM    2  O   UNL     1     -13.186   8.969  72.401  1.00  0.00    -0.420 OA 
ENDROOT
BRANCH   2   3
HETATM    3  C   UNL     1     -12.926  10.282  71.903  1.00  0.00    -0.449 C  
BRANCH   3   4
HETATM    4  C   UNL     1     -11.696  10.247  70.991  1.00  0.00    -0.461 C  
BRANCH   4   5
HETATM    5  C   UNL     1     -11.759  11.299  69.913  1.00  0.00    -0.430 A  
HETATM    6  C   UNL     1     -12.023  12.624  70.265  1.00  0.00    -0.363 A  
HETATM    7  C   UNL     1     -12.104  13.616  69.291  1.00  0.00    -0.360 A  
HETATM    8  C   UNL     1     -11.911  13.314  67.943  1.00  0.00    -0.349 A  
HETATM    9  C   UNL     1     -11.553  10.991  68.562  1.00  0.00    -0.380 A  
HETATM   10  C   UNL     1     -11.631  11.995  67.582  1.00  0.00    -0.392 A  
BRANCH   8  11
HETATM   11  O   UNL     1     -11.969  14.233  66.923  1.00  0.00    -0.416 OA 
BRANCH  11  12
HETATM   12  C   UNL     1     -12.263  13.672  65.630  1.00  0.00    -0.454 C  
BRANCH  12  13
HETATM   13  C   UNL     1     -11.602  14.473  64.500  1.00  0.00    -0.377 C  
HETATM   14  H   UNL     1     -12.197  15.610  63.008  1.00  0.00     0.000 HD 
HETATM   15  O   UNL     1     -12.606  15.114  63.707  1.00  0.00    -0.752 OA 
BRANCH  13  16
HETATM   16  C   UNL     1     -10.602  15.524  65.013  1.00  0.00    -0.409 C  
BRANCH  16  17
HETATM   17  N   UNL     1      -9.483  14.912  65.735  1.00  0.00    -0.488 NA 
HETATM   18  H   UNL     1      -8.819  14.497  65.082  1.00  0.00     0.000 HD 
BRANCH  17  19
HETATM   19  C   UNL     1      -8.799  15.827  66.656  1.00  0.00    -0.288 C  
HETATM   20  C   UNL     1      -9.641  17.055  67.014  1.00  0.00    -0.257 C  
HETATM   21  C   UNL     1      -8.473  15.044  67.931  1.00  0.00    -0.149 C  
ENDBRANCH  17  19
ENDBRANCH  16  17
ENDBRANCH  13  16
ENDBRANCH  12  13
ENDBRANCH  11  12
ENDBRANCH   8  11
ENDBRANCH   4   5
ENDBRANCH   3   4
ENDBRANCH   2   3
TORSDOF 9
ENDMDL
MODEL       11
REMARK 921   NORMALIZED FREE ENERGY PREDICTED BY IDOCK:   -5.16 KCAL/MOL
REMARK 922        TOTAL FREE ENERGY PREDICTED BY IDOCK:   -8.51 KCAL/MOL
REMARK 923 INTER-LIGAND FREE ENERGY PREDICTED BY IDOCK:   -7.34 KCAL/MOL
REMARK 924 INTRA-LIGAND FREE ENERGY PREDICTED BY IDOCK:   -1.17 KCAL/MOL
REMARK 927      BINDING AFFINITY PREDICTED BY RF-SCORE:    0.00 PKD
ROOT
HETATM    1  C   UNL     1     -11.932  11.978  63.657  1.00  0.00    -0.515 C  
HETATM    2  O   UNL     1     -12.914  12.709  64.385  1.00  0.00    -0.740 OA 
ENDROOT
BRANCH   2   3
HETATM    3  C   UNL     1     -12.404  13.977  64.799  1.00  0.00    -0.413 C  
BRANCH   3   4
HETATM    4  C   UNL     1     -12.252  13.992  66.323  1.00  0.00    -0.493 C  
BRANCH   4   5
HETATM    5  C   UNL     1     -11.064  14.808  66.765  1.00  0.00    -0.338 A  
HETATM    6  C   UNL     1      -9.989  14.983  65.891  1.00  0.00    -0.353 A  
HETATM    7  C   UNL     1      -8.871  15.717  66.275  1.00  0.00    -0.364 A  
HETATM    8  C   UNL     1      -8.800  16.307  67.538  1.00  0.00    -0.186 A  
HETATM    9  C   UNL     1     -11.003  15.407  68.031  1.00  0.00    -0.307 A  
HETATM   10  C   UNL     1      -9.875  16.150  68.414  1.00  0.00    -0.222 A  
BRANCH   8  11
HETATM   11  O   UNL     1      -7.737  17.050  67.992  1.00  0.00    -0.172 OA 
BRANCH  11  12
HETATM   12  C   UNL     1      -6.732  17.323  66.998  1.00  0.00    -0.185 C  
BRANCH  12  13
HETATM   13  C   UNL     1      -6.681  18.814  66.638  1.00  0.00    -0.194 C  
HETATM   14  H   UNL     1      -7.050  19.923  65.054  1.00  0.00     0.000 HD 
HETATM   15  O   UNL     1      -7.081  19.000  65.277  1.00  0.00    -0.485 OA 
BRANCH  13  16
HETATM   16  C   UNL     1      -7.558  19.685  67.555  1.00  0.00    -0.264 C  
BRANCH  16  17
HETATM   17  N   UNL     1      -8.491  20.519  66.792  1.00  0.00    -0.545 NA 
HETATM   18  H   UNL     1      -8.296  20.455  65.794  1.00  0.00     0.000 HD 
BRANCH  17  19
HETATM   19  C   UNL     1      -9.904  20.228  67.061  1.00  0.00    -0.467 C  
HETATM   20  C   UNL     1     -10.482  19.157  66.132  1.00  0.00    -0.558 C  
HETATM   21  C   UNL     1     -10.013  19.753  68.513  1.00  0.00    -0.538 C  
ENDBRANCH  17  19
ENDBRANCH  16  17
ENDBRANCH  13  16
ENDBRANCH  12  13
ENDBRANCH  11  12
ENDBRANCH   8  11
ENDBRANCH   4   5
ENDBRANCH   3   4
ENDBRANCH   2   3
TORSDOF 9
ENDMDL
MODEL       12
REMARK 921   NORMALIZED FREE ENERGY PREDICTED BY IDOCK:   -5.15 KCAL/MOL
REMARK 922        TOTAL FREE ENERGY PREDICTED BY IDOCK:   -8.50 KCAL/MOL
REMARK 923 INTER-LIGAND FREE ENERGY PREDICTED BY IDOCK:   -7.74 KCAL/MOL
REMARK 924 INTRA-LIGAND FREE ENERGY PREDICTED BY IDOCK:   -0.76 KCAL/MOL
REMARK 927      BINDING AFFINITY PREDICTED BY RF-SCORE:    0.00 PKD
ROOT
HETATM    1  C   UNL     1     -12.404  12.121  63.549  1.00  0.00    -0.574 C  
HETATM    2  O   UNL     1     -13.211  12.506  64.657  1.00  0.00    -0.848 OA 
ENDROOT
BRANCH   2   3
HETATM    3  C   UNL     1     -12.551  13.491  65.453  1.00  0.00    -0.483 C  
BRANCH   3   4
HETATM    4  C   UNL     1     -11.213  12.932  65.947  1.00  0.00    -0.323 C  
BRANCH   4   5
HETATM    5  C   UNL     1     -11.329  12.315  67.318  1.00  0.00    -0.392 A  
HETATM    6  C   UNL     1     -11.010  10.967  67.490  1.00  0.00    -0.352 A  
HETATM    7  C   UNL     1     -11.122  10.363  68.740  1.00  0.00    -0.298 A  
HETATM    8  C   UNL     1     -11.541  11.093  69.853  1.00  0.00    -0.337 A  
HETATM    9  C   UNL     1     -11.740  13.056  68.434  1.00  0.00    -0.386 A  
HETATM   10  C   UNL     1     -11.848  12.445  69.694  1.00  0.00    -0.380 A  
BRANCH   8  11
HETATM   11  O   UNL     1     -11.673  10.575  71.119  1.00  0.00    -0.329 OA 
BRANCH  11  12
HETATM   12  C   UNL     1     -13.031  10.484  71.587  1.00  0.00    -0.476 C  
BRANCH  12  13
HETATM   13  C   UNL     1     -13.303   9.144  72.284  1.00  0.00    -0.477 C  
HETATM   14  H   UNL     1     -14.388   7.539  71.939  1.00  0.00     0.000 HD 
HETATM   15  O   UNL     1     -14.220   8.368  71.508  1.00  0.00    -0.411 OA 
BRANCH  13  16
HETATM   16  C   UNL     1     -12.023   8.326  72.536  1.00  0.00    -0.356 C  
BRANCH  16  17
HETATM   17  N   UNL     1     -12.115   6.975  71.975  1.00  0.00    -0.373 NA 
HETATM   18  H   UNL     1     -12.968   6.872  71.426  1.00  0.00     0.000 HD 
BRANCH  17  19
HETATM   19  C   UNL     1     -10.943   6.578  71.186  1.00  0.00    -0.266 C  
HETATM   20  C   UNL     1     -11.258   6.388  69.700  1.00  0.00    -0.483 C  
HETATM   21  C   UNL     1      -9.883   7.673  71.346  1.00  0.00    -0.195 C  
ENDBRANCH  17  19
ENDBRANCH  16  17
ENDBRANCH  13  16
ENDBRANCH  12  13
ENDBRANCH  11  12
ENDBRANCH   8  11
ENDBRANCH   4   5
ENDBRANCH   3   4
ENDBRANCH   2   3
TORSDOF 9
ENDMDL
MODEL       13
REMARK 921   NORMALIZED FREE ENERGY PREDICTED BY IDOCK:   -5.08 KCAL/MOL
REMARK 922        TOTAL FREE ENERGY PREDICTED BY IDOCK:   -8.39 KCAL/MOL
REMARK 923 INTER-LIGAND FREE ENERGY PREDICTED BY IDOCK:   -7.55 KCAL/MOL
REMARK 924 INTRA-LIGAND FREE ENERGY PREDICTED BY IDOCK:   -0.84 KCAL/MOL
REMARK 927      BINDING AFFINITY PREDICTED BY RF-SCORE:    0.00 PKD
ROOT
HETATM    1  C   UNL     1     -11.325   7.565  72.634  1.00  0.00    -0.344 C  
HETATM    2  O   UNL     1     -12.350   8.549  72.556  1.00  0.00    -0.388 OA 
ENDROOT
BRANCH   2   3
HETATM    3  C   UNL     1     -12.218   9.331  71.368  1.00  0.00    -0.349 C  
BRANCH   3   4
HETATM    4  C   UNL     1     -12.357  10.816  71.718  1.00  0.00    -0.163 C  
BRANCH   4   5
HETATM    5  C   UNL     1     -12.162  11.702  70.513  1.00  0.00    -0.451 A  
HETATM    6  C   UNL     1     -11.983  11.119  69.257  1.00  0.00    -0.421 A  
HETATM    7  C   UNL     1     -11.786  11.909  68.128  1.00  0.00    -0.388 A  
HETATM    8  C   UNL     1     -11.774  13.302  68.220  1.00  0.00    -0.353 A  
HETATM    9  C   UNL     1     -12.163  13.099  70.611  1.00  0.00    -0.402 A  
HETATM   10  C   UNL     1     -11.967  13.894  69.470  1.00  0.00    -0.396 A  
BRANCH   8  11
HETATM   11  O   UNL     1     -11.591  14.151  67.157  1.00  0.00    -0.336 OA 
BRANCH  11  12
HETATM   12  C   UNL     1     -12.626  14.091  66.159  1.00  0.00    -0.367 C  
BRANCH  12  13
HETATM   13  C   UNL     1     -12.044  13.981  64.743  1.00  0.00    -0.437 C  
HETATM   14  H   UNL     1     -12.235  14.938  63.033  1.00  0.00     0.000 HD 
HETATM   15  O   UNL     1     -12.595  15.005  63.909  1.00  0.00    -0.813 OA 
BRANCH  13  16
HETATM   16  C   UNL     1     -10.508  14.068  64.715  1.00  0.00    -0.421 C  
BRANCH  16  17
HETATM   17  N   UNL     1      -9.880  12.820  65.160  1.00  0.00    -0.480 NA 
HETATM   18  H   UNL     1      -9.839  12.782  66.178  1.00  0.00     0.000 HD 
BRANCH  17  19
HETATM   19  C   UNL     1     -10.515  11.612  64.622  1.00  0.00    -0.302 C  
HETATM   20  C   UNL     1     -10.267  11.421  63.123  1.00  0.00    -0.380 C  
HETATM   21  C   UNL     1      -9.953  10.411  65.388  1.00  0.00    -0.362 C  
ENDBRANCH  17  19
ENDBRANCH  16  17
ENDBRANCH  13  16
ENDBRANCH  12  13
ENDBRANCH  11  12
ENDBRANCH   8  11
ENDBRANCH   4   5
ENDBRANCH   3   4
ENDBRANCH   2   3
TORSDOF 9
ENDMDL
MODEL       14
REMARK 921   NORMALIZED FREE ENERGY PREDICTED BY IDOCK:   -5.06 KCAL/MOL
REMARK 922        TOTAL FREE ENERGY PREDICTED BY IDOCK:   -8.35 KCAL/MOL
REMARK 923 INTER-LIGAND FREE ENERGY PREDICTED BY IDOCK:   -7.64 KCAL/MOL
REMARK 924 INTRA-LIGAND FREE ENERGY PREDICTED BY IDOCK:   -0.71 KCAL/MOL
REMARK 927      BINDING AFFINITY PREDICTED BY RF-SCORE:    0.00 PKD
ROOT
HETATM    1  C   UNL     1     -11.980   6.735  70.849  1.00  0.00    -0.383 C  
HETATM    2  O   UNL     1     -12.692   7.684  71.637  1.00  0.00    -0.323 OA 
ENDROOT
BRANCH   2   3
HETATM    3  C   UNL     1     -12.192   9.004  71.424  1.00  0.00    -0.323 C  
BRANCH   3   4
HETATM    4  C   UNL     1     -13.154  10.020  72.046  1.00  0.00    -0.541 C  
BRANCH   4   5
HETATM    5  C   UNL     1     -12.938  11.410  71.504  1.00  0.00    -0.505 A  
HETATM    6  C   UNL     1     -12.153  11.586  70.363  1.00  0.00    -0.471 A  
HETATM    7  C   UNL     1     -11.921  12.858  69.847  1.00  0.00    -0.377 A  
HETATM    8  C   UNL     1     -12.477  13.987  70.449  1.00  0.00    -0.350 A  
HETATM    9  C   UNL     1     -13.508  12.540  72.107  1.00  0.00    -0.523 A  
HETATM   10  C   UNL     1     -13.276  13.821  71.582  1.00  0.00    -0.450 A  
BRANCH   8  11
HETATM   11  O   UNL     1     -12.302  15.274  70.001  1.00  0.00    -0.344 OA 
BRANCH  11  12
HETATM   12  C   UNL     1     -11.021  15.525  69.393  1.00  0.00    -0.276 C  
BRANCH  12  13
HETATM   13  C   UNL     1     -11.168  16.081  67.970  1.00  0.00    -0.303 C  
HETATM   14  H   UNL     1     -10.230  17.385  66.833  1.00  0.00     0.000 HD 
HETATM   15  O   UNL     1     -10.139  17.041  67.713  1.00  0.00    -0.280 OA 
BRANCH  13  16
HETATM   16  C   UNL     1     -11.129  14.985  66.889  1.00  0.00    -0.331 C  
BRANCH  16  17
HETATM   17  N   UNL     1     -12.444  14.371  66.682  1.00  0.00    -0.500 NA 
HETATM   18  H   UNL     1     -13.150  15.086  66.508  1.00  0.00     0.000 HD 
BRANCH  17  19
HETATM   19  C   UNL     1     -12.465  13.356  65.623  1.00  0.00    -0.464 C  
HETATM   20  C   UNL     1     -11.982  13.891  64.272  1.00  0.00    -0.477 C  
HETATM   21  C   UNL     1     -11.559  12.203  66.066  1.00  0.00    -0.420 C  
ENDBRANCH  17  19
ENDBRANCH  16  17
ENDBRANCH  13  16
ENDBRANCH  12  13
ENDBRANCH  11  12
ENDBRANCH   8  11
ENDBRANCH   4   5
ENDBRANCH   3   4
ENDBRANCH   2   3
TORSDOF 9
ENDMDL
MODEL       15
REMARK 921   NORMALIZED FREE ENERGY PREDICTED BY IDOCK:   -5.05 KCAL/MOL
REMARK 922        TOTAL FREE ENERGY PREDICTED BY IDOCK:   -8.35 KCAL/MOL
REMARK 923 INTER-LIGAND FREE ENERGY PREDICTED BY IDOCK:   -7.61 KCAL/MOL
REMARK 924 INTRA-LIGAND FREE ENERGY PREDICTED BY IDOCK:   -0.74 KCAL/MOL
REMARK 927      BINDING AFFINITY PREDICTED BY RF-SCORE:    0.00 PKD
ROOT
HETATM    1  C   UNL     1     -12.019  12.652  63.463  1.00  0.00    -0.548 C  
HETATM    2  O   UNL     1     -12.675  13.846  63.877  1.00  0.00    -0.665 OA 
ENDROOT
BRANCH   2   3
HETATM    3  C   UNL     1     -12.495  14.069  65.277  1.00  0.00    -0.475 C  
BRANCH   3   4
HETATM    4  C   UNL     1     -11.259  13.304  65.759  1.00  0.00    -0.313 C  
BRANCH   4   5
HETATM    5  C   UNL     1     -11.453  12.727  67.139  1.00  0.00    -0.394 A  
HETATM    6  C   UNL     1     -11.719  13.586  68.208  1.00  0.00    -0.394 A  
HETATM    7  C   UNL     1     -11.887  13.087  69.496  1.00  0.00    -0.385 A  
HETATM    8  C   UNL     1     -11.808  11.717  69.751  1.00  0.00    -0.357 A  
HETATM    9  C   UNL     1     -11.383  11.350  67.386  1.00  0.00    -0.359 A  
HETATM   10  C   UNL     1     -11.557  10.849  68.686  1.00  0.00    -0.373 A  
BRANCH   8  11
HETATM   11  O   UNL     1     -11.966  11.144  70.989  1.00  0.00    -0.293 OA 
BRANCH  11  12
HETATM   12  C   UNL     1     -13.226  10.475  71.181  1.00  0.00    -0.269 C  
BRANCH  12  13
HETATM   13  C   UNL     1     -13.106   9.314  72.178  1.00  0.00    -0.443 C  
HETATM   14  H   UNL     1     -14.162   7.726  72.668  1.00  0.00     0.000 HD 
HETATM   15  O   UNL     1     -14.236   8.445  72.051  1.00  0.00    -0.414 OA 
BRANCH  13  16
HETATM   16  C   UNL     1     -11.811   8.501  72.002  1.00  0.00    -0.362 C  
BRANCH  16  17
HETATM   17  N   UNL     1     -11.691   7.944  70.652  1.00  0.00    -0.439 NA 
HETATM   18  H   UNL     1     -10.866   8.316  70.182  1.00  0.00     0.000 HD 
BRANCH  17  19
HETATM   19  C   UNL     1     -11.690   6.477  70.613  1.00  0.00    -0.374 C  
HETATM   20  C   UNL     1     -10.739   5.907  69.556  1.00  0.00    -0.414 C  
HETATM   21  C   UNL     1     -11.270   5.976  71.998  1.00  0.00    -0.341 C  
ENDBRANCH  17  19
ENDBRANCH  16  17
ENDBRANCH  13  16
ENDBRANCH  12  13
ENDBRANCH  11  12
ENDBRANCH   8  11
ENDBRANCH   4   5
ENDBRANCH   3   4
ENDBRANCH   2   3
TORSDOF 9
ENDMDL
MODEL       16
REMARK 921   NORMALIZED FREE ENERGY PREDICTED BY IDOCK:   -5.02 KCAL/MOL
REMARK 922        TOTAL FREE ENERGY PREDICTED BY IDOCK:   -8.30 KCAL/MOL
REMARK 923 INTER-LIGAND FREE ENERGY PREDICTED BY IDOCK:   -7.85 KCAL/MOL
REMARK 924 INTRA-LIGAND FREE ENERGY PREDICTED BY IDOCK:   -0.45 KCAL/MOL
REMARK 927      BINDING AFFINITY PREDICTED BY RF-SCORE:    0.00 PKD
ROOT
HETATM    1  C   UNL     1     -13.168   7.771  71.525  1.00  0.00    -0.316 C  
HETATM    2  O   UNL     1     -13.428   8.802  72.472  1.00  0.00    -0.397 OA 
ENDROOT
BRANCH   2   3
HETATM    3  C   UNL     1     -13.396  10.087  71.849  1.00  0.00    -0.415 C  
BRANCH   3   4
HETATM    4  C   UNL     1     -12.152  10.192  70.963  1.00  0.00    -0.476 C  
BRANCH   4   5
HETATM    5  C   UNL     1     -12.106  11.494  70.204  1.00  0.00    -0.432 A  
HETATM    6  C   UNL     1     -11.832  11.479  68.834  1.00  0.00    -0.406 A  
HETATM    7  C   UNL     1     -11.766  12.665  68.109  1.00  0.00    -0.396 A  
HETATM    8  C   UNL     1     -11.986  13.897  68.727  1.00  0.00    -0.358 A  
HETATM    9  C   UNL     1     -12.338  12.727  70.828  1.00  0.00    -0.375 A  
HETATM   10  C   UNL     1     -12.275  13.922  70.092  1.00  0.00    -0.425 A  
BRANCH   8  11
HETATM   11  O   UNL     1     -11.944  15.110  68.083  1.00  0.00    -0.290 OA 
BRANCH  11  12
HETATM   12  C   UNL     1     -10.698  15.390  67.419  1.00  0.00    -0.296 C  
BRANCH  12  13
HETATM   13  C   UNL     1     -10.805  15.185  65.901  1.00  0.00    -0.339 C  
HETATM   14  H   UNL     1     -10.459  16.246  64.280  1.00  0.00     0.000 HD 
HETATM   15  O   UNL     1     -10.393  16.373  65.219  1.00  0.00    -0.581 OA 
BRANCH  13  16
HETATM   16  C   UNL     1      -9.978  13.989  65.397  1.00  0.00    -0.263 C  
BRANCH  16  17
HETATM   17  N   UNL     1     -10.242  13.696  63.985  1.00  0.00    -0.651 NA 
HETATM   18  H   UNL     1      -9.416  13.889  63.418  1.00  0.00     0.000 HD 
BRANCH  17  19
HETATM   19  C   UNL     1     -10.728  12.333  63.743  1.00  0.00    -0.449 C  
HETATM   20  C   UNL     1     -10.510  11.399  64.937  1.00  0.00    -0.363 C  
HETATM   21  C   UNL     1     -12.225  12.421  63.432  1.00  0.00    -0.623 C  
ENDBRANCH  17  19
ENDBRANCH  16  17
ENDBRANCH  13  16
ENDBRANCH  12  13
ENDBRANCH  11  12
ENDBRANCH   8  11
ENDBRANCH   4   5
ENDBRANCH   3   4
ENDBRANCH   2   3
TORSDOF 9
ENDMDL
MODEL       17
REMARK 921   NORMALIZED FREE ENERGY PREDICTED BY IDOCK:   -5.01 KCAL/MOL
REMARK 922        TOTAL FREE ENERGY PREDICTED BY IDOCK:   -8.28 KCAL/MOL
REMARK 923 INTER-LIGAND FREE ENERGY PREDICTED BY IDOCK:   -7.68 KCAL/MOL
REMARK 924 INTRA-LIGAND FREE ENERGY PREDICTED BY IDOCK:   -0.60 KCAL/MOL
REMARK 927      BINDING AFFINITY PREDICTED BY RF-SCORE:    0.00 PKD
ROOT
HETATM    1  C   UNL     1     -10.774   7.303  73.070  1.00  0.00    -0.339 C  
HETATM    2  O   UNL     1     -11.898   8.173  72.993  1.00  0.00    -0.283 OA 
ENDROOT
BRANCH   2   3
HETATM    3  C   UNL     1     -11.848   8.969  71.809  1.00  0.00    -0.372 C  
BRANCH   3   4
HETATM    4  C   UNL     1     -12.967  10.014  71.850  1.00  0.00    -0.547 C  
BRANCH   4   5
HETATM    5  C   UNL     1     -12.673  11.193  70.957  1.00  0.00    -0.476 A  
HETATM    6  C   UNL     1     -12.245  10.970  69.647  1.00  0.00    -0.370 A  
HETATM    7  C   UNL     1     -11.950  12.037  68.803  1.00  0.00    -0.299 A  
HETATM    8  C   UNL     1     -12.088  13.355  69.239  1.00  0.00    -0.264 A  
HETATM    9  C   UNL     1     -12.824  12.515  71.398  1.00  0.00    -0.359 A  
HETATM   10  C   UNL     1     -12.530  13.589  70.542  1.00  0.00    -0.373 A  
BRANCH   8  11
HETATM   11  O   UNL     1     -11.823  14.462  68.470  1.00  0.00    -0.326 OA 
BRANCH  11  12
HETATM   12  C   UNL     1     -12.014  14.266  67.056  1.00  0.00    -0.433 C  
BRANCH  12  13
HETATM   13  C   UNL     1     -10.756  14.632  66.257  1.00  0.00    -0.316 C  
HETATM   14  H   UNL     1      -8.868  14.078  66.216  1.00  0.00     0.000 HD 
HETATM   15  O   UNL     1      -9.646  13.851  66.710  1.00  0.00    -0.263 OA 
BRANCH  13  16
HETATM   16  C   UNL     1     -10.931  14.445  64.739  1.00  0.00    -0.397 C  
BRANCH  16  17
HETATM   17  N   UNL     1      -9.973  13.481  64.191  1.00  0.00    -0.721 NA 
HETATM   18  H   UNL     1      -9.296  13.203  64.903  1.00  0.00     0.000 HD 
BRANCH  17  19
HETATM   19  C   UNL     1     -10.599  12.300  63.586  1.00  0.00    -0.462 C  
HETATM   20  C   UNL     1     -10.354  11.016  64.385  1.00  0.00    -0.424 C  
HETATM   21  C   UNL     1     -12.105  12.565  63.499  1.00  0.00    -0.653 C  
ENDBRANCH  17  19
ENDBRANCH  16  17
ENDBRANCH  13  16
ENDBRANCH  12  13
ENDBRANCH  11  12
ENDBRANCH   8  11
ENDBRANCH   4   5
ENDBRANCH   3   4
ENDBRANCH   2   3
TORSDOF 9
ENDMDL
MODEL       18
REMARK 921   NORMALIZED FREE ENERGY PREDICTED BY IDOCK:   -4.99 KCAL/MOL
REMARK 922        TOTAL FREE ENERGY PREDICTED BY IDOCK:   -8.26 KCAL/MOL
REMARK 923 INTER-LIGAND FREE ENERGY PREDICTED BY IDOCK:   -7.33 KCAL/MOL
REMARK 924 INTRA-LIGAND FREE ENERGY PREDICTED BY IDOCK:   -0.93 KCAL/MOL
REMARK 927      BINDING AFFINITY PREDICTED BY RF-SCORE:    0.00 PKD
ROOT
HETATM    1  C   UNL     1     -14.404   7.923  71.896  1.00  0.00    -0.436 C  
HETATM    2  O   UNL     1     -13.301   8.450  71.167  1.00  0.00    -0.166 OA 
ENDROOT
BRANCH   2   3
HETATM    3  C   UNL     1     -12.433   9.196  72.022  1.00  0.00    -0.382 C  
BRANCH   3   4
HETATM    4  C   UNL     1     -11.088   9.408  71.322  1.00  0.00    -0.446 C  
BRANCH   4   5
HETATM    5  C   UNL     1     -11.205  10.338  70.140  1.00  0.00    -0.387 A  
HETATM    6  C   UNL     1     -10.687   9.944  68.905  1.00  0.00    -0.244 A  
HETATM    7  C   UNL     1     -10.764  10.786  67.800  1.00  0.00    -0.296 A  
HETATM    8  C   UNL     1     -11.372  12.038  67.893  1.00  0.00    -0.305 A  
HETATM    9  C   UNL     1     -11.826  11.590  70.239  1.00  0.00    -0.431 A  
HETATM   10  C   UNL     1     -11.906  12.436  69.120  1.00  0.00    -0.352 A  
BRANCH   8  11
HETATM   11  O   UNL     1     -11.494  12.925  66.851  1.00  0.00    -0.305 OA 
BRANCH  11  12
HETATM   12  C   UNL     1     -10.673  14.102  66.971  1.00  0.00    -0.285 C  
BRANCH  12  13
HETATM   13  C   UNL     1     -10.918  15.084  65.817  1.00  0.00    -0.350 C  
HETATM   14  H   UNL     1      -9.941  16.558  64.953  1.00  0.00     0.000 HD 
HETATM   15  O   UNL     1      -9.790  15.951  65.667  1.00  0.00    -0.328 OA 
BRANCH  13  16
HETATM   16  C   UNL     1     -11.207  14.380  64.479  1.00  0.00    -0.306 C  
BRANCH  16  17
HETATM   17  N   UNL     1     -10.193  13.371  64.159  1.00  0.00    -0.757 NA 
HETATM   18  H   UNL     1      -9.674  13.107  64.996  1.00  0.00     0.000 HD 
BRANCH  17  19
HETATM   19  C   UNL     1     -10.731  12.182  63.488  1.00  0.00    -0.457 C  
HETATM   20  C   UNL     1     -10.256  10.871  64.121  1.00  0.00    -0.424 C  
HETATM   21  C   UNL     1     -12.259  12.258  63.560  1.00  0.00    -0.669 C  
ENDBRANCH  17  19
ENDBRANCH  16  17
ENDBRANCH  13  16
ENDBRANCH  12  13
ENDBRANCH  11  12
ENDBRANCH   8  11
ENDBRANCH   4   5
ENDBRANCH   3   4
ENDBRANCH   2   3
TORSDOF 9
ENDMDL
MODEL       19
REMARK 921   NORMALIZED FREE ENERGY PREDICTED BY IDOCK:   -4.93 KCAL/MOL
REMARK 922        TOTAL FREE ENERGY PREDICTED BY IDOCK:   -8.16 KCAL/MOL
REMARK 923 INTER-LIGAND FREE ENERGY PREDICTED BY IDOCK:   -7.39 KCAL/MOL
REMARK 924 INTRA-LIGAND FREE ENERGY PREDICTED BY IDOCK:   -0.77 KCAL/MOL
REMARK 927      BINDING AFFINITY PREDICTED BY RF-SCORE:    0.00 PKD
ROOT
HETATM    1  C   UNL     1     -12.473  15.835  74.207  1.00  0.00    -0.654 C  
HETATM    2  O   UNL     1     -12.501  16.112  72.811  1.00  0.00    -0.453 OA 
ENDROOT
BRANCH   2   3
HETATM    3  C   UNL     1     -13.582  15.428  72.176  1.00  0.00    -0.498 C  
BRANCH   3   4
HETATM    4  C   UNL     1     -13.635  13.983  72.679  1.00  0.00    -0.623 C  
BRANCH   4   5
HETATM    5  C   UNL     1     -13.072  13.012  71.673  1.00  0.00    -0.440 A  
HETATM    6  C   UNL     1     -13.256  11.641  71.866  1.00  0.00    -0.475 A  
HETATM    7  C   UNL     1     -12.735  10.719  70.964  1.00  0.00    -0.513 A  
HETATM    8  C   UNL     1     -12.026  11.140  69.837  1.00  0.00    -0.363 A  
HETATM    9  C   UNL     1     -12.371  13.441  70.538  1.00  0.00    -0.401 A  
HETATM   10  C   UNL     1     -11.849  12.508  69.627  1.00  0.00    -0.382 A  
BRANCH   8  11
HETATM   11  O   UNL     1     -11.484  10.296  68.898  1.00  0.00    -0.213 OA 
BRANCH  11  12
HETATM   12  C   UNL     1     -10.321   9.575  69.344  1.00  0.00    -0.214 C  
BRANCH  12  13
HETATM   13  C   UNL     1     -10.266   8.162  68.747  1.00  0.00    -0.207 C  
HETATM   14  H   UNL     1      -8.908   7.007  67.914  1.00  0.00     0.000 HD 
HETATM   15  O   UNL     1      -8.942   7.881  68.283  1.00  0.00    -0.133 OA 
BRANCH  13  16
HETATM   16  C   UNL     1     -10.704   7.071  69.741  1.00  0.00    -0.241 C  
BRANCH  16  17
HETATM   17  N   UNL     1     -11.932   7.438  70.452  1.00  0.00    -0.525 NA 
HETATM   18  H   UNL     1     -12.752   7.079  69.962  1.00  0.00     0.000 HD 
BRANCH  17  19
HETATM   19  C   UNL     1     -11.950   7.023  71.859  1.00  0.00    -0.320 C  
HETATM   20  C   UNL     1     -11.334   5.638  72.083  1.00  0.00    -0.277 C  
HETATM   21  C   UNL     1     -11.164   8.064  72.661  1.00  0.00    -0.462 C  
ENDBRANCH  17  19
ENDBRANCH  16  17
ENDBRANCH  13  16
ENDBRANCH  12  13
ENDBRANCH  11  12
ENDBRANCH   8  11
ENDBRANCH   4   5
ENDBRANCH   3   4
ENDBRANCH   2   3
TORSDOF 9
ENDMDL
MODEL       20
REMARK 921   NORMALIZED FREE ENERGY PREDICTED BY IDOCK:   -4.92 KCAL/MOL
REMARK 922        TOTAL FREE ENERGY PREDICTED BY IDOCK:   -8.14 KCAL/MOL
REMARK 923 INTER-LIGAND FREE ENERGY PREDICTED BY IDOCK:   -7.50 KCAL/MOL
REMARK 924 INTRA-LIGAND FREE ENERGY PREDICTED BY IDOCK:   -0.65 KCAL/MOL
REMARK 927      BINDING AFFINITY PREDICTED BY RF-SCORE:    0.00 PKD
ROOT
HETATM    1  C   UNL     1     -10.489   5.793  73.948  1.00  0.00    -0.275 C  
HETATM    2  O   UNL     1     -10.516   7.178  73.618  1.00  0.00    -0.358 OA 
ENDROOT
BRANCH   2   3
HETATM    3  C   UNL     1     -11.215   7.398  72.393  1.00  0.00    -0.293 C  
BRANCH   3   4
HETATM    4  C   UNL     1     -12.223   8.536  72.579  1.00  0.00    -0.383 C  
BRANCH   4   5
HETATM    5  C   UNL     1     -12.049   9.621  71.546  1.00  0.00    -0.482 A  
HETATM    6  C   UNL     1     -11.257   9.376  70.422  1.00  0.00    -0.309 A  
HETATM    7  C   UNL     1     -11.064  10.362  69.459  1.00  0.00    -0.314 A  
HETATM    8  C   UNL     1     -11.668  11.614  69.584  1.00  0.00    -0.350 A  
HETATM    9  C   UNL     1     -12.667  10.872  71.672  1.00  0.00    -0.498 A  
HETATM   10  C   UNL     1     -12.474  11.864  70.696  1.00  0.00    -0.347 A  
BRANCH   8  11
HETATM   11  O   UNL     1     -11.533  12.638  68.678  1.00  0.00    -0.261 OA 
BRANCH  11  12
HETATM   12  C   UNL     1     -12.158  13.872  69.075  1.00  0.00    -0.329 C  
BRANCH  12  13
HETATM   13  C   UNL     1     -11.134  15.007  69.219  1.00  0.00    -0.272 C  
HETATM   14  H   UNL     1     -10.895  16.826  68.507  1.00  0.00     0.000 HD 
HETATM   15  O   UNL     1     -11.529  16.124  68.418  1.00  0.00    -0.369 OA 
BRANCH  13  16
HETATM   16  C   UNL     1     -10.941  15.461  70.677  1.00  0.00    -0.319 C  
BRANCH  16  17
HETATM   17  N   UNL     1     -12.147  16.093  71.219  1.00  0.00    -0.596 NA 
HETATM   18  H   UNL     1     -12.822  16.274  70.476  1.00  0.00     0.000 HD 
BRANCH  17  19
HETATM   19  C   UNL     1     -12.772  15.338  72.312  1.00  0.00    -0.351 C  
HETATM   20  C   UNL     1     -12.697  16.063  73.658  1.00  0.00    -0.715 C  
HETATM   21  C   UNL     1     -14.239  15.109  71.939  1.00  0.00    -0.676 C  
ENDBRANCH  17  19
ENDBRANCH  16  17
ENDBRANCH  13  16
ENDBRANCH  12  13
ENDBRANCH  11  12
ENDBRANCH   8  11
ENDBRANCH   4   5
ENDBRANCH   3   4
ENDBRANCH   2   3
TORSDOF 9
ENDMDL
MODEL       21
REMARK 921   NORMALIZED FREE ENERGY PREDICTED BY IDOCK:   -4.91 KCAL/MOL
REMARK 922        TOTAL FREE ENERGY PREDICTED BY IDOCK:   -8.14 KCAL/MOL
REMARK 923 INTER-LIGAND FREE ENERGY PREDICTED BY IDOCK:   -7.44 KCAL/MOL
REMARK 924 INTRA-LIGAND FREE ENERGY PREDICTED BY IDOCK:   -0.70 KCAL/MOL
REMARK 927      BINDING AFFINITY PREDICTED BY RF-SCORE:    0.00 PKD
ROOT
HETATM    1  C   UNL     1      -9.396   5.445  70.113  1.00  0.00    -0.149 C  
HETATM    2  O   UNL     1     -10.804   5.233  70.135  1.00  0.00    -0.240 OA 
ENDROOT
BRANCH   2   3
HETATM    3  C   UNL     1     -11.509   6.460  69.947  1.00  0.00    -0.415 C  
BRANCH   3   4
HETATM    4  C   UNL     1     -11.835   7.073  71.312  1.00  0.00    -0.371 C  
BRANCH   4   5
HETATM    5  C   UNL     1     -12.053   8.563  71.227  1.00  0.00    -0.323 A  
HETATM    6  C   UNL     1     -13.045   9.156  72.010  1.00  0.00    -0.497 A  
HETATM    7  C   UNL     1     -13.281  10.526  71.942  1.00  0.00    -0.526 A  
HETATM    8  C   UNL     1     -12.525  11.343  71.101  1.00  0.00    -0.360 A  
HETATM    9  C   UNL     1     -11.283   9.379  70.387  1.00  0.00    -0.309 A  
HETATM   10  C   UNL     1     -11.521  10.762  70.324  1.00  0.00    -0.406 A  
BRANCH   8  11
HETATM   11  O   UNL     1     -12.691  12.701  70.978  1.00  0.00    -0.324 OA 
BRANCH  11  12
HETATM   12  C   UNL     1     -13.375  13.321  72.084  1.00  0.00    -0.523 C  
BRANCH  12  13
HETATM   13  C   UNL     1     -13.620  14.815  71.834  1.00  0.00    -0.398 C  
HETATM   14  H   UNL     1     -13.958  16.418  72.925  1.00  0.00     0.000 HD 
HETATM   15  O   UNL     1     -13.807  15.493  73.080  1.00  0.00    -0.489 OA 
BRANCH  13  16
HETATM   16  C   UNL     1     -12.481  15.489  71.048  1.00  0.00    -0.436 C  
BRANCH  16  17
HETATM   17  N   UNL     1     -12.683  15.393  69.599  1.00  0.00    -0.610 NA 
HETATM   18  H   UNL     1     -13.162  16.222  69.248  1.00  0.00     0.000 HD 
BRANCH  17  19
HETATM   19  C   UNL     1     -11.449  15.152  68.843  1.00  0.00    -0.320 C  
HETATM   20  C   UNL     1     -11.660  14.246  67.627  1.00  0.00    -0.396 C  
HETATM   21  C   UNL     1     -10.914  16.510  68.379  1.00  0.00    -0.348 C  
ENDBRANCH  17  19
ENDBRANCH  16  17
ENDBRANCH  13  16
ENDBRANCH  12  13
ENDBRANCH  11  12
ENDBRANCH   8  11
ENDBRANCH   4   5
ENDBRANCH   3   4
ENDBRANCH   2   3
TORSDOF 9
ENDMDL
MODEL       22
REMARK 921   NORMALIZED FREE ENERGY PREDICTED BY IDOCK:   -4.90 KCAL/MOL
REMARK 922        TOTAL FREE ENERGY PREDICTED BY IDOCK:   -8.11 KCAL/MOL
REMARK 923 INTER-LIGAND FREE ENERGY PREDICTED BY IDOCK:   -7.34 KCAL/MOL
REMARK 924 INTRA-LIGAND FREE ENERGY PREDICTED BY IDOCK:   -0.77 KCAL/MOL
REMARK 927      BINDING AFFINITY PREDICTED BY RF-SCORE:    0.00 PKD
ROOT
HETATM    1  C   UNL     1     -12.258  14.565  64.403  1.00  0.00    -0.458 C  
HETATM    2  O   UNL     1     -12.494  13.749  63.260  1.00  0.00    -0.819 OA 
ENDROOT
BRANCH   2   3
HETATM    3  C   UNL     1     -12.202  12.380  63.540  1.00  0.00    -0.563 C  
BRANCH   3   4
HETATM    4  C   UNL     1     -10.768  12.262  64.065  1.00  0.00    -0.438 C  
BRANCH   4   5
HETATM    5  C   UNL     1     -10.686  11.399  65.298  1.00  0.00    -0.326 A  
HETATM    6  C   UNL     1     -11.327  11.813  66.467  1.00  0.00    -0.370 A  
HETATM    7  C   UNL     1     -11.257  11.046  67.627  1.00  0.00    -0.373 A  
HETATM    8  C   UNL     1     -10.556   9.840  67.648  1.00  0.00    -0.276 A  
HETATM    9  C   UNL     1      -9.989  10.183  65.309  1.00  0.00    -0.381 A  
HETATM   10  C   UNL     1      -9.923   9.410  66.480  1.00  0.00    -0.339 A  
BRANCH   8  11
HETATM   11  O   UNL     1     -10.442   9.024  68.747  1.00  0.00    -0.216 OA 
BRANCH  11  12
HETATM   12  C   UNL     1     -10.422   7.616  68.446  1.00  0.00    -0.169 C  
BRANCH  12  13
HETATM   13  C   UNL     1      -9.897   6.790  69.628  1.00  0.00    -0.165 C  
HETATM   14  H   UNL     1      -8.722   7.087  71.179  1.00  0.00     0.000 HD 
HETATM   15  O   UNL     1      -9.046   7.598  70.447  1.00  0.00    -0.151 OA 
BRANCH  13  16
HETATM   16  C   UNL     1     -11.023   6.191  70.490  1.00  0.00    -0.318 C  
BRANCH  16  17
HETATM   17  N   UNL     1     -12.293   6.897  70.302  1.00  0.00    -0.598 NA 
HETATM   18  H   UNL     1     -12.987   6.281  69.878  1.00  0.00     0.000 HD 
BRANCH  17  19
HETATM   19  C   UNL     1     -12.823   7.503  71.529  1.00  0.00    -0.360 C  
HETATM   20  C   UNL     1     -12.401   8.964  71.705  1.00  0.00    -0.424 C  
HETATM   21  C   UNL     1     -14.350   7.419  71.468  1.00  0.00    -0.594 C  
ENDBRANCH  17  19
ENDBRANCH  16  17
ENDBRANCH  13  16
ENDBRANCH  12  13
ENDBRANCH  11  12
ENDBRANCH   8  11
ENDBRANCH   4   5
ENDBRANCH   3   4
ENDBRANCH   2   3
TORSDOF 9
ENDMDL
MODEL       23
REMARK 921   NORMALIZED FREE ENERGY PREDICTED BY IDOCK:   -4.89 KCAL/MOL
REMARK 922        TOTAL FREE ENERGY PREDICTED BY IDOCK:   -8.11 KCAL/MOL
REMARK 923 INTER-LIGAND FREE ENERGY PREDICTED BY IDOCK:   -7.28 KCAL/MOL
REMARK 924 INTRA-LIGAND FREE ENERGY PREDICTED BY IDOCK:   -0.82 KCAL/MOL
REMARK 927      BINDING AFFINITY PREDICTED BY RF-SCORE:    0.00 PKD
ROOT
HETATM    1  C   UNL     1     -11.262   6.102  69.460  1.00  0.00    -0.411 C  
HETATM    2  O   UNL     1     -11.955   6.356  70.678  1.00  0.00    -0.340 OA 
ENDROOT
BRANCH   2   3
HETATM    3  C   UNL     1     -11.301   7.375  71.435  1.00  0.00    -0.256 C  
BRANCH   3   4
HETATM    4  C   UNL     1     -10.774   8.455  70.487  1.00  0.00    -0.247 C  
BRANCH   4   5
HETATM    5  C   UNL     1     -11.476   9.775  70.685  1.00  0.00    -0.397 A  
HETATM    6  C   UNL     1     -11.189  10.839  69.827  1.00  0.00    -0.365 A  
HETATM    7  C   UNL     1     -11.808  12.074  69.994  1.00  0.00    -0.392 A  
HETATM    8  C   UNL     1     -12.739  12.278  71.013  1.00  0.00    -0.225 A  
HETATM    9  C   UNL     1     -12.417   9.970  71.704  1.00  0.00    -0.513 A  
HETATM   10  C   UNL     1     -13.043  11.216  71.868  1.00  0.00    -0.513 A  
BRANCH   8  11
HETATM   11  O   UNL     1     -13.397  13.462  71.243  1.00  0.00    -0.236 OA 
BRANCH  11  12
HETATM   12  C   UNL     1     -13.422  13.873  72.622  1.00  0.00    -0.546 C  
BRANCH  12  13
HETATM   13  C   UNL     1     -12.789  15.259  72.813  1.00  0.00    -0.413 C  
HETATM   14  H   UNL     1     -12.014  16.292  74.297  1.00  0.00     0.000 HD 
HETATM   15  O   UNL     1     -12.405  15.435  74.179  1.00  0.00    -0.590 OA 
BRANCH  13  16
HETATM   16  C   UNL     1     -11.571  15.495  71.902  1.00  0.00    -0.442 C  
BRANCH  16  17
HETATM   17  N   UNL     1     -11.962  16.005  70.584  1.00  0.00    -0.469 NA 
HETATM   18  H   UNL     1     -12.087  17.017  70.615  1.00  0.00     0.000 HD 
BRANCH  17  19
HETATM   19  C   UNL     1     -11.040  15.631  69.506  1.00  0.00    -0.298 C  
HETATM   20  C   UNL     1     -11.756  15.067  68.276  1.00  0.00    -0.338 C  
HETATM   21  C   UNL     1     -10.256  16.885  69.108  1.00  0.00    -0.292 C  
ENDBRANCH  17  19
ENDBRANCH  16  17
ENDBRANCH  13  16
ENDBRANCH  12  13
ENDBRANCH  11  12
ENDBRANCH   8  11
ENDBRANCH   4   5
ENDBRANCH   3   4
ENDBRANCH   2   3
TORSDOF 9
ENDMDL
MODEL       24
REMARK 921   NORMALIZED FREE ENERGY PREDICTED BY IDOCK:   -4.88 KCAL/MOL
REMARK 922        TOTAL FREE ENERGY PREDICTED BY IDOCK:   -8.08 KCAL/MOL
REMARK 923 INTER-LIGAND FREE ENERGY PREDICTED BY IDOCK:   -7.16 KCAL/MOL
REMARK 924 INTRA-LIGAND FREE ENERGY PREDICTED BY IDOCK:   -0.92 KCAL/MOL
REMARK 927      BINDING AFFINITY PREDICTED BY RF-SCORE:    0.00 PKD
ROOT
HETATM    1  C   UNL     1     -12.623  15.242  73.527  1.00  0.00    -0.554 C  
HETATM    2  O   UNL     1     -13.388  14.071  73.259  1.00  0.00    -0.515 OA 
ENDROOT
BRANCH   2   3
HETATM    3  C   UNL     1     -14.009  14.148  71.975  1.00  0.00    -0.513 C  
BRANCH   3   4
HETATM    4  C   UNL     1     -13.230  15.127  71.091  1.00  0.00    -0.535 C  
BRANCH   4   5
HETATM    5  C   UNL     1     -12.363  14.414  70.085  1.00  0.00    -0.406 A  
HETATM    6  C   UNL     1     -11.609  15.163  69.179  1.00  0.00    -0.343 A  
HETATM    7  C   UNL     1     -10.811  14.534  68.227  1.00  0.00    -0.247 A  
HETATM    8  C   UNL     1     -10.734  13.142  68.162  1.00  0.00    -0.242 A  
HETATM    9  C   UNL     1     -12.282  13.016  70.032  1.00  0.00    -0.306 A  
HETATM   10  C   UNL     1     -11.473  12.385  69.072  1.00  0.00    -0.352 A  
BRANCH   8  11
HETATM   11  O   UNL     1      -9.969  12.446  67.258  1.00  0.00    -0.204 OA 
BRANCH  11  12
HETATM   12  C   UNL     1     -10.475  11.138  66.930  1.00  0.00    -0.246 C  
BRANCH  12  13
HETATM   13  C   UNL     1      -9.751  10.537  65.717  1.00  0.00    -0.223 C  
HETATM   14  H   UNL     1      -9.404   8.739  64.997  1.00  0.00     0.000 HD 
HETATM   15  O   UNL     1      -9.852   9.111  65.748  1.00  0.00    -0.286 OA 
BRANCH  13  16
HETATM   16  C   UNL     1     -10.290  11.062  64.374  1.00  0.00    -0.358 C  
BRANCH  16  17
HETATM   17  N   UNL     1     -10.270  12.527  64.309  1.00  0.00    -0.471 NA 
HETATM   18  H   UNL     1      -9.433  12.853  63.827  1.00  0.00     0.000 HD 
BRANCH  17  19
HETATM   19  C   UNL     1     -11.474  13.110  63.707  1.00  0.00    -0.373 C  
HETATM   20  C   UNL     1     -12.668  12.152  63.708  1.00  0.00    -0.525 C  
HETATM   21  C   UNL     1     -11.831  14.367  64.506  1.00  0.00    -0.463 C  
ENDBRANCH  17  19
ENDBRANCH  16  17
ENDBRANCH  13  16
ENDBRANCH  12  13
ENDBRANCH  11  12
ENDBRANCH   8  11
ENDBRANCH   4   5
ENDBRANCH   3   4
ENDBRANCH   2   3
TORSDOF 9
ENDMDL
MODEL       25
REMARK 921   NORMALIZED FREE ENERGY PREDICTED BY IDOCK:   -4.87 KCAL/MOL
REMARK 922        TOTAL FREE ENERGY PREDICTED BY IDOCK:   -8.07 KCAL/MOL
REMARK 923 INTER-LIGAND FREE ENERGY PREDICTED BY IDOCK:   -7.44 KCAL/MOL
REMARK 924 INTRA-LIGAND FREE ENERGY PREDICTED BY IDOCK:   -0.63 KCAL/MOL
REMARK 927      BINDING AFFINITY PREDICTED BY RF-SCORE:    0.00 PKD
ROOT
HETATM    1  C   UNL     1     -12.678  12.042  63.417  1.00  0.00    -0.398 C  
HETATM    2  O   UNL     1     -12.308  13.364  63.794  1.00  0.00    -0.644 OA 
ENDROOT
BRANCH   2   3
HETATM    3  C   UNL     1     -11.022  13.378  64.415  1.00  0.00    -0.395 C  
BRANCH   3   4
HETATM    4  C   UNL     1     -10.679  14.807  64.843  1.00  0.00    -0.438 C  
BRANCH   4   5
HETATM    5  C   UNL     1     -11.008  15.058  66.293  1.00  0.00    -0.338 A  
HETATM    6  C   UNL     1     -10.528  16.213  66.914  1.00  0.00    -0.300 A  
HETATM    7  C   UNL     1     -10.801  16.466  68.256  1.00  0.00    -0.347 A  
HETATM    8  C   UNL     1     -11.571  15.579  69.010  1.00  0.00    -0.365 A  
HETATM    9  C   UNL     1     -11.790  14.169  67.042  1.00  0.00    -0.458 A  
HETATM   10  C   UNL     1     -12.067  14.429  68.395  1.00  0.00    -0.278 A  
BRANCH   8  11
HETATM   11  O   UNL     1     -11.889  15.756  70.335  1.00  0.00    -0.332 OA 
BRANCH  11  12
HETATM   12  C   UNL     1     -13.150  15.184  70.727  1.00  0.00    -0.397 C  
BRANCH  12  13
HETATM   13  C   UNL     1     -13.033  14.403  72.043  1.00  0.00    -0.353 C  
HETATM   14  H   UNL     1     -13.998  14.324  73.757  1.00  0.00     0.000 HD 
HETATM   15  O   UNL     1     -14.070  14.808  72.943  1.00  0.00    -0.434 OA 
BRANCH  13  16
HETATM   16  C   UNL     1     -13.091  12.878  71.845  1.00  0.00    -0.373 C  
BRANCH  16  17
HETATM   17  N   UNL     1     -12.036  12.400  70.947  1.00  0.00    -0.432 NA 
HETATM   18  H   UNL     1     -11.129  12.426  71.413  1.00  0.00     0.000 HD 
BRANCH  17  19
HETATM   19  C   UNL     1     -12.292  11.068  70.387  1.00  0.00    -0.356 C  
HETATM   20  C   UNL     1     -11.681  10.877  68.995  1.00  0.00    -0.391 C  
HETATM   21  C   UNL     1     -11.696  10.037  71.349  1.00  0.00    -0.414 C  
ENDBRANCH  17  19
ENDBRANCH  16  17
ENDBRANCH  13  16
ENDBRANCH  12  13
ENDBRANCH  11  12
ENDBRANCH   8  11
ENDBRANCH   4   5
ENDBRANCH   3   4
ENDBRANCH   2   3
TORSDOF 9
ENDMDL
MODEL       26
REMARK 921   NORMALIZED FREE ENERGY PREDICTED BY IDOCK:   -4.85 KCAL/MOL
REMARK 922        TOTAL FREE ENERGY PREDICTED BY IDOCK:   -8.04 KCAL/MOL
REMARK 923 INTER-LIGAND FREE ENERGY PREDICTED BY IDOCK:   -7.36 KCAL/MOL
REMARK 924 INTRA-LIGAND FREE ENERGY PREDICTED BY IDOCK:   -0.68 KCAL/MOL
REMARK 927      BINDING AFFINITY PREDICTED BY RF-SCORE:    0.00 PKD
ROOT
HETATM    1  C   UNL     1     -10.809   7.434  72.521  1.00  0.00    -0.283 C  
HETATM    2  O   UNL     1     -12.029   8.169  72.519  1.00  0.00    -0.376 OA 
ENDROOT
BRANCH   2   3
HETATM    3  C   UNL     1     -11.899   9.373  71.762  1.00  0.00    -0.382 C  
BRANCH   3   4
HETATM    4  C   UNL     1     -13.177  10.205  71.907  1.00  0.00    -0.557 C  
BRANCH   4   5
HETATM    5  C   UNL     1     -12.976  11.632  71.463  1.00  0.00    -0.463 A  
HETATM    6  C   UNL     1     -13.598  12.663  72.172  1.00  0.00    -0.510 A  
HETATM    7  C   UNL     1     -13.445  13.989  71.778  1.00  0.00    -0.473 A  
HETATM    8  C   UNL     1     -12.658  14.324  70.675  1.00  0.00    -0.355 A  
HETATM    9  C   UNL     1     -12.176  11.962  70.362  1.00  0.00    -0.399 A  
HETATM   10  C   UNL     1     -12.021  13.302  69.969  1.00  0.00    -0.399 A  
BRANCH   8  11
HETATM   11  O   UNL     1     -12.453  15.605  70.225  1.00  0.00    -0.410 OA 
BRANCH  11  12
HETATM   12  C   UNL     1     -11.069  15.970  70.073  1.00  0.00    -0.362 C  
BRANCH  12  13
HETATM   13  C   UNL     1     -10.730  16.319  68.617  1.00  0.00    -0.309 C  
HETATM   14  H   UNL     1     -10.173  17.918  67.615  1.00  0.00     0.000 HD 
HETATM   15  O   UNL     1     -10.383  17.703  68.516  1.00  0.00    -0.351 OA 
BRANCH  13  16
HETATM   16  C   UNL     1      -9.590  15.459  68.043  1.00  0.00    -0.206 C  
BRANCH  16  17
HETATM   17  N   UNL     1     -10.081  14.466  67.083  1.00  0.00    -0.251 NA 
HETATM   18  H   UNL     1     -10.234  13.568  67.542  1.00  0.00     0.000 HD 
BRANCH  17  19
HETATM   19  C   UNL     1     -11.285  14.887  66.357  1.00  0.00    -0.331 C  
HETATM   20  C   UNL     1     -10.977  15.477  64.978  1.00  0.00    -0.454 C  
HETATM   21  C   UNL     1     -12.184  13.658  66.195  1.00  0.00    -0.490 C  
ENDBRANCH  17  19
ENDBRANCH  16  17
ENDBRANCH  13  16
ENDBRANCH  12  13
ENDBRANCH  11  12
ENDBRANCH   8  11
ENDBRANCH   4   5
ENDBRANCH   3   4
ENDBRANCH   2   3
TORSDOF 9
ENDMDL
MODEL       27
REMARK 921   NORMALIZED FREE ENERGY PREDICTED BY IDOCK:   -4.85 KCAL/MOL
REMARK 922        TOTAL FREE ENERGY PREDICTED BY IDOCK:   -8.03 KCAL/MOL
REMARK 923 INTER-LIGAND FREE ENERGY PREDICTED BY IDOCK:   -7.23 KCAL/MOL
REMARK 924 INTRA-LIGAND FREE ENERGY PREDICTED BY IDOCK:   -0.81 KCAL/MOL
REMARK 927      BINDING AFFINITY PREDICTED BY RF-SCORE:    0.00 PKD
ROOT
HETATM    1  C   UNL     1     -11.246   5.245  72.984  1.00  0.00    -0.324 C  
HETATM    2  O   UNL     1     -10.797   5.391  71.641  1.00  0.00    -0.229 OA 
ENDROOT
BRANCH   2   3
HETATM    3  C   UNL     1     -11.461   6.478  70.995  1.00  0.00    -0.336 C  
BRANCH   3   4
HETATM    4  C   UNL     1     -12.144   7.355  72.049  1.00  0.00    -0.325 C  
BRANCH   4   5
HETATM    5  C   UNL     1     -12.223   8.798  71.618  1.00  0.00    -0.399 A  
HETATM    6  C   UNL     1     -11.360   9.265  70.625  1.00  0.00    -0.330 A  
HETATM    7  C   UNL     1     -11.398  10.595  70.217  1.00  0.00    -0.401 A  
HETATM    8  C   UNL     1     -12.306  11.493  70.780  1.00  0.00    -0.375 A  
HETATM    9  C   UNL     1     -13.145   9.691  72.180  1.00  0.00    -0.520 A  
HETATM   10  C   UNL     1     -13.183  11.032  71.764  1.00  0.00    -0.505 A  
BRANCH   8  11
HETATM   11  O   UNL     1     -12.411  12.817  70.431  1.00  0.00    -0.318 OA 
BRANCH  11  12
HETATM   12  C   UNL     1     -12.899  13.674  71.480  1.00  0.00    -0.359 C  
BRANCH  12  13
HETATM   13  C   UNL     1     -12.955  15.141  71.035  1.00  0.00    -0.431 C  
HETATM   14  H   UNL     1     -12.757  16.908  71.880  1.00  0.00     0.000 HD 
HETATM   15  O   UNL     1     -12.722  16.000  72.156  1.00  0.00    -0.449 OA 
BRANCH  13  16
HETATM   16  C   UNL     1     -11.948  15.470  69.918  1.00  0.00    -0.362 C  
BRANCH  16  17
HETATM   17  N   UNL     1     -12.387  14.962  68.616  1.00  0.00    -0.592 NA 
HETATM   18  H   UNL     1     -13.032  15.617  68.174  1.00  0.00     0.000 HD 
BRANCH  17  19
HETATM   19  C   UNL     1     -11.285  14.629  67.706  1.00  0.00    -0.308 C  
HETATM   20  C   UNL     1     -10.010  14.205  68.441  1.00  0.00    -0.235 C  
HETATM   21  C   UNL     1     -11.756  13.485  66.804  1.00  0.00    -0.430 C  
ENDBRANCH  17  19
ENDBRANCH  16  17
ENDBRANCH  13  16
ENDBRANCH  12  13
ENDBRANCH  11  12
ENDBRANCH   8  11
ENDBRANCH   4   5
ENDBRANCH   3   4
ENDBRANCH   2   3
TORSDOF 9
ENDMDL
MODEL       28
REMARK 921   NORMALIZED FREE ENERGY PREDICTED BY IDOCK:   -4.85 KCAL/MOL
REMARK 922        TOTAL FREE ENERGY PREDICTED BY IDOCK:   -8.03 KCAL/MOL
REMARK 923 INTER-LIGAND FREE ENERGY PREDICTED BY IDOCK:   -7.35 KCAL/MOL
REMARK 924 INTRA-LIGAND FREE ENERGY PREDICTED BY IDOCK:   -0.68 KCAL/MOL
REMARK 927      BINDING AFFINITY PREDICTED BY RF-SCORE:    0.00 PKD
ROOT
HETATM    1  C   UNL     1     -10.045   6.244  74.550  1.00  0.00    -0.336 C  
HETATM    2  O   UNL     1     -10.544   5.591  73.388  1.00  0.00    -0.220 OA 
ENDROOT
BRANCH   2   3
HETATM    3  C   UNL     1     -11.283   6.499  72.569  1.00  0.00    -0.262 C  
BRANCH   3   4
HETATM    4  C   UNL     1     -10.871   7.935  72.903  1.00  0.00    -0.451 C  
BRANCH   4   5
HETATM    5  C   UNL     1     -11.219   8.896  71.794  1.00  0.00    -0.432 A  
HETATM    6  C   UNL     1     -12.494   9.464  71.755  1.00  0.00    -0.471 A  
HETATM    7  C   UNL     1     -12.851  10.342  70.736  1.00  0.00    -0.450 A  
HETATM    8  C   UNL     1     -11.942  10.687  69.736  1.00  0.00    -0.291 A  
HETATM    9  C   UNL     1     -10.297   9.247  70.798  1.00  0.00    -0.348 A  
HETATM   10  C   UNL     1     -10.660  10.136  69.773  1.00  0.00    -0.298 A  
BRANCH   8  11
HETATM   11  O   UNL     1     -12.213  11.548  68.700  1.00  0.00    -0.492 OA 
BRANCH  11  12
HETATM   12  C   UNL     1     -11.046  12.079  68.045  1.00  0.00    -0.241 C  
BRANCH  12  13
HETATM   13  C   UNL     1     -11.421  12.971  66.853  1.00  0.00    -0.339 C  
HETATM   14  H   UNL     1     -12.586  12.840  65.272  1.00  0.00     0.000 HD 
HETATM   15  O   UNL     1     -12.354  12.289  66.009  1.00  0.00    -0.609 OA 
BRANCH  13  16
HETATM   16  C   UNL     1     -12.009  14.328  67.278  1.00  0.00    -0.405 C  
BRANCH  16  17
HETATM   17  N   UNL     1     -12.397  14.340  68.691  1.00  0.00    -0.571 NA 
HETATM   18  H   UNL     1     -12.130  13.466  69.144  1.00  0.00     0.000 HD 
BRANCH  17  19
HETATM   19  C   UNL     1     -11.877  15.489  69.440  1.00  0.00    -0.374 C  
HETATM   20  C   UNL     1     -12.474  15.608  70.845  1.00  0.00    -0.497 C  
HETATM   21  C   UNL     1     -10.358  15.326  69.545  1.00  0.00    -0.267 C  
ENDBRANCH  17  19
ENDBRANCH  16  17
ENDBRANCH  13  16
ENDBRANCH  12  13
ENDBRANCH  11  12
ENDBRANCH   8  11
ENDBRANCH   4   5
ENDBRANCH   3   4
ENDBRANCH   2   3
TORSDOF 9
ENDMDL
MODEL       29
REMARK 921   NORMALIZED FREE ENERGY PREDICTED BY IDOCK:   -4.84 KCAL/MOL
REMARK 922        TOTAL FREE ENERGY PREDICTED BY IDOCK:   -8.03 KCAL/MOL
REMARK 923 INTER-LIGAND FREE ENERGY PREDICTED BY IDOCK:   -7.69 KCAL/MOL
REMARK 924 INTRA-LIGAND FREE ENERGY PREDICTED BY IDOCK:   -0.34 KCAL/MOL
REMARK 927      BINDING AFFINITY PREDICTED BY RF-SCORE:    0.00 PKD
ROOT
HETATM    1  C   UNL     1      -8.936   8.558  71.711  1.00  0.00    -0.220 C  
HETATM    2  O   UNL     1      -9.169   9.560  70.728  1.00  0.00    -0.236 OA 
ENDROOT
BRANCH   2   3
HETATM    3  C   UNL     1     -10.547   9.602  70.356  1.00  0.00    -0.295 C  
BRANCH   3   4
HETATM    4  C   UNL     1     -10.667   9.492  68.834  1.00  0.00    -0.220 C  
BRANCH   4   5
HETATM    5  C   UNL     1     -11.069  10.801  68.201  1.00  0.00    -0.337 A  
HETATM    6  C   UNL     1     -11.490  11.854  69.016  1.00  0.00    -0.355 A  
HETATM    7  C   UNL     1     -11.884  13.069  68.462  1.00  0.00    -0.360 A  
HETATM    8  C   UNL     1     -11.854  13.270  67.082  1.00  0.00    -0.374 A  
HETATM    9  C   UNL     1     -11.028  11.000  66.815  1.00  0.00    -0.279 A  
HETATM   10  C   UNL     1     -11.421  12.229  66.260  1.00  0.00    -0.435 A  
BRANCH   8  11
HETATM   11  O   UNL     1     -12.221  14.438  66.457  1.00  0.00    -0.424 OA 
BRANCH  11  12
HETATM   12  C   UNL     1     -11.910  14.485  65.052  1.00  0.00    -0.399 C  
BRANCH  12  13
HETATM   13  C   UNL     1     -10.925  15.616  64.727  1.00  0.00    -0.400 C  
HETATM   14  H   UNL     1     -11.000  17.382  63.859  1.00  0.00     0.000 HD 
HETATM   15  O   UNL     1     -11.610  16.682  64.061  1.00  0.00    -1.197 OA 
BRANCH  13  16
HETATM   16  C   UNL     1     -10.207  16.166  65.972  1.00  0.00    -0.356 C  
BRANCH  16  17
HETATM   17  N   UNL     1      -9.740  17.541  65.775  1.00  0.00    -0.540 NA 
HETATM   18  H   UNL     1      -9.686  17.763  64.781  1.00  0.00     0.000 HD 
BRANCH  17  19
HETATM   19  C   UNL     1     -10.539  18.547  66.485  1.00  0.00    -0.334 C  
HETATM   20  C   UNL     1     -10.107  18.733  67.942  1.00  0.00    -0.415 C  
HETATM   21  C   UNL     1     -10.389  19.874  65.736  1.00  0.00    -0.512 C  
ENDBRANCH  17  19
ENDBRANCH  16  17
ENDBRANCH  13  16
ENDBRANCH  12  13
ENDBRANCH  11  12
ENDBRANCH   8  11
ENDBRANCH   4   5
ENDBRANCH   3   4
ENDBRANCH   2   3
TORSDOF 9
ENDMDL
MODEL       30
REMARK 921   NORMALIZED FREE ENERGY PREDICTED BY IDOCK:   -4.83 KCAL/MOL
REMARK 922        TOTAL FREE ENERGY PREDICTED BY IDOCK:   -8.01 KCAL/MOL
REMARK 923 INTER-LIGAND FREE ENERGY PREDICTED BY IDOCK:   -7.31 KCAL/MOL
REMARK 924 INTRA-LIGAND FREE ENERGY PREDICTED BY IDOCK:   -0.70 KCAL/MOL
REMARK 927      BINDING AFFINITY PREDICTED BY RF-SCORE:    0.00 PKD
ROOT
HETATM    1  C   UNL     1     -10.535  19.385  66.022  1.00  0.00    -0.505 C  
HETATM    2  O   UNL     1      -9.611  18.311  65.874  1.00  0.00    -0.510 OA 
ENDROOT
BRANCH   2   3
HETATM    3  C   UNL     1     -10.048  17.159  66.596  1.00  0.00    -0.306 C  
BRANCH   3   4
HETATM    4  C   UNL     1     -10.353  16.027  65.610  1.00  0.00    -0.414 C  
BRANCH   4   5
HETATM    5  C   UNL     1     -10.815  14.774  66.312  1.00  0.00    -0.322 A  
HETATM    6  C   UNL     1     -11.815  13.993  65.729  1.00  0.00    -0.393 A  
HETATM    7  C   UNL     1     -12.275  12.840  66.359  1.00  0.00    -0.242 A  
HETATM    8  C   UNL     1     -11.739  12.428  67.580  1.00  0.00    -0.346 A  
HETATM    9  C   UNL     1     -10.265  14.361  67.532  1.00  0.00    -0.240 A  
HETATM   10  C   UNL     1     -10.728  13.195  68.164  1.00  0.00    -0.258 A  
BRANCH   8  11
HETATM   11  O   UNL     1     -12.133  11.304  68.264  1.00  0.00    -0.619 OA 
BRANCH  11  12
HETATM   12  C   UNL     1     -11.458  11.101  69.519  1.00  0.00    -0.303 C  
BRANCH  12  13
HETATM   13  C   UNL     1     -12.420  10.606  70.608  1.00  0.00    -0.371 C  
HETATM   14  H   UNL     1     -12.358   9.337  72.111  1.00  0.00     0.000 HD 
HETATM   15  O   UNL     1     -11.763   9.643  71.437  1.00  0.00    -0.352 OA 
BRANCH  13  16
HETATM   16  C   UNL     1     -12.976  11.744  71.482  1.00  0.00    -0.341 C  
BRANCH  16  17
HETATM   17  N   UNL     1     -12.543  13.062  71.009  1.00  0.00    -0.349 NA 
HETATM   18  H   UNL     1     -12.539  13.094  69.990  1.00  0.00     0.000 HD 
BRANCH  17  19
HETATM   19  C   UNL     1     -13.326  14.176  71.558  1.00  0.00    -0.351 C  
HETATM   20  C   UNL     1     -13.052  14.425  73.043  1.00  0.00    -0.581 C  
HETATM   21  C   UNL     1     -12.970  15.432  70.757  1.00  0.00    -0.510 C  
ENDBRANCH  17  19
ENDBRANCH  16  17
ENDBRANCH  13  16
ENDBRANCH  12  13
ENDBRANCH  11  12
ENDBRANCH   8  11
ENDBRANCH   4   5
ENDBRANCH   3   4
ENDBRANCH   2   3
TORSDOF 9
ENDMDL
MODEL       31
REMARK 921   NORMALIZED FREE ENERGY PREDICTED BY IDOCK:   -4.82 KCAL/MOL
REMARK 922        TOTAL FREE ENERGY PREDICTED BY IDOCK:   -8.00 KCAL/MOL
REMARK 923 INTER-LIGAND FREE ENERGY PREDICTED BY IDOCK:   -7.17 KCAL/MOL
REMARK 924 INTRA-LIGAND FREE ENERGY PREDICTED BY IDOCK:   -0.82 KCAL/MOL
REMARK 927      BINDING AFFINITY PREDICTED BY RF-SCORE:    0.00 PKD
ROOT
HETATM    1  C   UNL     1     -10.831   5.864  69.734  1.00  0.00    -0.377 C  
HETATM    2  O   UNL     1     -11.139   6.777  70.783  1.00  0.00    -0.247 OA 
ENDROOT
BRANCH   2   3
HETATM    3  C   UNL     1      -9.964   7.450  71.237  1.00  0.00    -0.187 C  
BRANCH   3   4
HETATM    4  C   UNL     1     -10.329   8.869  71.680  1.00  0.00    -0.416 C  
BRANCH   4   5
HETATM    5  C   UNL     1     -10.740   9.737  70.517  1.00  0.00    -0.381 A  
HETATM    6  C   UNL     1     -11.750  10.685  70.694  1.00  0.00    -0.454 A  
HETATM    7  C   UNL     1     -12.163  11.490  69.636  1.00  0.00    -0.296 A  
HETATM    8  C   UNL     1     -11.570  11.381  68.377  1.00  0.00    -0.315 A  
HETATM    9  C   UNL     1     -10.133   9.629  69.259  1.00  0.00    -0.201 A  
HETATM   10  C   UNL     1     -10.549  10.446  68.194  1.00  0.00    -0.246 A  
BRANCH   8  11
HETATM   11  O   UNL     1     -11.915  12.139  67.285  1.00  0.00    -0.573 OA 
BRANCH  11  12
HETATM   12  C   UNL     1     -11.843  13.561  67.499  1.00  0.00    -0.368 C  
BRANCH  12  13
HETATM   13  C   UNL     1     -10.839  14.228  66.548  1.00  0.00    -0.304 C  
HETATM   14  H   UNL     1      -8.916  14.082  66.156  1.00  0.00     0.000 HD 
HETATM   15  O   UNL     1      -9.537  13.670  66.745  1.00  0.00    -0.258 OA 
BRANCH  13  16
HETATM   16  C   UNL     1     -11.236  14.096  65.066  1.00  0.00    -0.356 C  
BRANCH  16  17
HETATM   17  N   UNL     1     -10.220  13.382  64.287  1.00  0.00    -0.706 NA 
HETATM   18  H   UNL     1      -9.398  13.191  64.859  1.00  0.00     0.000 HD 
BRANCH  17  19
HETATM   19  C   UNL     1     -10.712  12.149  63.661  1.00  0.00    -0.467 C  
HETATM   20  C   UNL     1     -10.440  10.900  64.504  1.00  0.00    -0.393 C  
HETATM   21  C   UNL     1     -12.221  12.303  63.452  1.00  0.00    -0.630 C  
ENDBRANCH  17  19
ENDBRANCH  16  17
ENDBRANCH  13  16
ENDBRANCH  12  13
ENDBRANCH  11  12
ENDBRANCH   8  11
ENDBRANCH   4   5
ENDBRANCH   3   4
ENDBRANCH   2   3
TORSDOF 9
ENDMDL
MODEL       32
REMARK 921   NORMALIZED FREE ENERGY PREDICTED BY IDOCK:   -4.81 KCAL/MOL
REMARK 922        TOTAL FREE ENERGY PREDICTED BY IDOCK:   -7.99 KCAL/MOL
REMARK 923 INTER-LIGAND FREE ENERGY PREDICTED BY IDOCK:   -7.17 KCAL/MOL
REMARK 924 INTRA-LIGAND FREE ENERGY PREDICTED BY IDOCK:   -0.82 KCAL/MOL
REMARK 927      BINDING AFFINITY PREDICTED BY RF-SCORE:    0.00 PKD
ROOT
HETATM    1  C   UNL     1      -9.186   8.325  66.563  1.00  0.00    -0.187 C  
HETATM    2  O   UNL     1     -10.569   8.329  66.902  1.00  0.00    -0.321 OA 
ENDROOT
BRANCH   2   3
HETATM    3  C   UNL     1     -10.899   9.477  67.686  1.00  0.00    -0.187 C  
BRANCH   3   4
HETATM    4  C   UNL     1     -10.804   9.123  69.172  1.00  0.00    -0.131 C  
BRANCH   4   5
HETATM    5  C   UNL     1     -11.565  10.097  70.036  1.00  0.00    -0.323 A  
HETATM    6  C   UNL     1     -12.284   9.621  71.135  1.00  0.00    -0.437 A  
HETATM    7  C   UNL     1     -13.010  10.493  71.942  1.00  0.00    -0.553 A  
HETATM    8  C   UNL     1     -13.027  11.864  71.683  1.00  0.00    -0.342 A  
HETATM    9  C   UNL     1     -11.569  11.474  69.776  1.00  0.00    -0.401 A  
HETATM   10  C   UNL     1     -12.299  12.352  70.595  1.00  0.00    -0.367 A  
BRANCH   8  11
HETATM   11  O   UNL     1     -13.712  12.790  72.431  1.00  0.00    -0.546 OA 
BRANCH  11  12
HETATM   12  C   UNL     1     -14.106  13.969  71.706  1.00  0.00    -0.368 C  
BRANCH  12  13
HETATM   13  C   UNL     1     -13.551  15.246  72.354  1.00  0.00    -0.488 C  
HETATM   14  H   UNL     1     -12.630  15.725  74.025  1.00  0.00     0.000 HD 
HETATM   15  O   UNL     1     -12.973  14.935  73.625  1.00  0.00    -0.510 OA 
BRANCH  13  16
HETATM   16  C   UNL     1     -12.509  15.962  71.476  1.00  0.00    -0.428 C  
BRANCH  16  17
HETATM   17  N   UNL     1     -12.856  15.903  70.053  1.00  0.00    -0.630 NA 
HETATM   18  H   UNL     1     -13.457  16.686  69.798  1.00  0.00     0.000 HD 
BRANCH  17  19
HETATM   19  C   UNL     1     -11.693  15.831  69.161  1.00  0.00    -0.388 C  
HETATM   20  C   UNL     1     -10.410  15.413  69.884  1.00  0.00    -0.298 C  
HETATM   21  C   UNL     1     -12.012  14.814  68.062  1.00  0.00    -0.261 C  
ENDBRANCH  17  19
ENDBRANCH  16  17
ENDBRANCH  13  16
ENDBRANCH  12  13
ENDBRANCH  11  12
ENDBRANCH   8  11
ENDBRANCH   4   5
ENDBRANCH   3   4
ENDBRANCH   2   3
TORSDOF 9
ENDMDL
MODEL       33
REMARK 921   NORMALIZED FREE ENERGY PREDICTED BY IDOCK:   -4.78 KCAL/MOL
REMARK 922        TOTAL FREE ENERGY PREDICTED BY IDOCK:   -7.94 KCAL/MOL
REMARK 923 INTER-LIGAND FREE ENERGY PREDICTED BY IDOCK:   -7.01 KCAL/MOL
REMARK 924 INTRA-LIGAND FREE ENERGY PREDICTED BY IDOCK:   -0.93 KCAL/MOL
REMARK 927      BINDING AFFINITY PREDICTED BY RF-SCORE:    0.00 PKD
ROOT
HETATM    1  C   UNL     1     -10.030   7.599  69.060  1.00  0.00    -0.181 C  
HETATM    2  O   UNL     1      -9.154   7.881  67.974  1.00  0.00    -0.133 OA 
ENDROOT
BRANCH   2   3
HETATM    3  C   UNL     1      -9.889   8.111  66.771  1.00  0.00    -0.259 C  
BRANCH   3   4
HETATM    4  C   UNL     1      -9.150   9.141  65.912  1.00  0.00    -0.256 C  
BRANCH   4   5
HETATM    5  C   UNL     1     -10.053  10.267  65.477  1.00  0.00    -0.351 A  
HETATM    6  C   UNL     1     -10.136  10.593  64.121  1.00  0.00    -0.402 A  
HETATM    7  C   UNL     1     -10.948  11.637  63.689  1.00  0.00    -0.507 A  
HETATM    8  C   UNL     1     -11.710  12.376  64.595  1.00  0.00    -0.365 A  
HETATM    9  C   UNL     1     -10.824  10.998  66.391  1.00  0.00    -0.253 A  
HETATM   10  C   UNL     1     -11.646  12.048  65.951  1.00  0.00    -0.364 A  
BRANCH   8  11
HETATM   11  O   UNL     1     -12.538  13.416  64.250  1.00  0.00    -0.623 OA 
BRANCH  11  12
HETATM   12  C   UNL     1     -12.393  14.591  65.070  1.00  0.00    -0.349 C  
BRANCH  12  13
HETATM   13  C   UNL     1     -11.192  15.441  64.635  1.00  0.00    -0.364 C  
HETATM   14  H   UNL     1     -10.901  17.119  63.648  1.00  0.00     0.000 HD 
HETATM   15  O   UNL     1     -11.645  16.593  63.917  1.00  0.00    -1.204 OA 
BRANCH  13  16
HETATM   16  C   UNL     1     -10.310  15.885  65.816  1.00  0.00    -0.376 C  
BRANCH  16  17
HETATM   17  N   UNL     1     -10.862  15.458  67.104  1.00  0.00    -0.319 NA 
HETATM   18  H   UNL     1     -11.721  14.925  66.968  1.00  0.00     0.000 HD 
BRANCH  17  19
HETATM   19  C   UNL     1      -9.915  14.706  67.936  1.00  0.00    -0.221 C  
HETATM   20  C   UNL     1      -8.729  14.154  67.141  1.00  0.00    -0.239 C  
HETATM   21  C   UNL     1      -9.402  15.650  69.026  1.00  0.00    -0.243 C  
ENDBRANCH  17  19
ENDBRANCH  16  17
ENDBRANCH  13  16
ENDBRANCH  12  13
ENDBRANCH  11  12
ENDBRANCH   8  11
ENDBRANCH   4   5
ENDBRANCH   3   4
ENDBRANCH   2   3
TORSDOF 9
ENDMDL
MODEL       34
REMARK 921   NORMALIZED FREE ENERGY PREDICTED BY IDOCK:   -4.77 KCAL/MOL
REMARK 922        TOTAL FREE ENERGY PREDICTED BY IDOCK:   -7.92 KCAL/MOL
REMARK 923 INTER-LIGAND FREE ENERGY PREDICTED BY IDOCK:   -7.16 KCAL/MOL
REMARK 924 INTRA-LIGAND FREE ENERGY PREDICTED BY IDOCK:   -0.76 KCAL/MOL
REMARK 927      BINDING AFFINITY PREDICTED BY RF-SCORE:    0.00 PKD
ROOT
HETATM    1  C   UNL     1     -10.387   5.284  70.551  1.00  0.00    -0.266 C  
HETATM    2  O   UNL     1     -10.993   5.713  71.766  1.00  0.00    -0.256 OA 
ENDROOT
BRANCH   2   3
HETATM    3  C   UNL     1     -10.186   6.692  72.422  1.00  0.00    -0.180 C  
BRANCH   3   4
HETATM    4  C   UNL     1     -11.080   7.814  72.956  1.00  0.00    -0.419 C  
BRANCH   4   5
HETATM    5  C   UNL     1     -11.407   8.832  71.893  1.00  0.00    -0.431 A  
HETATM    6  C   UNL     1     -12.676   9.414  71.869  1.00  0.00    -0.484 A  
HETATM    7  C   UNL     1     -13.014  10.345  70.891  1.00  0.00    -0.475 A  
HETATM    8  C   UNL     1     -12.090  10.730  69.918  1.00  0.00    -0.337 A  
HETATM    9  C   UNL     1     -10.472   9.222  70.925  1.00  0.00    -0.372 A  
HETATM   10  C   UNL     1     -10.814  10.165  69.942  1.00  0.00    -0.347 A  
BRANCH   8  11
HETATM   11  O   UNL     1     -12.342  11.643  68.923  1.00  0.00    -0.355 OA 
BRANCH  11  12
HETATM   12  C   UNL     1     -11.884  12.978  69.208  1.00  0.00    -0.316 C  
BRANCH  12  13
HETATM   13  C   UNL     1     -11.209  13.619  67.988  1.00  0.00    -0.267 C  
HETATM   14  H   UNL     1      -9.666  13.230  66.829  1.00  0.00     0.000 HD 
HETATM   15  O   UNL     1     -10.084  12.833  67.585  1.00  0.00    -0.213 OA 
BRANCH  13  16
HETATM   16  C   UNL     1     -12.166  13.797  66.796  1.00  0.00    -0.397 C  
BRANCH  16  17
HETATM   17  N   UNL     1     -12.142  12.641  65.895  1.00  0.00    -0.563 NA 
HETATM   18  H   UNL     1     -13.025  12.132  65.942  1.00  0.00     0.000 HD 
BRANCH  17  19
HETATM   19  C   UNL     1     -11.813  12.978  64.505  1.00  0.00    -0.377 C  
HETATM   20  C   UNL     1     -12.524  12.082  63.488  1.00  0.00    -0.654 C  
HETATM   21  C   UNL     1     -12.219  14.435  64.271  1.00  0.00    -0.450 C  
ENDBRANCH  17  19
ENDBRANCH  16  17
ENDBRANCH  13  16
ENDBRANCH  12  13
ENDBRANCH  11  12
ENDBRANCH   8  11
ENDBRANCH   4   5
ENDBRANCH   3   4
ENDBRANCH   2   3
TORSDOF 9
ENDMDL
MODEL       35
REMARK 921   NORMALIZED FREE ENERGY PREDICTED BY IDOCK:   -4.77 KCAL/MOL
REMARK 922        TOTAL FREE ENERGY PREDICTED BY IDOCK:   -7.91 KCAL/MOL
REMARK 923 INTER-LIGAND FREE ENERGY PREDICTED BY IDOCK:   -7.09 KCAL/MOL
REMARK 924 INTRA-LIGAND FREE ENERGY PREDICTED BY IDOCK:   -0.83 KCAL/MOL
REMARK 927      BINDING AFFINITY PREDICTED BY RF-SCORE:    0.00 PKD
ROOT
HETATM    1  C   UNL     1      -7.625  19.339  68.471  1.00  0.00    -0.333 C  
HETATM    2  O   UNL     1      -8.456  20.160  67.658  1.00  0.00    -0.319 OA 
ENDROOT
BRANCH   2   3
HETATM    3  C   UNL     1      -9.714  19.530  67.413  1.00  0.00    -0.341 C  
BRANCH   3   4
HETATM    4  C   UNL     1     -10.006  18.525  68.530  1.00  0.00    -0.419 C  
BRANCH   4   5
HETATM    5  C   UNL     1     -10.539  17.221  67.994  1.00  0.00    -0.394 A  
HETATM    6  C   UNL     1     -10.403  16.933  66.634  1.00  0.00    -0.299 A  
HETATM    7  C   UNL     1     -10.898  15.745  66.105  1.00  0.00    -0.240 A  
HETATM    8  C   UNL     1     -11.531  14.805  66.921  1.00  0.00    -0.347 A  
HETATM    9  C   UNL     1     -11.164  16.277  68.820  1.00  0.00    -0.343 A  
HETATM   10  C   UNL     1     -11.659  15.077  68.284  1.00  0.00    -0.355 A  
BRANCH   8  11
HETATM   11  O   UNL     1     -12.042  13.609  66.479  1.00  0.00    -0.404 OA 
BRANCH  11  12
HETATM   12  C   UNL     1     -12.492  13.621  65.112  1.00  0.00    -0.449 C  
BRANCH  12  13
HETATM   13  C   UNL     1     -12.213  12.284  64.411  1.00  0.00    -0.402 C  
HETATM   14  H   UNL     1     -12.964  11.270  62.901  1.00  0.00     0.000 HD 
HETATM   15  O   UNL     1     -13.137  12.097  63.335  1.00  0.00    -0.752 OA 
BRANCH  13  16
HETATM   16  C   UNL     1     -10.773  12.173  63.879  1.00  0.00    -0.407 C  
BRANCH  16  17
HETATM   17  N   UNL     1      -9.780  12.360  64.940  1.00  0.00    -0.467 NA 
HETATM   18  H   UNL     1     -10.160  12.937  65.690  1.00  0.00     0.000 HD 
BRANCH  17  19
HETATM   19  C   UNL     1      -9.241  11.105  65.476  1.00  0.00    -0.216 C  
HETATM   20  C   UNL     1      -9.994  10.612  66.715  1.00  0.00    -0.254 C  
HETATM   21  C   UNL     1      -9.334  10.049  64.371  1.00  0.00    -0.348 C  
ENDBRANCH  17  19
ENDBRANCH  16  17
ENDBRANCH  13  16
ENDBRANCH  12  13
ENDBRANCH  11  12
ENDBRANCH   8  11
ENDBRANCH   4   5
ENDBRANCH   3   4
ENDBRANCH   2   3
TORSDOF 9
ENDMDL
MODEL       36
REMARK 921   NORMALIZED FREE ENERGY PREDICTED BY IDOCK:   -4.74 KCAL/MOL
REMARK 922        TOTAL FREE ENERGY PREDICTED BY IDOCK:   -7.88 KCAL/MOL
REMARK 923 INTER-LIGAND FREE ENERGY PREDICTED BY IDOCK:   -7.10 KCAL/MOL
REMARK 924 INTRA-LIGAND FREE ENERGY PREDICTED BY IDOCK:   -0.78 KCAL/MOL
REMARK 927      BINDING AFFINITY PREDICTED BY RF-SCORE:    0.00 PKD
ROOT
HETATM    1  C   UNL     1     -11.889  16.260  72.219  1.00  0.00    -0.511 C  
HETATM    2  O   UNL     1     -13.208  15.953  72.659  1.00  0.00    -0.470 OA 
ENDROOT
BRANCH   2   3
HETATM    3  C   UNL     1     -13.819  14.985  71.804  1.00  0.00    -0.479 C  
BRANCH   3   4
HETATM    4  C   UNL     1     -13.699  13.597  72.439  1.00  0.00    -0.697 C  
BRANCH   4   5
HETATM    5  C   UNL     1     -13.027  12.610  71.519  1.00  0.00    -0.380 A  
HETATM    6  C   UNL     1     -13.112  11.244  71.799  1.00  0.00    -0.527 A  
HETATM    7  C   UNL     1     -12.489  10.309  70.978  1.00  0.00    -0.484 A  
HETATM    8  C   UNL     1     -11.776  10.709  69.848  1.00  0.00    -0.317 A  
HETATM    9  C   UNL     1     -12.321  13.018  70.379  1.00  0.00    -0.351 A  
HETATM   10  C   UNL     1     -11.697  12.071  69.550  1.00  0.00    -0.408 A  
BRANCH   8  11
HETATM   11  O   UNL     1     -11.138   9.852  68.985  1.00  0.00    -0.213 OA 
BRANCH  11  12
HETATM   12  C   UNL     1     -11.104  10.297  67.617  1.00  0.00    -0.251 C  
BRANCH  12  13
HETATM   13  C   UNL     1      -9.909   9.705  66.856  1.00  0.00    -0.200 C  
HETATM   14  H   UNL     1      -7.977  10.053  66.721  1.00  0.00     0.000 HD 
HETATM   15  O   UNL     1      -8.716  10.420  67.192  1.00  0.00    -0.129 OA 
BRANCH  13  16
HETATM   16  C   UNL     1      -9.705   8.205  67.131  1.00  0.00    -0.199 C  
BRANCH  16  17
HETATM   17  N   UNL     1     -10.911   7.424  66.841  1.00  0.00    -0.572 NA 
HETATM   18  H   UNL     1     -11.017   7.287  65.836  1.00  0.00     0.000 HD 
BRANCH  17  19
HETATM   19  C   UNL     1     -10.970   6.139  67.547  1.00  0.00    -0.307 C  
HETATM   20  C   UNL     1      -9.820   5.199  67.175  1.00  0.00    -0.191 C  
HETATM   21  C   UNL     1     -10.922   6.431  69.050  1.00  0.00    -0.410 C  
ENDBRANCH  17  19
ENDBRANCH  16  17
ENDBRANCH  13  16
ENDBRANCH  12  13
ENDBRANCH  11  12
ENDBRANCH   8  11
ENDBRANCH   4   5
ENDBRANCH   3   4
ENDBRANCH   2   3
TORSDOF 9
ENDMDL
MODEL       37
REMARK 921   NORMALIZED FREE ENERGY PREDICTED BY IDOCK:   -4.73 KCAL/MOL
REMARK 922        TOTAL FREE ENERGY PREDICTED BY IDOCK:   -7.86 KCAL/MOL
REMARK 923 INTER-LIGAND FREE ENERGY PREDICTED BY IDOCK:   -7.08 KCAL/MOL
REMARK 924 INTRA-LIGAND FREE ENERGY PREDICTED BY IDOCK:   -0.77 KCAL/MOL
REMARK 927      BINDING AFFINITY PREDICTED BY RF-SCORE:    0.00 PKD
ROOT
HETATM    1  C   UNL     1     -10.473  17.411  68.523  1.00  0.00    -0.370 C  
HETATM    2  O   UNL     1     -10.758  16.570  69.635  1.00  0.00    -0.322 OA 
ENDROOT
BRANCH   2   3
HETATM    3  C   UNL     1     -11.914  15.769  69.387  1.00  0.00    -0.305 C  
BRANCH   3   4
HETATM    4  C   UNL     1     -12.445  15.217  70.713  1.00  0.00    -0.457 C  
BRANCH   4   5
HETATM    5  C   UNL     1     -12.452  13.710  70.737  1.00  0.00    -0.432 A  
HETATM    6  C   UNL     1     -13.054  13.045  71.808  1.00  0.00    -0.469 A  
HETATM    7  C   UNL     1     -13.063  11.654  71.867  1.00  0.00    -0.490 A  
HETATM    8  C   UNL     1     -12.483  10.889  70.854  1.00  0.00    -0.408 A  
HETATM    9  C   UNL     1     -11.877  12.948  69.712  1.00  0.00    -0.380 A  
HETATM   10  C   UNL     1     -11.891  11.544  69.773  1.00  0.00    -0.429 A  
BRANCH   8  11
HETATM   11  O   UNL     1     -12.453   9.516  70.835  1.00  0.00    -0.280 OA 
BRANCH  11  12
HETATM   12  C   UNL     1     -12.120   8.909  72.097  1.00  0.00    -0.359 C  
BRANCH  12  13
HETATM   13  C   UNL     1     -12.182   7.377  72.024  1.00  0.00    -0.280 C  
HETATM   14  H   UNL     1     -13.537   6.013  71.602  1.00  0.00     0.000 HD 
HETATM   15  O   UNL     1     -13.498   6.961  71.648  1.00  0.00    -0.330 OA 
BRANCH  13  16
HETATM   16  C   UNL     1     -11.155   6.779  71.047  1.00  0.00    -0.273 C  
BRANCH  16  17
HETATM   17  N   UNL     1     -11.669   6.723  69.675  1.00  0.00    -0.642 NA 
HETATM   18  H   UNL     1     -12.374   7.445  69.527  1.00  0.00     0.000 HD 
BRANCH  17  19
HETATM   19  C   UNL     1     -10.625   6.802  68.646  1.00  0.00    -0.227 C  
HETATM   20  C   UNL     1     -11.139   6.459  67.246  1.00  0.00    -0.416 C  
HETATM   21  C   UNL     1     -10.076   8.231  68.650  1.00  0.00    -0.212 C  
ENDBRANCH  17  19
ENDBRANCH  16  17
ENDBRANCH  13  16
ENDBRANCH  12  13
ENDBRANCH  11  12
ENDBRANCH   8  11
ENDBRANCH   4   5
ENDBRANCH   3   4
ENDBRANCH   2   3
TORSDOF 9
ENDMDL
MODEL       38
REMARK 921   NORMALIZED FREE ENERGY PREDICTED BY IDOCK:   -4.72 KCAL/MOL
REMARK 922        TOTAL FREE ENERGY PREDICTED BY IDOCK:   -7.84 KCAL/MOL
REMARK 923 INTER-LIGAND FREE ENERGY PREDICTED BY IDOCK:   -6.67 KCAL/MOL
REMARK 924 INTRA-LIGAND FREE ENERGY PREDICTED BY IDOCK:   -1.17 KCAL/MOL
REMARK 927      BINDING AFFINITY PREDICTED BY RF-SCORE:    0.00 PKD
ROOT
HETATM    1  C   UNL     1     -11.957  12.703  63.783  1.00  0.00    -0.510 C  
HETATM    2  O   UNL     1     -12.831  12.818  64.902  1.00  0.00    -0.722 OA 
ENDROOT
BRANCH   2   3
HETATM    3  C   UNL     1     -12.171  13.444  66.003  1.00  0.00    -0.437 C  
BRANCH   3   4
HETATM    4  C   UNL     1     -10.794  12.804  66.201  1.00  0.00    -0.303 C  
BRANCH   4   5
HETATM    5  C   UNL     1     -10.761  11.894  67.404  1.00  0.00    -0.271 A  
HETATM    6  C   UNL     1     -11.868  11.841  68.253  1.00  0.00    -0.340 A  
HETATM    7  C   UNL     1     -11.862  11.024  69.380  1.00  0.00    -0.407 A  
HETATM    8  C   UNL     1     -10.756  10.229  69.683  1.00  0.00    -0.264 A  
HETATM    9  C   UNL     1      -9.651  11.090  67.697  1.00  0.00    -0.181 A  
HETATM   10  C   UNL     1      -9.650  10.263  68.832  1.00  0.00    -0.193 A  
BRANCH   8  11
HETATM   11  O   UNL     1     -10.672   9.393  70.770  1.00  0.00    -0.255 OA 
BRANCH  11  12
HETATM   12  C   UNL     1     -11.880   9.302  71.548  1.00  0.00    -0.374 C  
BRANCH  12  13
HETATM   13  C   UNL     1     -12.231   7.846  71.883  1.00  0.00    -0.314 C  
HETATM   14  H   UNL     1     -13.826   6.696  71.797  1.00  0.00     0.000 HD 
HETATM   15  O   UNL     1     -13.609   7.597  71.590  1.00  0.00    -0.360 OA 
BRANCH  13  16
HETATM   16  C   UNL     1     -11.354   6.828  71.132  1.00  0.00    -0.296 C  
BRANCH  16  17
HETATM   17  N   UNL     1     -11.781   6.656  69.741  1.00  0.00    -0.650 NA 
HETATM   18  H   UNL     1     -12.257   7.494  69.405  1.00  0.00     0.000 HD 
BRANCH  17  19
HETATM   19  C   UNL     1     -10.695   6.278  68.829  1.00  0.00    -0.297 C  
HETATM   20  C   UNL     1     -10.654   7.134  67.560  1.00  0.00    -0.348 C  
HETATM   21  C   UNL     1      -9.375   6.433  69.589  1.00  0.00    -0.148 C  
ENDBRANCH  17  19
ENDBRANCH  16  17
ENDBRANCH  13  16
ENDBRANCH  12  13
ENDBRANCH  11  12
ENDBRANCH   8  11
ENDBRANCH   4   5
ENDBRANCH   3   4
ENDBRANCH   2   3
TORSDOF 9
ENDMDL
MODEL       39
REMARK 921   NORMALIZED FREE ENERGY PREDICTED BY IDOCK:   -4.72 KCAL/MOL
REMARK 922        TOTAL FREE ENERGY PREDICTED BY IDOCK:   -7.84 KCAL/MOL
REMARK 923 INTER-LIGAND FREE ENERGY PREDICTED BY IDOCK:   -7.01 KCAL/MOL
REMARK 924 INTRA-LIGAND FREE ENERGY PREDICTED BY IDOCK:   -0.83 KCAL/MOL
REMARK 927      BINDING AFFINITY PREDICTED BY RF-SCORE:    0.00 PKD
ROOT
HETATM    1  C   UNL     1     -14.133   7.324  71.510  1.00  0.00    -0.378 C  
HETATM    2  O   UNL     1     -12.796   7.108  71.948  1.00  0.00    -0.318 OA 
ENDROOT
BRANCH   2   3
HETATM    3  C   UNL     1     -11.922   6.899  70.838  1.00  0.00    -0.381 C  
BRANCH   3   4
HETATM    4  C   UNL     1     -10.775   7.912  70.896  1.00  0.00    -0.234 C  
BRANCH   4   5
HETATM    5  C   UNL     1     -11.110   9.189  70.167  1.00  0.00    -0.248 A  
HETATM    6  C   UNL     1     -11.772  10.213  70.849  1.00  0.00    -0.468 A  
HETATM    7  C   UNL     1     -12.109  11.397  70.200  1.00  0.00    -0.439 A  
HETATM    8  C   UNL     1     -11.784  11.598  68.858  1.00  0.00    -0.334 A  
HETATM    9  C   UNL     1     -10.770   9.388  68.823  1.00  0.00    -0.200 A  
HETATM   10  C   UNL     1     -11.108  10.587  68.172  1.00  0.00    -0.346 A  
BRANCH   8  11
HETATM   11  O   UNL     1     -12.076  12.736  68.148  1.00  0.00    -0.288 OA 
BRANCH  11  12
HETATM   12  C   UNL     1     -10.931  13.546  67.821  1.00  0.00    -0.266 C  
BRANCH  12  13
HETATM   13  C   UNL     1     -10.612  14.553  68.935  1.00  0.00    -0.249 C  
HETATM   14  H   UNL     1      -9.265  15.949  69.266  1.00  0.00     0.000 HD 
HETATM   15  O   UNL     1      -9.463  15.326  68.577  1.00  0.00    -0.189 OA 
BRANCH  13  16
HETATM   16  C   UNL     1     -11.788  15.494  69.250  1.00  0.00    -0.353 C  
BRANCH  16  17
HETATM   17  N   UNL     1     -12.792  14.852  70.103  1.00  0.00    -0.598 NA 
HETATM   18  H   UNL     1     -12.531  13.886  70.299  1.00  0.00     0.000 HD 
BRANCH  17  19
HETATM   19  C   UNL     1     -13.064  15.577  71.349  1.00  0.00    -0.507 C  
HETATM   20  C   UNL     1     -14.369  15.142  72.022  1.00  0.00    -0.682 C  
HETATM   21  C   UNL     1     -11.891  15.322  72.301  1.00  0.00    -0.529 C  
ENDBRANCH  17  19
ENDBRANCH  16  17
ENDBRANCH  13  16
ENDBRANCH  12  13
ENDBRANCH  11  12
ENDBRANCH   8  11
ENDBRANCH   4   5
ENDBRANCH   3   4
ENDBRANCH   2   3
TORSDOF 9
ENDMDL
MODEL       40
REMARK 921   NORMALIZED FREE ENERGY PREDICTED BY IDOCK:   -4.70 KCAL/MOL
REMARK 922        TOTAL FREE ENERGY PREDICTED BY IDOCK:   -7.81 KCAL/MOL
REMARK 923 INTER-LIGAND FREE ENERGY PREDICTED BY IDOCK:   -7.08 KCAL/MOL
REMARK 924 INTRA-LIGAND FREE ENERGY PREDICTED BY IDOCK:   -0.73 KCAL/MOL
REMARK 927      BINDING AFFINITY PREDICTED BY RF-SCORE:    0.00 PKD
ROOT
HETATM    1  C   UNL     1     -12.107  14.671  64.247  1.00  0.00    -0.415 C  
HETATM    2  O   UNL     1     -12.627  13.770  63.275  1.00  0.00    -0.830 OA 
ENDROOT
BRANCH   2   3
HETATM    3  C   UNL     1     -12.316  12.418  63.614  1.00  0.00    -0.548 C  
BRANCH   3   4
HETATM    4  C   UNL     1     -10.912  12.356  64.222  1.00  0.00    -0.396 C  
BRANCH   4   5
HETATM    5  C   UNL     1     -10.887  11.570  65.509  1.00  0.00    -0.313 A  
HETATM    6  C   UNL     1     -10.196  10.357  65.557  1.00  0.00    -0.316 A  
HETATM    7  C   UNL     1     -10.167   9.601  66.725  1.00  0.00    -0.308 A  
HETATM    8  C   UNL     1     -10.815  10.041  67.880  1.00  0.00    -0.271 A  
HETATM    9  C   UNL     1     -11.531  12.022  66.668  1.00  0.00    -0.411 A  
HETATM   10  C   UNL     1     -11.496  11.259  67.846  1.00  0.00    -0.360 A  
BRANCH   8  11
HETATM   11  O   UNL     1     -10.831   9.358  69.072  1.00  0.00    -0.211 OA 
BRANCH  11  12
HETATM   12  C   UNL     1     -10.680  10.189  70.238  1.00  0.00    -0.293 C  
BRANCH  12  13
HETATM   13  C   UNL     1     -11.799   9.942  71.259  1.00  0.00    -0.395 C  
HETATM   14  H   UNL     1     -13.766  10.005  71.278  1.00  0.00     0.000 HD 
HETATM   15  O   UNL     1     -13.074  10.158  70.646  1.00  0.00    -0.341 OA 
BRANCH  13  16
HETATM   16  C   UNL     1     -11.755   8.531  71.871  1.00  0.00    -0.341 C  
BRANCH  16  17
HETATM   17  N   UNL     1     -12.131   7.499  70.900  1.00  0.00    -0.455 NA 
HETATM   18  H   UNL     1     -12.082   7.866  69.950  1.00  0.00     0.000 HD 
BRANCH  17  19
HETATM   19  C   UNL     1     -11.352   6.261  71.017  1.00  0.00    -0.316 C  
HETATM   20  C   UNL     1      -9.881   6.442  70.634  1.00  0.00    -0.206 C  
HETATM   21  C   UNL     1     -11.445   5.789  72.471  1.00  0.00    -0.349 C  
ENDBRANCH  17  19
ENDBRANCH  16  17
ENDBRANCH  13  16
ENDBRANCH  12  13
ENDBRANCH  11  12
ENDBRANCH   8  11
ENDBRANCH   4   5
ENDBRANCH   3   4
ENDBRANCH   2   3
TORSDOF 9
ENDMDL
MODEL       41
REMARK 921   NORMALIZED FREE ENERGY PREDICTED BY IDOCK:   -4.70 KCAL/MOL
REMARK 922        TOTAL FREE ENERGY PREDICTED BY IDOCK:   -7.81 KCAL/MOL
REMARK 923 INTER-LIGAND FREE ENERGY PREDICTED BY IDOCK:   -7.00 KCAL/MOL
REMARK 924 INTRA-LIGAND FREE ENERGY PREDICTED BY IDOCK:   -0.81 KCAL/MOL
REMARK 927      BINDING AFFINITY PREDICTED BY RF-SCORE:    0.00 PKD
ROOT
HETATM    1  C   UNL     1     -10.541   4.952  72.448  1.00  0.00    -0.200 C  
HETATM    2  O   UNL     1     -11.030   6.289  72.489  1.00  0.00    -0.228 OA 
ENDROOT
BRANCH   2   3
HETATM    3  C   UNL     1     -11.864   6.563  71.362  1.00  0.00    -0.329 C  
BRANCH   3   4
HETATM    4  C   UNL     1     -12.993   7.508  71.782  1.00  0.00    -0.364 C  
BRANCH   4   5
HETATM    5  C   UNL     1     -12.685   8.944  71.440  1.00  0.00    -0.350 A  
HETATM    6  C   UNL     1     -13.405   9.966  72.064  1.00  0.00    -0.532 A  
HETATM    7  C   UNL     1     -13.156  11.300  71.758  1.00  0.00    -0.527 A  
HETATM    8  C   UNL     1     -12.172  11.653  70.833  1.00  0.00    -0.298 A  
HETATM    9  C   UNL     1     -11.689   9.292  70.518  1.00  0.00    -0.225 A  
HETATM   10  C   UNL     1     -11.437  10.640  70.215  1.00  0.00    -0.422 A  
BRANCH   8  11
HETATM   11  O   UNL     1     -11.862  12.943  70.479  1.00  0.00    -0.253 OA 
BRANCH  11  12
HETATM   12  C   UNL     1     -12.742  13.941  71.029  1.00  0.00    -0.357 C  
BRANCH  12  13
HETATM   13  C   UNL     1     -12.503  15.319  70.397  1.00  0.00    -0.381 C  
HETATM   14  H   UNL     1     -11.553  16.975  70.877  1.00  0.00     0.000 HD 
HETATM   15  O   UNL     1     -11.701  16.122  71.268  1.00  0.00    -0.434 OA 
BRANCH  13  16
HETATM   16  C   UNL     1     -11.837  15.239  69.012  1.00  0.00    -0.318 C  
BRANCH  16  17
HETATM   17  N   UNL     1     -12.534  14.308  68.120  1.00  0.00    -0.500 NA 
HETATM   18  H   UNL     1     -13.422  14.703  67.812  1.00  0.00     0.000 HD 
BRANCH  17  19
HETATM   19  C   UNL     1     -11.733  13.877  66.968  1.00  0.00    -0.397 C  
HETATM   20  C   UNL     1     -11.390  12.385  67.002  1.00  0.00    -0.388 C  
HETATM   21  C   UNL     1     -12.537  14.186  65.702  1.00  0.00    -0.495 C  
ENDBRANCH  17  19
ENDBRANCH  16  17
ENDBRANCH  13  16
ENDBRANCH  12  13
ENDBRANCH  11  12
ENDBRANCH   8  11
ENDBRANCH   4   5
ENDBRANCH   3   4
ENDBRANCH   2   3
TORSDOF 9
ENDMDL
MODEL       42
REMARK 921   NORMALIZED FREE ENERGY PREDICTED BY IDOCK:   -4.69 KCAL/MOL
REMARK 922        TOTAL FREE ENERGY PREDICTED BY IDOCK:   -7.80 KCAL/MOL
REMARK 923 INTER-LIGAND FREE ENERGY PREDICTED BY IDOCK:   -7.29 KCAL/MOL
REMARK 924 INTRA-LIGAND FREE ENERGY PREDICTED BY IDOCK:   -0.50 KCAL/MOL
REMARK 927      BINDING AFFINITY PREDICTED BY RF-SCORE:    0.00 PKD
ROOT
HETATM    1  C   UNL     1     -12.709   6.918  71.529  1.00  0.00    -0.349 C  
HETATM    2  O   UNL     1     -14.043   7.375  71.330  1.00  0.00    -0.427 OA 
ENDROOT
BRANCH   2   3
HETATM    3  C   UNL     1     -14.194   8.722  71.781  1.00  0.00    -0.365 C  
BRANCH   3   4
HETATM    4  C   UNL     1     -12.815   9.314  72.084  1.00  0.00    -0.485 C  
BRANCH   4   5
HETATM    5  C   UNL     1     -12.549  10.567  71.288  1.00  0.00    -0.531 A  
HETATM    6  C   UNL     1     -12.945  11.803  71.804  1.00  0.00    -0.466 A  
HETATM    7  C   UNL     1     -12.728  12.976  71.086  1.00  0.00    -0.372 A  
HETATM    8  C   UNL     1     -12.099  12.948  69.840  1.00  0.00    -0.265 A  
HETATM    9  C   UNL     1     -11.908  10.534  70.042  1.00  0.00    -0.388 A  
HETATM   10  C   UNL     1     -11.687  11.719  69.322  1.00  0.00    -0.398 A  
BRANCH   8  11
HETATM   11  O   UNL     1     -11.845  14.058  69.072  1.00  0.00    -0.312 OA 
BRANCH  11  12
HETATM   12  C   UNL     1     -12.004  13.853  67.656  1.00  0.00    -0.368 C  
BRANCH  12  13
HETATM   13  C   UNL     1     -10.800  14.385  66.866  1.00  0.00    -0.301 C  
HETATM   14  H   UNL     1      -9.049  13.702  66.283  1.00  0.00     0.000 HD 
HETATM   15  O   UNL     1      -9.794  13.373  66.772  1.00  0.00    -0.250 OA 
BRANCH  13  16
HETATM   16  C   UNL     1     -11.174  14.872  65.454  1.00  0.00    -0.359 C  
BRANCH  16  17
HETATM   17  N   UNL     1     -10.516  16.137  65.118  1.00  0.00    -0.608 NA 
HETATM   18  H   UNL     1     -11.160  16.757  64.627  1.00  0.00     0.000 HD 
BRANCH  17  19
HETATM   19  C   UNL     1      -9.920  16.821  66.271  1.00  0.00    -0.320 C  
HETATM   20  C   UNL     1      -8.391  16.881  66.207  1.00  0.00    -0.331 C  
HETATM   21  C   UNL     1     -10.483  18.245  66.310  1.00  0.00    -0.397 C  
ENDBRANCH  17  19
ENDBRANCH  16  17
ENDBRANCH  13  16
ENDBRANCH  12  13
ENDBRANCH  11  12
ENDBRANCH   8  11
ENDBRANCH   4   5
ENDBRANCH   3   4
ENDBRANCH   2   3
TORSDOF 9
ENDMDL
MODEL       43
REMARK 921   NORMALIZED FREE ENERGY PREDICTED BY IDOCK:   -4.69 KCAL/MOL
REMARK 922        TOTAL FREE ENERGY PREDICTED BY IDOCK:   -7.79 KCAL/MOL
REMARK 923 INTER-LIGAND FREE ENERGY PREDICTED BY IDOCK:   -7.16 KCAL/MOL
REMARK 924 INTRA-LIGAND FREE ENERGY PREDICTED BY IDOCK:   -0.63 KCAL/MOL
REMARK 927      BINDING AFFINITY PREDICTED BY RF-SCORE:    0.00 PKD
ROOT
HETATM    1  C   UNL     1     -12.642  16.017  73.391  1.00  0.00    -0.561 C  
HETATM    2  O   UNL     1     -14.032  15.862  73.125  1.00  0.00    -0.500 OA 
ENDROOT
BRANCH   2   3
HETATM    3  C   UNL     1     -14.249  14.926  72.069  1.00  0.00    -0.546 C  
BRANCH   3   4
HETATM    4  C   UNL     1     -13.674  13.565  72.469  1.00  0.00    -0.664 C  
BRANCH   4   5
HETATM    5  C   UNL     1     -12.893  12.928  71.347  1.00  0.00    -0.377 A  
HETATM    6  C   UNL     1     -12.382  13.733  70.326  1.00  0.00    -0.407 A  
HETATM    7  C   UNL     1     -11.671  13.174  69.268  1.00  0.00    -0.376 A  
HETATM    8  C   UNL     1     -11.438  11.800  69.207  1.00  0.00    -0.306 A  
HETATM    9  C   UNL     1     -12.653  11.549  71.297  1.00  0.00    -0.452 A  
HETATM   10  C   UNL     1     -11.931  10.989  70.231  1.00  0.00    -0.452 A  
BRANCH   8  11
HETATM   11  O   UNL     1     -10.743  11.171  68.203  1.00  0.00    -0.181 OA 
BRANCH  11  12
HETATM   12  C   UNL     1     -11.285  11.374  66.884  1.00  0.00    -0.264 C  
BRANCH  12  13
HETATM   13  C   UNL     1     -10.213  11.861  65.899  1.00  0.00    -0.236 C  
HETATM   14  H   UNL     1     -10.173  12.774  64.156  1.00  0.00     0.000 HD 
HETATM   15  O   UNL     1     -10.836  12.473  64.766  1.00  0.00    -0.277 OA 
BRANCH  13  16
HETATM   16  C   UNL     1      -9.216  12.847  66.533  1.00  0.00    -0.182 C  
BRANCH  16  17
HETATM   17  N   UNL     1      -9.181  14.127  65.820  1.00  0.00    -0.474 NA 
HETATM   18  H   UNL     1      -9.855  14.130  65.054  1.00  0.00     0.000 HD 
BRANCH  17  19
HETATM   19  C   UNL     1      -9.380  15.295  66.686  1.00  0.00    -0.260 C  
HETATM   20  C   UNL     1      -8.787  16.581  66.103  1.00  0.00    -0.342 C  
HETATM   21  C   UNL     1     -10.887  15.475  66.886  1.00  0.00    -0.301 C  
ENDBRANCH  17  19
ENDBRANCH  16  17
ENDBRANCH  13  16
ENDBRANCH  12  13
ENDBRANCH  11  12
ENDBRANCH   8  11
ENDBRANCH   4   5
ENDBRANCH   3   4
ENDBRANCH   2   3
TORSDOF 9
ENDMDL
MODEL       44
REMARK 921   NORMALIZED FREE ENERGY PREDICTED BY IDOCK:   -4.68 KCAL/MOL
REMARK 922        TOTAL FREE ENERGY PREDICTED BY IDOCK:   -7.79 KCAL/MOL
REMARK 923 INTER-LIGAND FREE ENERGY PREDICTED BY IDOCK:   -6.78 KCAL/MOL
REMARK 924 INTRA-LIGAND FREE ENERGY PREDICTED BY IDOCK:   -1.00 KCAL/MOL
REMARK 927      BINDING AFFINITY PREDICTED BY RF-SCORE:    0.00 PKD
ROOT
HETATM    1  C   UNL     1      -7.269  19.651  68.936  1.00  0.00    -0.346 C  
HETATM    2  O   UNL     1      -7.510  19.073  67.657  1.00  0.00    -0.227 OA 
ENDROOT
BRANCH   2   3
HETATM    3  C   UNL     1      -8.335  19.923  66.859  1.00  0.00    -0.321 C  
BRANCH   3   4
HETATM    4  C   UNL     1      -9.800  19.735  67.264  1.00  0.00    -0.513 C  
BRANCH   4   5
HETATM    5  C   UNL     1     -10.198  18.281  67.289  1.00  0.00    -0.387 A  
HETATM    6  C   UNL     1     -10.172  17.544  66.103  1.00  0.00    -0.339 A  
HETATM    7  C   UNL     1     -10.549  16.204  66.089  1.00  0.00    -0.288 A  
HETATM    8  C   UNL     1     -10.949  15.560  67.261  1.00  0.00    -0.303 A  
HETATM    9  C   UNL     1     -10.589  17.638  68.470  1.00  0.00    -0.281 A  
HETATM   10  C   UNL     1     -10.965  16.284  68.454  1.00  0.00    -0.351 A  
BRANCH   8  11
HETATM   11  O   UNL     1     -11.332  14.243  67.334  1.00  0.00    -0.302 OA 
BRANCH  11  12
HETATM   12  C   UNL     1     -10.344  13.366  67.907  1.00  0.00    -0.238 C  
BRANCH  12  13
HETATM   13  C   UNL     1     -10.527  11.918  67.433  1.00  0.00    -0.217 C  
HETATM   14  H   UNL     1     -12.034  10.707  67.061  1.00  0.00     0.000 HD 
HETATM   15  O   UNL     1     -11.920  11.603  67.354  1.00  0.00    -0.621 OA 
BRANCH  13  16
HETATM   16  C   UNL     1      -9.860  11.641  66.073  1.00  0.00    -0.230 C  
BRANCH  16  17
HETATM   17  N   UNL     1      -9.836  12.833  65.221  1.00  0.00    -0.462 NA 
HETATM   18  H   UNL     1      -8.881  13.172  65.104  1.00  0.00     0.000 HD 
BRANCH  17  19
HETATM   19  C   UNL     1     -10.480  12.643  63.916  1.00  0.00    -0.411 C  
HETATM   20  C   UNL     1     -10.505  11.179  63.469  1.00  0.00    -0.422 C  
HETATM   21  C   UNL     1     -11.916  13.166  64.025  1.00  0.00    -0.524 C  
ENDBRANCH  17  19
ENDBRANCH  16  17
ENDBRANCH  13  16
ENDBRANCH  12  13
ENDBRANCH  11  12
ENDBRANCH   8  11
ENDBRANCH   4   5
ENDBRANCH   3   4
ENDBRANCH   2   3
TORSDOF 9
ENDMDL
MODEL       45
REMARK 921   NORMALIZED FREE ENERGY PREDICTED BY IDOCK:   -4.68 KCAL/MOL
REMARK 922        TOTAL FREE ENERGY PREDICTED BY IDOCK:   -7.79 KCAL/MOL
REMARK 923 INTER-LIGAND FREE ENERGY PREDICTED BY IDOCK:   -6.92 KCAL/MOL
REMARK 924 INTRA-LIGAND FREE ENERGY PREDICTED BY IDOCK:   -0.87 KCAL/MOL
REMARK 927      BINDING AFFINITY PREDICTED BY RF-SCORE:    0.00 PKD
ROOT
HETATM    1  C   UNL     1      -5.543  21.096  66.956  1.00  0.00    -0.265 C  
HETATM    2  O   UNL     1      -6.679  20.989  67.807  1.00  0.00    -0.332 OA 
ENDROOT
BRANCH   2   3
HETATM    3  C   UNL     1      -7.819  20.524  67.083  1.00  0.00    -0.315 C  
BRANCH   3   4
HETATM    4  C   UNL     1      -8.630  19.572  67.967  1.00  0.00    -0.365 C  
BRANCH   4   5
HETATM    5  C   UNL     1      -9.078  18.344  67.215  1.00  0.00    -0.268 A  
HETATM    6  C   UNL     1      -8.421  17.131  67.432  1.00  0.00    -0.202 A  
HETATM    7  C   UNL     1      -8.800  15.983  66.741  1.00  0.00    -0.288 A  
HETATM    8  C   UNL     1      -9.853  16.012  65.826  1.00  0.00    -0.323 A  
HETATM    9  C   UNL     1     -10.143  18.377  66.305  1.00  0.00    -0.409 A  
HETATM   10  C   UNL     1     -10.525  17.217  65.613  1.00  0.00    -0.208 A  
BRANCH   8  11
HETATM   11  O   UNL     1     -10.291  14.925  65.109  1.00  0.00    -0.382 OA 
BRANCH  11  12
HETATM   12  C   UNL     1     -11.651  15.025  64.646  1.00  0.00    -0.386 C  
BRANCH  12  13
HETATM   13  C   UNL     1     -12.562  13.999  65.333  1.00  0.00    -0.505 C  
HETATM   14  H   UNL     1     -13.365  12.260  64.881  1.00  0.00     0.000 HD 
HETATM   15  O   UNL     1     -12.802  12.895  64.455  1.00  0.00    -0.697 OA 
BRANCH  13  16
HETATM   16  C   UNL     1     -11.987  13.482  66.665  1.00  0.00    -0.404 C  
BRANCH  16  17
HETATM   17  N   UNL     1     -12.530  14.209  67.816  1.00  0.00    -0.476 NA 
HETATM   18  H   UNL     1     -13.339  13.721  68.199  1.00  0.00     0.000 HD 
BRANCH  17  19
HETATM   19  C   UNL     1     -11.542  14.476  68.868  1.00  0.00    -0.309 C  
HETATM   20  C   UNL     1     -11.463  15.956  69.253  1.00  0.00    -0.374 C  
HETATM   21  C   UNL     1     -11.936  13.651  70.096  1.00  0.00    -0.407 C  
ENDBRANCH  17  19
ENDBRANCH  16  17
ENDBRANCH  13  16
ENDBRANCH  12  13
ENDBRANCH  11  12
ENDBRANCH   8  11
ENDBRANCH   4   5
ENDBRANCH   3   4
ENDBRANCH   2   3
TORSDOF 9
ENDMDL
MODEL       46
REMARK 921   NORMALIZED FREE ENERGY PREDICTED BY IDOCK:   -4.64 KCAL/MOL
REMARK 922        TOTAL FREE ENERGY PREDICTED BY IDOCK:   -7.73 KCAL/MOL
REMARK 923 INTER-LIGAND FREE ENERGY PREDICTED BY IDOCK:   -7.04 KCAL/MOL
REMARK 924 INTRA-LIGAND FREE ENERGY PREDICTED BY IDOCK:   -0.69 KCAL/MOL
REMARK 927      BINDING AFFINITY PREDICTED BY RF-SCORE:    0.00 PKD
ROOT
HETATM    1  C   UNL     1     -10.450  17.885  66.142  1.00  0.00    -0.321 C  
HETATM    2  O   UNL     1     -10.019  16.717  65.452  1.00  0.00    -0.565 OA 
ENDROOT
BRANCH   2   3
HETATM    3  C   UNL     1     -10.684  15.555  65.950  1.00  0.00    -0.339 C  
BRANCH   3   4
HETATM    4  C   UNL     1     -10.932  15.715  67.452  1.00  0.00    -0.293 C  
BRANCH   4   5
HETATM    5  C   UNL     1     -11.307  14.409  68.106  1.00  0.00    -0.317 A  
HETATM    6  C   UNL     1     -11.266  13.231  67.357  1.00  0.00    -0.316 A  
HETATM    7  C   UNL     1     -11.622  12.013  67.927  1.00  0.00    -0.405 A  
HETATM    8  C   UNL     1     -12.015  11.934  69.264  1.00  0.00    -0.281 A  
HETATM    9  C   UNL     1     -11.691  14.335  69.452  1.00  0.00    -0.363 A  
HETATM   10  C   UNL     1     -12.046  13.103  70.025  1.00  0.00    -0.375 A  
BRANCH   8  11
HETATM   11  O   UNL     1     -12.377  10.772  69.902  1.00  0.00    -0.329 OA 
BRANCH  11  12
HETATM   12  C   UNL     1     -12.908  10.960  71.227  1.00  0.00    -0.433 C  
BRANCH  12  13
HETATM   13  C   UNL     1     -12.949   9.642  72.013  1.00  0.00    -0.428 C  
HETATM   14  H   UNL     1     -14.206   8.146  72.243  1.00  0.00     0.000 HD 
HETATM   15  O   UNL     1     -14.181   8.961  71.757  1.00  0.00    -0.377 OA 
BRANCH  13  16
HETATM   16  C   UNL     1     -11.768   8.710  71.689  1.00  0.00    -0.313 C  
BRANCH  16  17
HETATM   17  N   UNL     1     -11.966   7.993  70.426  1.00  0.00    -0.468 NA 
HETATM   18  H   UNL     1     -11.319   8.333  69.715  1.00  0.00     0.000 HD 
BRANCH  17  19
HETATM   19  C   UNL     1     -11.874   6.534  70.552  1.00  0.00    -0.328 C  
HETATM   20  C   UNL     1     -10.984   5.896  69.482  1.00  0.00    -0.438 C  
HETATM   21  C   UNL     1     -11.306   6.221  71.939  1.00  0.00    -0.348 C  
ENDBRANCH  17  19
ENDBRANCH  16  17
ENDBRANCH  13  16
ENDBRANCH  12  13
ENDBRANCH  11  12
ENDBRANCH   8  11
ENDBRANCH   4   5
ENDBRANCH   3   4
ENDBRANCH   2   3
TORSDOF 9
ENDMDL
MODEL       47
REMARK 921   NORMALIZED FREE ENERGY PREDICTED BY IDOCK:   -4.64 KCAL/MOL
REMARK 922        TOTAL FREE ENERGY PREDICTED BY IDOCK:   -7.73 KCAL/MOL
REMARK 923 INTER-LIGAND FREE ENERGY PREDICTED BY IDOCK:   -6.86 KCAL/MOL
REMARK 924 INTRA-LIGAND FREE ENERGY PREDICTED BY IDOCK:   -0.86 KCAL/MOL
REMARK 927      BINDING AFFINITY PREDICTED BY RF-SCORE:    0.00 PKD
ROOT
HETATM    1  C   UNL     1     -11.629  15.178  64.646  1.00  0.00    -0.357 C  
HETATM    2  O   UNL     1     -12.707  14.262  64.807  1.00  0.00    -0.646 OA 
ENDROOT
BRANCH   2   3
HETATM    3  C   UNL     1     -12.337  13.181  65.664  1.00  0.00    -0.461 C  
BRANCH   3   4
HETATM    4  C   UNL     1     -11.569  13.729  66.870  1.00  0.00    -0.394 C  
BRANCH   4   5
HETATM    5  C   UNL     1     -11.778  12.889  68.104  1.00  0.00    -0.395 A  
HETATM    6  C   UNL     1     -12.123  13.511  69.306  1.00  0.00    -0.335 A  
HETATM    7  C   UNL     1     -12.308  12.765  70.466  1.00  0.00    -0.355 A  
HETATM    8  C   UNL     1     -12.166  11.376  70.456  1.00  0.00    -0.386 A  
HETATM    9  C   UNL     1     -11.644  11.494  68.085  1.00  0.00    -0.378 A  
HETATM   10  C   UNL     1     -11.835  10.743  69.257  1.00  0.00    -0.359 A  
BRANCH   8  11
HETATM   11  O   UNL     1     -12.334  10.568  71.554  1.00  0.00    -0.371 OA 
BRANCH  11  12
HETATM   12  C   UNL     1     -13.584   9.854  71.582  1.00  0.00    -0.259 C  
BRANCH  12  13
HETATM   13  C   UNL     1     -13.389   8.385  71.985  1.00  0.00    -0.343 C  
HETATM   14  H   UNL     1     -14.262   6.663  71.603  1.00  0.00     0.000 HD 
HETATM   15  O   UNL     1     -14.383   7.572  71.354  1.00  0.00    -0.441 OA 
BRANCH  13  16
HETATM   16  C   UNL     1     -11.989   7.847  71.640  1.00  0.00    -0.294 C  
BRANCH  16  17
HETATM   17  N   UNL     1     -11.019   8.116  72.706  1.00  0.00    -0.372 NA 
HETATM   18  H   UNL     1     -10.934   7.310  73.325  1.00  0.00     0.000 HD 
BRANCH  17  19
HETATM   19  C   UNL     1      -9.700   8.533  72.217  1.00  0.00    -0.310 C  
HETATM   20  C   UNL     1      -8.548   7.787  72.895  1.00  0.00    -0.210 C  
HETATM   21  C   UNL     1      -9.659   8.271  70.709  1.00  0.00    -0.196 C  
ENDBRANCH  17  19
ENDBRANCH  16  17
ENDBRANCH  13  16
ENDBRANCH  12  13
ENDBRANCH  11  12
ENDBRANCH   8  11
ENDBRANCH   4   5
ENDBRANCH   3   4
ENDBRANCH   2   3
TORSDOF 9
ENDMDL
MODEL       48
REMARK 921   NORMALIZED FREE ENERGY PREDICTED BY IDOCK:   -4.64 KCAL/MOL
REMARK 922        TOTAL FREE ENERGY PREDICTED BY IDOCK:   -7.72 KCAL/MOL
REMARK 923 INTER-LIGAND FREE ENERGY PREDICTED BY IDOCK:   -7.40 KCAL/MOL
REMARK 924 INTRA-LIGAND FREE ENERGY PREDICTED BY IDOCK:   -0.32 KCAL/MOL
REMARK 927      BINDING AFFINITY PREDICTED BY RF-SCORE:    0.00 PKD
ROOT
HETATM    1  C   UNL     1     -10.307  17.009  65.887  1.00  0.00    -0.298 C  
HETATM    2  O   UNL     1     -10.508  15.893  65.026  1.00  0.00    -0.518 OA 
ENDROOT
BRANCH   2   3
HETATM    3  C   UNL     1     -10.388  14.665  65.745  1.00  0.00    -0.332 C  
BRANCH   3   4
HETATM    4  C   UNL     1     -11.784  14.119  66.057  1.00  0.00    -0.389 C  
BRANCH   4   5
HETATM    5  C   UNL     1     -11.795  13.274  67.307  1.00  0.00    -0.421 A  
HETATM    6  C   UNL     1     -11.617  11.893  67.201  1.00  0.00    -0.363 A  
HETATM    7  C   UNL     1     -11.639  11.084  68.333  1.00  0.00    -0.372 A  
HETATM    8  C   UNL     1     -11.824  11.633  69.603  1.00  0.00    -0.352 A  
HETATM    9  C   UNL     1     -11.971  13.833  68.580  1.00  0.00    -0.402 A  
HETATM   10  C   UNL     1     -11.988  13.014  69.721  1.00  0.00    -0.377 A  
BRANCH   8  11
HETATM   11  O   UNL     1     -11.853  10.907  70.768  1.00  0.00    -0.333 OA 
BRANCH  11  12
HETATM   12  C   UNL     1     -13.121  10.286  71.053  1.00  0.00    -0.373 C  
BRANCH  12  13
HETATM   13  C   UNL     1     -13.033   9.345  72.263  1.00  0.00    -0.400 C  
HETATM   14  H   UNL     1     -14.286   8.302  73.366  1.00  0.00     0.000 HD 
HETATM   15  O   UNL     1     -14.340   8.884  72.618  1.00  0.00    -0.613 OA 
BRANCH  13  16
HETATM   16  C   UNL     1     -12.111   8.136  72.019  1.00  0.00    -0.340 C  
BRANCH  16  17
HETATM   17  N   UNL     1     -11.584   7.587  73.272  1.00  0.00    -0.617 NA 
HETATM   18  H   UNL     1     -12.266   6.966  73.706  1.00  0.00     0.000 HD 
BRANCH  17  19
HETATM   19  C   UNL     1     -10.290   6.911  73.125  1.00  0.00    -0.266 C  
HETATM   20  C   UNL     1      -9.098   7.843  73.357  1.00  0.00    -0.347 C  
HETATM   21  C   UNL     1     -10.245   5.766  74.141  1.00  0.00    -0.286 C  
ENDBRANCH  17  19
ENDBRANCH  16  17
ENDBRANCH  13  16
ENDBRANCH  12  13
ENDBRANCH  11  12
ENDBRANCH   8  11
ENDBRANCH   4   5
ENDBRANCH   3   4
ENDBRANCH   2   3
TORSDOF 9
ENDMDL
MODEL       49
REMARK 921   NORMALIZED FREE ENERGY PREDICTED BY IDOCK:   -4.64 KCAL/MOL
REMARK 922        TOTAL FREE ENERGY PREDICTED BY IDOCK:   -7.72 KCAL/MOL
REMARK 923 INTER-LIGAND FREE ENERGY PREDICTED BY IDOCK:   -6.75 KCAL/MOL
REMARK 924 INTRA-LIGAND FREE ENERGY PREDICTED BY IDOCK:   -0.96 KCAL/MOL
REMARK 927      BINDING AFFINITY PREDICTED BY RF-SCORE:    0.00 PKD
ROOT
HETATM    1  C   UNL     1     -11.424   6.421  70.722  1.00  0.00    -0.353 C  
HETATM    2  O   UNL     1     -10.269   6.886  71.414  1.00  0.00    -0.197 OA 
ENDROOT
BRANCH   2   3
HETATM    3  C   UNL     1      -9.685   8.002  70.741  1.00  0.00    -0.165 C  
BRANCH   3   4
HETATM    4  C   UNL     1     -10.449   9.276  71.111  1.00  0.00    -0.401 C  
BRANCH   4   5
HETATM    5  C   UNL     1     -10.839  10.076  69.893  1.00  0.00    -0.328 A  
HETATM    6  C   UNL     1     -11.516  11.286  70.057  1.00  0.00    -0.359 A  
HETATM    7  C   UNL     1     -11.904  12.039  68.953  1.00  0.00    -0.356 A  
HETATM    8  C   UNL     1     -11.615  11.612  67.656  1.00  0.00    -0.279 A  
HETATM    9  C   UNL     1     -10.536   9.646  68.594  1.00  0.00    -0.246 A  
HETATM   10  C   UNL     1     -10.926  10.411  67.482  1.00  0.00    -0.358 A  
BRANCH   8  11
HETATM   11  O   UNL     1     -11.958  12.297  66.516  1.00  0.00    -0.596 OA 
BRANCH  11  12
HETATM   12  C   UNL     1     -11.220  11.910  65.342  1.00  0.00    -0.295 C  
BRANCH  12  13
HETATM   13  C   UNL     1     -11.334  12.959  64.228  1.00  0.00    -0.371 C  
HETATM   14  H   UNL     1     -12.779  13.811  63.199  1.00  0.00     0.000 HD 
HETATM   15  O   UNL     1     -12.709  13.161  63.888  1.00  0.00    -0.667 OA 
BRANCH  13  16
HETATM   16  C   UNL     1     -10.693  14.308  64.603  1.00  0.00    -0.365 C  
BRANCH  16  17
HETATM   17  N   UNL     1      -9.613  14.149  65.581  1.00  0.00    -0.533 NA 
HETATM   18  H   UNL     1      -8.754  13.849  65.120  1.00  0.00     0.000 HD 
BRANCH  17  19
HETATM   19  C   UNL     1      -9.371  15.344  66.397  1.00  0.00    -0.299 C  
HETATM   20  C   UNL     1     -10.209  16.548  65.959  1.00  0.00    -0.372 C  
HETATM   21  C   UNL     1      -9.707  14.991  67.849  1.00  0.00    -0.212 C  
ENDBRANCH  17  19
ENDBRANCH  16  17
ENDBRANCH  13  16
ENDBRANCH  12  13
ENDBRANCH  11  12
ENDBRANCH   8  11
ENDBRANCH   4   5
ENDBRANCH   3   4
ENDBRANCH   2   3
TORSDOF 9
ENDMDL
MODEL       50
REMARK 921   NORMALIZED FREE ENERGY PREDICTED BY IDOCK:   -4.62 KCAL/MOL
REMARK 922        TOTAL FREE ENERGY PREDICTED BY IDOCK:   -7.70 KCAL/MOL
REMARK 923 INTER-LIGAND FREE ENERGY PREDICTED BY IDOCK:   -7.34 KCAL/MOL
REMARK 924 INTRA-LIGAND FREE ENERGY PREDICTED BY IDOCK:   -0.36 KCAL/MOL
REMARK 927      BINDING AFFINITY PREDICTED BY RF-SCORE:    0.00 PKD
ROOT
HETATM    1  C   UNL     1     -10.311   4.847  74.288  1.00  0.00    -0.275 C  
HETATM    2  O   UNL     1     -11.290   4.608  73.283  1.00  0.00    -0.312 OA 
ENDROOT
BRANCH   2   3
HETATM    3  C   UNL     1     -11.409   5.731  72.409  1.00  0.00    -0.294 C  
BRANCH   3   4
HETATM    4  C   UNL     1     -11.158   7.019  73.198  1.00  0.00    -0.260 C  
BRANCH   4   5
HETATM    5  C   UNL     1     -11.483   8.251  72.391  1.00  0.00    -0.463 A  
HETATM    6  C   UNL     1     -10.506   8.800  71.557  1.00  0.00    -0.373 A  
HETATM    7  C   UNL     1     -10.770   9.946  70.812  1.00  0.00    -0.350 A  
HETATM    8  C   UNL     1     -12.019  10.566  70.867  1.00  0.00    -0.377 A  
HETATM    9  C   UNL     1     -12.742   8.863  72.443  1.00  0.00    -0.436 A  
HETATM   10  C   UNL     1     -13.006  10.016  71.687  1.00  0.00    -0.554 A  
BRANCH   8  11
HETATM   11  O   UNL     1     -12.360  11.694  70.162  1.00  0.00    -0.274 OA 
BRANCH  11  12
HETATM   12  C   UNL     1     -11.822  11.749  68.828  1.00  0.00    -0.320 C  
BRANCH  12  13
HETATM   13  C   UNL     1     -11.839  13.177  68.267  1.00  0.00    -0.349 C  
HETATM   14  H   UNL     1     -11.006  14.905  68.709  1.00  0.00     0.000 HD 
HETATM   15  O   UNL     1     -10.996  14.021  69.057  1.00  0.00    -0.252 OA 
BRANCH  13  16
HETATM   16  C   UNL     1     -11.404  13.251  66.792  1.00  0.00    -0.327 C  
BRANCH  16  17
HETATM   17  N   UNL     1     -12.181  12.340  65.945  1.00  0.00    -0.600 NA 
HETATM   18  H   UNL     1     -12.941  11.916  66.476  1.00  0.00     0.000 HD 
BRANCH  17  19
HETATM   19  C   UNL     1     -12.692  12.963  64.718  1.00  0.00    -0.370 C  
HETATM   20  C   UNL     1     -12.186  14.394  64.518  1.00  0.00    -0.483 C  
HETATM   21  C   UNL     1     -12.247  12.096  63.537  1.00  0.00    -0.670 C  
ENDBRANCH  17  19
ENDBRANCH  16  17
ENDBRANCH  13  16
ENDBRANCH  12  13
ENDBRANCH  11  12
ENDBRANCH   8  11
ENDBRANCH   4   5
ENDBRANCH   3   4
ENDBRANCH   2   3
TORSDOF 9
ENDMDL
MODEL       51
REMARK 921   NORMALIZED FREE ENERGY PREDICTED BY IDOCK:   -4.62 KCAL/MOL
REMARK 922        TOTAL FREE ENERGY PREDICTED BY IDOCK:   -7.70 KCAL/MOL
REMARK 923 INTER-LIGAND FREE ENERGY PREDICTED BY IDOCK:   -7.07 KCAL/MOL
REMARK 924 INTRA-LIGAND FREE ENERGY PREDICTED BY IDOCK:   -0.62 KCAL/MOL
REMARK 927      BINDING AFFINITY PREDICTED BY RF-SCORE:    0.00 PKD
ROOT
HETATM    1  C   UNL     1      -5.950  20.037  70.366  1.00  0.00    -0.343 C  
HETATM    2  O   UNL     1      -6.969  19.736  69.418  1.00  0.00    -0.348 OA 
ENDROOT
BRANCH   2   3
HETATM    3  C   UNL     1      -6.583  20.147  68.106  1.00  0.00    -0.292 C  
BRANCH   3   4
HETATM    4  C   UNL     1      -7.836  20.401  67.263  1.00  0.00    -0.373 C  
BRANCH   4   5
HETATM    5  C   UNL     1      -8.616  19.136  67.011  1.00  0.00    -0.309 A  
HETATM    6  C   UNL     1      -7.961  18.022  66.481  1.00  0.00    -0.294 A  
HETATM    7  C   UNL     1      -8.656  16.845  66.222  1.00  0.00    -0.319 A  
HETATM    8  C   UNL     1     -10.020  16.742  66.498  1.00  0.00    -0.298 A  
HETATM    9  C   UNL     1      -9.983  19.036  67.300  1.00  0.00    -0.410 A  
HETATM   10  C   UNL     1     -10.681  17.844  67.042  1.00  0.00    -0.219 A  
BRANCH   8  11
HETATM   11  O   UNL     1     -10.777  15.617  66.276  1.00  0.00    -0.308 OA 
BRANCH  11  12
HETATM   12  C   UNL     1     -11.044  15.340  64.889  1.00  0.00    -0.424 C  
BRANCH  12  13
HETATM   13  C   UNL     1     -12.392  14.630  64.701  1.00  0.00    -0.375 C  
HETATM   14  H   UNL     1     -13.196  13.397  63.395  1.00  0.00     0.000 HD 
HETATM   15  O   UNL     1     -12.362  13.836  63.511  1.00  0.00    -0.706 OA 
BRANCH  13  16
HETATM   16  C   UNL     1     -12.778  13.745  65.900  1.00  0.00    -0.401 C  
BRANCH  16  17
HETATM   17  N   UNL     1     -12.042  12.477  65.906  1.00  0.00    -0.601 NA 
HETATM   18  H   UNL     1     -11.506  12.370  65.045  1.00  0.00     0.000 HD 
BRANCH  17  19
HETATM   19  C   UNL     1     -11.178  12.299  67.079  1.00  0.00    -0.310 C  
HETATM   20  C   UNL     1     -11.731  12.972  68.338  1.00  0.00    -0.386 C  
HETATM   21  C   UNL     1     -11.036  10.794  67.327  1.00  0.00    -0.359 C  
ENDBRANCH  17  19
ENDBRANCH  16  17
ENDBRANCH  13  16
ENDBRANCH  12  13
ENDBRANCH  11  12
ENDBRANCH   8  11
ENDBRANCH   4   5
ENDBRANCH   3   4
ENDBRANCH   2   3
TORSDOF 9
ENDMDL
MODEL       52
REMARK 921   NORMALIZED FREE ENERGY PREDICTED BY IDOCK:   -4.61 KCAL/MOL
REMARK 922        TOTAL FREE ENERGY PREDICTED BY IDOCK:   -7.68 KCAL/MOL
REMARK 923 INTER-LIGAND FREE ENERGY PREDICTED BY IDOCK:   -6.83 KCAL/MOL
REMARK 924 INTRA-LIGAND FREE ENERGY PREDICTED BY IDOCK:   -0.84 KCAL/MOL
REMARK 927      BINDING AFFINITY PREDICTED BY RF-SCORE:    0.00 PKD
ROOT
HETATM    1  C   UNL     1     -14.404   8.489  72.295  1.00  0.00    -0.390 C  
HETATM    2  O   UNL     1     -13.129   8.660  72.906  1.00  0.00    -0.265 OA 
ENDROOT
BRANCH   2   3
HETATM    3  C   UNL     1     -12.124   7.924  72.206  1.00  0.00    -0.315 C  
BRANCH   3   4
HETATM    4  C   UNL     1     -10.835   8.749  72.152  1.00  0.00    -0.400 C  
BRANCH   4   5
HETATM    5  C   UNL     1     -10.756   9.594  70.905  1.00  0.00    -0.402 A  
HETATM    6  C   UNL     1      -9.599   9.554  70.124  1.00  0.00    -0.290 A  
HETATM    7  C   UNL     1      -9.488  10.334  68.977  1.00  0.00    -0.206 A  
HETATM    8  C   UNL     1     -10.533  11.164  68.570  1.00  0.00    -0.191 A  
HETATM    9  C   UNL     1     -11.813  10.417  70.497  1.00  0.00    -0.430 A  
HETATM   10  C   UNL     1     -11.700  11.200  69.336  1.00  0.00    -0.402 A  
BRANCH   8  11
HETATM   11  O   UNL     1     -10.506  11.960  67.451  1.00  0.00    -0.210 OA 
BRANCH  11  12
HETATM   12  C   UNL     1     -11.669  11.848  66.610  1.00  0.00    -0.186 C  
BRANCH  12  13
HETATM   13  C   UNL     1     -11.801  13.047  65.662  1.00  0.00    -0.399 C  
HETATM   14  H   UNL     1     -13.068  13.656  64.284  1.00  0.00     0.000 HD 
HETATM   15  O   UNL     1     -12.986  12.914  64.871  1.00  0.00    -0.754 OA 
BRANCH  13  16
HETATM   16  C   UNL     1     -11.825  14.398  66.399  1.00  0.00    -0.388 C  
BRANCH  16  17
HETATM   17  N   UNL     1     -12.381  14.277  67.750  1.00  0.00    -0.578 NA 
HETATM   18  H   UNL     1     -12.560  13.299  67.978  1.00  0.00     0.000 HD 
BRANCH  17  19
HETATM   19  C   UNL     1     -11.559  14.908  68.789  1.00  0.00    -0.323 C  
HETATM   20  C   UNL     1     -11.170  16.350  68.451  1.00  0.00    -0.324 C  
HETATM   21  C   UNL     1     -12.363  14.890  70.092  1.00  0.00    -0.376 C  
ENDBRANCH  17  19
ENDBRANCH  16  17
ENDBRANCH  13  16
ENDBRANCH  12  13
ENDBRANCH  11  12
ENDBRANCH   8  11
ENDBRANCH   4   5
ENDBRANCH   3   4
ENDBRANCH   2   3
TORSDOF 9
ENDMDL
MODEL       53
REMARK 921   NORMALIZED FREE ENERGY PREDICTED BY IDOCK:   -4.61 KCAL/MOL
REMARK 922        TOTAL FREE ENERGY PREDICTED BY IDOCK:   -7.67 KCAL/MOL
REMARK 923 INTER-LIGAND FREE ENERGY PREDICTED BY IDOCK:   -7.03 KCAL/MOL
REMARK 924 INTRA-LIGAND FREE ENERGY PREDICTED BY IDOCK:   -0.64 KCAL/MOL
REMARK 927      BINDING AFFINITY PREDICTED BY RF-SCORE:    0.00 PKD
ROOT
HETATM    1  C   UNL     1      -9.711  10.665  63.066  1.00  0.00    -0.323 C  
HETATM    2  O   UNL     1     -10.591  11.040  64.120  1.00  0.00    -0.371 OA 
ENDROOT
BRANCH   2   3
HETATM    3  C   UNL     1     -11.701  11.785  63.618  1.00  0.00    -0.415 C  
BRANCH   3   4
HETATM    4  C   UNL     1     -12.412  12.484  64.780  1.00  0.00    -0.532 C  
BRANCH   4   5
HETATM    5  C   UNL     1     -11.768  13.803  65.127  1.00  0.00    -0.354 A  
HETATM    6  C   UNL     1     -11.826  14.855  64.211  1.00  0.00    -0.312 A  
HETATM    7  C   UNL     1     -11.227  16.079  64.494  1.00  0.00    -0.309 A  
HETATM    8  C   UNL     1     -10.566  16.291  65.705  1.00  0.00    -0.346 A  
HETATM    9  C   UNL     1     -11.114  14.012  66.348  1.00  0.00    -0.316 A  
HETATM   10  C   UNL     1     -10.515  15.249  66.634  1.00  0.00    -0.290 A  
BRANCH   8  11
HETATM   11  O   UNL     1      -9.954  17.467  66.064  1.00  0.00    -0.459 OA 
BRANCH  11  12
HETATM   12  C   UNL     1     -10.442  18.044  67.289  1.00  0.00    -0.380 C  
BRANCH  12  13
HETATM   13  C   UNL     1     -10.679  19.554  67.151  1.00  0.00    -0.482 C  
HETATM   14  H   UNL     1     -10.503  21.147  68.294  1.00  0.00     0.000 HD 
HETATM   15  O   UNL     1     -10.357  20.212  68.380  1.00  0.00    -0.408 OA 
BRANCH  13  16
HETATM   16  C   UNL     1      -9.873  20.187  66.002  1.00  0.00    -0.348 C  
BRANCH  16  17
HETATM   17  N   UNL     1      -8.511  20.535  66.414  1.00  0.00    -0.541 NA 
HETATM   18  H   UNL     1      -8.420  20.491  67.429  1.00  0.00     0.000 HD 
BRANCH  17  19
HETATM   19  C   UNL     1      -7.470  19.727  65.767  1.00  0.00    -0.311 C  
HETATM   20  C   UNL     1      -6.513  20.560  64.910  1.00  0.00    -0.333 C  
HETATM   21  C   UNL     1      -6.680  19.017  66.870  1.00  0.00    -0.204 C  
ENDBRANCH  17  19
ENDBRANCH  16  17
ENDBRANCH  13  16
ENDBRANCH  12  13
ENDBRANCH  11  12
ENDBRANCH   8  11
ENDBRANCH   4   5
ENDBRANCH   3   4
ENDBRANCH   2   3
TORSDOF 9
ENDMDL
MODEL       54
REMARK 921   NORMALIZED FREE ENERGY PREDICTED BY IDOCK:   -4.61 KCAL/MOL
REMARK 922        TOTAL FREE ENERGY PREDICTED BY IDOCK:   -7.67 KCAL/MOL
REMARK 923 INTER-LIGAND FREE ENERGY PREDICTED BY IDOCK:   -6.90 KCAL/MOL
REMARK 924 INTRA-LIGAND FREE ENERGY PREDICTED BY IDOCK:   -0.77 KCAL/MOL
REMARK 927      BINDING AFFINITY PREDICTED BY RF-SCORE:    0.00 PKD
ROOT
HETATM    1  C   UNL     1     -10.754  17.798  65.334  1.00  0.00     0.086 C  
HETATM    2  O   UNL     1     -11.353  16.815  64.495  1.00  0.00    -0.959 OA 
ENDROOT
BRANCH   2   3
HETATM    3  C   UNL     1     -10.870  15.509  64.813  1.00  0.00    -0.363 C  
BRANCH   3   4
HETATM    4  C   UNL     1     -12.057  14.576  65.068  1.00  0.00    -0.390 C  
BRANCH   4   5
HETATM    5  C   UNL     1     -11.911  13.815  66.362  1.00  0.00    -0.434 A  
HETATM    6  C   UNL     1     -11.813  14.520  67.563  1.00  0.00    -0.404 A  
HETATM    7  C   UNL     1     -11.662  13.848  68.772  1.00  0.00    -0.392 A  
HETATM    8  C   UNL     1     -11.617  12.454  68.817  1.00  0.00    -0.326 A  
HETATM    9  C   UNL     1     -11.877  12.415  66.401  1.00  0.00    -0.421 A  
HETATM   10  C   UNL     1     -11.729  11.739  67.623  1.00  0.00    -0.320 A  
BRANCH   8  11
HETATM   11  O   UNL     1     -11.475  11.716  69.967  1.00  0.00    -0.264 OA 
BRANCH  11  12
HETATM   12  C   UNL     1     -12.579  10.837  70.252  1.00  0.00    -0.276 C  
BRANCH  12  13
HETATM   13  C   UNL     1     -12.218   9.803  71.327  1.00  0.00    -0.374 C  
HETATM   14  H   UNL     1     -13.183   8.692  72.634  1.00  0.00     0.000 HD 
HETATM   15  O   UNL     1     -13.407   9.332  71.969  1.00  0.00    -0.386 OA 
BRANCH  13  16
HETATM   16  C   UNL     1     -11.427   8.606  70.768  1.00  0.00    -0.259 C  
BRANCH  16  17
HETATM   17  N   UNL     1     -10.915   8.867  69.420  1.00  0.00    -0.418 NA 
HETATM   18  H   UNL     1     -10.212   9.606  69.441  1.00  0.00     0.000 HD 
BRANCH  17  19
HETATM   19  C   UNL     1     -10.393   7.675  68.743  1.00  0.00    -0.204 C  
HETATM   20  C   UNL     1     -11.199   6.410  69.050  1.00  0.00    -0.402 C  
HETATM   21  C   UNL     1     -10.425   7.945  67.236  1.00  0.00    -0.390 C  
ENDBRANCH  17  19
ENDBRANCH  16  17
ENDBRANCH  13  16
ENDBRANCH  12  13
ENDBRANCH  11  12
ENDBRANCH   8  11
ENDBRANCH   4   5
ENDBRANCH   3   4
ENDBRANCH   2   3
TORSDOF 9
ENDMDL
MODEL       55
REMARK 921   NORMALIZED FREE ENERGY PREDICTED BY IDOCK:   -4.59 KCAL/MOL
REMARK 922        TOTAL FREE ENERGY PREDICTED BY IDOCK:   -7.64 KCAL/MOL
REMARK 923 INTER-LIGAND FREE ENERGY PREDICTED BY IDOCK:   -7.07 KCAL/MOL
REMARK 924 INTRA-LIGAND FREE ENERGY PREDICTED BY IDOCK:   -0.57 KCAL/MOL
REMARK 927      BINDING AFFINITY PREDICTED BY RF-SCORE:    0.00 PKD
ROOT
HETATM    1  C   UNL     1      -9.661  17.000  68.747  1.00  0.00    -0.273 C  
HETATM    2  O   UNL     1     -10.874  16.949  69.491  1.00  0.00    -0.303 OA 
ENDROOT
BRANCH   2   3
HETATM    3  C   UNL     1     -11.560  15.717  69.267  1.00  0.00    -0.366 C  
BRANCH   3   4
HETATM    4  C   UNL     1     -12.311  15.314  70.540  1.00  0.00    -0.434 C  
BRANCH   4   5
HETATM    5  C   UNL     1     -12.414  13.817  70.687  1.00  0.00    -0.429 A  
HETATM    6  C   UNL     1     -11.820  12.993  69.728  1.00  0.00    -0.381 A  
HETATM    7  C   UNL     1     -11.911  11.607  69.827  1.00  0.00    -0.428 A  
HETATM    8  C   UNL     1     -12.584  11.007  70.891  1.00  0.00    -0.391 A  
HETATM    9  C   UNL     1     -13.083  13.220  71.763  1.00  0.00    -0.472 A  
HETATM   10  C   UNL     1     -13.169  11.822  71.862  1.00  0.00    -0.468 A  
BRANCH   8  11
HETATM   11  O   UNL     1     -12.715   9.650  71.064  1.00  0.00    -0.314 OA 
BRANCH  11  12
HETATM   12  C   UNL     1     -12.356   9.179  72.376  1.00  0.00    -0.240 C  
BRANCH  12  13
HETATM   13  C   UNL     1     -11.472   7.926  72.306  1.00  0.00    -0.348 C  
HETATM   14  H   UNL     1     -10.476   6.798  73.574  1.00  0.00     0.000 HD 
HETATM   15  O   UNL     1     -11.023   7.573  73.618  1.00  0.00    -0.322 OA 
BRANCH  13  16
HETATM   16  C   UNL     1     -12.184   6.722  71.665  1.00  0.00    -0.365 C  
BRANCH  16  17
HETATM   17  N   UNL     1     -12.184   6.799  70.201  1.00  0.00    -0.605 NA 
HETATM   18  H   UNL     1     -12.607   7.672  69.888  1.00  0.00     0.000 HD 
BRANCH  17  19
HETATM   19  C   UNL     1     -10.858   6.622  69.598  1.00  0.00    -0.286 C  
HETATM   20  C   UNL     1     -10.034   5.524  70.276  1.00  0.00    -0.281 C  
HETATM   21  C   UNL     1     -11.062   6.267  68.122  1.00  0.00    -0.364 C  
ENDBRANCH  17  19
ENDBRANCH  16  17
ENDBRANCH  13  16
ENDBRANCH  12  13
ENDBRANCH  11  12
ENDBRANCH   8  11
ENDBRANCH   4   5
ENDBRANCH   3   4
ENDBRANCH   2   3
TORSDOF 9
ENDMDL
MODEL       56
REMARK 921   NORMALIZED FREE ENERGY PREDICTED BY IDOCK:   -4.58 KCAL/MOL
REMARK 922        TOTAL FREE ENERGY PREDICTED BY IDOCK:   -7.63 KCAL/MOL
REMARK 923 INTER-LIGAND FREE ENERGY PREDICTED BY IDOCK:   -6.73 KCAL/MOL
REMARK 924 INTRA-LIGAND FREE ENERGY PREDICTED BY IDOCK:   -0.90 KCAL/MOL
REMARK 927      BINDING AFFINITY PREDICTED BY RF-SCORE:    0.00 PKD
ROOT
HETATM    1  C   UNL     1     -12.525  15.871  74.038  1.00  0.00    -0.638 C  
HETATM    2  O   UNL     1     -12.741  15.980  72.635  1.00  0.00    -0.436 OA 
ENDROOT
BRANCH   2   3
HETATM    3  C   UNL     1     -13.721  15.040  72.193  1.00  0.00    -0.453 C  
BRANCH   3   4
HETATM    4  C   UNL     1     -13.196  13.618  72.410  1.00  0.00    -0.584 C  
BRANCH   4   5
HETATM    5  C   UNL     1     -12.743  12.980  71.121  1.00  0.00    -0.372 A  
HETATM    6  C   UNL     1     -12.707  11.587  71.023  1.00  0.00    -0.426 A  
HETATM    7  C   UNL     1     -12.278  10.967  69.853  1.00  0.00    -0.408 A  
HETATM    8  C   UNL     1     -11.886  11.720  68.745  1.00  0.00    -0.320 A  
HETATM    9  C   UNL     1     -12.361  13.741  70.009  1.00  0.00    -0.364 A  
HETATM   10  C   UNL     1     -11.933  13.112  68.828  1.00  0.00    -0.316 A  
BRANCH   8  11
HETATM   11  O   UNL     1     -11.456  11.187  67.554  1.00  0.00    -0.447 OA 
BRANCH  11  12
HETATM   12  C   UNL     1     -11.618  12.056  66.418  1.00  0.00    -0.313 C  
BRANCH  12  13
HETATM   13  C   UNL     1     -10.682  11.665  65.266  1.00  0.00    -0.291 C  
HETATM   14  H   UNL     1     -10.192  12.391  63.504  1.00  0.00     0.000 HD 
HETATM   15  O   UNL     1     -10.771  12.633  64.216  1.00  0.00    -0.331 OA 
BRANCH  13  16
HETATM   16  C   UNL     1      -9.215  11.517  65.706  1.00  0.00    -0.196 C  
BRANCH  16  17
HETATM   17  N   UNL     1      -8.736  12.699  66.427  1.00  0.00    -0.425 NA 
HETATM   18  H   UNL     1      -9.476  13.396  66.506  1.00  0.00     0.000 HD 
BRANCH  17  19
HETATM   19  C   UNL     1      -8.167  12.400  67.746  1.00  0.00    -0.163 C  
HETATM   20  C   UNL     1      -7.952  10.901  67.979  1.00  0.00    -0.109 C  
HETATM   21  C   UNL     1      -6.824  13.128  67.850  1.00  0.00    -0.135 C  
ENDBRANCH  17  19
ENDBRANCH  16  17
ENDBRANCH  13  16
ENDBRANCH  12  13
ENDBRANCH  11  12
ENDBRANCH   8  11
ENDBRANCH   4   5
ENDBRANCH   3   4
ENDBRANCH   2   3
TORSDOF 9
ENDMDL
MODEL       57
REMARK 921   NORMALIZED FREE ENERGY PREDICTED BY IDOCK:   -4.54 KCAL/MOL
REMARK 922        TOTAL FREE ENERGY PREDICTED BY IDOCK:   -7.57 KCAL/MOL
REMARK 923 INTER-LIGAND FREE ENERGY PREDICTED BY IDOCK:   -6.96 KCAL/MOL
REMARK 924 INTRA-LIGAND FREE ENERGY PREDICTED BY IDOCK:   -0.61 KCAL/MOL
REMARK 927      BINDING AFFINITY PREDICTED BY RF-SCORE:    0.00 PKD
ROOT
HETATM    1  C   UNL     1      -5.586  19.868  71.724  1.00  0.00    -0.391 C  
HETATM    2  O   UNL     1      -6.513  20.351  70.758  1.00  0.00    -0.505 OA 
ENDROOT
BRANCH   2   3
HETATM    3  C   UNL     1      -6.056  20.082  69.431  1.00  0.00    -0.316 C  
BRANCH   3   4
HETATM    4  C   UNL     1      -7.249  20.086  68.471  1.00  0.00    -0.284 C  
BRANCH   4   5
HETATM    5  C   UNL     1      -8.102  18.851  68.623  1.00  0.00    -0.382 A  
HETATM    6  C   UNL     1      -7.485  17.605  68.757  1.00  0.00    -0.255 A  
HETATM    7  C   UNL     1      -8.244  16.446  68.882  1.00  0.00    -0.235 A  
HETATM    8  C   UNL     1      -9.639  16.499  68.891  1.00  0.00    -0.261 A  
HETATM    9  C   UNL     1      -9.501  18.913  68.642  1.00  0.00    -0.427 A  
HETATM   10  C   UNL     1     -10.265  17.741  68.773  1.00  0.00    -0.373 A  
BRANCH   8  11
HETATM   11  O   UNL     1     -10.459  15.404  69.016  1.00  0.00    -0.229 OA 
BRANCH  11  12
HETATM   12  C   UNL     1     -11.506  15.328  68.030  1.00  0.00    -0.341 C  
BRANCH  12  13
HETATM   13  C   UNL     1     -11.080  14.496  66.813  1.00  0.00    -0.325 C  
HETATM   14  H   UNL     1      -9.947  12.923  66.474  1.00  0.00     0.000 HD 
HETATM   15  O   UNL     1     -10.210  13.438  67.227  1.00  0.00    -0.238 OA 
BRANCH  13  16
HETATM   16  C   UNL     1     -12.274  13.907  66.040  1.00  0.00    -0.462 C  
BRANCH  16  17
HETATM   17  N   UNL     1     -12.125  12.466  65.815  1.00  0.00    -0.610 NA 
HETATM   18  H   UNL     1     -12.906  11.956  66.229  1.00  0.00     0.000 HD 
BRANCH  17  19
HETATM   19  C   UNL     1     -11.958  12.099  64.404  1.00  0.00    -0.361 C  
HETATM   20  C   UNL     1     -12.036  13.302  63.460  1.00  0.00    -0.550 C  
HETATM   21  C   UNL     1     -10.591  11.425  64.258  1.00  0.00    -0.416 C  
ENDBRANCH  17  19
ENDBRANCH  16  17
ENDBRANCH  13  16
ENDBRANCH  12  13
ENDBRANCH  11  12
ENDBRANCH   8  11
ENDBRANCH   4   5
ENDBRANCH   3   4
ENDBRANCH   2   3
TORSDOF 9
ENDMDL
MODEL       58
REMARK 921   NORMALIZED FREE ENERGY PREDICTED BY IDOCK:   -4.54 KCAL/MOL
REMARK 922        TOTAL FREE ENERGY PREDICTED BY IDOCK:   -7.56 KCAL/MOL
REMARK 923 INTER-LIGAND FREE ENERGY PREDICTED BY IDOCK:   -7.10 KCAL/MOL
REMARK 924 INTRA-LIGAND FREE ENERGY PREDICTED BY IDOCK:   -0.47 KCAL/MOL
REMARK 927      BINDING AFFINITY PREDICTED BY RF-SCORE:    0.00 PKD
ROOT
HETATM    1  C   UNL     1      -8.114   7.872  68.232  1.00  0.00    -0.123 C  
HETATM    2  O   UNL     1      -9.167   7.216  67.533  1.00  0.00    -0.125 OA 
ENDROOT
BRANCH   2   3
HETATM    3  C   UNL     1      -9.974   8.157  66.825  1.00  0.00    -0.279 C  
BRANCH   3   4
HETATM    4  C   UNL     1      -9.073   9.098  66.021  1.00  0.00    -0.245 C  
BRANCH   4   5
HETATM    5  C   UNL     1      -9.805  10.336  65.570  1.00  0.00    -0.347 A  
HETATM    6  C   UNL     1     -10.673  10.979  66.456  1.00  0.00    -0.298 A  
HETATM    7  C   UNL     1     -11.376  12.115  66.065  1.00  0.00    -0.410 A  
HETATM    8  C   UNL     1     -11.222  12.648  64.785  1.00  0.00    -0.302 A  
HETATM    9  C   UNL     1      -9.638  10.873  64.287  1.00  0.00    -0.318 A  
HETATM   10  C   UNL     1     -10.345  12.022  63.897  1.00  0.00    -0.433 A  
BRANCH   8  11
HETATM   11  O   UNL     1     -11.874  13.766  64.324  1.00  0.00    -0.399 OA 
BRANCH  11  12
HETATM   12  C   UNL     1     -11.930  14.855  65.264  1.00  0.00    -0.168 C  
BRANCH  12  13
HETATM   13  C   UNL     1     -10.898  15.942  64.935  1.00  0.00    -0.400 C  
HETATM   14  H   UNL     1     -10.817  17.552  63.805  1.00  0.00     0.000 HD 
HETATM   15  O   UNL     1     -11.456  16.879  64.008  1.00  0.00    -1.130 OA 
BRANCH  13  16
HETATM   16  C   UNL     1     -10.395  16.691  66.183  1.00  0.00    -0.330 C  
BRANCH  16  17
HETATM   17  N   UNL     1      -9.435  17.744  65.841  1.00  0.00    -0.526 NA 
HETATM   18  H   UNL     1      -9.523  18.005  64.859  1.00  0.00     0.000 HD 
BRANCH  17  19
HETATM   19  C   UNL     1      -9.523  18.930  66.701  1.00  0.00    -0.334 C  
HETATM   20  C   UNL     1     -10.456  20.007  66.140  1.00  0.00    -0.526 C  
HETATM   21  C   UNL     1     -10.036  18.474  68.069  1.00  0.00    -0.403 C  
ENDBRANCH  17  19
ENDBRANCH  16  17
ENDBRANCH  13  16
ENDBRANCH  12  13
ENDBRANCH  11  12
ENDBRANCH   8  11
ENDBRANCH   4   5
ENDBRANCH   3   4
ENDBRANCH   2   3
TORSDOF 9
ENDMDL
MODEL       59
REMARK 921   NORMALIZED FREE ENERGY PREDICTED BY IDOCK:   -4.54 KCAL/MOL
REMARK 922        TOTAL FREE ENERGY PREDICTED BY IDOCK:   -7.56 KCAL/MOL
REMARK 923 INTER-LIGAND FREE ENERGY PREDICTED BY IDOCK:   -6.90 KCAL/MOL
REMARK 924 INTRA-LIGAND FREE ENERGY PREDICTED BY IDOCK:   -0.66 KCAL/MOL
REMARK 927      BINDING AFFINITY PREDICTED BY RF-SCORE:    0.00 PKD
ROOT
HETATM    1  C   UNL     1      -9.866  10.852  63.376  1.00  0.00    -0.362 C  
HETATM    2  O   UNL     1     -10.369  11.959  64.116  1.00  0.00    -0.286 OA 
ENDROOT
BRANCH   2   3
HETATM    3  C   UNL     1     -11.688  12.302  63.689  1.00  0.00    -0.504 C  
BRANCH   3   4
HETATM    4  C   UNL     1     -12.454  12.930  64.857  1.00  0.00    -0.540 C  
BRANCH   4   5
HETATM    5  C   UNL     1     -11.751  14.146  65.407  1.00  0.00    -0.347 A  
HETATM    6  C   UNL     1     -11.467  14.213  66.772  1.00  0.00    -0.383 A  
HETATM    7  C   UNL     1     -10.834  15.328  67.313  1.00  0.00    -0.318 A  
HETATM    8  C   UNL     1     -10.455  16.400  66.504  1.00  0.00    -0.282 A  
HETATM    9  C   UNL     1     -11.364  15.214  64.587  1.00  0.00    -0.362 A  
HETATM   10  C   UNL     1     -10.721  16.337  65.136  1.00  0.00    -0.350 A  
BRANCH   8  11
HETATM   11  O   UNL     1      -9.824  17.533  66.958  1.00  0.00    -0.274 OA 
BRANCH  11  12
HETATM   12  C   UNL     1     -10.447  18.766  66.554  1.00  0.00    -0.427 C  
BRANCH  12  13
HETATM   13  C   UNL     1      -9.848  19.973  67.289  1.00  0.00    -0.427 C  
HETATM   14  H   UNL     1     -10.095  20.866  69.025  1.00  0.00     0.000 HD 
HETATM   15  O   UNL     1     -10.467  20.119  68.571  1.00  0.00    -0.385 OA 
BRANCH  13  16
HETATM   16  C   UNL     1      -8.322  19.874  67.464  1.00  0.00    -0.324 C  
BRANCH  16  17
HETATM   17  N   UNL     1      -7.955  19.131  68.673  1.00  0.00    -0.354 NA 
HETATM   18  H   UNL     1      -7.796  18.148  68.456  1.00  0.00     0.000 HD 
BRANCH  17  19
HETATM   19  C   UNL     1      -6.804  19.695  69.389  1.00  0.00    -0.342 C  
HETATM   20  C   UNL     1      -5.792  18.632  69.826  1.00  0.00    -0.261 C  
HETATM   21  C   UNL     1      -6.118  20.695  68.453  1.00  0.00    -0.373 C  
ENDBRANCH  17  19
ENDBRANCH  16  17
ENDBRANCH  13  16
ENDBRANCH  12  13
ENDBRANCH  11  12
ENDBRANCH   8  11
ENDBRANCH   4   5
ENDBRANCH   3   4
ENDBRANCH   2   3
TORSDOF 9
ENDMDL
MODEL       60
REMARK 921   NORMALIZED FREE ENERGY PREDICTED BY IDOCK:   -4.52 KCAL/MOL
REMARK 922        TOTAL FREE ENERGY PREDICTED BY IDOCK:   -7.54 KCAL/MOL
REMARK 923 INTER-LIGAND FREE ENERGY PREDICTED BY IDOCK:   -6.82 KCAL/MOL
REMARK 924 INTRA-LIGAND FREE ENERGY PREDICTED BY IDOCK:   -0.72 KCAL/MOL
REMARK 927      BINDING AFFINITY PREDICTED BY RF-SCORE:    0.00 PKD
ROOT
HETATM    1  C   UNL     1      -6.958  19.940  66.181  1.00  0.00    -0.252 C  
HETATM    2  O   UNL     1      -8.323  19.950  65.776  1.00  0.00    -0.346 OA 
ENDROOT
BRANCH   2   3
HETATM    3  C   UNL     1      -9.175  20.312  66.864  1.00  0.00    -0.355 C  
BRANCH   3   4
HETATM    4  C   UNL     1     -10.565  19.709  66.643  1.00  0.00    -0.599 C  
BRANCH   4   5
HETATM    5  C   UNL     1     -10.560  18.207  66.781  1.00  0.00    -0.310 A  
HETATM    6  C   UNL     1     -10.501  17.637  68.054  1.00  0.00    -0.395 A  
HETATM    7  C   UNL     1     -10.478  16.255  68.215  1.00  0.00    -0.284 A  
HETATM    8  C   UNL     1     -10.527  15.404  67.110  1.00  0.00    -0.290 A  
HETATM    9  C   UNL     1     -10.620  17.358  65.668  1.00  0.00    -0.158 A  
HETATM   10  C   UNL     1     -10.601  15.964  65.833  1.00  0.00    -0.348 A  
BRANCH   8  11
HETATM   11  O   UNL     1     -10.513  14.032  67.182  1.00  0.00    -0.267 OA 
BRANCH  11  12
HETATM   12  C   UNL     1     -10.392  13.506  68.516  1.00  0.00    -0.240 C  
BRANCH  12  13
HETATM   13  C   UNL     1     -11.694  12.841  68.985  1.00  0.00    -0.323 C  
HETATM   14  H   UNL     1     -12.300  11.022  69.427  1.00  0.00     0.000 HD 
HETATM   15  O   UNL     1     -11.495  11.433  69.137  1.00  0.00    -0.242 OA 
BRANCH  13  16
HETATM   16  C   UNL     1     -12.230  13.431  70.302  1.00  0.00    -0.335 C  
BRANCH  16  17
HETATM   17  N   UNL     1     -13.159  14.540  70.069  1.00  0.00    -0.457 NA 
HETATM   18  H   UNL     1     -14.068  14.190  69.765  1.00  0.00     0.000 HD 
BRANCH  17  19
HETATM   19  C   UNL     1     -13.310  15.439  71.219  1.00  0.00    -0.520 C  
HETATM   20  C   UNL     1     -14.138  14.827  72.352  1.00  0.00    -0.548 C  
HETATM   21  C   UNL     1     -11.908  15.772  71.736  1.00  0.00    -0.549 C  
ENDBRANCH  17  19
ENDBRANCH  16  17
ENDBRANCH  13  16
ENDBRANCH  12  13
ENDBRANCH  11  12
ENDBRANCH   8  11
ENDBRANCH   4   5
ENDBRANCH   3   4
ENDBRANCH   2   3
TORSDOF 9
ENDMDL
MODEL       61
REMARK 921   NORMALIZED FREE ENERGY PREDICTED BY IDOCK:   -4.50 KCAL/MOL
REMARK 922        TOTAL FREE ENERGY PREDICTED BY IDOCK:   -7.51 KCAL/MOL
REMARK 923 INTER-LIGAND FREE ENERGY PREDICTED BY IDOCK:   -6.77 KCAL/MOL
REMARK 924 INTRA-LIGAND FREE ENERGY PREDICTED BY IDOCK:   -0.74 KCAL/MOL
REMARK 927      BINDING AFFINITY PREDICTED BY RF-SCORE:    0.00 PKD
ROOT
HETATM    1  C   UNL     1      -6.564  20.580  65.209  1.00  0.00    -0.251 C  
HETATM    2  O   UNL     1      -7.659  19.707  65.467  1.00  0.00    -0.411 OA 
ENDROOT
BRANCH   2   3
HETATM    3  C   UNL     1      -7.433  18.940  66.650  1.00  0.00    -0.229 C  
BRANCH   3   4
HETATM    4  C   UNL     1      -8.700  18.945  67.510  1.00  0.00    -0.296 C  
BRANCH   4   5
HETATM    5  C   UNL     1      -9.496  17.674  67.353  1.00  0.00    -0.256 A  
HETATM    6  C   UNL     1     -10.298  17.234  68.409  1.00  0.00    -0.366 A  
HETATM    7  C   UNL     1     -11.032  16.056  68.301  1.00  0.00    -0.335 A  
HETATM    8  C   UNL     1     -10.996  15.293  67.133  1.00  0.00    -0.331 A  
HETATM    9  C   UNL     1      -9.463  16.917  66.174  1.00  0.00    -0.274 A  
HETATM   10  C   UNL     1     -10.209  15.732  66.067  1.00  0.00    -0.352 A  
BRANCH   8  11
HETATM   11  O   UNL     1     -11.692  14.124  66.945  1.00  0.00    -0.372 OA 
BRANCH  11  12
HETATM   12  C   UNL     1     -12.342  14.015  65.665  1.00  0.00    -0.479 C  
BRANCH  12  13
HETATM   13  C   UNL     1     -12.170  12.616  65.058  1.00  0.00    -0.476 C  
HETATM   14  H   UNL     1     -13.174  11.447  63.834  1.00  0.00     0.000 HD 
HETATM   15  O   UNL     1     -13.281  12.313  64.210  1.00  0.00    -0.785 OA 
BRANCH  13  16
HETATM   16  C   UNL     1     -10.860  12.461  64.264  1.00  0.00    -0.355 C  
BRANCH  16  17
HETATM   17  N   UNL     1      -9.686  12.440  65.141  1.00  0.00    -0.451 NA 
HETATM   18  H   UNL     1      -9.652  13.281  65.716  1.00  0.00     0.000 HD 
BRANCH  17  19
HETATM   19  C   UNL     1      -9.593  11.238  65.979  1.00  0.00    -0.218 C  
HETATM   20  C   UNL     1      -9.694   9.939  65.175  1.00  0.00    -0.376 C  
HETATM   21  C   UNL     1      -8.246  11.282  66.707  1.00  0.00    -0.158 C  
ENDBRANCH  17  19
ENDBRANCH  16  17
ENDBRANCH  13  16
ENDBRANCH  12  13
ENDBRANCH  11  12
ENDBRANCH   8  11
ENDBRANCH   4   5
ENDBRANCH   3   4
ENDBRANCH   2   3
TORSDOF 9
ENDMDL
MODEL       62
REMARK 921   NORMALIZED FREE ENERGY PREDICTED BY IDOCK:   -4.49 KCAL/MOL
REMARK 922        TOTAL FREE ENERGY PREDICTED BY IDOCK:   -7.49 KCAL/MOL
REMARK 923 INTER-LIGAND FREE ENERGY PREDICTED BY IDOCK:   -6.81 KCAL/MOL
REMARK 924 INTRA-LIGAND FREE ENERGY PREDICTED BY IDOCK:   -0.68 KCAL/MOL
REMARK 927      BINDING AFFINITY PREDICTED BY RF-SCORE:    0.00 PKD
ROOT
HETATM    1  C   UNL     1      -8.226  18.601  68.220  1.00  0.00    -0.323 C  
HETATM    2  O   UNL     1      -9.385  19.257  67.716  1.00  0.00    -0.299 OA 
ENDROOT
BRANCH   2   3
HETATM    3  C   UNL     1     -10.412  18.314  67.406  1.00  0.00    -0.409 C  
BRANCH   3   4
HETATM    4  C   UNL     1     -10.606  17.366  68.592  1.00  0.00    -0.318 C  
BRANCH   4   5
HETATM    5  C   UNL     1     -10.994  15.977  68.150  1.00  0.00    -0.339 A  
HETATM    6  C   UNL     1     -11.625  15.122  69.055  1.00  0.00    -0.350 A  
HETATM    7  C   UNL     1     -11.981  13.829  68.682  1.00  0.00    -0.401 A  
HETATM    8  C   UNL     1     -11.729  13.359  67.392  1.00  0.00    -0.373 A  
HETATM    9  C   UNL     1     -10.747  15.516  66.850  1.00  0.00    -0.317 A  
HETATM   10  C   UNL     1     -11.112  14.212  66.475  1.00  0.00    -0.318 A  
BRANCH   8  11
HETATM   11  O   UNL     1     -12.052  12.102  66.944  1.00  0.00    -0.600 OA 
BRANCH  11  12
HETATM   12  C   UNL     1     -10.931  11.209  66.812  1.00  0.00    -0.249 C  
BRANCH  12  13
HETATM   13  C   UNL     1     -10.951  10.111  67.884  1.00  0.00    -0.277 C  
HETATM   14  H   UNL     1     -10.587   8.178  67.968  1.00  0.00     0.000 HD 
HETATM   15  O   UNL     1     -10.575   8.858  67.305  1.00  0.00    -0.283 OA 
BRANCH  13  16
HETATM   16  C   UNL     1     -10.032  10.420  69.080  1.00  0.00    -0.214 C  
BRANCH  16  17
HETATM   17  N   UNL     1     -10.781  10.949  70.224  1.00  0.00    -0.390 NA 
HETATM   18  H   UNL     1     -11.267  11.808  69.968  1.00  0.00     0.000 HD 
BRANCH  17  19
HETATM   19  C   UNL     1     -11.713   9.985  70.820  1.00  0.00    -0.350 C  
HETATM   20  C   UNL     1     -11.050   9.077  71.860  1.00  0.00    -0.433 C  
HETATM   21  C   UNL     1     -12.841  10.779  71.484  1.00  0.00    -0.567 C  
ENDBRANCH  17  19
ENDBRANCH  16  17
ENDBRANCH  13  16
ENDBRANCH  12  13
ENDBRANCH  11  12
ENDBRANCH   8  11
ENDBRANCH   4   5
ENDBRANCH   3   4
ENDBRANCH   2   3
TORSDOF 9
ENDMDL
MODEL       63
REMARK 921   NORMALIZED FREE ENERGY PREDICTED BY IDOCK:   -4.47 KCAL/MOL
REMARK 922        TOTAL FREE ENERGY PREDICTED BY IDOCK:   -7.47 KCAL/MOL
REMARK 923 INTER-LIGAND FREE ENERGY PREDICTED BY IDOCK:   -6.70 KCAL/MOL
REMARK 924 INTRA-LIGAND FREE ENERGY PREDICTED BY IDOCK:   -0.77 KCAL/MOL
REMARK 927      BINDING AFFINITY PREDICTED BY RF-SCORE:    0.00 PKD
ROOT
HETATM    1  C   UNL     1     -11.356   6.913  72.551  1.00  0.00    -0.253 C  
HETATM    2  O   UNL     1     -12.516   7.111  71.749  1.00  0.00    -0.328 OA 
ENDROOT
BRANCH   2   3
HETATM    3  C   UNL     1     -12.901   8.487  71.740  1.00  0.00    -0.348 C  
BRANCH   3   4
HETATM    4  C   UNL     1     -11.650   9.365  71.646  1.00  0.00    -0.466 C  
BRANCH   4   5
HETATM    5  C   UNL     1     -11.439   9.903  70.254  1.00  0.00    -0.349 A  
HETATM    6  C   UNL     1     -11.916  11.175  69.931  1.00  0.00    -0.439 A  
HETATM    7  C   UNL     1     -11.751  11.694  68.650  1.00  0.00    -0.386 A  
HETATM    8  C   UNL     1     -11.094  10.962  67.660  1.00  0.00    -0.313 A  
HETATM    9  C   UNL     1     -10.769   9.168  69.267  1.00  0.00    -0.199 A  
HETATM   10  C   UNL     1     -10.600   9.695  67.976  1.00  0.00    -0.292 A  
BRANCH   8  11
HETATM   11  O   UNL     1     -10.886  11.402  66.375  1.00  0.00    -0.269 OA 
BRANCH  11  12
HETATM   12  C   UNL     1     -10.126  10.500  65.551  1.00  0.00    -0.283 C  
BRANCH  12  13
HETATM   13  C   UNL     1      -9.755  11.136  64.205  1.00  0.00    -0.276 C  
HETATM   14  H   UNL     1      -9.487  10.526  62.352  1.00  0.00     0.000 HD 
HETATM   15  O   UNL     1      -9.717  10.132  63.186  1.00  0.00    -0.261 OA 
BRANCH  13  16
HETATM   16  C   UNL     1     -10.719  12.259  63.784  1.00  0.00    -0.449 C  
BRANCH  16  17
HETATM   17  N   UNL     1     -10.420  13.523  64.464  1.00  0.00    -0.472 NA 
HETATM   18  H   UNL     1      -9.599  13.966  64.053  1.00  0.00     0.000 HD 
BRANCH  17  19
HETATM   19  C   UNL     1     -11.549  14.460  64.498  1.00  0.00    -0.384 C  
HETATM   20  C   UNL     1     -12.674  14.007  65.433  1.00  0.00    -0.499 C  
HETATM   21  C   UNL     1     -11.014  15.816  64.966  1.00  0.00    -0.431 C  
ENDBRANCH  17  19
ENDBRANCH  16  17
ENDBRANCH  13  16
ENDBRANCH  12  13
ENDBRANCH  11  12
ENDBRANCH   8  11
ENDBRANCH   4   5
ENDBRANCH   3   4
ENDBRANCH   2   3
TORSDOF 9
ENDMDL
MODEL       64
REMARK 921   NORMALIZED FREE ENERGY PREDICTED BY IDOCK:   -4.47 KCAL/MOL
REMARK 922        TOTAL FREE ENERGY PREDICTED BY IDOCK:   -7.46 KCAL/MOL
REMARK 923 INTER-LIGAND FREE ENERGY PREDICTED BY IDOCK:   -6.55 KCAL/MOL
REMARK 924 INTRA-LIGAND FREE ENERGY PREDICTED BY IDOCK:   -0.91 KCAL/MOL
REMARK 927      BINDING AFFINITY PREDICTED BY RF-SCORE:    0.00 PKD
ROOT
HETATM    1  C   UNL     1     -12.672  15.810  73.725  1.00  0.00    -0.608 C  
HETATM    2  O   UNL     1     -12.884  16.050  72.337  1.00  0.00    -0.448 OA 
ENDROOT
BRANCH   2   3
HETATM    3  C   UNL     1     -13.920  15.210  71.826  1.00  0.00    -0.529 C  
BRANCH   3   4
HETATM    4  C   UNL     1     -13.783  13.809  72.429  1.00  0.00    -0.692 C  
BRANCH   4   5
HETATM    5  C   UNL     1     -13.061  12.862  71.505  1.00  0.00    -0.390 A  
HETATM    6  C   UNL     1     -13.087  11.492  71.771  1.00  0.00    -0.503 A  
HETATM    7  C   UNL     1     -12.417  10.593  70.946  1.00  0.00    -0.495 A  
HETATM    8  C   UNL     1     -11.713  11.037  69.825  1.00  0.00    -0.335 A  
HETATM    9  C   UNL     1     -12.365  13.313  70.375  1.00  0.00    -0.365 A  
HETATM   10  C   UNL     1     -11.693  12.403  69.542  1.00  0.00    -0.388 A  
BRANCH   8  11
HETATM   11  O   UNL     1     -11.031  10.217  68.959  1.00  0.00    -0.212 OA 
BRANCH  11  12
HETATM   12  C   UNL     1     -10.847  10.764  67.640  1.00  0.00    -0.279 C  
BRANCH  12  13
HETATM   13  C   UNL     1      -9.551  10.259  66.992  1.00  0.00    -0.171 C  
HETATM   14  H   UNL     1      -8.951   9.746  65.189  1.00  0.00     0.000 HD 
HETATM   15  O   UNL     1      -9.753  10.058  65.590  1.00  0.00    -0.230 OA 
BRANCH  13  16
HETATM   16  C   UNL     1      -8.360  11.209  67.209  1.00  0.00    -0.135 C  
BRANCH  16  17
HETATM   17  N   UNL     1      -8.479  11.962  68.461  1.00  0.00    -0.266 NA 
HETATM   18  H   UNL     1      -7.979  11.488  69.213  1.00  0.00     0.000 HD 
BRANCH  17  19
HETATM   19  C   UNL     1      -8.048  13.361  68.356  1.00  0.00    -0.138 C  
HETATM   20  C   UNL     1      -6.613  13.508  67.844  1.00  0.00    -0.154 C  
HETATM   21  C   UNL     1      -9.006  14.071  67.395  1.00  0.00    -0.208 C  
ENDBRANCH  17  19
ENDBRANCH  16  17
ENDBRANCH  13  16
ENDBRANCH  12  13
ENDBRANCH  11  12
ENDBRANCH   8  11
ENDBRANCH   4   5
ENDBRANCH   3   4
ENDBRANCH   2   3
TORSDOF 9
ENDMDL
MODEL       65
REMARK 921   NORMALIZED FREE ENERGY PREDICTED BY IDOCK:   -4.45 KCAL/MOL
REMARK 922        TOTAL FREE ENERGY PREDICTED BY IDOCK:   -7.43 KCAL/MOL
REMARK 923 INTER-LIGAND FREE ENERGY PREDICTED BY IDOCK:   -6.71 KCAL/MOL
REMARK 924 INTRA-LIGAND FREE ENERGY PREDICTED BY IDOCK:   -0.72 KCAL/MOL
REMARK 927      BINDING AFFINITY PREDICTED BY RF-SCORE:    0.00 PKD
ROOT
HETATM    1  C   UNL     1      -9.871   4.177  73.373  1.00  0.00    -0.123 C  
HETATM    2  O   UNL     1      -9.340   4.953  72.304  1.00  0.00    -0.135 OA 
ENDROOT
BRANCH   2   3
HETATM    3  C   UNL     1     -10.378   5.392  71.426  1.00  0.00    -0.228 C  
BRANCH   3   4
HETATM    4  C   UNL     1     -11.450   6.127  72.235  1.00  0.00    -0.360 C  
BRANCH   4   5
HETATM    5  C   UNL     1     -11.582   7.571  71.819  1.00  0.00    -0.304 A  
HETATM    6  C   UNL     1     -10.479   8.229  71.271  1.00  0.00    -0.262 A  
HETATM    7  C   UNL     1     -10.564   9.565  70.893  1.00  0.00    -0.395 A  
HETATM    8  C   UNL     1     -11.755  10.278  71.037  1.00  0.00    -0.370 A  
HETATM    9  C   UNL     1     -12.784   8.277  71.957  1.00  0.00    -0.376 A  
HETATM   10  C   UNL     1     -12.868   9.624  71.570  1.00  0.00    -0.485 A  
BRANCH   8  11
HETATM   11  O   UNL     1     -11.924  11.595  70.685  1.00  0.00    -0.358 OA 
BRANCH  11  12
HETATM   12  C   UNL     1     -11.949  11.834  69.265  1.00  0.00    -0.291 C  
BRANCH  12  13
HETATM   13  C   UNL     1     -11.211  13.128  68.895  1.00  0.00    -0.277 C  
HETATM   14  H   UNL     1     -10.730  14.084  67.243  1.00  0.00     0.000 HD 
HETATM   15  O   UNL     1     -11.186  13.284  67.473  1.00  0.00    -0.262 OA 
BRANCH  13  16
HETATM   16  C   UNL     1     -11.832  14.380  69.539  1.00  0.00    -0.329 C  
BRANCH  16  17
HETATM   17  N   UNL     1     -11.652  14.397  70.993  1.00  0.00    -0.513 NA 
HETATM   18  H   UNL     1     -10.758  14.823  71.239  1.00  0.00     0.000 HD 
BRANCH  17  19
HETATM   19  C   UNL     1     -12.750  15.043  71.720  1.00  0.00    -0.339 C  
HETATM   20  C   UNL     1     -13.650  14.046  72.455  1.00  0.00    -0.670 C  
HETATM   21  C   UNL     1     -12.131  16.012  72.732  1.00  0.00    -0.635 C  
ENDBRANCH  17  19
ENDBRANCH  16  17
ENDBRANCH  13  16
ENDBRANCH  12  13
ENDBRANCH  11  12
ENDBRANCH   8  11
ENDBRANCH   4   5
ENDBRANCH   3   4
ENDBRANCH   2   3
TORSDOF 9
ENDMDL
MODEL       66
REMARK 921   NORMALIZED FREE ENERGY PREDICTED BY IDOCK:   -4.45 KCAL/MOL
REMARK 922        TOTAL FREE ENERGY PREDICTED BY IDOCK:   -7.43 KCAL/MOL
REMARK 923 INTER-LIGAND FREE ENERGY PREDICTED BY IDOCK:   -6.81 KCAL/MOL
REMARK 924 INTRA-LIGAND FREE ENERGY PREDICTED BY IDOCK:   -0.62 KCAL/MOL
REMARK 927      BINDING AFFINITY PREDICTED BY RF-SCORE:    0.00 PKD
ROOT
HETATM    1  C   UNL     1     -11.417  15.697  64.305  1.00  0.00    -0.193 C  
HETATM    2  O   UNL     1     -12.449  14.734  64.122  1.00  0.00    -0.758 OA 
ENDROOT
BRANCH   2   3
HETATM    3  C   UNL     1     -12.523  13.846  65.238  1.00  0.00    -0.478 C  
BRANCH   3   4
HETATM    4  C   UNL     1     -11.804  14.473  66.436  1.00  0.00    -0.361 C  
BRANCH   4   5
HETATM    5  C   UNL     1     -11.866  13.592  67.658  1.00  0.00    -0.404 A  
HETATM    6  C   UNL     1     -11.772  12.207  67.509  1.00  0.00    -0.385 A  
HETATM    7  C   UNL     1     -11.842  11.366  68.615  1.00  0.00    -0.377 A  
HETATM    8  C   UNL     1     -11.994  11.884  69.902  1.00  0.00    -0.325 A  
HETATM    9  C   UNL     1     -12.009  14.120  68.948  1.00  0.00    -0.376 A  
HETATM   10  C   UNL     1     -12.074  13.269  70.063  1.00  0.00    -0.385 A  
BRANCH   8  11
HETATM   11  O   UNL     1     -12.067  11.125  71.044  1.00  0.00    -0.335 OA 
BRANCH  11  12
HETATM   12  C   UNL     1     -11.877   9.713  70.836  1.00  0.00    -0.323 C  
BRANCH  12  13
HETATM   13  C   UNL     1     -10.588   9.210  71.499  1.00  0.00    -0.358 C  
HETATM   14  H   UNL     1     -10.111   8.049  73.016  1.00  0.00     0.000 HD 
HETATM   15  O   UNL     1     -10.909   8.361  72.605  1.00  0.00    -0.342 OA 
BRANCH  13  16
HETATM   16  C   UNL     1      -9.664   8.456  70.525  1.00  0.00    -0.173 C  
BRANCH  16  17
HETATM   17  N   UNL     1     -10.199   8.444  69.160  1.00  0.00    -0.207 NA 
HETATM   18  H   UNL     1      -9.649   9.053  68.554  1.00  0.00     0.000 HD 
BRANCH  17  19
HETATM   19  C   UNL     1     -10.312   7.101  68.579  1.00  0.00    -0.183 C  
HETATM   20  C   UNL     1     -11.224   6.174  69.387  1.00  0.00    -0.466 C  
HETATM   21  C   UNL     1     -10.870   7.254  67.161  1.00  0.00    -0.378 C  
ENDBRANCH  17  19
ENDBRANCH  16  17
ENDBRANCH  13  16
ENDBRANCH  12  13
ENDBRANCH  11  12
ENDBRANCH   8  11
ENDBRANCH   4   5
ENDBRANCH   3   4
ENDBRANCH   2   3
TORSDOF 9
ENDMDL
MODEL       67
REMARK 921   NORMALIZED FREE ENERGY PREDICTED BY IDOCK:   -4.45 KCAL/MOL
REMARK 922        TOTAL FREE ENERGY PREDICTED BY IDOCK:   -7.42 KCAL/MOL
REMARK 923 INTER-LIGAND FREE ENERGY PREDICTED BY IDOCK:   -6.24 KCAL/MOL
REMARK 924 INTRA-LIGAND FREE ENERGY PREDICTED BY IDOCK:   -1.18 KCAL/MOL
REMARK 927      BINDING AFFINITY PREDICTED BY RF-SCORE:    0.00 PKD
ROOT
HETATM    1  C   UNL     1      -8.470  20.162  66.710  1.00  0.00    -0.302 C  
HETATM    2  O   UNL     1      -9.894  20.192  66.708  1.00  0.00    -0.405 OA 
ENDROOT
BRANCH   2   3
HETATM    3  C   UNL     1     -10.422  19.439  67.801  1.00  0.00    -0.441 C  
BRANCH   3   4
HETATM    4  C   UNL     1      -9.586  18.172  67.998  1.00  0.00    -0.304 C  
BRANCH   4   5
HETATM    5  C   UNL     1     -10.215  16.970  67.339  1.00  0.00    -0.314 A  
HETATM    6  C   UNL     1     -11.097  16.172  68.071  1.00  0.00    -0.317 A  
HETATM    7  C   UNL     1     -11.682  15.047  67.497  1.00  0.00    -0.270 A  
HETATM    8  C   UNL     1     -11.414  14.696  66.174  1.00  0.00    -0.339 A  
HETATM    9  C   UNL     1      -9.950  16.629  66.007  1.00  0.00    -0.346 A  
HETATM   10  C   UNL     1     -10.545  15.495  65.429  1.00  0.00    -0.428 A  
BRANCH   8  11
HETATM   11  O   UNL     1     -11.953  13.607  65.532  1.00  0.00    -0.346 OA 
BRANCH  11  12
HETATM   12  C   UNL     1     -11.126  13.060  64.488  1.00  0.00    -0.351 C  
BRANCH  12  13
HETATM   13  C   UNL     1     -11.042  11.530  64.573  1.00  0.00    -0.273 C  
HETATM   14  H   UNL     1     -10.262  10.073  63.505  1.00  0.00     0.000 HD 
HETATM   15  O   UNL     1     -10.314  11.019  63.452  1.00  0.00    -0.355 OA 
BRANCH  13  16
HETATM   16  C   UNL     1     -10.391  11.035  65.877  1.00  0.00    -0.257 C  
BRANCH  16  17
HETATM   17  N   UNL     1     -11.332  11.052  67.001  1.00  0.00    -0.396 NA 
HETATM   18  H   UNL     1     -11.922  10.221  66.988  1.00  0.00     0.000 HD 
BRANCH  17  19
HETATM   19  C   UNL     1     -10.688  11.208  68.311  1.00  0.00    -0.196 C  
HETATM   20  C   UNL     1      -9.445  12.101  68.264  1.00  0.00    -0.204 C  
HETATM   21  C   UNL     1     -11.718  11.819  69.265  1.00  0.00    -0.398 C  
ENDBRANCH  17  19
ENDBRANCH  16  17
ENDBRANCH  13  16
ENDBRANCH  12  13
ENDBRANCH  11  12
ENDBRANCH   8  11
ENDBRANCH   4   5
ENDBRANCH   3   4
ENDBRANCH   2   3
TORSDOF 9
ENDMDL
MODEL       68
REMARK 921   NORMALIZED FREE ENERGY PREDICTED BY IDOCK:   -4.42 KCAL/MOL
REMARK 922        TOTAL FREE ENERGY PREDICTED BY IDOCK:   -7.38 KCAL/MOL
REMARK 923 INTER-LIGAND FREE ENERGY PREDICTED BY IDOCK:   -6.68 KCAL/MOL
REMARK 924 INTRA-LIGAND FREE ENERGY PREDICTED BY IDOCK:   -0.70 KCAL/MOL
REMARK 927      BINDING AFFINITY PREDICTED BY RF-SCORE:    0.00 PKD
ROOT
HETATM    1  C   UNL     1     -12.242  15.764  73.213  1.00  0.00    -0.513 C  
HETATM    2  O   UNL     1     -13.642  15.687  72.960  1.00  0.00    -0.536 OA 
ENDROOT
BRANCH   2   3
HETATM    3  C   UNL     1     -13.915  14.821  71.858  1.00  0.00    -0.482 C  
BRANCH   3   4
HETATM    4  C   UNL     1     -13.909  13.367  72.340  1.00  0.00    -0.665 C  
BRANCH   4   5
HETATM    5  C   UNL     1     -13.025  12.492  71.488  1.00  0.00    -0.379 A  
HETATM    6  C   UNL     1     -12.975  11.119  71.739  1.00  0.00    -0.526 A  
HETATM    7  C   UNL     1     -12.157  10.287  70.981  1.00  0.00    -0.487 A  
HETATM    8  C   UNL     1     -11.377  10.799  69.943  1.00  0.00    -0.311 A  
HETATM    9  C   UNL     1     -12.253  13.011  70.440  1.00  0.00    -0.386 A  
HETATM   10  C   UNL     1     -11.431  12.168  69.675  1.00  0.00    -0.308 A  
BRANCH   8  11
HETATM   11  O   UNL     1     -10.548  10.047  69.147  1.00  0.00    -0.196 OA 
BRANCH  11  12
HETATM   12  C   UNL     1     -10.403   8.676  69.563  1.00  0.00    -0.214 C  
BRANCH  12  13
HETATM   13  C   UNL     1     -10.087   7.753  68.378  1.00  0.00    -0.192 C  
HETATM   14  H   UNL     1     -10.633   5.965  67.765  1.00  0.00     0.000 HD 
HETATM   15  O   UNL     1     -10.828   6.535  68.498  1.00  0.00    -0.247 OA 
BRANCH  13  16
HETATM   16  C   UNL     1     -10.383   8.403  67.014  1.00  0.00    -0.315 C  
BRANCH  16  17
HETATM   17  N   UNL     1      -9.263   9.221  66.541  1.00  0.00    -0.152 NA 
HETATM   18  H   UNL     1      -8.384   8.712  66.632  1.00  0.00     0.000 HD 
BRANCH  17  19
HETATM   19  C   UNL     1      -9.431   9.722  65.172  1.00  0.00    -0.273 C  
HETATM   20  C   UNL     1     -10.208  11.040  65.108  1.00  0.00    -0.352 C  
HETATM   21  C   UNL     1      -8.035   9.925  64.576  1.00  0.00    -0.145 C  
ENDBRANCH  17  19
ENDBRANCH  16  17
ENDBRANCH  13  16
ENDBRANCH  12  13
ENDBRANCH  11  12
ENDBRANCH   8  11
ENDBRANCH   4   5
ENDBRANCH   3   4
ENDBRANCH   2   3
TORSDOF 9
ENDMDL
MODEL       69
REMARK 921   NORMALIZED FREE ENERGY PREDICTED BY IDOCK:   -4.41 KCAL/MOL
REMARK 922        TOTAL FREE ENERGY PREDICTED BY IDOCK:   -7.37 KCAL/MOL
REMARK 923 INTER-LIGAND FREE ENERGY PREDICTED BY IDOCK:   -7.11 KCAL/MOL
REMARK 924 INTRA-LIGAND FREE ENERGY PREDICTED BY IDOCK:   -0.26 KCAL/MOL
REMARK 927      BINDING AFFINITY PREDICTED BY RF-SCORE:    0.00 PKD
ROOT
HETATM    1  C   UNL     1     -12.076   6.737  71.980  1.00  0.00    -0.305 C  
HETATM    2  O   UNL     1     -11.730   7.913  72.705  1.00  0.00    -0.364 OA 
ENDROOT
BRANCH   2   3
HETATM    3  C   UNL     1     -11.343   8.964  71.820  1.00  0.00    -0.361 C  
BRANCH   3   4
HETATM    4  C   UNL     1     -12.578   9.489  71.082  1.00  0.00    -0.383 C  
BRANCH   4   5
HETATM    5  C   UNL     1     -12.516  10.980  70.865  1.00  0.00    -0.509 A  
HETATM    6  C   UNL     1     -13.121  11.832  71.792  1.00  0.00    -0.480 A  
HETATM    7  C   UNL     1     -13.096  13.212  71.611  1.00  0.00    -0.444 A  
HETATM    8  C   UNL     1     -12.454  13.780  70.510  1.00  0.00    -0.339 A  
HETATM    9  C   UNL     1     -11.861  11.544  69.763  1.00  0.00    -0.429 A  
HETATM   10  C   UNL     1     -11.834  12.937  69.586  1.00  0.00    -0.387 A  
BRANCH   8  11
HETATM   11  O   UNL     1     -12.380  15.129  70.261  1.00  0.00    -0.321 OA 
BRANCH  11  12
HETATM   12  C   UNL     1     -11.869  15.469  68.959  1.00  0.00    -0.354 C  
BRANCH  12  13
HETATM   13  C   UNL     1     -10.708  16.468  69.048  1.00  0.00    -0.332 C  
HETATM   14  H   UNL     1      -8.775  16.397  69.413  1.00  0.00     0.000 HD 
HETATM   15  O   UNL     1      -9.494  15.778  69.359  1.00  0.00    -0.254 OA 
BRANCH  13  16
HETATM   16  C   UNL     1     -10.518  17.287  67.758  1.00  0.00    -0.371 C  
BRANCH  16  17
HETATM   17  N   UNL     1      -9.159  17.823  67.643  1.00  0.00    -0.244 NA 
HETATM   18  H   UNL     1      -8.925  18.001  66.666  1.00  0.00     0.000 HD 
BRANCH  17  19
HETATM   19  C   UNL     1      -8.923  19.020  68.458  1.00  0.00    -0.355 C  
HETATM   20  C   UNL     1      -7.834  19.930  67.882  1.00  0.00    -0.327 C  
HETATM   21  C   UNL     1     -10.241  19.794  68.541  1.00  0.00    -0.547 C  
ENDBRANCH  17  19
ENDBRANCH  16  17
ENDBRANCH  13  16
ENDBRANCH  12  13
ENDBRANCH  11  12
ENDBRANCH   8  11
ENDBRANCH   4   5
ENDBRANCH   3   4
ENDBRANCH   2   3
TORSDOF 9
ENDMDL
MODEL       70
REMARK 921   NORMALIZED FREE ENERGY PREDICTED BY IDOCK:   -4.41 KCAL/MOL
REMARK 922        TOTAL FREE ENERGY PREDICTED BY IDOCK:   -7.37 KCAL/MOL
REMARK 923 INTER-LIGAND FREE ENERGY PREDICTED BY IDOCK:   -6.98 KCAL/MOL
REMARK 924 INTRA-LIGAND FREE ENERGY PREDICTED BY IDOCK:   -0.38 KCAL/MOL
REMARK 927      BINDING AFFINITY PREDICTED BY RF-SCORE:    0.00 PKD
ROOT
HETATM    1  C   UNL     1     -12.174  16.335  73.211  1.00  0.00    -0.518 C  
HETATM    2  O   UNL     1     -13.587  16.256  73.362  1.00  0.00    -0.612 OA 
ENDROOT
BRANCH   2   3
HETATM    3  C   UNL     1     -14.154  15.358  72.407  1.00  0.00    -0.549 C  
BRANCH   3   4
HETATM    4  C   UNL     1     -13.181  15.177  71.239  1.00  0.00    -0.536 C  
BRANCH   4   5
HETATM    5  C   UNL     1     -12.835  13.728  71.009  1.00  0.00    -0.376 A  
HETATM    6  C   UNL     1     -12.069  13.375  69.895  1.00  0.00    -0.389 A  
HETATM    7  C   UNL     1     -11.746  12.044  69.646  1.00  0.00    -0.405 A  
HETATM    8  C   UNL     1     -12.167  11.031  70.509  1.00  0.00    -0.381 A  
HETATM    9  C   UNL     1     -13.252  12.716  71.884  1.00  0.00    -0.504 A  
HETATM   10  C   UNL     1     -12.921  11.375  71.632  1.00  0.00    -0.523 A  
BRANCH   8  11
HETATM   11  O   UNL     1     -11.888   9.697  70.338  1.00  0.00    -0.240 OA 
BRANCH  11  12
HETATM   12  C   UNL     1     -10.557   9.422  69.864  1.00  0.00    -0.234 C  
BRANCH  12  13
HETATM   13  C   UNL     1      -9.794   8.495  70.821  1.00  0.00    -0.182 C  
HETATM   14  H   UNL     1      -8.495   8.698  72.286  1.00  0.00     0.000 HD 
HETATM   15  O   UNL     1      -8.967   9.271  71.694  1.00  0.00    -0.311 OA 
BRANCH  13  16
HETATM   16  C   UNL     1     -10.723   7.597  71.657  1.00  0.00    -0.211 C  
BRANCH  16  17
HETATM   17  N   UNL     1      -9.996   6.492  72.289  1.00  0.00    -0.164 NA 
HETATM   18  H   UNL     1      -9.823   6.692  73.273  1.00  0.00     0.000 HD 
BRANCH  17  19
HETATM   19  C   UNL     1     -10.650   5.187  72.134  1.00  0.00    -0.211 C  
HETATM   20  C   UNL     1      -9.697   4.096  71.635  1.00  0.00    -0.246 C  
HETATM   21  C   UNL     1     -11.213   4.784  73.500  1.00  0.00    -0.392 C  
ENDBRANCH  17  19
ENDBRANCH  16  17
ENDBRANCH  13  16
ENDBRANCH  12  13
ENDBRANCH  11  12
ENDBRANCH   8  11
ENDBRANCH   4   5
ENDBRANCH   3   4
ENDBRANCH   2   3
TORSDOF 9
ENDMDL
MODEL       71
REMARK 921   NORMALIZED FREE ENERGY PREDICTED BY IDOCK:   -4.41 KCAL/MOL
REMARK 922        TOTAL FREE ENERGY PREDICTED BY IDOCK:   -7.36 KCAL/MOL
REMARK 923 INTER-LIGAND FREE ENERGY PREDICTED BY IDOCK:   -6.90 KCAL/MOL
REMARK 924 INTRA-LIGAND FREE ENERGY PREDICTED BY IDOCK:   -0.46 KCAL/MOL
REMARK 927      BINDING AFFINITY PREDICTED BY RF-SCORE:    0.00 PKD
ROOT
HETATM    1  C   UNL     1     -10.128  19.980  66.547  1.00  0.00    -0.482 C  
HETATM    2  O   UNL     1     -10.986  19.116  67.285  1.00  0.00    -0.478 OA 
ENDROOT
BRANCH   2   3
HETATM    3  C   UNL     1     -10.289  17.944  67.710  1.00  0.00    -0.387 C  
BRANCH   3   4
HETATM    4  C   UNL     1     -10.161  16.974  66.532  1.00  0.00    -0.321 C  
BRANCH   4   5
HETATM    5  C   UNL     1     -10.714  15.609  66.861  1.00  0.00    -0.307 A  
HETATM    6  C   UNL     1     -11.318  15.396  68.102  1.00  0.00    -0.353 A  
HETATM    7  C   UNL     1     -11.823  14.145  68.441  1.00  0.00    -0.388 A  
HETATM    8  C   UNL     1     -11.752  13.076  67.547  1.00  0.00    -0.370 A  
HETATM    9  C   UNL     1     -10.648  14.543  65.954  1.00  0.00    -0.315 A  
HETATM   10  C   UNL     1     -11.163  13.282  66.298  1.00  0.00    -0.321 A  
BRANCH   8  11
HETATM   11  O   UNL     1     -12.230  11.813  67.802  1.00  0.00    -0.536 OA 
BRANCH  11  12
HETATM   12  C   UNL     1     -11.717  11.213  69.006  1.00  0.00    -0.339 C  
BRANCH  12  13
HETATM   13  C   UNL     1     -10.740  10.070  68.700  1.00  0.00    -0.226 C  
HETATM   14  H   UNL     1      -8.818   9.886  68.320  1.00  0.00     0.000 HD 
HETATM   15  O   UNL     1      -9.422  10.593  68.510  1.00  0.00    -0.161 OA 
BRANCH  13  16
HETATM   16  C   UNL     1     -10.712   8.992  69.798  1.00  0.00    -0.225 C  
BRANCH  16  17
HETATM   17  N   UNL     1     -11.933   9.002  70.608  1.00  0.00    -0.469 NA 
HETATM   18  H   UNL     1     -12.744   9.230  70.033  1.00  0.00     0.000 HD 
BRANCH  17  19
HETATM   19  C   UNL     1     -12.162   7.757  71.352  1.00  0.00    -0.319 C  
HETATM   20  C   UNL     1     -11.687   6.513  70.597  1.00  0.00    -0.436 C  
HETATM   21  C   UNL     1     -11.407   7.865  72.680  1.00  0.00    -0.468 C  
ENDBRANCH  17  19
ENDBRANCH  16  17
ENDBRANCH  13  16
ENDBRANCH  12  13
ENDBRANCH  11  12
ENDBRANCH   8  11
ENDBRANCH   4   5
ENDBRANCH   3   4
ENDBRANCH   2   3
TORSDOF 9
ENDMDL
MODEL       72
REMARK 921   NORMALIZED FREE ENERGY PREDICTED BY IDOCK:   -4.40 KCAL/MOL
REMARK 922        TOTAL FREE ENERGY PREDICTED BY IDOCK:   -7.36 KCAL/MOL
REMARK 923 INTER-LIGAND FREE ENERGY PREDICTED BY IDOCK:   -6.92 KCAL/MOL
REMARK 924 INTRA-LIGAND FREE ENERGY PREDICTED BY IDOCK:   -0.44 KCAL/MOL
REMARK 927      BINDING AFFINITY PREDICTED BY RF-SCORE:    0.00 PKD
ROOT
HETATM    1  C   UNL     1      -7.058  20.638  67.506  1.00  0.00    -0.344 C  
HETATM    2  O   UNL     1      -8.103  20.105  66.698  1.00  0.00    -0.302 OA 
ENDROOT
BRANCH   2   3
HETATM    3  C   UNL     1      -9.384  20.474  67.212  1.00  0.00    -0.389 C  
BRANCH   3   4
HETATM    4  C   UNL     1     -10.475  19.708  66.457  1.00  0.00    -0.612 C  
BRANCH   4   5
HETATM    5  C   UNL     1     -10.488  18.243  66.814  1.00  0.00    -0.387 A  
HETATM    6  C   UNL     1     -10.430  17.290  65.795  1.00  0.00    -0.237 A  
HETATM    7  C   UNL     1     -10.457  15.930  66.091  1.00  0.00    -0.336 A  
HETATM    8  C   UNL     1     -10.528  15.484  67.411  1.00  0.00    -0.281 A  
HETATM    9  C   UNL     1     -10.548  17.802  68.143  1.00  0.00    -0.350 A  
HETATM   10  C   UNL     1     -10.571  16.429  68.438  1.00  0.00    -0.311 A  
BRANCH   8  11
HETATM   11  O   UNL     1     -10.553  14.163  67.787  1.00  0.00    -0.240 OA 
BRANCH  11  12
HETATM   12  C   UNL     1     -10.696  13.235  66.696  1.00  0.00    -0.280 C  
BRANCH  12  13
HETATM   13  C   UNL     1     -11.501  11.995  67.108  1.00  0.00    -0.335 C  
HETATM   14  H   UNL     1     -11.251  10.043  67.071  1.00  0.00     0.000 HD 
HETATM   15  O   UNL     1     -10.753  10.810  66.816  1.00  0.00    -0.255 OA 
BRANCH  13  16
HETATM   16  C   UNL     1     -11.895  12.000  68.596  1.00  0.00    -0.311 C  
BRANCH  16  17
HETATM   17  N   UNL     1     -12.247  10.660  69.076  1.00  0.00    -0.769 NA 
HETATM   18  H   UNL     1     -11.850   9.945  68.467  1.00  0.00     0.000 HD 
BRANCH  17  19
HETATM   19  C   UNL     1     -11.875  10.414  70.474  1.00  0.00    -0.337 C  
HETATM   20  C   UNL     1     -12.999  10.747  71.459  1.00  0.00    -0.562 C  
HETATM   21  C   UNL     1     -11.508   8.933  70.602  1.00  0.00    -0.280 C  
ENDBRANCH  17  19
ENDBRANCH  16  17
ENDBRANCH  13  16
ENDBRANCH  12  13
ENDBRANCH  11  12
ENDBRANCH   8  11
ENDBRANCH   4   5
ENDBRANCH   3   4
ENDBRANCH   2   3
TORSDOF 9
ENDMDL
MODEL       73
REMARK 921   NORMALIZED FREE ENERGY PREDICTED BY IDOCK:   -4.40 KCAL/MOL
REMARK 922        TOTAL FREE ENERGY PREDICTED BY IDOCK:   -7.35 KCAL/MOL
REMARK 923 INTER-LIGAND FREE ENERGY PREDICTED BY IDOCK:   -6.15 KCAL/MOL
REMARK 924 INTRA-LIGAND FREE ENERGY PREDICTED BY IDOCK:   -1.19 KCAL/MOL
REMARK 927      BINDING AFFINITY PREDICTED BY RF-SCORE:    0.00 PKD
ROOT
HETATM    1  C   UNL     1      -8.366  20.424  67.321  1.00  0.00    -0.335 C  
HETATM    2  O   UNL     1      -9.767  20.455  67.576  1.00  0.00    -0.409 OA 
ENDROOT
BRANCH   2   3
HETATM    3  C   UNL     1     -10.483  19.718  66.583  1.00  0.00    -0.497 C  
BRANCH   3   4
HETATM    4  C   UNL     1      -9.664  18.492  66.170  1.00  0.00    -0.241 C  
BRANCH   4   5
HETATM    5  C   UNL     1     -10.322  17.203  66.593  1.00  0.00    -0.310 A  
HETATM    6  C   UNL     1     -10.702  17.034  67.926  1.00  0.00    -0.348 A  
HETATM    7  C   UNL     1     -11.297  15.850  68.351  1.00  0.00    -0.361 A  
HETATM    8  C   UNL     1     -11.541  14.807  67.456  1.00  0.00    -0.361 A  
HETATM    9  C   UNL     1     -10.573  16.164  65.686  1.00  0.00    -0.377 A  
HETATM   10  C   UNL     1     -11.177  14.972  66.118  1.00  0.00    -0.307 A  
BRANCH   8  11
HETATM   11  O   UNL     1     -12.126  13.611  67.793  1.00  0.00    -0.358 OA 
BRANCH  11  12
HETATM   12  C   UNL     1     -11.866  13.179  69.141  1.00  0.00    -0.314 C  
BRANCH  12  13
HETATM   13  C   UNL     1     -11.343  11.736  69.183  1.00  0.00    -0.279 C  
HETATM   14  H   UNL     1     -12.007   9.952  68.682  1.00  0.00     0.000 HD 
HETATM   15  O   UNL     1     -12.331  10.845  68.656  1.00  0.00    -0.501 OA 
BRANCH  13  16
HETATM   16  C   UNL     1     -10.022  11.552  68.415  1.00  0.00    -0.206 C  
BRANCH  16  17
HETATM   17  N   UNL     1      -9.114  12.686  68.606  1.00  0.00    -0.397 NA 
HETATM   18  H   UNL     1      -8.475  12.508  69.380  1.00  0.00     0.000 HD 
BRANCH  17  19
HETATM   19  C   UNL     1      -8.370  13.060  67.397  1.00  0.00    -0.194 C  
HETATM   20  C   UNL     1      -7.766  14.465  67.476  1.00  0.00    -0.210 C  
HETATM   21  C   UNL     1      -7.249  12.034  67.205  1.00  0.00    -0.150 C  
ENDBRANCH  17  19
ENDBRANCH  16  17
ENDBRANCH  13  16
ENDBRANCH  12  13
ENDBRANCH  11  12
ENDBRANCH   8  11
ENDBRANCH   4   5
ENDBRANCH   3   4
ENDBRANCH   2   3
TORSDOF 9
ENDMDL
MODEL       74
REMARK 921   NORMALIZED FREE ENERGY PREDICTED BY IDOCK:   -4.39 KCAL/MOL
REMARK 922        TOTAL FREE ENERGY PREDICTED BY IDOCK:   -7.34 KCAL/MOL
REMARK 923 INTER-LIGAND FREE ENERGY PREDICTED BY IDOCK:   -6.16 KCAL/MOL
REMARK 924 INTRA-LIGAND FREE ENERGY PREDICTED BY IDOCK:   -1.18 KCAL/MOL
REMARK 927      BINDING AFFINITY PREDICTED BY RF-SCORE:    0.00 PKD
ROOT
HETATM    1  C   UNL     1      -8.613  20.604  67.202  1.00  0.00    -0.199 C  
HETATM    2  O   UNL     1      -9.707  20.374  66.319  1.00  0.00    -0.359 OA 
ENDROOT
BRANCH   2   3
HETATM    3  C   UNL     1     -10.685  19.530  66.928  1.00  0.00    -0.464 C  
BRANCH   3   4
HETATM    4  C   UNL     1     -10.027  18.707  68.039  1.00  0.00    -0.389 C  
BRANCH   4   5
HETATM    5  C   UNL     1      -9.820  17.270  67.633  1.00  0.00    -0.279 A  
HETATM    6  C   UNL     1     -10.500  16.260  68.317  1.00  0.00    -0.284 A  
HETATM    7  C   UNL     1     -10.318  14.923  67.977  1.00  0.00    -0.244 A  
HETATM    8  C   UNL     1      -9.464  14.558  66.936  1.00  0.00    -0.252 A  
HETATM    9  C   UNL     1      -8.969  16.911  66.579  1.00  0.00    -0.303 A  
HETATM   10  C   UNL     1      -8.791  15.560  66.236  1.00  0.00    -0.338 A  
BRANCH   8  11
HETATM   11  O   UNL     1      -9.233  13.264  66.535  1.00  0.00    -0.240 OA 
BRANCH  11  12
HETATM   12  C   UNL     1      -9.142  12.313  67.612  1.00  0.00    -0.184 C  
BRANCH  12  13
HETATM   13  C   UNL     1     -10.245  11.250  67.526  1.00  0.00    -0.189 C  
HETATM   14  H   UNL     1     -11.924  10.841  68.469  1.00  0.00     0.000 HD 
HETATM   15  O   UNL     1     -11.241  11.499  68.523  1.00  0.00    -0.215 OA 
BRANCH  13  16
HETATM   16  C   UNL     1     -10.911  11.185  66.139  1.00  0.00    -0.185 C  
BRANCH  16  17
HETATM   17  N   UNL     1     -11.991  12.166  66.002  1.00  0.00    -0.585 NA 
HETATM   18  H   UNL     1     -11.847  12.949  66.640  1.00  0.00     0.000 HD 
BRANCH  17  19
HETATM   19  C   UNL     1     -12.185  12.647  64.630  1.00  0.00    -0.452 C  
HETATM   20  C   UNL     1     -12.146  14.174  64.519  1.00  0.00    -0.489 C  
HETATM   21  C   UNL     1     -11.073  12.046  63.765  1.00  0.00    -0.510 C  
ENDBRANCH  17  19
ENDBRANCH  16  17
ENDBRANCH  13  16
ENDBRANCH  12  13
ENDBRANCH  11  12
ENDBRANCH   8  11
ENDBRANCH   4   5
ENDBRANCH   3   4
ENDBRANCH   2   3
TORSDOF 9
ENDMDL
MODEL       75
REMARK 921   NORMALIZED FREE ENERGY PREDICTED BY IDOCK:   -4.38 KCAL/MOL
REMARK 922        TOTAL FREE ENERGY PREDICTED BY IDOCK:   -7.32 KCAL/MOL
REMARK 923 INTER-LIGAND FREE ENERGY PREDICTED BY IDOCK:   -6.33 KCAL/MOL
REMARK 924 INTRA-LIGAND FREE ENERGY PREDICTED BY IDOCK:   -0.99 KCAL/MOL
REMARK 927      BINDING AFFINITY PREDICTED BY RF-SCORE:    0.00 PKD
ROOT
HETATM    1  C   UNL     1      -5.633  20.920  67.406  1.00  0.00    -0.237 C  
HETATM    2  O   UNL     1      -6.289  20.188  66.376  1.00  0.00    -0.184 OA 
ENDROOT
BRANCH   2   3
HETATM    3  C   UNL     1      -7.707  20.247  66.532  1.00  0.00    -0.241 C  
BRANCH   3   4
HETATM    4  C   UNL     1      -8.139  19.272  67.631  1.00  0.00    -0.311 C  
BRANCH   4   5
HETATM    5  C   UNL     1      -8.665  17.977  67.066  1.00  0.00    -0.253 A  
HETATM    6  C   UNL     1      -9.895  17.969  66.404  1.00  0.00    -0.340 A  
HETATM    7  C   UNL     1     -10.415  16.787  65.885  1.00  0.00    -0.311 A  
HETATM    8  C   UNL     1      -9.717  15.584  66.001  1.00  0.00    -0.345 A  
HETATM    9  C   UNL     1      -7.954  16.775  67.176  1.00  0.00    -0.210 A  
HETATM   10  C   UNL     1      -8.480  15.585  66.648  1.00  0.00    -0.314 A  
BRANCH   8  11
HETATM   11  O   UNL     1     -10.157  14.377  65.513  1.00  0.00    -0.331 OA 
BRANCH  11  12
HETATM   12  C   UNL     1     -10.169  13.312  66.481  1.00  0.00    -0.283 C  
BRANCH  12  13
HETATM   13  C   UNL     1     -11.546  13.161  67.142  1.00  0.00    -0.361 C  
HETATM   14  H   UNL     1     -12.800  11.694  67.532  1.00  0.00     0.000 HD 
HETATM   15  O   UNL     1     -11.948  11.788  67.123  1.00  0.00    -0.617 OA 
BRANCH  13  16
HETATM   16  C   UNL     1     -11.580  13.686  68.589  1.00  0.00    -0.329 C  
BRANCH  16  17
HETATM   17  N   UNL     1     -12.374  14.912  68.709  1.00  0.00    -0.594 NA 
HETATM   18  H   UNL     1     -13.371  14.700  68.662  1.00  0.00     0.000 HD 
BRANCH  17  19
HETATM   19  C   UNL     1     -12.070  15.701  69.908  1.00  0.00    -0.341 C  
HETATM   20  C   UNL     1     -11.962  14.847  71.175  1.00  0.00    -0.389 C  
HETATM   21  C   UNL     1     -10.741  16.421  69.666  1.00  0.00    -0.337 C  
ENDBRANCH  17  19
ENDBRANCH  16  17
ENDBRANCH  13  16
ENDBRANCH  12  13
ENDBRANCH  11  12
ENDBRANCH   8  11
ENDBRANCH   4   5
ENDBRANCH   3   4
ENDBRANCH   2   3
TORSDOF 9
ENDMDL
MODEL       76
REMARK 921   NORMALIZED FREE ENERGY PREDICTED BY IDOCK:   -4.36 KCAL/MOL
REMARK 922        TOTAL FREE ENERGY PREDICTED BY IDOCK:   -7.29 KCAL/MOL
REMARK 923 INTER-LIGAND FREE ENERGY PREDICTED BY IDOCK:   -6.58 KCAL/MOL
REMARK 924 INTRA-LIGAND FREE ENERGY PREDICTED BY IDOCK:   -0.71 KCAL/MOL
REMARK 927      BINDING AFFINITY PREDICTED BY RF-SCORE:    0.00 PKD
ROOT
HETATM    1  C   UNL     1     -10.567  18.843  66.999  1.00  0.00    -0.438 C  
HETATM    2  O   UNL     1     -10.310  18.442  65.657  1.00  0.00    -0.605 OA 
ENDROOT
BRANCH   2   3
HETATM    3  C   UNL     1      -9.985  17.053  65.592  1.00  0.00    -0.053 C  
BRANCH   3   4
HETATM    4  C   UNL     1     -11.146  16.288  64.950  1.00  0.00    -0.301 C  
BRANCH   4   5
HETATM    5  C   UNL     1     -11.377  14.952  65.610  1.00  0.00    -0.325 A  
HETATM    6  C   UNL     1     -11.816  14.909  66.935  1.00  0.00    -0.202 A  
HETATM    7  C   UNL     1     -12.023  13.692  67.576  1.00  0.00    -0.393 A  
HETATM    8  C   UNL     1     -11.810  12.484  66.910  1.00  0.00    -0.334 A  
HETATM    9  C   UNL     1     -11.172  13.744  64.931  1.00  0.00    -0.352 A  
HETATM   10  C   UNL     1     -11.386  12.516  65.580  1.00  0.00    -0.372 A  
BRANCH   8  11
HETATM   11  O   UNL     1     -11.995  11.243  67.468  1.00  0.00    -0.612 OA 
BRANCH  11  12
HETATM   12  C   UNL     1     -10.810  10.427  67.515  1.00  0.00    -0.301 C  
BRANCH  12  13
HETATM   13  C   UNL     1     -10.183  10.417  68.916  1.00  0.00    -0.205 C  
HETATM   14  H   UNL     1      -8.660  11.282  69.815  1.00  0.00     0.000 HD 
HETATM   15  O   UNL     1      -9.048  11.288  68.948  1.00  0.00    -0.149 OA 
BRANCH  13  16
HETATM   16  C   UNL     1     -11.174  10.825  70.022  1.00  0.00    -0.291 C  
BRANCH  16  17
HETATM   17  N   UNL     1     -12.259   9.851  70.172  1.00  0.00    -0.485 NA 
HETATM   18  H   UNL     1     -12.141   9.079  69.517  1.00  0.00     0.000 HD 
BRANCH  17  19
HETATM   19  C   UNL     1     -12.419   9.347  71.541  1.00  0.00    -0.366 C  
HETATM   20  C   UNL     1     -13.607   8.394  71.693  1.00  0.00    -0.380 C  
HETATM   21  C   UNL     1     -11.128   8.616  71.921  1.00  0.00    -0.416 C  
ENDBRANCH  17  19
ENDBRANCH  16  17
ENDBRANCH  13  16
ENDBRANCH  12  13
ENDBRANCH  11  12
ENDBRANCH   8  11
ENDBRANCH   4   5
ENDBRANCH   3   4
ENDBRANCH   2   3
TORSDOF 9
ENDMDL
MODEL       77
REMARK 921   NORMALIZED FREE ENERGY PREDICTED BY IDOCK:   -4.36 KCAL/MOL
REMARK 922        TOTAL FREE ENERGY PREDICTED BY IDOCK:   -7.29 KCAL/MOL
REMARK 923 INTER-LIGAND FREE ENERGY PREDICTED BY IDOCK:   -6.39 KCAL/MOL
REMARK 924 INTRA-LIGAND FREE ENERGY PREDICTED BY IDOCK:   -0.89 KCAL/MOL
REMARK 927      BINDING AFFINITY PREDICTED BY RF-SCORE:    0.00 PKD
ROOT
HETATM    1  C   UNL     1     -11.409  15.320  67.983  1.00  0.00    -0.338 C  
HETATM    2  O   UNL     1     -11.328  15.105  66.578  1.00  0.00    -0.324 OA 
ENDROOT
BRANCH   2   3
HETATM    3  C   UNL     1     -12.287  14.135  66.154  1.00  0.00    -0.436 C  
BRANCH   3   4
HETATM    4  C   UNL     1     -11.638  13.186  65.143  1.00  0.00    -0.347 C  
BRANCH   4   5
HETATM    5  C   UNL     1     -11.126  11.927  65.796  1.00  0.00    -0.367 A  
HETATM    6  C   UNL     1     -11.432  11.677  67.135  1.00  0.00    -0.344 A  
HETATM    7  C   UNL     1     -10.962  10.532  67.771  1.00  0.00    -0.372 A  
HETATM    8  C   UNL     1     -10.184   9.598  67.084  1.00  0.00    -0.243 A  
HETATM    9  C   UNL     1     -10.355  10.988  65.097  1.00  0.00    -0.346 A  
HETATM   10  C   UNL     1      -9.885   9.832  65.741  1.00  0.00    -0.360 A  
BRANCH   8  11
HETATM   11  O   UNL     1      -9.685   8.443  67.635  1.00  0.00    -0.148 OA 
BRANCH  11  12
HETATM   12  C   UNL     1      -9.737   7.296  66.767  1.00  0.00    -0.198 C  
BRANCH  12  13
HETATM   13  C   UNL     1     -10.859   6.329  67.169  1.00  0.00    -0.381 C  
HETATM   14  H   UNL     1     -11.474   4.539  66.631  1.00  0.00     0.000 HD 
HETATM   15  O   UNL     1     -10.780   5.138  66.382  1.00  0.00    -0.308 OA 
BRANCH  13  16
HETATM   16  C   UNL     1     -10.828   5.961  68.664  1.00  0.00    -0.261 C  
BRANCH  16  17
HETATM   17  N   UNL     1     -11.762   6.774  69.449  1.00  0.00    -0.631 NA 
HETATM   18  H   UNL     1     -12.640   6.275  69.591  1.00  0.00     0.000 HD 
BRANCH  17  19
HETATM   19  C   UNL     1     -11.216   7.234  70.730  1.00  0.00    -0.274 C  
HETATM   20  C   UNL     1     -11.424   8.733  70.966  1.00  0.00    -0.337 C  
HETATM   21  C   UNL     1     -11.910   6.443  71.843  1.00  0.00    -0.380 C  
ENDBRANCH  17  19
ENDBRANCH  16  17
ENDBRANCH  13  16
ENDBRANCH  12  13
ENDBRANCH  11  12
ENDBRANCH   8  11
ENDBRANCH   4   5
ENDBRANCH   3   4
ENDBRANCH   2   3
TORSDOF 9
ENDMDL
MODEL       78
REMARK 921   NORMALIZED FREE ENERGY PREDICTED BY IDOCK:   -4.36 KCAL/MOL
REMARK 922        TOTAL FREE ENERGY PREDICTED BY IDOCK:   -7.29 KCAL/MOL
REMARK 923 INTER-LIGAND FREE ENERGY PREDICTED BY IDOCK:   -6.91 KCAL/MOL
REMARK 924 INTRA-LIGAND FREE ENERGY PREDICTED BY IDOCK:   -0.37 KCAL/MOL
REMARK 927      BINDING AFFINITY PREDICTED BY RF-SCORE:    0.00 PKD
ROOT
HETATM    1  C   UNL     1     -10.629   6.537  73.292  1.00  0.00    -0.276 C  
HETATM    2  O   UNL     1     -10.185   7.691  72.586  1.00  0.00    -0.220 OA 
ENDROOT
BRANCH   2   3
HETATM    3  C   UNL     1     -10.753   7.739  71.276  1.00  0.00    -0.228 C  
BRANCH   3   4
HETATM    4  C   UNL     1     -12.197   8.242  71.366  1.00  0.00    -0.328 C  
BRANCH   4   5
HETATM    5  C   UNL     1     -12.292   9.731  71.148  1.00  0.00    -0.451 A  
HETATM    6  C   UNL     1     -11.554  10.321  70.121  1.00  0.00    -0.376 A  
HETATM    7  C   UNL     1     -11.608  11.695  69.905  1.00  0.00    -0.366 A  
HETATM    8  C   UNL     1     -12.410  12.515  70.699  1.00  0.00    -0.282 A  
HETATM    9  C   UNL     1     -13.108  10.547  71.943  1.00  0.00    -0.567 A  
HETATM   10  C   UNL     1     -13.164  11.932  71.720  1.00  0.00    -0.426 A  
BRANCH   8  11
HETATM   11  O   UNL     1     -12.523  13.876  70.549  1.00  0.00    -0.334 OA 
BRANCH  11  12
HETATM   12  C   UNL     1     -11.638  14.443  69.566  1.00  0.00    -0.304 C  
BRANCH  12  13
HETATM   13  C   UNL     1     -11.594  15.975  69.657  1.00  0.00    -0.299 C  
HETATM   14  H   UNL     1     -11.380  17.323  71.075  1.00  0.00     0.000 HD 
HETATM   15  O   UNL     1     -11.408  16.376  71.018  1.00  0.00    -0.364 OA 
BRANCH  13  16
HETATM   16  C   UNL     1     -10.493  16.599  68.782  1.00  0.00    -0.324 C  
BRANCH  16  17
HETATM   17  N   UNL     1     -10.485  18.062  68.870  1.00  0.00    -0.404 NA 
HETATM   18  H   UNL     1      -9.638  18.389  69.335  1.00  0.00     0.000 HD 
BRANCH  17  19
HETATM   19  C   UNL     1     -10.658  18.735  67.577  1.00  0.00    -0.435 C  
HETATM   20  C   UNL     1      -9.997  20.116  67.529  1.00  0.00    -0.571 C  
HETATM   21  C   UNL     1     -10.042  17.838  66.500  1.00  0.00    -0.358 C  
ENDBRANCH  17  19
ENDBRANCH  16  17
ENDBRANCH  13  16
ENDBRANCH  12  13
ENDBRANCH  11  12
ENDBRANCH   8  11
ENDBRANCH   4   5
ENDBRANCH   3   4
ENDBRANCH   2   3
TORSDOF 9
ENDMDL
MODEL       79
REMARK 921   NORMALIZED FREE ENERGY PREDICTED BY IDOCK:   -4.33 KCAL/MOL
REMARK 922        TOTAL FREE ENERGY PREDICTED BY IDOCK:   -7.25 KCAL/MOL
REMARK 923 INTER-LIGAND FREE ENERGY PREDICTED BY IDOCK:   -6.43 KCAL/MOL
REMARK 924 INTRA-LIGAND FREE ENERGY PREDICTED BY IDOCK:   -0.82 KCAL/MOL
REMARK 927      BINDING AFFINITY PREDICTED BY RF-SCORE:    0.00 PKD
ROOT
HETATM    1  C   UNL     1     -10.669  19.839  65.890  1.00  0.00    -0.383 C  
HETATM    2  O   UNL     1      -9.545  20.174  66.698  1.00  0.00    -0.391 OA 
ENDROOT
BRANCH   2   3
HETATM    3  C   UNL     1      -9.726  19.716  68.039  1.00  0.00    -0.396 C  
BRANCH   3   4
HETATM    4  C   UNL     1      -8.772  18.549  68.311  1.00  0.00    -0.333 C  
BRANCH   4   5
HETATM    5  C   UNL     1      -9.505  17.238  68.443  1.00  0.00    -0.283 A  
HETATM    6  C   UNL     1      -8.776  16.047  68.478  1.00  0.00    -0.195 A  
HETATM    7  C   UNL     1      -9.423  14.819  68.583  1.00  0.00    -0.213 A  
HETATM    8  C   UNL     1     -10.814  14.747  68.671  1.00  0.00    -0.253 A  
HETATM    9  C   UNL     1     -10.901  17.173  68.542  1.00  0.00    -0.281 A  
HETATM   10  C   UNL     1     -11.551  15.933  68.653  1.00  0.00    -0.383 A  
BRANCH   8  11
HETATM   11  O   UNL     1     -11.528  13.579  68.782  1.00  0.00    -0.266 OA 
BRANCH  11  12
HETATM   12  C   UNL     1     -12.033  13.068  67.535  1.00  0.00    -0.306 C  
BRANCH  12  13
HETATM   13  C   UNL     1     -11.387  11.724  67.169  1.00  0.00    -0.322 C  
HETATM   14  H   UNL     1      -9.776  11.117  66.215  1.00  0.00     0.000 HD 
HETATM   15  O   UNL     1     -10.176  11.949  66.441  1.00  0.00    -0.203 OA 
BRANCH  13  16
HETATM   16  C   UNL     1     -11.094  10.844  68.397  1.00  0.00    -0.262 C  
BRANCH  16  17
HETATM   17  N   UNL     1     -12.242  10.767  69.304  1.00  0.00    -0.651 NA 
HETATM   18  H   UNL     1     -12.833   9.970  69.069  1.00  0.00     0.000 HD 
BRANCH  17  19
HETATM   19  C   UNL     1     -11.875  10.736  70.725  1.00  0.00    -0.339 C  
HETATM   20  C   UNL     1     -13.085  10.832  71.658  1.00  0.00    -0.551 C  
HETATM   21  C   UNL     1     -11.135   9.421  70.985  1.00  0.00    -0.414 C  
ENDBRANCH  17  19
ENDBRANCH  16  17
ENDBRANCH  13  16
ENDBRANCH  12  13
ENDBRANCH  11  12
ENDBRANCH   8  11
ENDBRANCH   4   5
ENDBRANCH   3   4
ENDBRANCH   2   3
TORSDOF 9
ENDMDL
MODEL       80
REMARK 921   NORMALIZED FREE ENERGY PREDICTED BY IDOCK:   -4.33 KCAL/MOL
REMARK 922        TOTAL FREE ENERGY PREDICTED BY IDOCK:   -7.24 KCAL/MOL
REMARK 923 INTER-LIGAND FREE ENERGY PREDICTED BY IDOCK:   -6.59 KCAL/MOL
REMARK 924 INTRA-LIGAND FREE ENERGY PREDICTED BY IDOCK:   -0.65 KCAL/MOL
REMARK 927      BINDING AFFINITY PREDICTED BY RF-SCORE:    0.00 PKD
ROOT
HETATM    1  C   UNL     1     -11.544   7.791  72.636  1.00  0.00    -0.344 C  
HETATM    2  O   UNL     1     -10.987   8.969  72.061  1.00  0.00    -0.358 OA 
ENDROOT
BRANCH   2   3
HETATM    3  C   UNL     1     -11.826   9.475  71.022  1.00  0.00    -0.330 C  
BRANCH   3   4
HETATM    4  C   UNL     1     -12.910  10.367  71.632  1.00  0.00    -0.579 C  
BRANCH   4   5
HETATM    5  C   UNL     1     -12.738  11.815  71.245  1.00  0.00    -0.420 A  
HETATM    6  C   UNL     1     -11.987  12.135  70.111  1.00  0.00    -0.394 A  
HETATM    7  C   UNL     1     -11.796  13.461  69.737  1.00  0.00    -0.393 A  
HETATM    8  C   UNL     1     -12.359  14.504  70.474  1.00  0.00    -0.337 A  
HETATM    9  C   UNL     1     -13.315  12.856  71.984  1.00  0.00    -0.579 A  
HETATM   10  C   UNL     1     -13.123  14.193  71.600  1.00  0.00    -0.425 A  
BRANCH   8  11
HETATM   11  O   UNL     1     -12.222  15.836  70.170  1.00  0.00    -0.374 OA 
BRANCH  11  12
HETATM   12  C   UNL     1     -10.918  16.207  69.687  1.00  0.00    -0.346 C  
BRANCH  12  13
HETATM   13  C   UNL     1     -11.004  17.033  68.396  1.00  0.00    -0.263 C  
HETATM   14  H   UNL     1     -10.564  18.867  67.832  1.00  0.00     0.000 HD 
HETATM   15  O   UNL     1     -10.511  18.356  68.631  1.00  0.00    -0.306 OA 
BRANCH  13  16
HETATM   16  C   UNL     1     -10.236  16.398  67.223  1.00  0.00    -0.278 C  
BRANCH  16  17
HETATM   17  N   UNL     1      -9.087  15.612  67.680  1.00  0.00    -0.191 NA 
HETATM   18  H   UNL     1      -9.138  14.659  67.320  1.00  0.00     0.000 HD 
BRANCH  17  19
HETATM   19  C   UNL     1      -7.789  16.216  67.360  1.00  0.00    -0.154 C  
HETATM   20  C   UNL     1      -7.907  17.440  66.448  1.00  0.00    -0.337 C  
HETATM   21  C   UNL     1      -7.129  16.627  68.680  1.00  0.00    -0.183 C  
ENDBRANCH  17  19
ENDBRANCH  16  17
ENDBRANCH  13  16
ENDBRANCH  12  13
ENDBRANCH  11  12
ENDBRANCH   8  11
ENDBRANCH   4   5
ENDBRANCH   3   4
ENDBRANCH   2   3
TORSDOF 9
ENDMDL
MODEL       81
REMARK 921   NORMALIZED FREE ENERGY PREDICTED BY IDOCK:   -4.30 KCAL/MOL
REMARK 922        TOTAL FREE ENERGY PREDICTED BY IDOCK:   -7.21 KCAL/MOL
REMARK 923 INTER-LIGAND FREE ENERGY PREDICTED BY IDOCK:   -6.71 KCAL/MOL
REMARK 924 INTRA-LIGAND FREE ENERGY PREDICTED BY IDOCK:   -0.50 KCAL/MOL
REMARK 927      BINDING AFFINITY PREDICTED BY RF-SCORE:    0.00 PKD
ROOT
HETATM    1  C   UNL     1      -5.663  10.304  64.046  1.00  0.00    -0.145 C  
HETATM    2  O   UNL     1      -6.627   9.411  63.497  1.00  0.00    -0.091 OA 
ENDROOT
BRANCH   2   3
HETATM    3  C   UNL     1      -7.749  10.126  62.978  1.00  0.00    -0.149 C  
BRANCH   3   4
HETATM    4  C   UNL     1      -9.022   9.664  63.692  1.00  0.00    -0.248 C  
BRANCH   4   5
HETATM    5  C   UNL     1      -9.868  10.826  64.149  1.00  0.00    -0.384 A  
HETATM    6  C   UNL     1     -10.603  11.550  63.208  1.00  0.00    -0.405 A  
HETATM    7  C   UNL     1     -11.380  12.637  63.596  1.00  0.00    -0.544 A  
HETATM    8  C   UNL     1     -11.456  13.023  64.935  1.00  0.00    -0.316 A  
HETATM    9  C   UNL     1      -9.948  11.202  65.497  1.00  0.00    -0.298 A  
HETATM   10  C   UNL     1     -10.737  12.297  65.886  1.00  0.00    -0.294 A  
BRANCH   8  11
HETATM   11  O   UNL     1     -12.202  14.079  65.400  1.00  0.00    -0.393 OA 
BRANCH  11  12
HETATM   12  C   UNL     1     -11.463  15.029  66.191  1.00  0.00    -0.222 C  
BRANCH  12  13
HETATM   13  C   UNL     1     -10.674  16.007  65.311  1.00  0.00    -0.399 C  
HETATM   14  H   UNL     1     -11.012  17.084  63.699  1.00  0.00     0.000 HD 
HETATM   15  O   UNL     1     -11.501  16.478  64.243  1.00  0.00    -1.000 OA 
BRANCH  13  16
HETATM   16  C   UNL     1     -10.116  17.208  66.097  1.00  0.00    -0.305 C  
BRANCH  16  17
HETATM   17  N   UNL     1     -10.738  17.335  67.418  1.00  0.00    -0.297 NA 
HETATM   18  H   UNL     1     -10.905  16.416  67.826  1.00  0.00     0.000 HD 
BRANCH  17  19
HETATM   19  C   UNL     1      -9.985  18.185  68.349  1.00  0.00    -0.380 C  
HETATM   20  C   UNL     1      -8.499  17.822  68.421  1.00  0.00    -0.295 C  
HETATM   21  C   UNL     1     -10.132  19.634  67.878  1.00  0.00    -0.543 C  
ENDBRANCH  17  19
ENDBRANCH  16  17
ENDBRANCH  13  16
ENDBRANCH  12  13
ENDBRANCH  11  12
ENDBRANCH   8  11
ENDBRANCH   4   5
ENDBRANCH   3   4
ENDBRANCH   2   3
TORSDOF 9
ENDMDL
MODEL       82
REMARK 921   NORMALIZED FREE ENERGY PREDICTED BY IDOCK:   -4.30 KCAL/MOL
REMARK 922        TOTAL FREE ENERGY PREDICTED BY IDOCK:   -7.20 KCAL/MOL
REMARK 923 INTER-LIGAND FREE ENERGY PREDICTED BY IDOCK:   -6.03 KCAL/MOL
REMARK 924 INTRA-LIGAND FREE ENERGY PREDICTED BY IDOCK:   -1.17 KCAL/MOL
REMARK 927      BINDING AFFINITY PREDICTED BY RF-SCORE:    0.00 PKD
ROOT
HETATM    1  C   UNL     1     -13.726  15.784  73.045  1.00  0.00    -0.502 C  
HETATM    2  O   UNL     1     -13.107  16.028  71.787  1.00  0.00    -0.410 OA 
ENDROOT
BRANCH   2   3
HETATM    3  C   UNL     1     -13.239  14.896  70.925  1.00  0.00    -0.368 C  
BRANCH   3   4
HETATM    4  C   UNL     1     -11.849  14.349  70.587  1.00  0.00    -0.361 C  
BRANCH   4   5
HETATM    5  C   UNL     1     -11.806  13.718  69.219  1.00  0.00    -0.392 A  
HETATM    6  C   UNL     1     -11.769  14.536  68.088  1.00  0.00    -0.369 A  
HETATM    7  C   UNL     1     -11.746  13.984  66.811  1.00  0.00    -0.430 A  
HETATM    8  C   UNL     1     -11.744  12.600  66.627  1.00  0.00    -0.398 A  
HETATM    9  C   UNL     1     -11.794  12.328  69.042  1.00  0.00    -0.358 A  
HETATM   10  C   UNL     1     -11.766  11.774  67.752  1.00  0.00    -0.337 A  
BRANCH   8  11
HETATM   11  O   UNL     1     -11.717  11.977  65.404  1.00  0.00    -0.343 OA 
BRANCH  11  12
HETATM   12  C   UNL     1     -10.466  12.096  64.701  1.00  0.00    -0.299 C  
BRANCH  12  13
HETATM   13  C   UNL     1      -9.766  10.739  64.554  1.00  0.00    -0.295 C  
HETATM   14  H   UNL     1      -8.685   9.820  63.189  1.00  0.00     0.000 HD 
HETATM   15  O   UNL     1      -9.119  10.660  63.280  1.00  0.00    -0.207 OA 
BRANCH  13  16
HETATM   16  C   UNL     1      -8.740  10.467  65.669  1.00  0.00    -0.180 C  
BRANCH  16  17
HETATM   17  N   UNL     1      -8.036  11.687  66.076  1.00  0.00    -0.362 NA 
HETATM   18  H   UNL     1      -8.566  12.514  65.805  1.00  0.00     0.000 HD 
BRANCH  17  19
HETATM   19  C   UNL     1      -7.703  11.731  67.504  1.00  0.00    -0.143 C  
HETATM   20  C   UNL     1      -8.160  13.024  68.185  1.00  0.00    -0.155 C  
HETATM   21  C   UNL     1      -8.381  10.534  68.177  1.00  0.00    -0.119 C  
ENDBRANCH  17  19
ENDBRANCH  16  17
ENDBRANCH  13  16
ENDBRANCH  12  13
ENDBRANCH  11  12
ENDBRANCH   8  11
ENDBRANCH   4   5
ENDBRANCH   3   4
ENDBRANCH   2   3
TORSDOF 9
ENDMDL
MODEL       83
REMARK 921   NORMALIZED FREE ENERGY PREDICTED BY IDOCK:   -4.28 KCAL/MOL
REMARK 922        TOTAL FREE ENERGY PREDICTED BY IDOCK:   -7.16 KCAL/MOL
REMARK 923 INTER-LIGAND FREE ENERGY PREDICTED BY IDOCK:   -6.65 KCAL/MOL
REMARK 924 INTRA-LIGAND FREE ENERGY PREDICTED BY IDOCK:   -0.51 KCAL/MOL
REMARK 927      BINDING AFFINITY PREDICTED BY RF-SCORE:    0.00 PKD
ROOT
HETATM    1  C   UNL     1      -5.748  18.991  65.081  1.00  0.00    -0.226 C  
HETATM    2  O   UNL     1      -7.121  19.363  65.045  1.00  0.00    -0.386 OA 
ENDROOT
BRANCH   2   3
HETATM    3  C   UNL     1      -7.449  20.214  66.144  1.00  0.00    -0.278 C  
BRANCH   3   4
HETATM    4  C   UNL     1      -7.260  19.446  67.456  1.00  0.00    -0.247 C  
BRANCH   4   5
HETATM    5  C   UNL     1      -8.426  18.537  67.752  1.00  0.00    -0.285 A  
HETATM    6  C   UNL     1      -8.233  17.419  68.568  1.00  0.00    -0.268 A  
HETATM    7  C   UNL     1      -9.285  16.552  68.847  1.00  0.00    -0.258 A  
HETATM    8  C   UNL     1     -10.561  16.783  68.331  1.00  0.00    -0.354 A  
HETATM    9  C   UNL     1      -9.707  18.780  67.240  1.00  0.00    -0.335 A  
HETATM   10  C   UNL     1     -10.768  17.905  67.527  1.00  0.00    -0.333 A  
BRANCH   8  11
HETATM   11  O   UNL     1     -11.652  15.980  68.562  1.00  0.00    -0.381 OA 
BRANCH  11  12
HETATM   12  C   UNL     1     -11.539  14.650  68.022  1.00  0.00    -0.340 C  
BRANCH  12  13
HETATM   13  C   UNL     1     -11.463  14.665  66.489  1.00  0.00    -0.351 C  
HETATM   14  H   UNL     1     -10.143  14.184  65.111  1.00  0.00     0.000 HD 
HETATM   15  O   UNL     1     -10.189  14.175  66.060  1.00  0.00    -0.287 OA 
BRANCH  13  16
HETATM   16  C   UNL     1     -12.581  13.843  65.824  1.00  0.00    -0.494 C  
BRANCH  16  17
HETATM   17  N   UNL     1     -12.200  12.438  65.650  1.00  0.00    -0.626 NA 
HETATM   18  H   UNL     1     -12.831  11.828  66.171  1.00  0.00     0.000 HD 
BRANCH  17  19
HETATM   19  C   UNL     1     -12.114  12.015  64.248  1.00  0.00    -0.322 C  
HETATM   20  C   UNL     1     -12.224  13.183  63.263  1.00  0.00    -0.438 C  
HETATM   21  C   UNL     1     -10.768  11.312  64.056  1.00  0.00    -0.444 C  
ENDBRANCH  17  19
ENDBRANCH  16  17
ENDBRANCH  13  16
ENDBRANCH  12  13
ENDBRANCH  11  12
ENDBRANCH   8  11
ENDBRANCH   4   5
ENDBRANCH   3   4
ENDBRANCH   2   3
TORSDOF 9
ENDMDL
MODEL       84
REMARK 921   NORMALIZED FREE ENERGY PREDICTED BY IDOCK:   -4.26 KCAL/MOL
REMARK 922        TOTAL FREE ENERGY PREDICTED BY IDOCK:   -7.13 KCAL/MOL
REMARK 923 INTER-LIGAND FREE ENERGY PREDICTED BY IDOCK:   -6.18 KCAL/MOL
REMARK 924 INTRA-LIGAND FREE ENERGY PREDICTED BY IDOCK:   -0.95 KCAL/MOL
REMARK 927      BINDING AFFINITY PREDICTED BY RF-SCORE:    0.00 PKD
ROOT
HETATM    1  C   UNL     1      -9.646   4.595  66.686  1.00  0.00    -0.182 C  
HETATM    2  O   UNL     1     -10.548   5.347  67.492  1.00  0.00    -0.200 OA 
ENDROOT
BRANCH   2   3
HETATM    3  C   UNL     1     -10.928   6.559  66.838  1.00  0.00    -0.338 C  
BRANCH   3   4
HETATM    4  C   UNL     1     -10.331   7.752  67.591  1.00  0.00    -0.305 C  
BRANCH   4   5
HETATM    5  C   UNL     1     -10.335   9.008  66.756  1.00  0.00    -0.310 A  
HETATM    6  C   UNL     1      -9.736   8.993  65.495  1.00  0.00    -0.084 A  
HETATM    7  C   UNL     1      -9.710  10.140  64.707  1.00  0.00    -0.389 A  
HETATM    8  C   UNL     1     -10.292  11.328  65.150  1.00  0.00    -0.295 A  
HETATM    9  C   UNL     1     -10.931  10.194  67.203  1.00  0.00    -0.204 A  
HETATM   10  C   UNL     1     -10.906  11.349  66.403  1.00  0.00    -0.323 A  
BRANCH   8  11
HETATM   11  O   UNL     1     -10.313  12.500  64.434  1.00  0.00    -0.326 OA 
BRANCH  11  12
HETATM   12  C   UNL     1     -11.609  12.865  63.924  1.00  0.00    -0.453 C  
BRANCH  12  13
HETATM   13  C   UNL     1     -12.062  14.233  64.452  1.00  0.00    -0.468 C  
HETATM   14  H   UNL     1     -13.352  14.905  65.778  1.00  0.00     0.000 HD 
HETATM   15  O   UNL     1     -13.072  14.059  65.451  1.00  0.00    -0.763 OA 
BRANCH  13  16
HETATM   16  C   UNL     1     -10.906  15.068  65.030  1.00  0.00    -0.422 C  
BRANCH  16  17
HETATM   17  N   UNL     1     -10.821  14.953  66.488  1.00  0.00    -0.317 NA 
HETATM   18  H   UNL     1     -11.084  14.016  66.790  1.00  0.00     0.000 HD 
BRANCH  17  19
HETATM   19  C   UNL     1      -9.512  15.325  67.038  1.00  0.00    -0.223 C  
HETATM   20  C   UNL     1      -8.558  14.135  67.168  1.00  0.00    -0.230 C  
HETATM   21  C   UNL     1      -8.896  16.372  66.105  1.00  0.00    -0.349 C  
ENDBRANCH  17  19
ENDBRANCH  16  17
ENDBRANCH  13  16
ENDBRANCH  12  13
ENDBRANCH  11  12
ENDBRANCH   8  11
ENDBRANCH   4   5
ENDBRANCH   3   4
ENDBRANCH   2   3
TORSDOF 9
ENDMDL
MODEL       85
REMARK 921   NORMALIZED FREE ENERGY PREDICTED BY IDOCK:   -4.24 KCAL/MOL
REMARK 922        TOTAL FREE ENERGY PREDICTED BY IDOCK:   -7.10 KCAL/MOL
REMARK 923 INTER-LIGAND FREE ENERGY PREDICTED BY IDOCK:   -6.06 KCAL/MOL
REMARK 924 INTRA-LIGAND FREE ENERGY PREDICTED BY IDOCK:   -1.05 KCAL/MOL
REMARK 927      BINDING AFFINITY PREDICTED BY RF-SCORE:    0.00 PKD
ROOT
HETATM    1  C   UNL     1      -7.352   6.333  68.291  1.00  0.00    -0.086 C  
HETATM    2  O   UNL     1      -8.036   7.520  68.676  1.00  0.00    -0.121 OA 
ENDROOT
BRANCH   2   3
HETATM    3  C   UNL     1      -9.440   7.286  68.792  1.00  0.00    -0.142 C  
BRANCH   3   4
HETATM    4  C   UNL     1     -10.071   7.268  67.397  1.00  0.00    -0.266 C  
BRANCH   4   5
HETATM    5  C   UNL     1     -10.083   8.637  66.764  1.00  0.00    -0.366 A  
HETATM    6  C   UNL     1     -10.719   9.691  67.424  1.00  0.00    -0.308 A  
HETATM    7  C   UNL     1     -10.762  10.962  66.859  1.00  0.00    -0.318 A  
HETATM    8  C   UNL     1     -10.160  11.219  65.626  1.00  0.00    -0.247 A  
HETATM    9  C   UNL     1      -9.468   8.891  65.531  1.00  0.00    -0.162 A  
HETATM   10  C   UNL     1      -9.509  10.176  64.965  1.00  0.00    -0.330 A  
BRANCH   8  11
HETATM   11  O   UNL     1     -10.154  12.444  65.004  1.00  0.00    -0.277 OA 
BRANCH  11  12
HETATM   12  C   UNL     1     -10.921  12.498  63.787  1.00  0.00    -0.447 C  
BRANCH  12  13
HETATM   13  C   UNL     1     -12.273  13.193  63.999  1.00  0.00    -0.414 C  
HETATM   14  H   UNL     1     -14.137  12.644  64.307  1.00  0.00     0.000 HD 
HETATM   15  O   UNL     1     -13.301  12.214  64.176  1.00  0.00    -0.750 OA 
BRANCH  13  16
HETATM   16  C   UNL     1     -12.271  14.160  65.196  1.00  0.00    -0.433 C  
BRANCH  16  17
HETATM   17  N   UNL     1     -11.237  15.190  65.069  1.00  0.00    -0.395 NA 
HETATM   18  H   UNL     1     -11.584  15.983  64.530  1.00  0.00     0.000 HD 
BRANCH  17  19
HETATM   19  C   UNL     1     -10.686  15.640  66.353  1.00  0.00    -0.291 C  
HETATM   20  C   UNL     1     -11.212  14.835  67.544  1.00  0.00    -0.339 C  
HETATM   21  C   UNL     1      -9.163  15.504  66.279  1.00  0.00    -0.364 C  
ENDBRANCH  17  19
ENDBRANCH  16  17
ENDBRANCH  13  16
ENDBRANCH  12  13
ENDBRANCH  11  12
ENDBRANCH   8  11
ENDBRANCH   4   5
ENDBRANCH   3   4
ENDBRANCH   2   3
TORSDOF 9
ENDMDL
MODEL       86
REMARK 921   NORMALIZED FREE ENERGY PREDICTED BY IDOCK:   -4.23 KCAL/MOL
REMARK 922        TOTAL FREE ENERGY PREDICTED BY IDOCK:   -7.09 KCAL/MOL
REMARK 923 INTER-LIGAND FREE ENERGY PREDICTED BY IDOCK:   -6.35 KCAL/MOL
REMARK 924 INTRA-LIGAND FREE ENERGY PREDICTED BY IDOCK:   -0.75 KCAL/MOL
REMARK 927      BINDING AFFINITY PREDICTED BY RF-SCORE:    0.00 PKD
ROOT
HETATM    1  C   UNL     1      -5.953  14.635  70.489  1.00  0.00    -0.172 C  
HETATM    2  O   UNL     1      -6.132  16.046  70.439  1.00  0.00    -0.094 OA 
ENDROOT
BRANCH   2   3
HETATM    3  C   UNL     1      -5.955  16.537  69.110  1.00  0.00    -0.155 C  
BRANCH   3   4
HETATM    4  C   UNL     1      -6.860  17.754  68.893  1.00  0.00    -0.240 C  
BRANCH   4   5
HETATM    5  C   UNL     1      -7.906  17.500  67.836  1.00  0.00    -0.218 A  
HETATM    6  C   UNL     1      -8.858  18.485  67.566  1.00  0.00    -0.276 A  
HETATM    7  C   UNL     1      -9.846  18.275  66.608  1.00  0.00    -0.354 A  
HETATM    8  C   UNL     1      -9.902  17.083  65.885  1.00  0.00    -0.177 A  
HETATM    9  C   UNL     1      -7.950  16.305  67.106  1.00  0.00    -0.220 A  
HETATM   10  C   UNL     1      -8.946  16.098  66.137  1.00  0.00    -0.372 A  
BRANCH   8  11
HETATM   11  O   UNL     1     -10.840  16.800  64.922  1.00  0.00    -0.707 OA 
BRANCH  11  12
HETATM   12  C   UNL     1     -10.827  15.436  64.460  1.00  0.00    -0.116 C  
BRANCH  12  13
HETATM   13  C   UNL     1     -12.205  14.775  64.605  1.00  0.00    -0.393 C  
HETATM   14  H   UNL     1     -13.286  13.472  63.602  1.00  0.00     0.000 HD 
HETATM   15  O   UNL     1     -12.434  13.881  63.512  1.00  0.00    -0.810 OA 
BRANCH  13  16
HETATM   16  C   UNL     1     -12.370  14.015  65.934  1.00  0.00    -0.486 C  
BRANCH  16  17
HETATM   17  N   UNL     1     -12.187  12.570  65.766  1.00  0.00    -0.626 NA 
HETATM   18  H   UNL     1     -11.798  12.362  64.847  1.00  0.00     0.000 HD 
BRANCH  17  19
HETATM   19  C   UNL     1     -11.378  11.949  66.822  1.00  0.00    -0.330 C  
HETATM   20  C   UNL     1      -9.881  12.234  66.674  1.00  0.00    -0.230 C  
HETATM   21  C   UNL     1     -11.870  12.494  68.166  1.00  0.00    -0.371 C  
ENDBRANCH  17  19
ENDBRANCH  16  17
ENDBRANCH  13  16
ENDBRANCH  12  13
ENDBRANCH  11  12
ENDBRANCH   8  11
ENDBRANCH   4   5
ENDBRANCH   3   4
ENDBRANCH   2   3
TORSDOF 9
ENDMDL
MODEL       87
REMARK 921   NORMALIZED FREE ENERGY PREDICTED BY IDOCK:   -4.23 KCAL/MOL
REMARK 922        TOTAL FREE ENERGY PREDICTED BY IDOCK:   -7.09 KCAL/MOL
REMARK 923 INTER-LIGAND FREE ENERGY PREDICTED BY IDOCK:   -6.73 KCAL/MOL
REMARK 924 INTRA-LIGAND FREE ENERGY PREDICTED BY IDOCK:   -0.36 KCAL/MOL
REMARK 927      BINDING AFFINITY PREDICTED BY RF-SCORE:    0.00 PKD
ROOT
HETATM    1  C   UNL     1      -5.761  19.973  70.145  1.00  0.00    -0.294 C  
HETATM    2  O   UNL     1      -6.725  19.515  69.202  1.00  0.00    -0.309 OA 
ENDROOT
BRANCH   2   3
HETATM    3  C   UNL     1      -6.182  19.502  67.881  1.00  0.00    -0.207 C  
BRANCH   3   4
HETATM    4  C   UNL     1      -7.244  19.984  66.890  1.00  0.00    -0.270 C  
BRANCH   4   5
HETATM    5  C   UNL     1      -8.260  18.913  66.583  1.00  0.00    -0.295 A  
HETATM    6  C   UNL     1      -7.846  17.582  66.497  1.00  0.00    -0.312 A  
HETATM    7  C   UNL     1      -8.757  16.572  66.200  1.00  0.00    -0.335 A  
HETATM    8  C   UNL     1     -10.106  16.860  65.994  1.00  0.00    -0.319 A  
HETATM    9  C   UNL     1      -9.616  19.208  66.388  1.00  0.00    -0.402 A  
HETATM   10  C   UNL     1     -10.533  18.186  66.093  1.00  0.00    -0.377 A  
BRANCH   8  11
HETATM   11  O   UNL     1     -11.068  15.923  65.702  1.00  0.00    -0.233 OA 
BRANCH  11  12
HETATM   12  C   UNL     1     -10.560  14.708  65.120  1.00  0.00    -0.421 C  
BRANCH  12  13
HETATM   13  C   UNL     1     -11.690  13.730  64.772  1.00  0.00    -0.381 C  
HETATM   14  H   UNL     1     -13.656  13.717  64.858  1.00  0.00     0.000 HD 
HETATM   15  O   UNL     1     -12.957  14.322  65.073  1.00  0.00    -0.693 OA 
BRANCH  13  16
HETATM   16  C   UNL     1     -11.667  13.284  63.299  1.00  0.00    -0.120 C  
BRANCH  16  17
HETATM   17  N   UNL     1     -11.388  11.851  63.164  1.00  0.00    -0.689 NA 
HETATM   18  H   UNL     1     -11.590  11.535  62.215  1.00  0.00     0.000 HD 
BRANCH  17  19
HETATM   19  C   UNL     1     -10.026  11.473  63.555  1.00  0.00    -0.399 C  
HETATM   20  C   UNL     1      -9.984  10.613  64.822  1.00  0.00    -0.391 C  
HETATM   21  C   UNL     1      -9.407  10.693  62.391  1.00  0.00    -0.282 C  
ENDBRANCH  17  19
ENDBRANCH  16  17
ENDBRANCH  13  16
ENDBRANCH  12  13
ENDBRANCH  11  12
ENDBRANCH   8  11
ENDBRANCH   4   5
ENDBRANCH   3   4
ENDBRANCH   2   3
TORSDOF 9
ENDMDL
MODEL       88
REMARK 921   NORMALIZED FREE ENERGY PREDICTED BY IDOCK:   -4.23 KCAL/MOL
REMARK 922        TOTAL FREE ENERGY PREDICTED BY IDOCK:   -7.09 KCAL/MOL
REMARK 923 INTER-LIGAND FREE ENERGY PREDICTED BY IDOCK:   -6.11 KCAL/MOL
REMARK 924 INTRA-LIGAND FREE ENERGY PREDICTED BY IDOCK:   -0.98 KCAL/MOL
REMARK 927      BINDING AFFINITY PREDICTED BY RF-SCORE:    0.00 PKD
ROOT
HETATM    1  C   UNL     1     -10.178  19.489  68.236  1.00  0.00    -0.443 C  
HETATM    2  O   UNL     1     -10.777  18.941  67.067  1.00  0.00    -0.430 OA 
ENDROOT
BRANCH   2   3
HETATM    3  C   UNL     1     -10.515  17.540  66.968  1.00  0.00    -0.293 C  
BRANCH   3   4
HETATM    4  C   UNL     1     -10.613  17.107  65.502  1.00  0.00    -0.160 C  
BRANCH   4   5
HETATM    5  C   UNL     1     -10.721  15.610  65.360  1.00  0.00    -0.424 A  
HETATM    6  C   UNL     1     -11.742  15.068  64.576  1.00  0.00    -0.372 A  
HETATM    7  C   UNL     1     -11.878  13.690  64.438  1.00  0.00    -0.460 A  
HETATM    8  C   UNL     1     -10.992  12.815  65.068  1.00  0.00    -0.289 A  
HETATM    9  C   UNL     1      -9.822  14.737  65.988  1.00  0.00    -0.350 A  
HETATM   10  C   UNL     1      -9.960  13.347  65.843  1.00  0.00    -0.287 A  
BRANCH   8  11
HETATM   11  O   UNL     1     -11.055  11.446  64.980  1.00  0.00    -0.241 OA 
BRANCH  11  12
HETATM   12  C   UNL     1      -9.838  10.768  65.343  1.00  0.00    -0.262 C  
BRANCH  12  13
HETATM   13  C   UNL     1     -10.118   9.403  65.986  1.00  0.00    -0.231 C  
HETATM   14  H   UNL     1      -9.172   7.690  66.190  1.00  0.00     0.000 HD 
HETATM   15  O   UNL     1      -8.998   8.534  65.793  1.00  0.00    -0.182 OA 
BRANCH  13  16
HETATM   16  C   UNL     1     -10.441   9.500  67.488  1.00  0.00    -0.275 C  
BRANCH  16  17
HETATM   17  N   UNL     1     -11.601  10.358  67.746  1.00  0.00    -0.653 NA 
HETATM   18  H   UNL     1     -12.432   9.794  67.925  1.00  0.00     0.000 HD 
BRANCH  17  19
HETATM   19  C   UNL     1     -11.392  11.328  68.827  1.00  0.00    -0.270 C  
HETATM   20  C   UNL     1     -12.068  10.916  70.139  1.00  0.00    -0.431 C  
HETATM   21  C   UNL     1      -9.883  11.457  69.052  1.00  0.00    -0.056 C  
ENDBRANCH  17  19
ENDBRANCH  16  17
ENDBRANCH  13  16
ENDBRANCH  12  13
ENDBRANCH  11  12
ENDBRANCH   8  11
ENDBRANCH   4   5
ENDBRANCH   3   4
ENDBRANCH   2   3
TORSDOF 9
ENDMDL
MODEL       89
REMARK 921   NORMALIZED FREE ENERGY PREDICTED BY IDOCK:   -4.23 KCAL/MOL
REMARK 922        TOTAL FREE ENERGY PREDICTED BY IDOCK:   -7.09 KCAL/MOL
REMARK 923 INTER-LIGAND FREE ENERGY PREDICTED BY IDOCK:   -6.60 KCAL/MOL
REMARK 924 INTRA-LIGAND FREE ENERGY PREDICTED BY IDOCK:   -0.49 KCAL/MOL
REMARK 927      BINDING AFFINITY PREDICTED BY RF-SCORE:    0.00 PKD
ROOT
HETATM    1  C   UNL     1      -8.064   9.572  69.653  1.00  0.00    -0.128 C  
HETATM    2  O   UNL     1      -8.808   8.560  68.983  1.00  0.00    -0.143 OA 
ENDROOT
BRANCH   2   3
HETATM    3  C   UNL     1      -8.900   8.834  67.585  1.00  0.00    -0.135 C  
BRANCH   3   4
HETATM    4  C   UNL     1     -10.371   9.011  67.197  1.00  0.00    -0.342 C  
BRANCH   4   5
HETATM    5  C   UNL     1     -10.774  10.464  67.152  1.00  0.00    -0.316 A  
HETATM    6  C   UNL     1     -11.355  11.048  68.280  1.00  0.00    -0.366 A  
HETATM    7  C   UNL     1     -11.753  12.382  68.265  1.00  0.00    -0.398 A  
HETATM    8  C   UNL     1     -11.569  13.172  67.130  1.00  0.00    -0.361 A  
HETATM    9  C   UNL     1     -10.577  11.255  66.013  1.00  0.00    -0.314 A  
HETATM   10  C   UNL     1     -10.975  12.602  66.002  1.00  0.00    -0.313 A  
BRANCH   8  11
HETATM   11  O   UNL     1     -11.928  14.495  67.035  1.00  0.00    -0.404 OA 
BRANCH  11  12
HETATM   12  C   UNL     1     -10.821  15.415  67.026  1.00  0.00    -0.320 C  
BRANCH  12  13
HETATM   13  C   UNL     1     -10.815  16.307  68.275  1.00  0.00    -0.340 C  
HETATM   14  H   UNL     1     -10.914  18.234  68.663  1.00  0.00     0.000 HD 
HETATM   15  O   UNL     1     -10.917  17.682  67.891  1.00  0.00    -0.316 OA 
BRANCH  13  16
HETATM   16  C   UNL     1     -11.942  15.965  69.265  1.00  0.00    -0.242 C  
BRANCH  16  17
HETATM   17  N   UNL     1     -11.644  16.435  70.621  1.00  0.00    -0.517 NA 
HETATM   18  H   UNL     1     -11.918  17.411  70.731  1.00  0.00     0.000 HD 
BRANCH  17  19
HETATM   19  C   UNL     1     -12.237  15.609  71.679  1.00  0.00    -0.426 C  
HETATM   20  C   UNL     1     -12.109  16.237  73.070  1.00  0.00    -0.629 C  
HETATM   21  C   UNL     1     -13.719  15.416  71.343  1.00  0.00    -0.591 C  
ENDBRANCH  17  19
ENDBRANCH  16  17
ENDBRANCH  13  16
ENDBRANCH  12  13
ENDBRANCH  11  12
ENDBRANCH   8  11
ENDBRANCH   4   5
ENDBRANCH   3   4
ENDBRANCH   2   3
TORSDOF 9
ENDMDL
MODEL       90
REMARK 921   NORMALIZED FREE ENERGY PREDICTED BY IDOCK:   -4.22 KCAL/MOL
REMARK 922        TOTAL FREE ENERGY PREDICTED BY IDOCK:   -7.08 KCAL/MOL
REMARK 923 INTER-LIGAND FREE ENERGY PREDICTED BY IDOCK:   -6.66 KCAL/MOL
REMARK 924 INTRA-LIGAND FREE ENERGY PREDICTED BY IDOCK:   -0.42 KCAL/MOL
REMARK 927      BINDING AFFINITY PREDICTED BY RF-SCORE:    0.00 PKD
ROOT
HETATM    1  C   UNL     1      -5.482  20.536  69.498  1.00  0.00    -0.337 C  
HETATM    2  O   UNL     1      -6.468  20.672  68.481  1.00  0.00    -0.301 OA 
ENDROOT
BRANCH   2   3
HETATM    3  C   UNL     1      -5.874  20.623  67.183  1.00  0.00    -0.196 C  
BRANCH   3   4
HETATM    4  C   UNL     1      -6.972  20.695  66.118  1.00  0.00    -0.212 C  
BRANCH   4   5
HETATM    5  C   UNL     1      -7.961  19.564  66.246  1.00  0.00    -0.332 A  
HETATM    6  C   UNL     1      -9.327  19.851  66.299  1.00  0.00    -0.474 A  
HETATM    7  C   UNL     1     -10.263  18.831  66.434  1.00  0.00    -0.464 A  
HETATM    8  C   UNL     1      -9.864  17.496  66.506  1.00  0.00    -0.310 A  
HETATM    9  C   UNL     1      -7.554  18.225  66.307  1.00  0.00    -0.291 A  
HETATM   10  C   UNL     1      -8.502  17.197  66.438  1.00  0.00    -0.307 A  
BRANCH   8  11
HETATM   11  O   UNL     1     -10.723  16.432  66.634  1.00  0.00    -0.278 OA 
BRANCH  11  12
HETATM   12  C   UNL     1     -10.266  15.400  67.527  1.00  0.00    -0.244 C  
BRANCH  12  13
HETATM   13  C   UNL     1     -11.436  14.695  68.228  1.00  0.00    -0.314 C  
HETATM   14  H   UNL     1     -11.701  13.058  69.288  1.00  0.00     0.000 HD 
HETATM   15  O   UNL     1     -10.977  13.494  68.854  1.00  0.00    -0.251 OA 
BRANCH  13  16
HETATM   16  C   UNL     1     -12.136  15.585  69.272  1.00  0.00    -0.259 C  
BRANCH  16  17
HETATM   17  N   UNL     1     -12.290  14.901  70.559  1.00  0.00    -0.319 NA 
HETATM   18  H   UNL     1     -11.382  14.755  70.999  1.00  0.00     0.000 HD 
BRANCH  17  19
HETATM   19  C   UNL     1     -13.208  15.578  71.483  1.00  0.00    -0.509 C  
HETATM   20  C   UNL     1     -14.389  14.698  71.904  1.00  0.00    -0.656 C  
HETATM   21  C   UNL     1     -12.406  15.981  72.724  1.00  0.00    -0.603 C  
ENDBRANCH  17  19
ENDBRANCH  16  17
ENDBRANCH  13  16
ENDBRANCH  12  13
ENDBRANCH  11  12
ENDBRANCH   8  11
ENDBRANCH   4   5
ENDBRANCH   3   4
ENDBRANCH   2   3
TORSDOF 9
ENDMDL
MODEL       91
REMARK 921   NORMALIZED FREE ENERGY PREDICTED BY IDOCK:   -4.22 KCAL/MOL
REMARK 922        TOTAL FREE ENERGY PREDICTED BY IDOCK:   -7.08 KCAL/MOL
REMARK 923 INTER-LIGAND FREE ENERGY PREDICTED BY IDOCK:   -6.56 KCAL/MOL
REMARK 924 INTRA-LIGAND FREE ENERGY PREDICTED BY IDOCK:   -0.52 KCAL/MOL
REMARK 927      BINDING AFFINITY PREDICTED BY RF-SCORE:    0.00 PKD
ROOT
HETATM    1  C   UNL     1     -12.601  11.974  63.247  1.00  0.00    -0.385 C  
HETATM    2  O   UNL     1     -11.201  11.967  63.503  1.00  0.00    -0.401 OA 
ENDROOT
BRANCH   2   3
HETATM    3  C   UNL     1     -10.934  11.696  64.880  1.00  0.00    -0.284 C  
BRANCH   3   4
HETATM    4  C   UNL     1     -11.896  12.506  65.753  1.00  0.00    -0.494 C  
BRANCH   4   5
HETATM    5  C   UNL     1     -11.202  13.651  66.448  1.00  0.00    -0.317 A  
HETATM    6  C   UNL     1     -11.903  14.403  67.394  1.00  0.00    -0.430 A  
HETATM    7  C   UNL     1     -11.295  15.476  68.041  1.00  0.00    -0.332 A  
HETATM    8  C   UNL     1      -9.969  15.818  67.772  1.00  0.00    -0.227 A  
HETATM    9  C   UNL     1      -9.867  13.982  66.182  1.00  0.00    -0.319 A  
HETATM   10  C   UNL     1      -9.256  15.062  66.840  1.00  0.00    -0.265 A  
BRANCH   8  11
HETATM   11  O   UNL     1      -9.296  16.856  68.370  1.00  0.00    -0.238 OA 
BRANCH  11  12
HETATM   12  C   UNL     1     -10.046  18.082  68.454  1.00  0.00    -0.387 C  
BRANCH  12  13
HETATM   13  C   UNL     1      -9.810  18.977  67.230  1.00  0.00    -0.326 C  
HETATM   14  H   UNL     1     -10.833  20.310  66.206  1.00  0.00     0.000 HD 
HETATM   15  O   UNL     1     -10.979  19.757  66.964  1.00  0.00    -0.435 OA 
BRANCH  13  16
HETATM   16  C   UNL     1      -8.596  19.910  67.391  1.00  0.00    -0.335 C  
BRANCH  16  17
HETATM   17  N   UNL     1      -8.041  20.318  66.097  1.00  0.00    -0.534 NA 
HETATM   18  H   UNL     1      -8.221  21.307  65.926  1.00  0.00     0.000 HD 
BRANCH  17  19
HETATM   19  C   UNL     1      -6.613  20.018  65.943  1.00  0.00    -0.232 C  
HETATM   20  C   UNL     1      -6.342  18.544  65.630  1.00  0.00    -0.309 C  
HETATM   21  C   UNL     1      -6.075  20.888  64.803  1.00  0.00    -0.308 C  
ENDBRANCH  17  19
ENDBRANCH  16  17
ENDBRANCH  13  16
ENDBRANCH  12  13
ENDBRANCH  11  12
ENDBRANCH   8  11
ENDBRANCH   4   5
ENDBRANCH   3   4
ENDBRANCH   2   3
TORSDOF 9
ENDMDL
MODEL       92
REMARK 921   NORMALIZED FREE ENERGY PREDICTED BY IDOCK:   -4.22 KCAL/MOL
REMARK 922        TOTAL FREE ENERGY PREDICTED BY IDOCK:   -7.07 KCAL/MOL
REMARK 923 INTER-LIGAND FREE ENERGY PREDICTED BY IDOCK:   -6.26 KCAL/MOL
REMARK 924 INTRA-LIGAND FREE ENERGY PREDICTED BY IDOCK:   -0.81 KCAL/MOL
REMARK 927      BINDING AFFINITY PREDICTED BY RF-SCORE:    0.00 PKD
ROOT
HETATM    1  C   UNL     1     -10.465   5.591  66.765  1.00  0.00    -0.296 C  
HETATM    2  O   UNL     1     -11.221   6.779  66.977  1.00  0.00    -0.393 OA 
ENDROOT
BRANCH   2   3
HETATM    3  C   UNL     1     -10.502   7.702  67.796  1.00  0.00    -0.216 C  
BRANCH   3   4
HETATM    4  C   UNL     1     -10.170   8.955  66.980  1.00  0.00    -0.345 C  
BRANCH   4   5
HETATM    5  C   UNL     1     -10.766  10.200  67.587  1.00  0.00    -0.339 A  
HETATM    6  C   UNL     1     -10.958  11.328  66.785  1.00  0.00    -0.339 A  
HETATM    7  C   UNL     1     -11.491  12.497  67.319  1.00  0.00    -0.416 A  
HETATM    8  C   UNL     1     -11.860  12.569  68.663  1.00  0.00    -0.297 A  
HETATM    9  C   UNL     1     -11.144  10.262  68.934  1.00  0.00    -0.278 A  
HETATM   10  C   UNL     1     -11.686  11.443  69.469  1.00  0.00    -0.417 A  
BRANCH   8  11
HETATM   11  O   UNL     1     -12.396  13.682  69.265  1.00  0.00    -0.288 OA 
BRANCH  11  12
HETATM   12  C   UNL     1     -12.279  13.699  70.700  1.00  0.00    -0.360 C  
BRANCH  12  13
HETATM   13  C   UNL     1     -12.171  15.130  71.243  1.00  0.00    -0.333 C  
HETATM   14  H   UNL     1     -11.707  15.986  72.954  1.00  0.00     0.000 HD 
HETATM   15  O   UNL     1     -11.774  15.100  72.618  1.00  0.00    -0.409 OA 
BRANCH  13  16
HETATM   16  C   UNL     1     -11.190  16.005  70.443  1.00  0.00    -0.387 C  
BRANCH  16  17
HETATM   17  N   UNL     1     -10.067  15.227  69.912  1.00  0.00    -0.436 NA 
HETATM   18  H   UNL     1     -10.403  14.382  69.450  1.00  0.00     0.000 HD 
BRANCH  17  19
HETATM   19  C   UNL     1      -9.187  15.989  69.019  1.00  0.00    -0.244 C  
HETATM   20  C   UNL     1      -8.682  15.165  67.832  1.00  0.00    -0.157 C  
HETATM   21  C   UNL     1      -9.978  17.194  68.503  1.00  0.00    -0.309 C  
ENDBRANCH  17  19
ENDBRANCH  16  17
ENDBRANCH  13  16
ENDBRANCH  12  13
ENDBRANCH  11  12
ENDBRANCH   8  11
ENDBRANCH   4   5
ENDBRANCH   3   4
ENDBRANCH   2   3
TORSDOF 9
ENDMDL
MODEL       93
REMARK 921   NORMALIZED FREE ENERGY PREDICTED BY IDOCK:   -4.22 KCAL/MOL
REMARK 922        TOTAL FREE ENERGY PREDICTED BY IDOCK:   -7.07 KCAL/MOL
REMARK 923 INTER-LIGAND FREE ENERGY PREDICTED BY IDOCK:   -6.04 KCAL/MOL
REMARK 924 INTRA-LIGAND FREE ENERGY PREDICTED BY IDOCK:   -1.03 KCAL/MOL
REMARK 927      BINDING AFFINITY PREDICTED BY RF-SCORE:    0.00 PKD
ROOT
HETATM    1  C   UNL     1     -10.532  19.539  66.657  1.00  0.00    -0.488 C  
HETATM    2  O   UNL     1      -9.401  19.010  65.974  1.00  0.00    -0.454 OA 
ENDROOT
BRANCH   2   3
HETATM    3  C   UNL     1      -8.498  18.385  66.887  1.00  0.00    -0.265 C  
BRANCH   3   4
HETATM    4  C   UNL     1      -7.779  17.232  66.182  1.00  0.00    -0.317 C  
BRANCH   4   5
HETATM    5  C   UNL     1      -8.458  15.907  66.424  1.00  0.00    -0.348 A  
HETATM    6  C   UNL     1      -9.692  15.651  65.822  1.00  0.00    -0.380 A  
HETATM    7  C   UNL     1     -10.352  14.445  66.038  1.00  0.00    -0.319 A  
HETATM    8  C   UNL     1      -9.794  13.457  66.851  1.00  0.00    -0.256 A  
HETATM    9  C   UNL     1      -7.887  14.916  67.233  1.00  0.00    -0.235 A  
HETATM   10  C   UNL     1      -8.554  13.698  67.446  1.00  0.00    -0.212 A  
BRANCH   8  11
HETATM   11  O   UNL     1     -10.377  12.241  67.112  1.00  0.00    -0.216 OA 
BRANCH  11  12
HETATM   12  C   UNL     1     -10.197  11.770  68.460  1.00  0.00    -0.210 C  
BRANCH  12  13
HETATM   13  C   UNL     1     -11.530  11.695  69.217  1.00  0.00    -0.300 C  
HETATM   14  H   UNL     1     -12.155  11.042  70.966  1.00  0.00     0.000 HD 
HETATM   15  O   UNL     1     -11.330  11.088  70.497  1.00  0.00    -0.253 OA 
BRANCH  13  16
HETATM   16  C   UNL     1     -12.198  13.070  69.398  1.00  0.00    -0.113 C  
BRANCH  16  17
HETATM   17  N   UNL     1     -11.326  14.015  70.101  1.00  0.00    -0.483 NA 
HETATM   18  H   UNL     1     -10.374  13.962  69.740  1.00  0.00     0.000 HD 
BRANCH  17  19
HETATM   19  C   UNL     1     -11.811  15.400  70.078  1.00  0.00    -0.343 C  
HETATM   20  C   UNL     1     -12.104  15.955  71.475  1.00  0.00    -0.533 C  
HETATM   21  C   UNL     1     -10.736  16.258  69.404  1.00  0.00    -0.318 C  
ENDBRANCH  17  19
ENDBRANCH  16  17
ENDBRANCH  13  16
ENDBRANCH  12  13
ENDBRANCH  11  12
ENDBRANCH   8  11
ENDBRANCH   4   5
ENDBRANCH   3   4
ENDBRANCH   2   3
TORSDOF 9
ENDMDL
MODEL       94
REMARK 921   NORMALIZED FREE ENERGY PREDICTED BY IDOCK:   -4.21 KCAL/MOL
REMARK 922        TOTAL FREE ENERGY PREDICTED BY IDOCK:   -7.06 KCAL/MOL
REMARK 923 INTER-LIGAND FREE ENERGY PREDICTED BY IDOCK:   -6.30 KCAL/MOL
REMARK 924 INTRA-LIGAND FREE ENERGY PREDICTED BY IDOCK:   -0.75 KCAL/MOL
REMARK 927      BINDING AFFINITY PREDICTED BY RF-SCORE:    0.00 PKD
ROOT
HETATM    1  C   UNL     1      -8.095   9.217  62.577  1.00  0.00    -0.146 C  
HETATM    2  O   UNL     1      -9.007   9.729  63.543  1.00  0.00    -0.229 OA 
ENDROOT
BRANCH   2   3
HETATM    3  C   UNL     1      -9.343  11.088  63.258  1.00  0.00    -0.308 C  
BRANCH   3   4
HETATM    4  C   UNL     1     -10.855  11.280  63.406  1.00  0.00    -0.311 C  
BRANCH   4   5
HETATM    5  C   UNL     1     -11.198  12.213  64.540  1.00  0.00    -0.385 A  
HETATM    6  C   UNL     1     -12.303  13.059  64.420  1.00  0.00    -0.442 A  
HETATM    7  C   UNL     1     -12.636  13.943  65.442  1.00  0.00    -0.538 A  
HETATM    8  C   UNL     1     -11.885  13.997  66.617  1.00  0.00    -0.419 A  
HETATM    9  C   UNL     1     -10.446  12.255  65.721  1.00  0.00    -0.287 A  
HETATM   10  C   UNL     1     -10.788  13.145  66.753  1.00  0.00    -0.289 A  
BRANCH   8  11
HETATM   11  O   UNL     1     -12.150  14.835  67.673  1.00  0.00    -0.299 OA 
BRANCH  11  12
HETATM   12  C   UNL     1     -11.946  14.244  68.969  1.00  0.00    -0.325 C  
BRANCH  12  13
HETATM   13  C   UNL     1     -11.729  15.311  70.052  1.00  0.00    -0.315 C  
HETATM   14  H   UNL     1     -11.506  15.349  72.007  1.00  0.00     0.000 HD 
HETATM   15  O   UNL     1     -11.640  14.689  71.337  1.00  0.00    -0.303 OA 
BRANCH  13  16
HETATM   16  C   UNL     1     -10.475  16.169  69.807  1.00  0.00    -0.286 C  
BRANCH  16  17
HETATM   17  N   UNL     1     -10.802  17.456  69.186  1.00  0.00    -0.295 NA 
HETATM   18  H   UNL     1     -11.039  18.148  69.897  1.00  0.00     0.000 HD 
BRANCH  17  19
HETATM   19  C   UNL     1      -9.755  17.968  68.295  1.00  0.00    -0.330 C  
HETATM   20  C   UNL     1      -9.769  17.308  66.914  1.00  0.00    -0.275 C  
HETATM   21  C   UNL     1      -9.972  19.476  68.141  1.00  0.00    -0.522 C  
ENDBRANCH  17  19
ENDBRANCH  16  17
ENDBRANCH  13  16
ENDBRANCH  12  13
ENDBRANCH  11  12
ENDBRANCH   8  11
ENDBRANCH   4   5
ENDBRANCH   3   4
ENDBRANCH   2   3
TORSDOF 9
ENDMDL
MODEL       95
REMARK 921   NORMALIZED FREE ENERGY PREDICTED BY IDOCK:   -4.20 KCAL/MOL
REMARK 922        TOTAL FREE ENERGY PREDICTED BY IDOCK:   -7.05 KCAL/MOL
REMARK 923 INTER-LIGAND FREE ENERGY PREDICTED BY IDOCK:   -6.27 KCAL/MOL
REMARK 924 INTRA-LIGAND FREE ENERGY PREDICTED BY IDOCK:   -0.78 KCAL/MOL
REMARK 927      BINDING AFFINITY PREDICTED BY RF-SCORE:    0.00 PKD
ROOT
HETATM    1  C   UNL     1      -7.513  20.066  67.964  1.00  0.00    -0.289 C  
HETATM    2  O   UNL     1      -8.154  20.318  66.717  1.00  0.00    -0.303 OA 
ENDROOT
BRANCH   2   3
HETATM    3  C   UNL     1      -9.574  20.347  66.870  1.00  0.00    -0.406 C  
BRANCH   3   4
HETATM    4  C   UNL     1     -10.215  19.405  65.847  1.00  0.00    -0.471 C  
BRANCH   4   5
HETATM    5  C   UNL     1     -10.394  18.012  66.394  1.00  0.00    -0.382 A  
HETATM    6  C   UNL     1     -10.656  17.839  67.755  1.00  0.00    -0.392 A  
HETATM    7  C   UNL     1     -10.810  16.565  68.294  1.00  0.00    -0.352 A  
HETATM    8  C   UNL     1     -10.719  15.430  67.488  1.00  0.00    -0.295 A  
HETATM    9  C   UNL     1     -10.312  16.876  65.577  1.00  0.00    -0.196 A  
HETATM   10  C   UNL     1     -10.472  15.592  66.124  1.00  0.00    -0.327 A  
BRANCH   8  11
HETATM   11  O   UNL     1     -10.863  14.140  67.940  1.00  0.00    -0.240 OA 
BRANCH  11  12
HETATM   12  C   UNL     1     -11.902  13.964  68.920  1.00  0.00    -0.358 C  
BRANCH  12  13
HETATM   13  C   UNL     1     -11.677  12.702  69.765  1.00  0.00    -0.284 C  
HETATM   14  H   UNL     1     -12.291  12.007  71.501  1.00  0.00     0.000 HD 
HETATM   15  O   UNL     1     -12.430  12.788  70.978  1.00  0.00    -0.376 OA 
BRANCH  13  16
HETATM   16  C   UNL     1     -12.046  11.406  69.021  1.00  0.00    -0.249 C  
BRANCH  16  17
HETATM   17  N   UNL     1     -11.809  11.515  67.579  1.00  0.00    -0.631 NA 
HETATM   18  H   UNL     1     -11.471  12.447  67.340  1.00  0.00     0.000 HD 
BRANCH  17  19
HETATM   19  C   UNL     1     -10.908  10.486  67.046  1.00  0.00    -0.225 C  
HETATM   20  C   UNL     1      -9.676  11.072  66.351  1.00  0.00    -0.235 C  
HETATM   21  C   UNL     1     -10.461   9.608  68.218  1.00  0.00    -0.259 C  
ENDBRANCH  17  19
ENDBRANCH  16  17
ENDBRANCH  13  16
ENDBRANCH  12  13
ENDBRANCH  11  12
ENDBRANCH   8  11
ENDBRANCH   4   5
ENDBRANCH   3   4
ENDBRANCH   2   3
TORSDOF 9
ENDMDL
MODEL       96
REMARK 921   NORMALIZED FREE ENERGY PREDICTED BY IDOCK:   -4.20 KCAL/MOL
REMARK 922        TOTAL FREE ENERGY PREDICTED BY IDOCK:   -7.04 KCAL/MOL
REMARK 923 INTER-LIGAND FREE ENERGY PREDICTED BY IDOCK:   -6.74 KCAL/MOL
REMARK 924 INTRA-LIGAND FREE ENERGY PREDICTED BY IDOCK:   -0.31 KCAL/MOL
REMARK 927      BINDING AFFINITY PREDICTED BY RF-SCORE:    0.00 PKD
ROOT
HETATM    1  C   UNL     1      -8.167  18.148  68.399  1.00  0.00    -0.303 C  
HETATM    2  O   UNL     1      -9.544  17.850  68.196  1.00  0.00    -0.283 OA 
ENDROOT
BRANCH   2   3
HETATM    3  C   UNL     1      -9.961  16.766  69.028  1.00  0.00    -0.272 C  
BRANCH   3   4
HETATM    4  C   UNL     1     -11.169  16.072  68.393  1.00  0.00    -0.364 C  
BRANCH   4   5
HETATM    5  C   UNL     1     -11.637  14.893  69.208  1.00  0.00    -0.330 A  
HETATM    6  C   UNL     1     -12.139  15.105  70.494  1.00  0.00    -0.390 A  
HETATM    7  C   UNL     1     -12.564  14.036  71.277  1.00  0.00    -0.444 A  
HETATM    8  C   UNL     1     -12.513  12.728  70.794  1.00  0.00    -0.271 A  
HETATM    9  C   UNL     1     -11.593  13.583  68.712  1.00  0.00    -0.362 A  
HETATM   10  C   UNL     1     -12.027  12.507  69.504  1.00  0.00    -0.329 A  
BRANCH   8  11
HETATM   11  O   UNL     1     -12.916  11.621  71.499  1.00  0.00    -0.424 OA 
BRANCH  11  12
HETATM   12  C   UNL     1     -12.198  10.415  71.180  1.00  0.00    -0.394 C  
BRANCH  12  13
HETATM   13  C   UNL     1     -12.560   9.269  72.134  1.00  0.00    -0.371 C  
HETATM   14  H   UNL     1     -14.202   8.373  72.746  1.00  0.00     0.000 HD 
HETATM   15  O   UNL     1     -13.978   9.083  72.156  1.00  0.00    -0.431 OA 
BRANCH  13  16
HETATM   16  C   UNL     1     -11.873   7.941  71.767  1.00  0.00    -0.293 C  
BRANCH  16  17
HETATM   17  N   UNL     1     -11.503   7.167  72.956  1.00  0.00    -0.559 NA 
HETATM   18  H   UNL     1     -12.335   6.895  73.479  1.00  0.00     0.000 HD 
BRANCH  17  19
HETATM   19  C   UNL     1     -10.669   5.996  72.666  1.00  0.00    -0.232 C  
HETATM   20  C   UNL     1     -11.030   4.777  73.520  1.00  0.00    -0.398 C  
HETATM   21  C   UNL     1     -10.850   5.651  71.185  1.00  0.00    -0.288 C  
ENDBRANCH  17  19
ENDBRANCH  16  17
ENDBRANCH  13  16
ENDBRANCH  12  13
ENDBRANCH  11  12
ENDBRANCH   8  11
ENDBRANCH   4   5
ENDBRANCH   3   4
ENDBRANCH   2   3
TORSDOF 9
ENDMDL
MODEL       97
REMARK 921   NORMALIZED FREE ENERGY PREDICTED BY IDOCK:   -4.19 KCAL/MOL
REMARK 922        TOTAL FREE ENERGY PREDICTED BY IDOCK:   -7.04 KCAL/MOL
REMARK 923 INTER-LIGAND FREE ENERGY PREDICTED BY IDOCK:   -6.60 KCAL/MOL
REMARK 924 INTRA-LIGAND FREE ENERGY PREDICTED BY IDOCK:   -0.44 KCAL/MOL
REMARK 927      BINDING AFFINITY PREDICTED BY RF-SCORE:    0.00 PKD
ROOT
HETATM    1  C   UNL     1     -12.094   6.702  70.913  1.00  0.00    -0.320 C  
HETATM    2  O   UNL     1     -11.831   7.125  72.247  1.00  0.00    -0.280 OA 
ENDROOT
BRANCH   2   3
HETATM    3  C   UNL     1     -11.110   8.358  72.260  1.00  0.00    -0.368 C  
BRANCH   3   4
HETATM    4  C   UNL     1     -12.061   9.507  71.915  1.00  0.00    -0.409 C  
BRANCH   4   5
HETATM    5  C   UNL     1     -11.585  10.298  70.723  1.00  0.00    -0.446 A  
HETATM    6  C   UNL     1     -12.282  11.446  70.340  1.00  0.00    -0.450 A  
HETATM    7  C   UNL     1     -11.877  12.189  69.235  1.00  0.00    -0.370 A  
HETATM    8  C   UNL     1     -10.759  11.814  68.490  1.00  0.00    -0.220 A  
HETATM    9  C   UNL     1     -10.455   9.922  69.985  1.00  0.00    -0.331 A  
HETATM   10  C   UNL     1     -10.046  10.677  68.873  1.00  0.00    -0.215 A  
BRANCH   8  11
HETATM   11  O   UNL     1     -10.291  12.494  67.391  1.00  0.00    -0.214 OA 
BRANCH  11  12
HETATM   12  C   UNL     1      -9.971  13.876  67.636  1.00  0.00    -0.237 C  
BRANCH  12  13
HETATM   13  C   UNL     1     -10.660  14.805  66.628  1.00  0.00    -0.299 C  
HETATM   14  H   UNL     1     -12.458  15.005  65.854  1.00  0.00     0.000 HD 
HETATM   15  O   UNL     1     -12.032  14.430  66.477  1.00  0.00    -0.404 OA 
BRANCH  13  16
HETATM   16  C   UNL     1     -10.573  16.291  67.022  1.00  0.00    -0.284 C  
BRANCH  16  17
HETATM   17  N   UNL     1     -10.004  17.112  65.950  1.00  0.00    -0.531 NA 
HETATM   18  H   UNL     1     -10.649  17.169  65.161  1.00  0.00     0.000 HD 
BRANCH  17  19
HETATM   19  C   UNL     1      -9.595  18.453  66.382  1.00  0.00    -0.310 C  
HETATM   20  C   UNL     1     -10.516  19.558  65.856  1.00  0.00    -0.585 C  
HETATM   21  C   UNL     1      -9.604  18.470  67.913  1.00  0.00    -0.323 C  
ENDBRANCH  17  19
ENDBRANCH  16  17
ENDBRANCH  13  16
ENDBRANCH  12  13
ENDBRANCH  11  12
ENDBRANCH   8  11
ENDBRANCH   4   5
ENDBRANCH   3   4
ENDBRANCH   2   3
TORSDOF 9
ENDMDL
MODEL       98
REMARK 921   NORMALIZED FREE ENERGY PREDICTED BY IDOCK:   -4.18 KCAL/MOL
REMARK 922        TOTAL FREE ENERGY PREDICTED BY IDOCK:   -7.01 KCAL/MOL
REMARK 923 INTER-LIGAND FREE ENERGY PREDICTED BY IDOCK:   -6.49 KCAL/MOL
REMARK 924 INTRA-LIGAND FREE ENERGY PREDICTED BY IDOCK:   -0.52 KCAL/MOL
REMARK 927      BINDING AFFINITY PREDICTED BY RF-SCORE:    0.00 PKD
ROOT
HETATM    1  C   UNL     1     -12.254  12.047  63.613  1.00  0.00    -0.538 C  
HETATM    2  O   UNL     1     -12.919  12.945  64.496  1.00  0.00    -0.725 OA 
ENDROOT
BRANCH   2   3
HETATM    3  C   UNL     1     -12.223  13.049  65.739  1.00  0.00    -0.453 C  
BRANCH   3   4
HETATM    4  C   UNL     1     -11.191  11.923  65.839  1.00  0.00    -0.373 C  
BRANCH   4   5
HETATM    5  C   UNL     1     -11.157  11.307  67.215  1.00  0.00    -0.367 A  
HETATM    6  C   UNL     1     -10.347  10.193  67.447  1.00  0.00    -0.289 A  
HETATM    7  C   UNL     1     -10.306   9.592  68.702  1.00  0.00    -0.229 A  
HETATM    8  C   UNL     1     -11.062  10.093  69.762  1.00  0.00    -0.279 A  
HETATM    9  C   UNL     1     -11.910  11.821  68.279  1.00  0.00    -0.340 A  
HETATM   10  C   UNL     1     -11.864  11.215  69.545  1.00  0.00    -0.423 A  
BRANCH   8  11
HETATM   11  O   UNL     1     -11.074   9.562  71.029  1.00  0.00    -0.303 OA 
BRANCH  11  12
HETATM   12  C   UNL     1     -10.693   8.176  71.099  1.00  0.00    -0.221 C  
BRANCH  12  13
HETATM   13  C   UNL     1     -11.910   7.246  70.991  1.00  0.00    -0.318 C  
HETATM   14  H   UNL     1     -12.527   5.824  69.779  1.00  0.00     0.000 HD 
HETATM   15  O   UNL     1     -11.775   6.399  69.846  1.00  0.00    -0.426 OA 
BRANCH  13  16
HETATM   16  C   UNL     1     -12.121   6.383  72.247  1.00  0.00    -0.206 C  
BRANCH  16  17
HETATM   17  N   UNL     1     -11.145   5.293  72.334  1.00  0.00    -0.226 NA 
HETATM   18  H   UNL     1     -10.344   5.479  71.733  1.00  0.00     0.000 HD 
BRANCH  17  19
HETATM   19  C   UNL     1     -10.706   4.998  73.703  1.00  0.00    -0.293 C  
HETATM   20  C   UNL     1      -9.587   3.954  73.761  1.00  0.00    -0.132 C  
HETATM   21  C   UNL     1     -10.213   6.307  74.325  1.00  0.00    -0.351 C  
ENDBRANCH  17  19
ENDBRANCH  16  17
ENDBRANCH  13  16
ENDBRANCH  12  13
ENDBRANCH  11  12
ENDBRANCH   8  11
ENDBRANCH   4   5
ENDBRANCH   3   4
ENDBRANCH   2   3
TORSDOF 9
ENDMDL
MODEL       99
REMARK 921   NORMALIZED FREE ENERGY PREDICTED BY IDOCK:   -4.17 KCAL/MOL
REMARK 922        TOTAL FREE ENERGY PREDICTED BY IDOCK:   -7.00 KCAL/MOL
REMARK 923 INTER-LIGAND FREE ENERGY PREDICTED BY IDOCK:   -6.30 KCAL/MOL
REMARK 924 INTRA-LIGAND FREE ENERGY PREDICTED BY IDOCK:   -0.70 KCAL/MOL
REMARK 927      BINDING AFFINITY PREDICTED BY RF-SCORE:    0.00 PKD
ROOT
HETATM    1  C   UNL     1     -11.899   7.818  71.634  1.00  0.00    -0.287 C  
HETATM    2  O   UNL     1     -12.335   9.154  71.401  1.00  0.00    -0.308 OA 
ENDROOT
BRANCH   2   3
HETATM    3  C   UNL     1     -11.276   9.952  70.871  1.00  0.00    -0.360 C  
BRANCH   3   4
HETATM    4  C   UNL     1     -10.391   9.088  69.968  1.00  0.00    -0.226 C  
BRANCH   4   5
HETATM    5  C   UNL     1     -10.436   9.539  68.530  1.00  0.00    -0.247 A  
HETATM    6  C   UNL     1      -9.822   8.759  67.548  1.00  0.00    -0.232 A  
HETATM    7  C   UNL     1      -9.832   9.157  66.215  1.00  0.00    -0.359 A  
HETATM    8  C   UNL     1     -10.468  10.336  65.822  1.00  0.00    -0.089 A  
HETATM    9  C   UNL     1     -11.085  10.718  68.142  1.00  0.00    -0.337 A  
HETATM   10  C   UNL     1     -11.098  11.115  66.794  1.00  0.00    -0.280 A  
BRANCH   8  11
HETATM   11  O   UNL     1     -10.528  10.795  64.529  1.00  0.00    -0.357 OA 
BRANCH  11  12
HETATM   12  C   UNL     1     -10.393  12.222  64.397  1.00  0.00    -0.331 C  
BRANCH  12  13
HETATM   13  C   UNL     1     -11.514  12.821  63.536  1.00  0.00    -0.459 C  
HETATM   14  H   UNL     1     -13.262  12.237  62.845  1.00  0.00     0.000 HD 
HETATM   15  O   UNL     1     -12.568  11.867  63.377  1.00  0.00    -0.590 OA 
BRANCH  13  16
HETATM   16  C   UNL     1     -12.085  14.127  64.115  1.00  0.00    -0.406 C  
BRANCH  16  17
HETATM   17  N   UNL     1     -11.027  15.058  64.518  1.00  0.00    -0.647 NA 
HETATM   18  H   UNL     1     -10.870  15.759  63.794  1.00  0.00     0.000 HD 
BRANCH  17  19
HETATM   19  C   UNL     1     -11.265  15.701  65.816  1.00  0.00    -0.080 C  
HETATM   20  C   UNL     1     -11.242  14.713  66.986  1.00  0.00    -0.348 C  
HETATM   21  C   UNL     1     -10.173  16.755  66.020  1.00  0.00    -0.361 C  
ENDBRANCH  17  19
ENDBRANCH  16  17
ENDBRANCH  13  16
ENDBRANCH  12  13
ENDBRANCH  11  12
ENDBRANCH   8  11
ENDBRANCH   4   5
ENDBRANCH   3   4
ENDBRANCH   2   3
TORSDOF 9
ENDMDL
MODEL      100
REMARK 921   NORMALIZED FREE ENERGY PREDICTED BY IDOCK:   -4.17 KCAL/MOL
REMARK 922        TOTAL FREE ENERGY PREDICTED BY IDOCK:   -7.00 KCAL/MOL
REMARK 923 INTER-LIGAND FREE ENERGY PREDICTED BY IDOCK:   -6.40 KCAL/MOL
REMARK 924 INTRA-LIGAND FREE ENERGY PREDICTED BY IDOCK:   -0.60 KCAL/MOL
REMARK 927      BINDING AFFINITY PREDICTED BY RF-SCORE:    0.00 PKD
ROOT
HETATM    1  C   UNL     1     -10.120  19.251  68.470  1.00  0.00    -0.430 C  
HETATM    2  O   UNL     1      -8.851  18.611  68.542  1.00  0.00    -0.322 OA 
ENDROOT
BRANCH   2   3
HETATM    3  C   UNL     1      -8.986  17.194  68.424  1.00  0.00    -0.259 C  
BRANCH   3   4
HETATM    4  C   UNL     1     -10.471  16.821  68.441  1.00  0.00    -0.339 C  
BRANCH   4   5
HETATM    5  C   UNL     1     -10.859  15.989  67.244  1.00  0.00    -0.255 A  
HETATM    6  C   UNL     1     -11.625  14.837  67.432  1.00  0.00    -0.377 A  
HETATM    7  C   UNL     1     -11.986  14.039  66.350  1.00  0.00    -0.462 A  
HETATM    8  C   UNL     1     -11.605  14.377  65.051  1.00  0.00    -0.374 A  
HETATM    9  C   UNL     1     -10.482  16.340  65.942  1.00  0.00    -0.359 A  
HETATM   10  C   UNL     1     -10.852  15.535  64.851  1.00  0.00    -0.447 A  
BRANCH   8  11
HETATM   11  O   UNL     1     -11.923  13.647  63.931  1.00  0.00    -0.445 OA 
BRANCH  11  12
HETATM   12  C   UNL     1     -12.125  12.242  64.171  1.00  0.00    -0.436 C  
BRANCH  12  13
HETATM   13  C   UNL     1     -10.881  11.420  63.807  1.00  0.00    -0.395 C  
HETATM   14  H   UNL     1      -9.174  11.731  62.879  1.00  0.00     0.000 HD 
HETATM   15  O   UNL     1      -9.944  12.240  63.104  1.00  0.00    -0.389 OA 
BRANCH  13  16
HETATM   16  C   UNL     1     -10.196  10.791  65.034  1.00  0.00    -0.306 C  
BRANCH  16  17
HETATM   17  N   UNL     1      -8.770  11.127  65.098  1.00  0.00    -0.379 NA 
HETATM   18  H   UNL     1      -8.571  11.689  65.925  1.00  0.00     0.000 HD 
BRANCH  17  19
HETATM   19  C   UNL     1      -7.883   9.959  65.041  1.00  0.00    -0.131 C  
HETATM   20  C   UNL     1      -8.501   8.707  65.668  1.00  0.00    -0.171 C  
HETATM   21  C   UNL     1      -7.565   9.687  63.568  1.00  0.00    -0.123 C  
ENDBRANCH  17  19
ENDBRANCH  16  17
ENDBRANCH  13  16
ENDBRANCH  12  13
ENDBRANCH  11  12
ENDBRANCH   8  11
ENDBRANCH   4   5
ENDBRANCH   3   4
ENDBRANCH   2   3
TORSDOF 9
ENDMDL
MODEL      101
REMARK 921   NORMALIZED FREE ENERGY PREDICTED BY IDOCK:   -4.16 KCAL/MOL
REMARK 922        TOTAL FREE ENERGY PREDICTED BY IDOCK:   -6.99 KCAL/MOL
REMARK 923 INTER-LIGAND FREE ENERGY PREDICTED BY IDOCK:   -6.03 KCAL/MOL
REMARK 924 INTRA-LIGAND FREE ENERGY PREDICTED BY IDOCK:   -0.96 KCAL/MOL
REMARK 927      BINDING AFFINITY PREDICTED BY RF-SCORE:    0.00 PKD
ROOT
HETATM    1  C   UNL     1     -10.584  18.736  66.834  1.00  0.00    -0.409 C  
HETATM    2  O   UNL     1     -10.271  18.022  65.643  1.00  0.00    -0.584 OA 
ENDROOT
BRANCH   2   3
HETATM    3  C   UNL     1      -9.863  16.686  65.941  1.00  0.00    -0.273 C  
BRANCH   3   4
HETATM    4  C   UNL     1     -10.704  15.703  65.122  1.00  0.00    -0.463 C  
BRANCH   4   5
HETATM    5  C   UNL     1     -11.084  14.481  65.920  1.00  0.00    -0.327 A  
HETATM    6  C   UNL     1     -11.649  14.640  67.187  1.00  0.00    -0.394 A  
HETATM    7  C   UNL     1     -11.995  13.532  67.956  1.00  0.00    -0.372 A  
HETATM    8  C   UNL     1     -11.800  12.237  67.475  1.00  0.00    -0.261 A  
HETATM    9  C   UNL     1     -10.895  13.183  65.427  1.00  0.00    -0.299 A  
HETATM   10  C   UNL     1     -11.250  12.068  66.203  1.00  0.00    -0.394 A  
BRANCH   8  11
HETATM   11  O   UNL     1     -12.119  11.093  68.166  1.00  0.00    -0.633 OA 
BRANCH  11  12
HETATM   12  C   UNL     1     -11.070  10.108  68.205  1.00  0.00    -0.230 C  
BRANCH  12  13
HETATM   13  C   UNL     1     -10.233  10.220  69.486  1.00  0.00    -0.236 C  
HETATM   14  H   UNL     1      -9.975   9.171  71.131  1.00  0.00     0.000 HD 
HETATM   15  O   UNL     1     -10.494   9.101  70.339  1.00  0.00    -0.196 OA 
BRANCH  13  16
HETATM   16  C   UNL     1      -8.721  10.315  69.210  1.00  0.00    -0.174 C  
BRANCH  16  17
HETATM   17  N   UNL     1      -8.273  11.704  69.075  1.00  0.00    -0.366 NA 
HETATM   18  H   UNL     1      -7.487  11.889  69.697  1.00  0.00     0.000 HD 
BRANCH  17  19
HETATM   19  C   UNL     1      -7.945  12.090  67.698  1.00  0.00    -0.150 C  
HETATM   20  C   UNL     1      -7.229  13.441  67.610  1.00  0.00    -0.167 C  
HETATM   21  C   UNL     1      -7.046  10.998  67.110  1.00  0.00    -0.104 C  
ENDBRANCH  17  19
ENDBRANCH  16  17
ENDBRANCH  13  16
ENDBRANCH  12  13
ENDBRANCH  11  12
ENDBRANCH   8  11
ENDBRANCH   4   5
ENDBRANCH   3   4
ENDBRANCH   2   3
TORSDOF 9
ENDMDL
MODEL      102
REMARK 921   NORMALIZED FREE ENERGY PREDICTED BY IDOCK:   -4.15 KCAL/MOL
REMARK 922        TOTAL FREE ENERGY PREDICTED BY IDOCK:   -6.98 KCAL/MOL
REMARK 923 INTER-LIGAND FREE ENERGY PREDICTED BY IDOCK:   -5.98 KCAL/MOL
REMARK 924 INTRA-LIGAND FREE ENERGY PREDICTED BY IDOCK:   -1.00 KCAL/MOL
REMARK 927      BINDING AFFINITY PREDICTED BY RF-SCORE:    0.00 PKD
ROOT
HETATM    1  C   UNL     1      -8.042   5.412  64.798  1.00  0.00    -0.123 C  
HETATM    2  O   UNL     1      -8.949   6.030  65.705  1.00  0.00    -0.156 OA 
ENDROOT
BRANCH   2   3
HETATM    3  C   UNL     1      -8.345   7.153  66.347  1.00  0.00    -0.125 C  
BRANCH   3   4
HETATM    4  C   UNL     1      -9.432   8.014  66.996  1.00  0.00    -0.223 C  
BRANCH   4   5
HETATM    5  C   UNL     1      -9.701   9.274  66.211  1.00  0.00    -0.340 A  
HETATM    6  C   UNL     1      -9.216   9.384  64.906  1.00  0.00    -0.246 A  
HETATM    7  C   UNL     1      -9.434  10.539  64.162  1.00  0.00    -0.342 A  
HETATM    8  C   UNL     1     -10.153  11.610  64.693  1.00  0.00    -0.262 A  
HETATM    9  C   UNL     1     -10.433  10.341  66.748  1.00  0.00    -0.279 A  
HETATM   10  C   UNL     1     -10.655  11.504  65.992  1.00  0.00    -0.310 A  
BRANCH   8  11
HETATM   11  O   UNL     1     -10.415  12.781  64.024  1.00  0.00    -0.406 OA 
BRANCH  11  12
HETATM   12  C   UNL     1     -11.789  12.945  63.624  1.00  0.00    -0.532 C  
BRANCH  12  13
HETATM   13  C   UNL     1     -12.389  14.245  64.175  1.00  0.00    -0.327 C  
HETATM   14  H   UNL     1     -13.503  14.777  65.708  1.00  0.00     0.000 HD 
HETATM   15  O   UNL     1     -13.132  13.972  65.367  1.00  0.00    -0.763 OA 
BRANCH  13  16
HETATM   16  C   UNL     1     -11.329  15.322  64.464  1.00  0.00    -0.300 C  
BRANCH  16  17
HETATM   17  N   UNL     1     -10.835  15.250  65.842  1.00  0.00    -0.335 NA 
HETATM   18  H   UNL     1     -11.137  14.383  66.287  1.00  0.00     0.000 HD 
BRANCH  17  19
HETATM   19  C   UNL     1      -9.381  15.411  65.961  1.00  0.00    -0.329 C  
HETATM   20  C   UNL     1      -8.965  16.840  66.321  1.00  0.00    -0.325 C  
HETATM   21  C   UNL     1      -8.893  14.451  67.049  1.00  0.00    -0.256 C  
ENDBRANCH  17  19
ENDBRANCH  16  17
ENDBRANCH  13  16
ENDBRANCH  12  13
ENDBRANCH  11  12
ENDBRANCH   8  11
ENDBRANCH   4   5
ENDBRANCH   3   4
ENDBRANCH   2   3
TORSDOF 9
ENDMDL
MODEL      103
REMARK 921   NORMALIZED FREE ENERGY PREDICTED BY IDOCK:   -4.15 KCAL/MOL
REMARK 922        TOTAL FREE ENERGY PREDICTED BY IDOCK:   -6.98 KCAL/MOL
REMARK 923 INTER-LIGAND FREE ENERGY PREDICTED BY IDOCK:   -6.61 KCAL/MOL
REMARK 924 INTRA-LIGAND FREE ENERGY PREDICTED BY IDOCK:   -0.36 KCAL/MOL
REMARK 927      BINDING AFFINITY PREDICTED BY RF-SCORE:    0.00 PKD
ROOT
HETATM    1  C   UNL     1     -12.933   8.910  71.285  1.00  0.00    -0.211 C  
HETATM    2  O   UNL     1     -13.530  10.202  71.250  1.00  0.00    -0.334 OA 
ENDROOT
BRANCH   2   3
HETATM    3  C   UNL     1     -12.577  11.214  71.580  1.00  0.00    -0.325 C  
BRANCH   3   4
HETATM    4  C   UNL     1     -13.310  12.529  71.863  1.00  0.00    -0.467 C  
BRANCH   4   5
HETATM    5  C   UNL     1     -12.612  13.711  71.238  1.00  0.00    -0.435 A  
HETATM    6  C   UNL     1     -12.148  13.616  69.924  1.00  0.00    -0.406 A  
HETATM    7  C   UNL     1     -11.487  14.684  69.325  1.00  0.00    -0.322 A  
HETATM    8  C   UNL     1     -11.282  15.879  70.015  1.00  0.00    -0.353 A  
HETATM    9  C   UNL     1     -12.419  14.912  71.933  1.00  0.00    -0.403 A  
HETATM   10  C   UNL     1     -11.755  15.989  71.324  1.00  0.00    -0.516 A  
BRANCH   8  11
HETATM   11  O   UNL     1     -10.644  16.979  69.495  1.00  0.00    -0.316 OA 
BRANCH  11  12
HETATM   12  C   UNL     1     -10.569  17.002  68.058  1.00  0.00    -0.373 C  
BRANCH  12  13
HETATM   13  C   UNL     1      -9.926  18.297  67.543  1.00  0.00    -0.335 C  
HETATM   14  H   UNL     1     -10.485  20.161  67.248  1.00  0.00     0.000 HD 
HETATM   15  O   UNL     1     -10.884  19.359  67.566  1.00  0.00    -0.478 OA 
BRANCH  13  16
HETATM   16  C   UNL     1      -8.680  18.711  68.348  1.00  0.00    -0.333 C  
BRANCH  16  17
HETATM   17  N   UNL     1      -7.745  19.502  67.543  1.00  0.00    -0.255 NA 
HETATM   18  H   UNL     1      -8.093  20.452  67.419  1.00  0.00     0.000 HD 
BRANCH  17  19
HETATM   19  C   UNL     1      -6.375  19.517  68.070  1.00  0.00    -0.218 C  
HETATM   20  C   UNL     1      -6.254  20.267  69.400  1.00  0.00    -0.355 C  
HETATM   21  C   UNL     1      -5.934  18.064  68.263  1.00  0.00    -0.173 C  
ENDBRANCH  17  19
ENDBRANCH  16  17
ENDBRANCH  13  16
ENDBRANCH  12  13
ENDBRANCH  11  12
ENDBRANCH   8  11
ENDBRANCH   4   5
ENDBRANCH   3   4
ENDBRANCH   2   3
TORSDOF 9
ENDMDL
MODEL      104
REMARK 921   NORMALIZED FREE ENERGY PREDICTED BY IDOCK:   -4.15 KCAL/MOL
REMARK 922        TOTAL FREE ENERGY PREDICTED BY IDOCK:   -6.97 KCAL/MOL
REMARK 923 INTER-LIGAND FREE ENERGY PREDICTED BY IDOCK:   -6.57 KCAL/MOL
REMARK 924 INTRA-LIGAND FREE ENERGY PREDICTED BY IDOCK:   -0.40 KCAL/MOL
REMARK 927      BINDING AFFINITY PREDICTED BY RF-SCORE:    0.00 PKD
ROOT
HETATM    1  C   UNL     1      -5.948  20.506  64.535  1.00  0.00    -0.275 C  
HETATM    2  O   UNL     1      -7.213  20.332  65.166  1.00  0.00    -0.269 OA 
ENDROOT
BRANCH   2   3
HETATM    3  C   UNL     1      -7.144  20.674  66.551  1.00  0.00    -0.216 C  
BRANCH   3   4
HETATM    4  C   UNL     1      -8.439  20.243  67.247  1.00  0.00    -0.415 C  
BRANCH   4   5
HETATM    5  C   UNL     1      -8.851  18.846  66.859  1.00  0.00    -0.306 A  
HETATM    6  C   UNL     1     -10.070  18.648  66.206  1.00  0.00    -0.431 A  
HETATM    7  C   UNL     1     -10.487  17.369  65.849  1.00  0.00    -0.256 A  
HETATM    8  C   UNL     1      -9.694  16.254  66.123  1.00  0.00    -0.329 A  
HETATM    9  C   UNL     1      -8.045  17.731  67.127  1.00  0.00    -0.229 A  
HETATM   10  C   UNL     1      -8.467  16.442  66.763  1.00  0.00    -0.279 A  
BRANCH   8  11
HETATM   11  O   UNL     1     -10.029  14.961  65.801  1.00  0.00    -0.305 OA 
BRANCH  11  12
HETATM   12  C   UNL     1     -11.277  14.827  65.096  1.00  0.00    -0.382 C  
BRANCH  12  13
HETATM   13  C   UNL     1     -11.536  13.374  64.672  1.00  0.00    -0.348 C  
HETATM   14  H   UNL     1     -12.684  12.439  63.376  1.00  0.00     0.000 HD 
HETATM   15  O   UNL     1     -12.524  13.338  63.639  1.00  0.00    -0.699 OA 
BRANCH  13  16
HETATM   16  C   UNL     1     -10.264  12.652  64.193  1.00  0.00    -0.340 C  
BRANCH  16  17
HETATM   17  N   UNL     1     -10.519  11.812  63.019  1.00  0.00    -0.673 NA 
HETATM   18  H   UNL     1     -10.373  12.342  62.160  1.00  0.00     0.000 HD 
BRANCH  17  19
HETATM   19  C   UNL     1      -9.739  10.569  62.998  1.00  0.00    -0.294 C  
HETATM   20  C   UNL     1      -8.318  10.763  62.462  1.00  0.00    -0.249 C  
HETATM   21  C   UNL     1      -9.673  10.037  64.432  1.00  0.00    -0.277 C  
ENDBRANCH  17  19
ENDBRANCH  16  17
ENDBRANCH  13  16
ENDBRANCH  12  13
ENDBRANCH  11  12
ENDBRANCH   8  11
ENDBRANCH   4   5
ENDBRANCH   3   4
ENDBRANCH   2   3
TORSDOF 9
ENDMDL
MODEL      105
REMARK 921   NORMALIZED FREE ENERGY PREDICTED BY IDOCK:   -4.14 KCAL/MOL
REMARK 922        TOTAL FREE ENERGY PREDICTED BY IDOCK:   -6.96 KCAL/MOL
REMARK 923 INTER-LIGAND FREE ENERGY PREDICTED BY IDOCK:   -6.07 KCAL/MOL
REMARK 924 INTRA-LIGAND FREE ENERGY PREDICTED BY IDOCK:   -0.89 KCAL/MOL
REMARK 927      BINDING AFFINITY PREDICTED BY RF-SCORE:    0.00 PKD
ROOT
HETATM    1  C   UNL     1     -12.650  16.005  72.061  1.00  0.00    -0.401 C  
HETATM    2  O   UNL     1     -13.854  15.360  72.463  1.00  0.00    -0.493 OA 
ENDROOT
BRANCH   2   3
HETATM    3  C   UNL     1     -13.759  13.946  72.289  1.00  0.00    -0.562 C  
BRANCH   3   4
HETATM    4  C   UNL     1     -12.779  13.638  71.153  1.00  0.00    -0.432 C  
BRANCH   4   5
HETATM    5  C   UNL     1     -12.521  12.159  71.013  1.00  0.00    -0.369 A  
HETATM    6  C   UNL     1     -11.669  11.706  70.003  1.00  0.00    -0.402 A  
HETATM    7  C   UNL     1     -11.424  10.346  69.838  1.00  0.00    -0.368 A  
HETATM    8  C   UNL     1     -12.010   9.403  70.683  1.00  0.00    -0.170 A  
HETATM    9  C   UNL     1     -13.105  11.218  71.871  1.00  0.00    -0.510 A  
HETATM   10  C   UNL     1     -12.852   9.847  71.704  1.00  0.00    -0.537 A  
BRANCH   8  11
HETATM   11  O   UNL     1     -11.816   8.046  70.590  1.00  0.00    -0.223 OA 
BRANCH  11  12
HETATM   12  C   UNL     1     -10.914   7.504  71.572  1.00  0.00    -0.229 C  
BRANCH  12  13
HETATM   13  C   UNL     1     -10.118   6.314  71.016  1.00  0.00    -0.185 C  
HETATM   14  H   UNL     1     -10.427   4.852  69.735  1.00  0.00     0.000 HD 
HETATM   15  O   UNL     1     -10.919   5.588  70.079  1.00  0.00    -0.301 OA 
BRANCH  13  16
HETATM   16  C   UNL     1      -8.797   6.734  70.346  1.00  0.00    -0.152 C  
BRANCH  16  17
HETATM   17  N   UNL     1      -8.976   7.878  69.448  1.00  0.00    -0.145 NA 
HETATM   18  H   UNL     1      -8.255   8.579  69.612  1.00  0.00     0.000 HD 
BRANCH  17  19
HETATM   19  C   UNL     1      -9.030   7.514  68.027  1.00  0.00    -0.129 C  
HETATM   20  C   UNL     1     -10.308   7.994  67.334  1.00  0.00    -0.354 C  
HETATM   21  C   UNL     1      -7.813   8.140  67.340  1.00  0.00    -0.106 C  
ENDBRANCH  17  19
ENDBRANCH  16  17
ENDBRANCH  13  16
ENDBRANCH  12  13
ENDBRANCH  11  12
ENDBRANCH   8  11
ENDBRANCH   4   5
ENDBRANCH   3   4
ENDBRANCH   2   3
TORSDOF 9
ENDMDL
MODEL      106
REMARK 921   NORMALIZED FREE ENERGY PREDICTED BY IDOCK:   -4.14 KCAL/MOL
REMARK 922        TOTAL FREE ENERGY PREDICTED BY IDOCK:   -6.96 KCAL/MOL
REMARK 923 INTER-LIGAND FREE ENERGY PREDICTED BY IDOCK:   -6.14 KCAL/MOL
REMARK 924 INTRA-LIGAND FREE ENERGY PREDICTED BY IDOCK:   -0.81 KCAL/MOL
REMARK 927      BINDING AFFINITY PREDICTED BY RF-SCORE:    0.00 PKD
ROOT
HETATM    1  C   UNL     1      -5.509  19.011  67.258  1.00  0.00    -0.157 C  
HETATM    2  O   UNL     1      -5.719  18.309  66.037  1.00  0.00    -0.157 OA 
ENDROOT
BRANCH   2   3
HETATM    3  C   UNL     1      -6.891  17.496  66.111  1.00  0.00    -0.276 C  
BRANCH   3   4
HETATM    4  C   UNL     1      -7.940  18.193  66.981  1.00  0.00    -0.239 C  
BRANCH   4   5
HETATM    5  C   UNL     1      -8.867  17.208  67.649  1.00  0.00    -0.218 A  
HETATM    6  C   UNL     1      -8.334  16.235  68.498  1.00  0.00    -0.204 A  
HETATM    7  C   UNL     1      -9.161  15.302  69.117  1.00  0.00    -0.234 A  
HETATM    8  C   UNL     1     -10.542  15.322  68.916  1.00  0.00    -0.242 A  
HETATM    9  C   UNL     1     -10.253  17.241  67.452  1.00  0.00    -0.325 A  
HETATM   10  C   UNL     1     -11.085  16.300  68.081  1.00  0.00    -0.329 A  
BRANCH   8  11
HETATM   11  O   UNL     1     -11.426  14.442  69.491  1.00  0.00    -0.261 OA 
BRANCH  11  12
HETATM   12  C   UNL     1     -12.127  13.603  68.555  1.00  0.00    -0.286 C  
BRANCH  12  13
HETATM   13  C   UNL     1     -11.330  12.334  68.222  1.00  0.00    -0.289 C  
HETATM   14  H   UNL     1     -11.559  10.393  68.449  1.00  0.00     0.000 HD 
HETATM   15  O   UNL     1     -12.052  11.178  68.655  1.00  0.00    -0.556 OA 
BRANCH  13  16
HETATM   16  C   UNL     1     -11.002  12.205  66.724  1.00  0.00    -0.280 C  
BRANCH  16  17
HETATM   17  N   UNL     1     -12.208  12.254  65.892  1.00  0.00    -0.600 NA 
HETATM   18  H   UNL     1     -13.034  12.423  66.467  1.00  0.00     0.000 HD 
BRANCH  17  19
HETATM   19  C   UNL     1     -12.134  13.227  64.796  1.00  0.00    -0.409 C  
HETATM   20  C   UNL     1     -10.858  14.073  64.833  1.00  0.00    -0.421 C  
HETATM   21  C   UNL     1     -12.191  12.449  63.479  1.00  0.00    -0.661 C  
ENDBRANCH  17  19
ENDBRANCH  16  17
ENDBRANCH  13  16
ENDBRANCH  12  13
ENDBRANCH  11  12
ENDBRANCH   8  11
ENDBRANCH   4   5
ENDBRANCH   3   4
ENDBRANCH   2   3
TORSDOF 9
ENDMDL
MODEL      107
REMARK 921   NORMALIZED FREE ENERGY PREDICTED BY IDOCK:   -4.14 KCAL/MOL
REMARK 922        TOTAL FREE ENERGY PREDICTED BY IDOCK:   -6.95 KCAL/MOL
REMARK 923 INTER-LIGAND FREE ENERGY PREDICTED BY IDOCK:   -6.42 KCAL/MOL
REMARK 924 INTRA-LIGAND FREE ENERGY PREDICTED BY IDOCK:   -0.53 KCAL/MOL
REMARK 927      BINDING AFFINITY PREDICTED BY RF-SCORE:    0.00 PKD
ROOT
HETATM    1  C   UNL     1      -9.910  19.672  68.027  1.00  0.00    -0.415 C  
HETATM    2  O   UNL     1     -10.995  19.525  67.116  1.00  0.00    -0.492 OA 
ENDROOT
BRANCH   2   3
HETATM    3  C   UNL     1     -10.605  18.757  65.977  1.00  0.00    -0.386 C  
BRANCH   3   4
HETATM    4  C   UNL     1      -9.620  17.668  66.411  1.00  0.00    -0.285 C  
BRANCH   4   5
HETATM    5  C   UNL     1     -10.302  16.340  66.624  1.00  0.00    -0.302 A  
HETATM    6  C   UNL     1     -10.272  15.384  65.607  1.00  0.00    -0.403 A  
HETATM    7  C   UNL     1     -10.905  14.155  65.767  1.00  0.00    -0.297 A  
HETATM    8  C   UNL     1     -11.574  13.841  66.951  1.00  0.00    -0.370 A  
HETATM    9  C   UNL     1     -10.962  16.027  67.820  1.00  0.00    -0.307 A  
HETATM   10  C   UNL     1     -11.597  14.784  67.980  1.00  0.00    -0.367 A  
BRANCH   8  11
HETATM   11  O   UNL     1     -12.219  12.652  67.190  1.00  0.00    -0.445 OA 
BRANCH  11  12
HETATM   12  C   UNL     1     -11.907  12.049  68.460  1.00  0.00    -0.311 C  
BRANCH  12  13
HETATM   13  C   UNL     1     -10.594  11.257  68.405  1.00  0.00    -0.197 C  
HETATM   14  H   UNL     1      -9.455  10.274  69.675  1.00  0.00     0.000 HD 
HETATM   15  O   UNL     1     -10.268  10.764  69.709  1.00  0.00    -0.144 OA 
BRANCH  13  16
HETATM   16  C   UNL     1     -10.638  10.085  67.409  1.00  0.00    -0.271 C  
BRANCH  16  17
HETATM   17  N   UNL     1     -10.941   8.813  68.071  1.00  0.00    -0.480 NA 
HETATM   18  H   UNL     1     -11.938   8.605  68.010  1.00  0.00     0.000 HD 
BRANCH  17  19
HETATM   19  C   UNL     1     -10.147   7.682  67.577  1.00  0.00    -0.202 C  
HETATM   20  C   UNL     1     -11.006   6.486  67.156  1.00  0.00    -0.480 C  
HETATM   21  C   UNL     1      -9.336   8.174  66.374  1.00  0.00    -0.269 C  
ENDBRANCH  17  19
ENDBRANCH  16  17
ENDBRANCH  13  16
ENDBRANCH  12  13
ENDBRANCH  11  12
ENDBRANCH   8  11
ENDBRANCH   4   5
ENDBRANCH   3   4
ENDBRANCH   2   3
TORSDOF 9
ENDMDL
MODEL      108
REMARK 921   NORMALIZED FREE ENERGY PREDICTED BY IDOCK:   -4.13 KCAL/MOL
REMARK 922        TOTAL FREE ENERGY PREDICTED BY IDOCK:   -6.95 KCAL/MOL
REMARK 923 INTER-LIGAND FREE ENERGY PREDICTED BY IDOCK:   -6.50 KCAL/MOL
REMARK 924 INTRA-LIGAND FREE ENERGY PREDICTED BY IDOCK:   -0.45 KCAL/MOL
REMARK 927      BINDING AFFINITY PREDICTED BY RF-SCORE:    0.00 PKD
ROOT
HETATM    1  C   UNL     1     -10.714  19.589  65.688  1.00  0.00    -0.325 C  
HETATM    2  O   UNL     1     -10.005  20.031  66.842  1.00  0.00    -0.393 OA 
ENDROOT
BRANCH   2   3
HETATM    3  C   UNL     1     -10.528  19.426  68.025  1.00  0.00    -0.399 C  
BRANCH   3   4
HETATM    4  C   UNL     1      -9.433  18.594  68.698  1.00  0.00    -0.396 C  
BRANCH   4   5
HETATM    5  C   UNL     1      -9.718  17.116  68.624  1.00  0.00    -0.293 A  
HETATM    6  C   UNL     1     -11.027  16.681  68.404  1.00  0.00    -0.345 A  
HETATM    7  C   UNL     1     -11.326  15.323  68.346  1.00  0.00    -0.338 A  
HETATM    8  C   UNL     1     -10.325  14.362  68.492  1.00  0.00    -0.248 A  
HETATM    9  C   UNL     1      -8.707  16.156  68.760  1.00  0.00    -0.240 A  
HETATM   10  C   UNL     1      -9.010  14.786  68.697  1.00  0.00    -0.185 A  
BRANCH   8  11
HETATM   11  O   UNL     1     -10.534  13.005  68.443  1.00  0.00    -0.242 OA 
BRANCH  11  12
HETATM   12  C   UNL     1     -11.776  12.572  69.029  1.00  0.00    -0.318 C  
BRANCH  12  13
HETATM   13  C   UNL     1     -11.720  11.097  69.450  1.00  0.00    -0.332 C  
HETATM   14  H   UNL     1     -10.345   9.697  69.602  1.00  0.00     0.000 HD 
HETATM   15  O   UNL     1     -10.380  10.609  69.341  1.00  0.00    -0.218 OA 
BRANCH  13  16
HETATM   16  C   UNL     1     -12.239  10.860  70.880  1.00  0.00    -0.381 C  
BRANCH  16  17
HETATM   17  N   UNL     1     -13.472  10.068  70.893  1.00  0.00    -0.496 NA 
HETATM   18  H   UNL     1     -13.661   9.683  69.967  1.00  0.00     0.000 HD 
BRANCH  17  19
HETATM   19  C   UNL     1     -13.486   9.007  71.906  1.00  0.00    -0.425 C  
HETATM   20  C   UNL     1     -14.209   7.741  71.438  1.00  0.00    -0.489 C  
HETATM   21  C   UNL     1     -12.031   8.666  72.243  1.00  0.00    -0.438 C  
ENDBRANCH  17  19
ENDBRANCH  16  17
ENDBRANCH  13  16
ENDBRANCH  12  13
ENDBRANCH  11  12
ENDBRANCH   8  11
ENDBRANCH   4   5
ENDBRANCH   3   4
ENDBRANCH   2   3
TORSDOF 9
ENDMDL
MODEL      109
REMARK 921   NORMALIZED FREE ENERGY PREDICTED BY IDOCK:   -4.13 KCAL/MOL
REMARK 922        TOTAL FREE ENERGY PREDICTED BY IDOCK:   -6.95 KCAL/MOL
REMARK 923 INTER-LIGAND FREE ENERGY PREDICTED BY IDOCK:   -6.13 KCAL/MOL
REMARK 924 INTRA-LIGAND FREE ENERGY PREDICTED BY IDOCK:   -0.81 KCAL/MOL
REMARK 927      BINDING AFFINITY PREDICTED BY RF-SCORE:    0.00 PKD
ROOT
HETATM    1  C   UNL     1     -10.384  16.069  65.914  1.00  0.00    -0.368 C  
HETATM    2  O   UNL     1      -9.988  15.920  67.274  1.00  0.00    -0.234 OA 
ENDROOT
BRANCH   2   3
HETATM    3  C   UNL     1     -11.119  15.668  68.110  1.00  0.00    -0.330 C  
BRANCH   3   4
HETATM    4  C   UNL     1     -11.960  14.542  67.502  1.00  0.00    -0.358 C  
BRANCH   4   5
HETATM    5  C   UNL     1     -11.896  13.280  68.325  1.00  0.00    -0.389 A  
HETATM    6  C   UNL     1     -11.617  12.065  67.696  1.00  0.00    -0.392 A  
HETATM    7  C   UNL     1     -11.568  10.881  68.426  1.00  0.00    -0.346 A  
HETATM    8  C   UNL     1     -11.782  10.879  69.805  1.00  0.00    -0.338 A  
HETATM    9  C   UNL     1     -12.102  13.287  69.711  1.00  0.00    -0.355 A  
HETATM   10  C   UNL     1     -12.047  12.090  70.446  1.00  0.00    -0.407 A  
BRANCH   8  11
HETATM   11  O   UNL     1     -11.746   9.757  70.597  1.00  0.00    -0.272 OA 
BRANCH  11  12
HETATM   12  C   UNL     1     -10.421   9.288  70.908  1.00  0.00    -0.302 C  
BRANCH  12  13
HETATM   13  C   UNL     1     -10.291   7.774  70.698  1.00  0.00    -0.202 C  
HETATM   14  H   UNL     1     -11.431   6.187  70.934  1.00  0.00     0.000 HD 
HETATM   15  O   UNL     1     -11.512   7.124  71.064  1.00  0.00    -0.273 OA 
BRANCH  13  16
HETATM   16  C   UNL     1      -9.921   7.396  69.252  1.00  0.00    -0.173 C  
BRANCH  16  17
HETATM   17  N   UNL     1     -11.100   7.326  68.385  1.00  0.00    -0.453 NA 
HETATM   18  H   UNL     1     -11.710   8.129  68.541  1.00  0.00     0.000 HD 
BRANCH  17  19
HETATM   19  C   UNL     1     -10.781   7.190  66.959  1.00  0.00    -0.350 C  
HETATM   20  C   UNL     1      -9.780   8.239  66.467  1.00  0.00    -0.323 C  
HETATM   21  C   UNL     1     -10.197   5.791  66.745  1.00  0.00    -0.269 C  
ENDBRANCH  17  19
ENDBRANCH  16  17
ENDBRANCH  13  16
ENDBRANCH  12  13
ENDBRANCH  11  12
ENDBRANCH   8  11
ENDBRANCH   4   5
ENDBRANCH   3   4
ENDBRANCH   2   3
TORSDOF 9
ENDMDL
MODEL      110
REMARK 921   NORMALIZED FREE ENERGY PREDICTED BY IDOCK:   -4.11 KCAL/MOL
REMARK 922        TOTAL FREE ENERGY PREDICTED BY IDOCK:   -6.92 KCAL/MOL
REMARK 923 INTER-LIGAND FREE ENERGY PREDICTED BY IDOCK:   -6.46 KCAL/MOL
REMARK 924 INTRA-LIGAND FREE ENERGY PREDICTED BY IDOCK:   -0.46 KCAL/MOL
REMARK 927      BINDING AFFINITY PREDICTED BY RF-SCORE:    0.00 PKD
ROOT
HETATM    1  C   UNL     1     -10.599   5.634  66.783  1.00  0.00    -0.304 C  
HETATM    2  O   UNL     1     -11.280   6.822  67.172  1.00  0.00    -0.379 OA 
ENDROOT
BRANCH   2   3
HETATM    3  C   UNL     1     -10.410   7.953  67.116  1.00  0.00    -0.328 C  
BRANCH   3   4
HETATM    4  C   UNL     1     -10.359   8.625  68.491  1.00  0.00    -0.228 C  
BRANCH   4   5
HETATM    5  C   UNL     1     -10.853  10.049  68.444  1.00  0.00    -0.277 A  
HETATM    6  C   UNL     1     -10.928  10.707  67.214  1.00  0.00    -0.348 A  
HETATM    7  C   UNL     1     -11.365  12.026  67.139  1.00  0.00    -0.396 A  
HETATM    8  C   UNL     1     -11.751  12.720  68.286  1.00  0.00    -0.344 A  
HETATM    9  C   UNL     1     -11.249  10.737  69.598  1.00  0.00    -0.355 A  
HETATM   10  C   UNL     1     -11.693  12.067  69.519  1.00  0.00    -0.408 A  
BRANCH   8  11
HETATM   11  O   UNL     1     -12.196  14.020  68.298  1.00  0.00    -0.328 OA 
BRANCH  11  12
HETATM   12  C   UNL     1     -11.154  15.009  68.223  1.00  0.00    -0.286 C  
BRANCH  12  13
HETATM   13  C   UNL     1     -11.270  16.044  69.350  1.00  0.00    -0.349 C  
HETATM   14  H   UNL     1     -10.814  16.141  71.263  1.00  0.00     0.000 HD 
HETATM   15  O   UNL     1     -10.743  15.501  70.565  1.00  0.00    -0.320 OA 
BRANCH  13  16
HETATM   16  C   UNL     1     -10.558  17.369  69.027  1.00  0.00    -0.207 C  
BRANCH  16  17
HETATM   17  N   UNL     1     -10.594  17.677  67.595  1.00  0.00    -0.375 NA 
HETATM   18  H   UNL     1     -11.506  18.049  67.330  1.00  0.00     0.000 HD 
BRANCH  17  19
HETATM   19  C   UNL     1      -9.521  18.576  67.153  1.00  0.00    -0.289 C  
HETATM   20  C   UNL     1     -10.012  19.999  66.873  1.00  0.00    -0.584 C  
HETATM   21  C   UNL     1      -8.461  18.612  68.258  1.00  0.00    -0.350 C  
ENDBRANCH  17  19
ENDBRANCH  16  17
ENDBRANCH  13  16
ENDBRANCH  12  13
ENDBRANCH  11  12
ENDBRANCH   8  11
ENDBRANCH   4   5
ENDBRANCH   3   4
ENDBRANCH   2   3
TORSDOF 9
ENDMDL
MODEL      111
REMARK 921   NORMALIZED FREE ENERGY PREDICTED BY IDOCK:   -4.09 KCAL/MOL
REMARK 922        TOTAL FREE ENERGY PREDICTED BY IDOCK:   -6.89 KCAL/MOL
REMARK 923 INTER-LIGAND FREE ENERGY PREDICTED BY IDOCK:   -6.26 KCAL/MOL
REMARK 924 INTRA-LIGAND FREE ENERGY PREDICTED BY IDOCK:   -0.63 KCAL/MOL
REMARK 927      BINDING AFFINITY PREDICTED BY RF-SCORE:    0.00 PKD
ROOT
HETATM    1  C   UNL     1     -13.480  15.920  73.186  1.00  0.00    -0.563 C  
HETATM    2  O   UNL     1     -12.843  16.144  71.932  1.00  0.00    -0.390 OA 
ENDROOT
BRANCH   2   3
HETATM    3  C   UNL     1     -12.747  14.931  71.184  1.00  0.00    -0.342 C  
BRANCH   3   4
HETATM    4  C   UNL     1     -11.436  14.923  70.394  1.00  0.00    -0.312 C  
BRANCH   4   5
HETATM    5  C   UNL     1     -11.538  14.098  69.135  1.00  0.00    -0.349 A  
HETATM    6  C   UNL     1     -12.005  14.695  67.962  1.00  0.00    -0.292 A  
HETATM    7  C   UNL     1     -12.127  13.957  66.788  1.00  0.00    -0.476 A  
HETATM    8  C   UNL     1     -11.773  12.607  66.750  1.00  0.00    -0.392 A  
HETATM    9  C   UNL     1     -11.172  12.747  69.101  1.00  0.00    -0.294 A  
HETATM   10  C   UNL     1     -11.291  12.005  67.914  1.00  0.00    -0.369 A  
BRANCH   8  11
HETATM   11  O   UNL     1     -11.858  11.811  65.634  1.00  0.00    -0.346 OA 
BRANCH  11  12
HETATM   12  C   UNL     1     -10.714  11.881  64.762  1.00  0.00    -0.307 C  
BRANCH  12  13
HETATM   13  C   UNL     1     -10.261  10.487  64.308  1.00  0.00    -0.244 C  
HETATM   14  H   UNL     1      -9.208   9.730  62.827  1.00  0.00     0.000 HD 
HETATM   15  O   UNL     1      -9.489  10.593  63.108  1.00  0.00    -0.269 OA 
BRANCH  13  16
HETATM   16  C   UNL     1      -9.445   9.741  65.379  1.00  0.00    -0.269 C  
BRANCH  16  17
HETATM   17  N   UNL     1     -10.305   9.020  66.321  1.00  0.00    -0.275 NA 
HETATM   18  H   UNL     1     -11.213   8.825  65.901  1.00  0.00     0.000 HD 
BRANCH  17  19
HETATM   19  C   UNL     1      -9.705   7.788  66.849  1.00  0.00    -0.216 C  
HETATM   20  C   UNL     1      -9.146   7.954  68.265  1.00  0.00    -0.134 C  
HETATM   21  C   UNL     1     -10.791   6.708  66.854  1.00  0.00    -0.415 C  
ENDBRANCH  17  19
ENDBRANCH  16  17
ENDBRANCH  13  16
ENDBRANCH  12  13
ENDBRANCH  11  12
ENDBRANCH   8  11
ENDBRANCH   4   5
ENDBRANCH   3   4
ENDBRANCH   2   3
TORSDOF 9
ENDMDL
MODEL      112
REMARK 921   NORMALIZED FREE ENERGY PREDICTED BY IDOCK:   -4.09 KCAL/MOL
REMARK 922        TOTAL FREE ENERGY PREDICTED BY IDOCK:   -6.88 KCAL/MOL
REMARK 923 INTER-LIGAND FREE ENERGY PREDICTED BY IDOCK:   -6.00 KCAL/MOL
REMARK 924 INTRA-LIGAND FREE ENERGY PREDICTED BY IDOCK:   -0.88 KCAL/MOL
REMARK 927      BINDING AFFINITY PREDICTED BY RF-SCORE:    0.00 PKD
ROOT
HETATM    1  C   UNL     1     -11.061   6.052  69.750  1.00  0.00    -0.406 C  
HETATM    2  O   UNL     1     -10.222   6.688  70.708  1.00  0.00    -0.194 OA 
ENDROOT
BRANCH   2   3
HETATM    3  C   UNL     1      -9.679   7.902  70.187  1.00  0.00    -0.179 C  
BRANCH   3   4
HETATM    4  C   UNL     1     -10.477   8.326  68.950  1.00  0.00    -0.209 C  
BRANCH   4   5
HETATM    5  C   UNL     1     -10.986   9.741  69.063  1.00  0.00    -0.193 A  
HETATM    6  C   UNL     1     -10.951  10.572  67.941  1.00  0.00    -0.352 A  
HETATM    7  C   UNL     1     -11.398  11.888  68.016  1.00  0.00    -0.352 A  
HETATM    8  C   UNL     1     -11.904  12.406  69.208  1.00  0.00    -0.304 A  
HETATM    9  C   UNL     1     -11.502  10.252  70.260  1.00  0.00    -0.395 A  
HETATM   10  C   UNL     1     -11.957  11.579  70.332  1.00  0.00    -0.459 A  
BRANCH   8  11
HETATM   11  O   UNL     1     -12.368  13.690  69.365  1.00  0.00    -0.292 OA 
BRANCH  11  12
HETATM   12  C   UNL     1     -12.654  14.059  70.727  1.00  0.00    -0.360 C  
BRANCH  12  13
HETATM   13  C   UNL     1     -12.607  15.580  70.924  1.00  0.00    -0.456 C  
HETATM   14  H   UNL     1     -12.802  16.842  72.422  1.00  0.00     0.000 HD 
HETATM   15  O   UNL     1     -12.831  15.900  72.300  1.00  0.00    -0.437 OA 
BRANCH  13  16
HETATM   16  C   UNL     1     -11.280  16.207  70.460  1.00  0.00    -0.363 C  
BRANCH  16  17
HETATM   17  N   UNL     1     -11.202  16.309  69.000  1.00  0.00    -0.335 NA 
HETATM   18  H   UNL     1     -11.498  17.234  68.688  1.00  0.00     0.000 HD 
BRANCH  17  19
HETATM   19  C   UNL     1      -9.882  15.977  68.451  1.00  0.00    -0.213 C  
HETATM   20  C   UNL     1      -9.955  15.341  67.060  1.00  0.00    -0.235 C  
HETATM   21  C   UNL     1      -9.070  17.273  68.376  1.00  0.00    -0.265 C  
ENDBRANCH  17  19
ENDBRANCH  16  17
ENDBRANCH  13  16
ENDBRANCH  12  13
ENDBRANCH  11  12
ENDBRANCH   8  11
ENDBRANCH   4   5
ENDBRANCH   3   4
ENDBRANCH   2   3
TORSDOF 9
ENDMDL
MODEL      113
REMARK 921   NORMALIZED FREE ENERGY PREDICTED BY IDOCK:   -4.09 KCAL/MOL
REMARK 922        TOTAL FREE ENERGY PREDICTED BY IDOCK:   -6.88 KCAL/MOL
REMARK 923 INTER-LIGAND FREE ENERGY PREDICTED BY IDOCK:   -6.04 KCAL/MOL
REMARK 924 INTRA-LIGAND FREE ENERGY PREDICTED BY IDOCK:   -0.84 KCAL/MOL
REMARK 927      BINDING AFFINITY PREDICTED BY RF-SCORE:    0.00 PKD
ROOT
HETATM    1  C   UNL     1      -9.973   6.766  73.985  1.00  0.00    -0.336 C  
HETATM    2  O   UNL     1     -11.108   7.315  73.322  1.00  0.00    -0.331 OA 
ENDROOT
BRANCH   2   3
HETATM    3  C   UNL     1     -10.710   8.236  72.305  1.00  0.00    -0.329 C  
BRANCH   3   4
HETATM    4  C   UNL     1     -11.904   9.111  71.916  1.00  0.00    -0.439 C  
BRANCH   4   5
HETATM    5  C   UNL     1     -11.570  10.054  70.787  1.00  0.00    -0.444 A  
HETATM    6  C   UNL     1     -10.563   9.710  69.883  1.00  0.00    -0.281 A  
HETATM    7  C   UNL     1     -10.220  10.566  68.840  1.00  0.00    -0.223 A  
HETATM    8  C   UNL     1     -10.883  11.781  68.662  1.00  0.00    -0.220 A  
HETATM    9  C   UNL     1     -12.247  11.268  70.608  1.00  0.00    -0.489 A  
HETATM   10  C   UNL     1     -11.902  12.127  69.552  1.00  0.00    -0.386 A  
BRANCH   8  11
HETATM   11  O   UNL     1     -10.610  12.678  67.658  1.00  0.00    -0.214 OA 
BRANCH  11  12
HETATM   12  C   UNL     1      -9.213  12.805  67.336  1.00  0.00    -0.193 C  
BRANCH  12  13
HETATM   13  C   UNL     1      -8.486  13.734  68.318  1.00  0.00    -0.173 C  
HETATM   14  H   UNL     1      -6.733  14.621  68.427  1.00  0.00     0.000 HD 
HETATM   15  O   UNL     1      -7.182  14.046  67.819  1.00  0.00    -0.132 OA 
BRANCH  13  16
HETATM   16  C   UNL     1      -9.256  15.037  68.595  1.00  0.00    -0.198 C  
BRANCH  16  17
HETATM   17  N   UNL     1      -9.656  15.151  70.001  1.00  0.00    -0.455 NA 
HETATM   18  H   UNL     1      -8.911  15.576  70.553  1.00  0.00     0.000 HD 
BRANCH  17  19
HETATM   19  C   UNL     1     -10.921  15.867  70.203  1.00  0.00    -0.364 C  
HETATM   20  C   UNL     1     -11.898  15.694  69.037  1.00  0.00    -0.379 C  
HETATM   21  C   UNL     1     -11.560  15.329  71.486  1.00  0.00    -0.456 C  
ENDBRANCH  17  19
ENDBRANCH  16  17
ENDBRANCH  13  16
ENDBRANCH  12  13
ENDBRANCH  11  12
ENDBRANCH   8  11
ENDBRANCH   4   5
ENDBRANCH   3   4
ENDBRANCH   2   3
TORSDOF 9
ENDMDL
MODEL      114
REMARK 921   NORMALIZED FREE ENERGY PREDICTED BY IDOCK:   -4.09 KCAL/MOL
REMARK 922        TOTAL FREE ENERGY PREDICTED BY IDOCK:   -6.88 KCAL/MOL
REMARK 923 INTER-LIGAND FREE ENERGY PREDICTED BY IDOCK:   -6.16 KCAL/MOL
REMARK 924 INTRA-LIGAND FREE ENERGY PREDICTED BY IDOCK:   -0.72 KCAL/MOL
REMARK 927      BINDING AFFINITY PREDICTED BY RF-SCORE:    0.00 PKD
ROOT
HETATM    1  C   UNL     1      -9.481   7.930  73.247  1.00  0.00    -0.285 C  
HETATM    2  O   UNL     1      -8.153   7.941  72.734  1.00  0.00    -0.113 OA 
ENDROOT
BRANCH   2   3
HETATM    3  C   UNL     1      -8.138   8.336  71.362  1.00  0.00    -0.125 C  
BRANCH   3   4
HETATM    4  C   UNL     1      -9.361   7.751  70.650  1.00  0.00    -0.162 C  
BRANCH   4   5
HETATM    5  C   UNL     1     -10.085   8.786  69.826  1.00  0.00    -0.198 A  
HETATM    6  C   UNL     1     -10.849   9.762  70.470  1.00  0.00    -0.387 A  
HETATM    7  C   UNL     1     -11.542  10.721  69.738  1.00  0.00    -0.393 A  
HETATM    8  C   UNL     1     -11.481  10.741  68.344  1.00  0.00    -0.288 A  
HETATM    9  C   UNL     1     -10.011   8.807  68.427  1.00  0.00    -0.200 A  
HETATM   10  C   UNL     1     -10.708   9.779  67.691  1.00  0.00    -0.334 A  
BRANCH   8  11
HETATM   11  O   UNL     1     -12.130  11.654  67.548  1.00  0.00    -0.611 OA 
BRANCH  11  12
HETATM   12  C   UNL     1     -11.395  12.053  66.376  1.00  0.00    -0.354 C  
BRANCH  12  13
HETATM   13  C   UNL     1     -10.816  13.466  66.524  1.00  0.00    -0.282 C  
HETATM   14  H   UNL     1      -9.843  14.746  65.388  1.00  0.00     0.000 HD 
HETATM   15  O   UNL     1     -10.202  13.871  65.296  1.00  0.00    -0.336 OA 
BRANCH  13  16
HETATM   16  C   UNL     1     -11.869  14.508  66.940  1.00  0.00    -0.377 C  
BRANCH  16  17
HETATM   17  N   UNL     1     -12.265  14.358  68.343  1.00  0.00    -0.605 NA 
HETATM   18  H   UNL     1     -12.267  13.374  68.612  1.00  0.00     0.000 HD 
BRANCH  17  19
HETATM   19  C   UNL     1     -11.453  15.147  69.277  1.00  0.00    -0.311 C  
HETATM   20  C   UNL     1     -10.979  16.476  68.682  1.00  0.00    -0.344 C  
HETATM   21  C   UNL     1     -12.306  15.421  70.519  1.00  0.00    -0.452 C  
ENDBRANCH  17  19
ENDBRANCH  16  17
ENDBRANCH  13  16
ENDBRANCH  12  13
ENDBRANCH  11  12
ENDBRANCH   8  11
ENDBRANCH   4   5
ENDBRANCH   3   4
ENDBRANCH   2   3
TORSDOF 9
ENDMDL
MODEL      115
REMARK 921   NORMALIZED FREE ENERGY PREDICTED BY IDOCK:   -4.06 KCAL/MOL
REMARK 922        TOTAL FREE ENERGY PREDICTED BY IDOCK:   -6.83 KCAL/MOL
REMARK 923 INTER-LIGAND FREE ENERGY PREDICTED BY IDOCK:   -6.07 KCAL/MOL
REMARK 924 INTRA-LIGAND FREE ENERGY PREDICTED BY IDOCK:   -0.77 KCAL/MOL
REMARK 927      BINDING AFFINITY PREDICTED BY RF-SCORE:    0.00 PKD
ROOT
HETATM    1  C   UNL     1     -10.684  16.479  65.550  1.00  0.00    -0.256 C  
HETATM    2  O   UNL     1     -10.942  15.580  64.476  1.00  0.00    -0.363 OA 
ENDROOT
BRANCH   2   3
HETATM    3  C   UNL     1     -12.264  15.047  64.562  1.00  0.00    -0.331 C  
BRANCH   3   4
HETATM    4  C   UNL     1     -12.207  13.522  64.427  1.00  0.00    -0.440 C  
BRANCH   4   5
HETATM    5  C   UNL     1     -11.798  12.855  65.716  1.00  0.00    -0.469 A  
HETATM    6  C   UNL     1     -12.101  13.471  66.932  1.00  0.00    -0.417 A  
HETATM    7  C   UNL     1     -11.723  12.888  68.138  1.00  0.00    -0.395 A  
HETATM    8  C   UNL     1     -11.045  11.669  68.165  1.00  0.00    -0.242 A  
HETATM    9  C   UNL     1     -11.127  11.625  65.736  1.00  0.00    -0.313 A  
HETATM   10  C   UNL     1     -10.751  11.037  66.955  1.00  0.00    -0.325 A  
BRANCH   8  11
HETATM   11  O   UNL     1     -10.642  11.026  69.310  1.00  0.00    -0.219 OA 
BRANCH  11  12
HETATM   12  C   UNL     1      -9.429  10.263  69.170  1.00  0.00    -0.215 C  
BRANCH  12  13
HETATM   13  C   UNL     1      -9.482   8.960  69.979  1.00  0.00    -0.178 C  
HETATM   14  H   UNL     1      -9.079   8.394  71.821  1.00  0.00     0.000 HD 
HETATM   15  O   UNL     1      -9.046   9.201  71.320  1.00  0.00    -0.234 OA 
BRANCH  13  16
HETATM   16  C   UNL     1     -10.882   8.321  70.000  1.00  0.00    -0.232 C  
BRANCH  16  17
HETATM   17  N   UNL     1     -11.722   8.875  71.066  1.00  0.00    -0.285 NA 
HETATM   18  H   UNL     1     -12.437   9.490  70.677  1.00  0.00     0.000 HD 
BRANCH  17  19
HETATM   19  C   UNL     1     -12.331   7.858  71.931  1.00  0.00    -0.315 C  
HETATM   20  C   UNL     1     -13.817   7.633  71.635  1.00  0.00    -0.480 C  
HETATM   21  C   UNL     1     -11.566   6.549  71.719  1.00  0.00    -0.359 C  
ENDBRANCH  17  19
ENDBRANCH  16  17
ENDBRANCH  13  16
ENDBRANCH  12  13
ENDBRANCH  11  12
ENDBRANCH   8  11
ENDBRANCH   4   5
ENDBRANCH   3   4
ENDBRANCH   2   3
TORSDOF 9
ENDMDL
MODEL      116
REMARK 921   NORMALIZED FREE ENERGY PREDICTED BY IDOCK:   -4.05 KCAL/MOL
REMARK 922        TOTAL FREE ENERGY PREDICTED BY IDOCK:   -6.82 KCAL/MOL
REMARK 923 INTER-LIGAND FREE ENERGY PREDICTED BY IDOCK:   -6.19 KCAL/MOL
REMARK 924 INTRA-LIGAND FREE ENERGY PREDICTED BY IDOCK:   -0.63 KCAL/MOL
REMARK 927      BINDING AFFINITY PREDICTED BY RF-SCORE:    0.00 PKD
ROOT
HETATM    1  C   UNL     1      -7.292  15.645  68.986  1.00  0.00    -0.169 C  
HETATM    2  O   UNL     1      -8.150  16.777  68.892  1.00  0.00    -0.243 OA 
ENDROOT
BRANCH   2   3
HETATM    3  C   UNL     1      -8.649  16.932  67.563  1.00  0.00    -0.203 C  
BRANCH   3   4
HETATM    4  C   UNL     1     -10.178  16.999  67.597  1.00  0.00    -0.317 C  
BRANCH   4   5
HETATM    5  C   UNL     1     -10.811  15.877  66.813  1.00  0.00    -0.228 A  
HETATM    6  C   UNL     1     -11.565  14.913  67.485  1.00  0.00    -0.355 A  
HETATM    7  C   UNL     1     -12.149  13.856  66.793  1.00  0.00    -0.476 A  
HETATM    8  C   UNL     1     -12.008  13.740  65.409  1.00  0.00    -0.379 A  
HETATM    9  C   UNL     1     -10.674  15.772  65.423  1.00  0.00    -0.420 A  
HETATM   10  C   UNL     1     -11.268  14.706  64.726  1.00  0.00    -0.395 A  
BRANCH   8  11
HETATM   11  O   UNL     1     -12.554  12.732  64.652  1.00  0.00    -0.574 OA 
BRANCH  11  12
HETATM   12  C   UNL     1     -11.924  12.538  63.373  1.00  0.00    -0.514 C  
BRANCH  12  13
HETATM   13  C   UNL     1     -10.823  11.470  63.439  1.00  0.00    -0.346 C  
HETATM   14  H   UNL     1      -8.952  11.297  62.853  1.00  0.00     0.000 HD 
HETATM   15  O   UNL     1      -9.633  11.958  62.812  1.00  0.00    -0.307 OA 
BRANCH  13  16
HETATM   16  C   UNL     1     -10.501  11.026  64.877  1.00  0.00    -0.303 C  
BRANCH  16  17
HETATM   17  N   UNL     1      -9.179  11.488  65.311  1.00  0.00    -0.384 NA 
HETATM   18  H   UNL     1      -9.087  12.494  65.172  1.00  0.00     0.000 HD 
BRANCH  17  19
HETATM   19  C   UNL     1      -8.849  11.126  66.695  1.00  0.00    -0.166 C  
HETATM   20  C   UNL     1      -8.073  12.221  67.431  1.00  0.00    -0.175 C  
HETATM   21  C   UNL     1     -10.164  10.853  67.430  1.00  0.00    -0.236 C  
ENDBRANCH  17  19
ENDBRANCH  16  17
ENDBRANCH  13  16
ENDBRANCH  12  13
ENDBRANCH  11  12
ENDBRANCH   8  11
ENDBRANCH   4   5
ENDBRANCH   3   4
ENDBRANCH   2   3
TORSDOF 9
ENDMDL
MODEL      117
REMARK 921   NORMALIZED FREE ENERGY PREDICTED BY IDOCK:   -4.05 KCAL/MOL
REMARK 922        TOTAL FREE ENERGY PREDICTED BY IDOCK:   -6.82 KCAL/MOL
REMARK 923 INTER-LIGAND FREE ENERGY PREDICTED BY IDOCK:   -6.09 KCAL/MOL
REMARK 924 INTRA-LIGAND FREE ENERGY PREDICTED BY IDOCK:   -0.73 KCAL/MOL
REMARK 927      BINDING AFFINITY PREDICTED BY RF-SCORE:    0.00 PKD
ROOT
HETATM    1  C   UNL     1     -10.910   9.351  69.835  1.00  0.00    -0.236 C  
HETATM    2  O   UNL     1     -11.327  10.547  70.484  1.00  0.00    -0.312 OA 
ENDROOT
BRANCH   2   3
HETATM    3  C   UNL     1     -12.088  11.371  69.600  1.00  0.00    -0.305 C  
BRANCH   3   4
HETATM    4  C   UNL     1     -11.353  11.497  68.263  1.00  0.00    -0.352 C  
BRANCH   4   5
HETATM    5  C   UNL     1     -10.689  12.842  68.106  1.00  0.00    -0.243 A  
HETATM    6  C   UNL     1      -9.316  12.902  67.859  1.00  0.00    -0.208 A  
HETATM    7  C   UNL     1      -8.670  14.128  67.725  1.00  0.00    -0.182 A  
HETATM    8  C   UNL     1      -9.380  15.326  67.822  1.00  0.00    -0.196 A  
HETATM    9  C   UNL     1     -11.409  14.040  68.194  1.00  0.00    -0.320 A  
HETATM   10  C   UNL     1     -10.755  15.276  68.054  1.00  0.00    -0.268 A  
BRANCH   8  11
HETATM   11  O   UNL     1      -8.821  16.575  67.698  1.00  0.00    -0.190 OA 
BRANCH  11  12
HETATM   12  C   UNL     1      -7.959  16.732  66.556  1.00  0.00    -0.299 C  
BRANCH  12  13
HETATM   13  C   UNL     1      -7.161  18.042  66.622  1.00  0.00    -0.214 C  
HETATM   14  H   UNL     1      -6.643  19.473  65.375  1.00  0.00     0.000 HD 
HETATM   15  O   UNL     1      -7.136  18.662  65.333  1.00  0.00    -0.517 OA 
BRANCH  13  16
HETATM   16  C   UNL     1      -7.719  19.034  67.659  1.00  0.00    -0.239 C  
BRANCH  16  17
HETATM   17  N   UNL     1      -8.260  20.241  67.028  1.00  0.00    -0.365 NA 
HETATM   18  H   UNL     1      -7.967  20.298  66.053  1.00  0.00     0.000 HD 
BRANCH  17  19
HETATM   19  C   UNL     1      -9.718  20.366  67.139  1.00  0.00    -0.460 C  
HETATM   20  C   UNL     1     -10.464  19.703  65.977  1.00  0.00    -0.622 C  
HETATM   21  C   UNL     1     -10.142  19.711  68.456  1.00  0.00    -0.557 C  
ENDBRANCH  17  19
ENDBRANCH  16  17
ENDBRANCH  13  16
ENDBRANCH  12  13
ENDBRANCH  11  12
ENDBRANCH   8  11
ENDBRANCH   4   5
ENDBRANCH   3   4
ENDBRANCH   2   3
TORSDOF 9
ENDMDL
MODEL      118
REMARK 921   NORMALIZED FREE ENERGY PREDICTED BY IDOCK:   -4.05 KCAL/MOL
REMARK 922        TOTAL FREE ENERGY PREDICTED BY IDOCK:   -6.81 KCAL/MOL
REMARK 923 INTER-LIGAND FREE ENERGY PREDICTED BY IDOCK:   -5.91 KCAL/MOL
REMARK 924 INTRA-LIGAND FREE ENERGY PREDICTED BY IDOCK:   -0.90 KCAL/MOL
REMARK 927      BINDING AFFINITY PREDICTED BY RF-SCORE:    0.00 PKD
ROOT
HETATM    1  C   UNL     1      -6.510  14.287  69.732  1.00  0.00    -0.142 C  
HETATM    2  O   UNL     1      -7.255  13.359  68.950  1.00  0.00    -0.103 OA 
ENDROOT
BRANCH   2   3
HETATM    3  C   UNL     1      -6.668  12.059  69.002  1.00  0.00    -0.100 C  
BRANCH   3   4
HETATM    4  C   UNL     1      -7.775  11.001  69.036  1.00  0.00    -0.132 C  
BRANCH   4   5
HETATM    5  C   UNL     1      -8.599  11.003  67.774  1.00  0.00    -0.130 A  
HETATM    6  C   UNL     1      -9.990  11.081  67.865  1.00  0.00    -0.192 A  
HETATM    7  C   UNL     1     -10.780  11.069  66.719  1.00  0.00    -0.319 A  
HETATM    8  C   UNL     1     -10.202  10.992  65.450  1.00  0.00    -0.274 A  
HETATM    9  C   UNL     1      -8.012  10.937  66.503  1.00  0.00    -0.152 A  
HETATM   10  C   UNL     1      -8.811  10.929  65.348  1.00  0.00    -0.192 A  
BRANCH   8  11
HETATM   11  O   UNL     1     -10.908  10.980  64.272  1.00  0.00    -0.353 OA 
BRANCH  11  12
HETATM   12  C   UNL     1     -10.790  12.184  63.493  1.00  0.00    -0.458 C  
BRANCH  12  13
HETATM   13  C   UNL     1     -12.119  12.949  63.425  1.00  0.00    -0.530 C  
HETATM   14  H   UNL     1     -14.036  12.508  63.497  1.00  0.00     0.000 HD 
HETATM   15  O   UNL     1     -13.214  12.035  63.539  1.00  0.00    -0.724 OA 
BRANCH  13  16
HETATM   16  C   UNL     1     -12.243  14.038  64.506  1.00  0.00    -0.434 C  
BRANCH  16  17
HETATM   17  N   UNL     1     -11.268  15.115  64.314  1.00  0.00    -0.664 NA 
HETATM   18  H   UNL     1     -11.730  15.962  63.983  1.00  0.00     0.000 HD 
BRANCH  17  19
HETATM   19  C   UNL     1     -10.457  15.400  65.503  1.00  0.00    -0.380 C  
HETATM   20  C   UNL     1     -10.373  16.894  65.827  1.00  0.00    -0.298 C  
HETATM   21  C   UNL     1     -11.088  14.658  66.685  1.00  0.00    -0.334 C  
ENDBRANCH  17  19
ENDBRANCH  16  17
ENDBRANCH  13  16
ENDBRANCH  12  13
ENDBRANCH  11  12
ENDBRANCH   8  11
ENDBRANCH   4   5
ENDBRANCH   3   4
ENDBRANCH   2   3
TORSDOF 9
ENDMDL
MODEL      119
REMARK 921   NORMALIZED FREE ENERGY PREDICTED BY IDOCK:   -4.04 KCAL/MOL
REMARK 922        TOTAL FREE ENERGY PREDICTED BY IDOCK:   -6.80 KCAL/MOL
REMARK 923 INTER-LIGAND FREE ENERGY PREDICTED BY IDOCK:   -5.90 KCAL/MOL
REMARK 924 INTRA-LIGAND FREE ENERGY PREDICTED BY IDOCK:   -0.90 KCAL/MOL
REMARK 927      BINDING AFFINITY PREDICTED BY RF-SCORE:    0.00 PKD
ROOT
HETATM    1  C   UNL     1     -10.884   6.631  68.088  1.00  0.00    -0.263 C  
HETATM    2  O   UNL     1     -11.025   7.334  66.858  1.00  0.00    -0.343 OA 
ENDROOT
BRANCH   2   3
HETATM    3  C   UNL     1     -10.104   8.424  66.785  1.00  0.00    -0.303 C  
BRANCH   3   4
HETATM    4  C   UNL     1     -10.555   9.536  67.736  1.00  0.00    -0.318 C  
BRANCH   4   5
HETATM    5  C   UNL     1     -10.385  10.905  67.128  1.00  0.00    -0.262 A  
HETATM    6  C   UNL     1      -9.350  11.729  67.574  1.00  0.00    -0.174 A  
HETATM    7  C   UNL     1      -9.176  13.004  67.045  1.00  0.00    -0.232 A  
HETATM    8  C   UNL     1     -10.022  13.487  66.045  1.00  0.00    -0.299 A  
HETATM    9  C   UNL     1     -11.232  11.380  66.118  1.00  0.00    -0.203 A  
HETATM   10  C   UNL     1     -11.051  12.665  65.582  1.00  0.00    -0.327 A  
BRANCH   8  11
HETATM   11  O   UNL     1      -9.916  14.728  65.468  1.00  0.00    -0.342 OA 
BRANCH  11  12
HETATM   12  C   UNL     1      -9.045  15.638  66.164  1.00  0.00    -0.342 C  
BRANCH  12  13
HETATM   13  C   UNL     1      -9.736  16.979  66.451  1.00  0.00    -0.293 C  
HETATM   14  H   UNL     1     -10.860  18.256  65.462  1.00  0.00     0.000 HD 
HETATM   15  O   UNL     1     -10.432  17.427  65.284  1.00  0.00    -0.654 OA 
BRANCH  13  16
HETATM   16  C   UNL     1     -10.713  16.910  67.639  1.00  0.00    -0.290 C  
BRANCH  16  17
HETATM   17  N   UNL     1     -10.059  16.432  68.860  1.00  0.00    -0.241 NA 
HETATM   18  H   UNL     1      -9.811  17.215  69.465  1.00  0.00     0.000 HD 
BRANCH  17  19
HETATM   19  C   UNL     1     -10.841  15.435  69.600  1.00  0.00    -0.283 C  
HETATM   20  C   UNL     1     -11.423  15.981  70.907  1.00  0.00    -0.451 C  
HETATM   21  C   UNL     1     -11.982  14.970  68.690  1.00  0.00    -0.278 C  
ENDBRANCH  17  19
ENDBRANCH  16  17
ENDBRANCH  13  16
ENDBRANCH  12  13
ENDBRANCH  11  12
ENDBRANCH   8  11
ENDBRANCH   4   5
ENDBRANCH   3   4
ENDBRANCH   2   3
TORSDOF 9
ENDMDL
MODEL      120
REMARK 921   NORMALIZED FREE ENERGY PREDICTED BY IDOCK:   -4.04 KCAL/MOL
REMARK 922        TOTAL FREE ENERGY PREDICTED BY IDOCK:   -6.80 KCAL/MOL
REMARK 923 INTER-LIGAND FREE ENERGY PREDICTED BY IDOCK:   -5.72 KCAL/MOL
REMARK 924 INTRA-LIGAND FREE ENERGY PREDICTED BY IDOCK:   -1.07 KCAL/MOL
REMARK 927      BINDING AFFINITY PREDICTED BY RF-SCORE:    0.00 PKD
ROOT
HETATM    1  C   UNL     1      -9.939  19.710  67.990  1.00  0.00    -0.427 C  
HETATM    2  O   UNL     1      -8.855  18.917  68.465  1.00  0.00    -0.333 OA 
ENDROOT
BRANCH   2   3
HETATM    3  C   UNL     1      -9.185  17.528  68.431  1.00  0.00    -0.279 C  
BRANCH   3   4
HETATM    4  C   UNL     1     -10.682  17.367  68.153  1.00  0.00    -0.343 C  
BRANCH   4   5
HETATM    5  C   UNL     1     -11.077  15.920  67.997  1.00  0.00    -0.334 A  
HETATM    6  C   UNL     1     -11.444  15.185  69.127  1.00  0.00    -0.322 A  
HETATM    7  C   UNL     1     -11.798  13.843  69.018  1.00  0.00    -0.397 A  
HETATM    8  C   UNL     1     -11.808  13.202  67.778  1.00  0.00    -0.348 A  
HETATM    9  C   UNL     1     -11.095  15.285  66.748  1.00  0.00    -0.278 A  
HETATM   10  C   UNL     1     -11.456  13.932  66.642  1.00  0.00    -0.370 A  
BRANCH   8  11
HETATM   11  O   UNL     1     -12.148  11.885  67.585  1.00  0.00    -0.568 OA 
BRANCH  11  12
HETATM   12  C   UNL     1     -11.686  10.992  68.615  1.00  0.00    -0.296 C  
BRANCH  12  13
HETATM   13  C   UNL     1     -10.692   9.960  68.068  1.00  0.00    -0.248 C  
HETATM   14  H   UNL     1      -9.863   9.543  66.332  1.00  0.00     0.000 HD 
HETATM   15  O   UNL     1     -10.478  10.182  66.671  1.00  0.00    -0.228 OA 
BRANCH  13  16
HETATM   16  C   UNL     1      -9.340   9.977  68.803  1.00  0.00    -0.162 C  
BRANCH  16  17
HETATM   17  N   UNL     1      -8.947  11.333  69.197  1.00  0.00    -0.391 NA 
HETATM   18  H   UNL     1      -8.851  11.399  70.211  1.00  0.00     0.000 HD 
BRANCH  17  19
HETATM   19  C   UNL     1      -7.731  11.815  68.532  1.00  0.00    -0.137 C  
HETATM   20  C   UNL     1      -7.080  10.758  67.635  1.00  0.00    -0.091 C  
HETATM   21  C   UNL     1      -8.115  13.033  67.686  1.00  0.00    -0.172 C  
ENDBRANCH  17  19
ENDBRANCH  16  17
ENDBRANCH  13  16
ENDBRANCH  12  13
ENDBRANCH  11  12
ENDBRANCH   8  11
ENDBRANCH   4   5
ENDBRANCH   3   4
ENDBRANCH   2   3
TORSDOF 9
ENDMDL
MODEL      121
REMARK 921   NORMALIZED FREE ENERGY PREDICTED BY IDOCK:   -4.02 KCAL/MOL
REMARK 922        TOTAL FREE ENERGY PREDICTED BY IDOCK:   -6.77 KCAL/MOL
REMARK 923 INTER-LIGAND FREE ENERGY PREDICTED BY IDOCK:   -6.38 KCAL/MOL
REMARK 924 INTRA-LIGAND FREE ENERGY PREDICTED BY IDOCK:   -0.39 KCAL/MOL
REMARK 927      BINDING AFFINITY PREDICTED BY RF-SCORE:    0.00 PKD
ROOT
HETATM    1  C   UNL     1      -8.930   6.986  68.290  1.00  0.00    -0.128 C  
HETATM    2  O   UNL     1     -10.165   7.245  68.949  1.00  0.00    -0.182 OA 
ENDROOT
BRANCH   2   3
HETATM    3  C   UNL     1     -10.638   8.560  68.650  1.00  0.00    -0.118 C  
BRANCH   3   4
HETATM    4  C   UNL     1     -10.327   8.892  67.188  1.00  0.00    -0.351 C  
BRANCH   4   5
HETATM    5  C   UNL     1     -10.591  10.342  66.869  1.00  0.00    -0.282 A  
HETATM    6  C   UNL     1     -11.302  11.125  67.780  1.00  0.00    -0.364 A  
HETATM    7  C   UNL     1     -11.575  12.462  67.508  1.00  0.00    -0.431 A  
HETATM    8  C   UNL     1     -11.136  13.058  66.325  1.00  0.00    -0.289 A  
HETATM    9  C   UNL     1     -10.137  10.936  65.684  1.00  0.00    -0.318 A  
HETATM   10  C   UNL     1     -10.411  12.287  65.414  1.00  0.00    -0.302 A  
BRANCH   8  11
HETATM   11  O   UNL     1     -11.359  14.369  65.982  1.00  0.00    -0.324 OA 
BRANCH  11  12
HETATM   12  C   UNL     1     -11.048  15.318  67.020  1.00  0.00    -0.305 C  
BRANCH  12  13
HETATM   13  C   UNL     1     -10.306  16.542  66.466  1.00  0.00    -0.305 C  
HETATM   14  H   UNL     1     -10.148  17.464  64.734  1.00  0.00     0.000 HD 
HETATM   15  O   UNL     1     -10.607  16.707  65.077  1.00  0.00    -0.683 OA 
BRANCH  13  16
HETATM   16  C   UNL     1     -10.638  17.840  67.222  1.00  0.00    -0.316 C  
BRANCH  16  17
HETATM   17  N   UNL     1      -9.842  17.983  68.445  1.00  0.00    -0.346 NA 
HETATM   18  H   UNL     1      -9.144  17.242  68.506  1.00  0.00     0.000 HD 
BRANCH  17  19
HETATM   19  C   UNL     1      -9.213  19.300  68.593  1.00  0.00    -0.385 C  
HETATM   20  C   UNL     1      -7.691  19.224  68.735  1.00  0.00    -0.397 C  
HETATM   21  C   UNL     1      -9.567  20.127  67.354  1.00  0.00    -0.551 C  
ENDBRANCH  17  19
ENDBRANCH  16  17
ENDBRANCH  13  16
ENDBRANCH  12  13
ENDBRANCH  11  12
ENDBRANCH   8  11
ENDBRANCH   4   5
ENDBRANCH   3   4
ENDBRANCH   2   3
TORSDOF 9
ENDMDL
MODEL      122
REMARK 921   NORMALIZED FREE ENERGY PREDICTED BY IDOCK:   -4.02 KCAL/MOL
REMARK 922        TOTAL FREE ENERGY PREDICTED BY IDOCK:   -6.77 KCAL/MOL
REMARK 923 INTER-LIGAND FREE ENERGY PREDICTED BY IDOCK:   -6.36 KCAL/MOL
REMARK 924 INTRA-LIGAND FREE ENERGY PREDICTED BY IDOCK:   -0.41 KCAL/MOL
REMARK 927      BINDING AFFINITY PREDICTED BY RF-SCORE:    0.00 PKD
ROOT
HETATM    1  C   UNL     1      -6.415  20.637  64.565  1.00  0.00    -0.280 C  
HETATM    2  O   UNL     1      -7.085  19.465  65.016  1.00  0.00    -0.386 OA 
ENDROOT
BRANCH   2   3
HETATM    3  C   UNL     1      -7.850  19.734  66.191  1.00  0.00    -0.335 C  
BRANCH   3   4
HETATM    4  C   UNL     1      -7.569  18.654  67.240  1.00  0.00    -0.233 C  
BRANCH   4   5
HETATM    5  C   UNL     1      -8.655  17.608  67.280  1.00  0.00    -0.238 A  
HETATM    6  C   UNL     1      -9.678  17.720  68.224  1.00  0.00    -0.320 A  
HETATM    7  C   UNL     1     -10.685  16.762  68.297  1.00  0.00    -0.364 A  
HETATM    8  C   UNL     1     -10.707  15.675  67.422  1.00  0.00    -0.309 A  
HETATM    9  C   UNL     1      -8.676  16.525  66.392  1.00  0.00    -0.357 A  
HETATM   10  C   UNL     1      -9.696  15.563  66.466  1.00  0.00    -0.290 A  
BRANCH   8  11
HETATM   11  O   UNL     1     -11.665  14.691  67.425  1.00  0.00    -0.379 OA 
BRANCH  11  12
HETATM   12  C   UNL     1     -11.836  14.029  68.692  1.00  0.00    -0.361 C  
BRANCH  12  13
HETATM   13  C   UNL     1     -11.690  12.507  68.560  1.00  0.00    -0.324 C  
HETATM   14  H   UNL     1     -10.287  11.240  68.011  1.00  0.00     0.000 HD 
HETATM   15  O   UNL     1     -10.378  12.182  68.092  1.00  0.00    -0.195 OA 
BRANCH  13  16
HETATM   16  C   UNL     1     -11.966  11.760  69.878  1.00  0.00    -0.332 C  
BRANCH  16  17
HETATM   17  N   UNL     1     -10.964  10.722  70.140  1.00  0.00    -0.458 NA 
HETATM   18  H   UNL     1     -10.061  11.143  70.357  1.00  0.00     0.000 HD 
BRANCH  17  19
HETATM   19  C   UNL     1     -11.356   9.771  71.187  1.00  0.00    -0.389 C  
HETATM   20  C   UNL     1     -12.785   9.990  71.690  1.00  0.00    -0.535 C  
HETATM   21  C   UNL     1     -11.232   8.361  70.604  1.00  0.00    -0.275 C  
ENDBRANCH  17  19
ENDBRANCH  16  17
ENDBRANCH  13  16
ENDBRANCH  12  13
ENDBRANCH  11  12
ENDBRANCH   8  11
ENDBRANCH   4   5
ENDBRANCH   3   4
ENDBRANCH   2   3
TORSDOF 9
ENDMDL
MODEL      123
REMARK 921   NORMALIZED FREE ENERGY PREDICTED BY IDOCK:   -4.01 KCAL/MOL
REMARK 922        TOTAL FREE ENERGY PREDICTED BY IDOCK:   -6.76 KCAL/MOL
REMARK 923 INTER-LIGAND FREE ENERGY PREDICTED BY IDOCK:   -5.95 KCAL/MOL
REMARK 924 INTRA-LIGAND FREE ENERGY PREDICTED BY IDOCK:   -0.81 KCAL/MOL
REMARK 927      BINDING AFFINITY PREDICTED BY RF-SCORE:    0.00 PKD
ROOT
HETATM    1  C   UNL     1     -13.020  15.407  73.564  1.00  0.00    -0.528 C  
HETATM    2  O   UNL     1     -13.871  15.832  72.505  1.00  0.00    -0.542 OA 
ENDROOT
BRANCH   2   3
HETATM    3  C   UNL     1     -14.403  14.712  71.796  1.00  0.00    -0.554 C  
BRANCH   3   4
HETATM    4  C   UNL     1     -13.649  13.445  72.208  1.00  0.00    -0.703 C  
BRANCH   4   5
HETATM    5  C   UNL     1     -12.782  12.915  71.093  1.00  0.00    -0.366 A  
HETATM    6  C   UNL     1     -12.476  11.553  71.053  1.00  0.00    -0.458 A  
HETATM    7  C   UNL     1     -11.665  11.036  70.047  1.00  0.00    -0.437 A  
HETATM    8  C   UNL     1     -11.149  11.861  69.047  1.00  0.00    -0.246 A  
HETATM    9  C   UNL     1     -12.276  13.747  70.086  1.00  0.00    -0.425 A  
HETATM   10  C   UNL     1     -11.461  13.221  69.070  1.00  0.00    -0.350 A  
BRANCH   8  11
HETATM   11  O   UNL     1     -10.346  11.430  68.018  1.00  0.00    -0.176 OA 
BRANCH  11  12
HETATM   12  C   UNL     1      -8.941  11.671  68.216  1.00  0.00    -0.185 C  
BRANCH  12  13
HETATM   13  C   UNL     1      -8.082  10.841  67.252  1.00  0.00    -0.117 C  
HETATM   14  H   UNL     1      -6.260  10.931  66.512  1.00  0.00     0.000 HD 
HETATM   15  O   UNL     1      -6.792  11.444  67.109  1.00  0.00    -0.104 OA 
BRANCH  13  16
HETATM   16  C   UNL     1      -7.918   9.377  67.699  1.00  0.00    -0.099 C  
BRANCH  16  17
HETATM   17  N   UNL     1      -9.208   8.744  67.987  1.00  0.00    -0.139 NA 
HETATM   18  H   UNL     1      -9.495   8.147  67.212  1.00  0.00     0.000 HD 
BRANCH  17  19
HETATM   19  C   UNL     1      -9.235   7.999  69.251  1.00  0.00    -0.152 C  
HETATM   20  C   UNL     1     -10.643   7.553  69.653  1.00  0.00    -0.243 C  
HETATM   21  C   UNL     1      -8.340   6.767  69.083  1.00  0.00    -0.125 C  
ENDBRANCH  17  19
ENDBRANCH  16  17
ENDBRANCH  13  16
ENDBRANCH  12  13
ENDBRANCH  11  12
ENDBRANCH   8  11
ENDBRANCH   4   5
ENDBRANCH   3   4
ENDBRANCH   2   3
TORSDOF 9
ENDMDL
MODEL      124
REMARK 921   NORMALIZED FREE ENERGY PREDICTED BY IDOCK:   -4.00 KCAL/MOL
REMARK 922        TOTAL FREE ENERGY PREDICTED BY IDOCK:   -6.74 KCAL/MOL
REMARK 923 INTER-LIGAND FREE ENERGY PREDICTED BY IDOCK:   -6.21 KCAL/MOL
REMARK 924 INTRA-LIGAND FREE ENERGY PREDICTED BY IDOCK:   -0.52 KCAL/MOL
REMARK 927      BINDING AFFINITY PREDICTED BY RF-SCORE:    0.00 PKD
ROOT
HETATM    1  C   UNL     1      -7.446   6.469  71.284  1.00  0.00    -0.089 C  
HETATM    2  O   UNL     1      -7.639   7.055  72.568  1.00  0.00    -0.088 OA 
ENDROOT
BRANCH   2   3
HETATM    3  C   UNL     1      -8.163   8.378  72.452  1.00  0.00    -0.139 C  
BRANCH   3   4
HETATM    4  C   UNL     1      -9.690   8.332  72.559  1.00  0.00    -0.368 C  
BRANCH   4   5
HETATM    5  C   UNL     1     -10.358   9.155  71.487  1.00  0.00    -0.414 A  
HETATM    6  C   UNL     1     -11.699   9.515  71.636  1.00  0.00    -0.460 A  
HETATM    7  C   UNL     1     -12.349  10.261  70.657  1.00  0.00    -0.416 A  
HETATM    8  C   UNL     1     -11.675  10.679  69.509  1.00  0.00    -0.284 A  
HETATM    9  C   UNL     1      -9.672   9.581  70.342  1.00  0.00    -0.328 A  
HETATM   10  C   UNL     1     -10.330  10.337  69.357  1.00  0.00    -0.256 A  
BRANCH   8  11
HETATM   11  O   UNL     1     -12.240  11.420  68.500  1.00  0.00    -0.557 OA 
BRANCH  11  12
HETATM   12  C   UNL     1     -11.597  12.685  68.256  1.00  0.00    -0.332 C  
BRANCH  12  13
HETATM   13  C   UNL     1     -11.329  12.906  66.761  1.00  0.00    -0.322 C  
HETATM   14  H   UNL     1     -12.118  12.315  65.057  1.00  0.00     0.000 HD 
HETATM   15  O   UNL     1     -12.284  12.178  65.982  1.00  0.00    -0.609 OA 
BRANCH  13  16
HETATM   16  C   UNL     1     -11.362  14.391  66.357  1.00  0.00    -0.350 C  
BRANCH  16  17
HETATM   17  N   UNL     1     -11.529  15.272  67.516  1.00  0.00    -0.309 NA 
HETATM   18  H   UNL     1     -11.470  14.738  68.383  1.00  0.00     0.000 HD 
BRANCH  17  19
HETATM   19  C   UNL     1     -10.596  16.404  67.541  1.00  0.00    -0.309 C  
HETATM   20  C   UNL     1     -10.315  16.917  68.956  1.00  0.00    -0.333 C  
HETATM   21  C   UNL     1      -9.285  15.940  66.899  1.00  0.00    -0.247 C  
ENDBRANCH  17  19
ENDBRANCH  16  17
ENDBRANCH  13  16
ENDBRANCH  12  13
ENDBRANCH  11  12
ENDBRANCH   8  11
ENDBRANCH   4   5
ENDBRANCH   3   4
ENDBRANCH   2   3
TORSDOF 9
ENDMDL
MODEL      125
REMARK 921   NORMALIZED FREE ENERGY PREDICTED BY IDOCK:   -3.97 KCAL/MOL
REMARK 922        TOTAL FREE ENERGY PREDICTED BY IDOCK:   -6.69 KCAL/MOL
REMARK 923 INTER-LIGAND FREE ENERGY PREDICTED BY IDOCK:   -5.84 KCAL/MOL
REMARK 924 INTRA-LIGAND FREE ENERGY PREDICTED BY IDOCK:   -0.86 KCAL/MOL
REMARK 927      BINDING AFFINITY PREDICTED BY RF-SCORE:    0.00 PKD
ROOT
HETATM    1  C   UNL     1      -8.380  10.055  64.356  1.00  0.00    -0.168 C  
HETATM    2  O   UNL     1      -9.370   9.337  65.085  1.00  0.00    -0.240 OA 
ENDROOT
BRANCH   2   3
HETATM    3  C   UNL     1      -9.308   9.650  66.477  1.00  0.00    -0.165 C  
BRANCH   3   4
HETATM    4  C   UNL     1     -10.626   9.253  67.148  1.00  0.00    -0.286 C  
BRANCH   4   5
HETATM    5  C   UNL     1     -11.081  10.279  68.155  1.00  0.00    -0.324 A  
HETATM    6  C   UNL     1     -11.377  11.574  67.726  1.00  0.00    -0.364 A  
HETATM    7  C   UNL     1     -11.784  12.548  68.633  1.00  0.00    -0.368 A  
HETATM    8  C   UNL     1     -11.919  12.253  69.990  1.00  0.00    -0.304 A  
HETATM    9  C   UNL     1     -11.224   9.973  69.514  1.00  0.00    -0.254 A  
HETATM   10  C   UNL     1     -11.639  10.957  70.427  1.00  0.00    -0.418 A  
BRANCH   8  11
HETATM   11  O   UNL     1     -12.318  13.153  70.947  1.00  0.00    -0.364 OA 
BRANCH  11  12
HETATM   12  C   UNL     1     -12.874  14.374  70.424  1.00  0.00    -0.245 C  
BRANCH  12  13
HETATM   13  C   UNL     1     -12.143  15.609  70.967  1.00  0.00    -0.400 C  
HETATM   14  H   UNL     1     -11.116  16.077  72.580  1.00  0.00     0.000 HD 
HETATM   15  O   UNL     1     -11.568  15.313  72.243  1.00  0.00    -0.429 OA 
BRANCH  13  16
HETATM   16  C   UNL     1     -11.048  16.127  70.018  1.00  0.00    -0.363 C  
BRANCH  16  17
HETATM   17  N   UNL     1      -9.919  15.197  69.923  1.00  0.00    -0.471 NA 
HETATM   18  H   UNL     1     -10.249  14.250  69.737  1.00  0.00     0.000 HD 
BRANCH  17  19
HETATM   19  C   UNL     1      -8.906  15.592  68.938  1.00  0.00    -0.222 C  
HETATM   20  C   UNL     1      -8.884  14.685  67.704  1.00  0.00    -0.184 C  
HETATM   21  C   UNL     1      -9.213  17.029  68.506  1.00  0.00    -0.266 C  
ENDBRANCH  17  19
ENDBRANCH  16  17
ENDBRANCH  13  16
ENDBRANCH  12  13
ENDBRANCH  11  12
ENDBRANCH   8  11
ENDBRANCH   4   5
ENDBRANCH   3   4
ENDBRANCH   2   3
TORSDOF 9
ENDMDL
MODEL      126
REMARK 921   NORMALIZED FREE ENERGY PREDICTED BY IDOCK:   -3.96 KCAL/MOL
REMARK 922        TOTAL FREE ENERGY PREDICTED BY IDOCK:   -6.68 KCAL/MOL
REMARK 923 INTER-LIGAND FREE ENERGY PREDICTED BY IDOCK:   -6.26 KCAL/MOL
REMARK 924 INTRA-LIGAND FREE ENERGY PREDICTED BY IDOCK:   -0.42 KCAL/MOL
REMARK 927      BINDING AFFINITY PREDICTED BY RF-SCORE:    0.00 PKD
ROOT
HETATM    1  C   UNL     1     -10.483   7.412  69.543  1.00  0.00    -0.232 C  
HETATM    2  O   UNL     1      -9.735   7.782  68.389  1.00  0.00    -0.153 OA 
ENDROOT
BRANCH   2   3
HETATM    3  C   UNL     1     -10.590   7.945  67.257  1.00  0.00    -0.295 C  
BRANCH   3   4
HETATM    4  C   UNL     1      -9.889   8.816  66.211  1.00  0.00    -0.342 C  
BRANCH   4   5
HETATM    5  C   UNL     1     -10.378  10.242  66.242  1.00  0.00    -0.256 A  
HETATM    6  C   UNL     1     -10.272  11.027  65.092  1.00  0.00    -0.352 A  
HETATM    7  C   UNL     1     -10.699  12.351  65.093  1.00  0.00    -0.327 A  
HETATM    8  C   UNL     1     -11.256  12.924  66.237  1.00  0.00    -0.301 A  
HETATM    9  C   UNL     1     -10.946  10.808  67.391  1.00  0.00    -0.361 A  
HETATM   10  C   UNL     1     -11.380  12.144  67.387  1.00  0.00    -0.393 A  
BRANCH   8  11
HETATM   11  O   UNL     1     -11.706  14.220  66.319  1.00  0.00    -0.367 OA 
BRANCH  11  12
HETATM   12  C   UNL     1     -10.667  15.203  66.480  1.00  0.00    -0.310 C  
BRANCH  12  13
HETATM   13  C   UNL     1     -10.443  15.557  67.956  1.00  0.00    -0.259 C  
HETATM   14  H   UNL     1      -9.219  15.006  69.396  1.00  0.00     0.000 HD 
HETATM   15  O   UNL     1      -9.358  14.787  68.482  1.00  0.00    -0.187 OA 
BRANCH  13  16
HETATM   16  C   UNL     1     -10.167  17.054  68.181  1.00  0.00    -0.322 C  
BRANCH  16  17
HETATM   17  N   UNL     1     -10.441  17.849  66.981  1.00  0.00    -0.358 NA 
HETATM   18  H   UNL     1     -11.358  17.618  66.599  1.00  0.00     0.000 HD 
BRANCH  17  19
HETATM   19  C   UNL     1     -10.319  19.297  67.188  1.00  0.00    -0.432 C  
HETATM   20  C   UNL     1      -9.945  19.667  68.626  1.00  0.00    -0.553 C  
HETATM   21  C   UNL     1      -9.239  19.813  66.233  1.00  0.00    -0.461 C  
ENDBRANCH  17  19
ENDBRANCH  16  17
ENDBRANCH  13  16
ENDBRANCH  12  13
ENDBRANCH  11  12
ENDBRANCH   8  11
ENDBRANCH   4   5
ENDBRANCH   3   4
ENDBRANCH   2   3
TORSDOF 9
ENDMDL
MODEL      127
REMARK 921   NORMALIZED FREE ENERGY PREDICTED BY IDOCK:   -3.94 KCAL/MOL
REMARK 922        TOTAL FREE ENERGY PREDICTED BY IDOCK:   -6.65 KCAL/MOL
REMARK 923 INTER-LIGAND FREE ENERGY PREDICTED BY IDOCK:   -6.10 KCAL/MOL
REMARK 924 INTRA-LIGAND FREE ENERGY PREDICTED BY IDOCK:   -0.55 KCAL/MOL
REMARK 927      BINDING AFFINITY PREDICTED BY RF-SCORE:    0.00 PKD
ROOT
HETATM    1  C   UNL     1     -11.784   6.426  71.848  1.00  0.00    -0.328 C  
HETATM    2  O   UNL     1     -12.817   7.402  71.756  1.00  0.00    -0.332 OA 
ENDROOT
BRANCH   2   3
HETATM    3  C   UNL     1     -12.439   8.609  72.419  1.00  0.00    -0.362 C  
BRANCH   3   4
HETATM    4  C   UNL     1     -13.529   9.665  72.215  1.00  0.00    -0.488 C  
BRANCH   4   5
HETATM    5  C   UNL     1     -13.017  10.871  71.469  1.00  0.00    -0.556 A  
HETATM    6  C   UNL     1     -13.283  12.148  71.968  1.00  0.00    -0.496 A  
HETATM    7  C   UNL     1     -12.838  13.282  71.295  1.00  0.00    -0.398 A  
HETATM    8  C   UNL     1     -12.103  13.173  70.113  1.00  0.00    -0.321 A  
HETATM    9  C   UNL     1     -12.270  10.754  70.289  1.00  0.00    -0.431 A  
HETATM   10  C   UNL     1     -11.819  11.900  69.614  1.00  0.00    -0.406 A  
BRANCH   8  11
HETATM   11  O   UNL     1     -11.624  14.239  69.392  1.00  0.00    -0.269 OA 
BRANCH  11  12
HETATM   12  C   UNL     1     -12.209  14.386  68.085  1.00  0.00    -0.107 C  
BRANCH  12  13
HETATM   13  C   UNL     1     -11.157  14.253  66.975  1.00  0.00    -0.312 C  
HETATM   14  H   UNL     1     -10.576  15.301  65.413  1.00  0.00     0.000 HD 
HETATM   15  O   UNL     1     -11.226  15.383  66.100  1.00  0.00    -0.281 OA 
BRANCH  13  16
HETATM   16  C   UNL     1      -9.724  14.110  67.517  1.00  0.00    -0.234 C  
BRANCH  16  17
HETATM   17  N   UNL     1      -8.790  13.649  66.486  1.00  0.00    -0.455 NA 
HETATM   18  H   UNL     1      -8.119  14.382  66.256  1.00  0.00     0.000 HD 
BRANCH  17  19
HETATM   19  C   UNL     1      -8.095  12.403  66.828  1.00  0.00     0.013 C  
HETATM   20  C   UNL     1      -7.674  12.337  68.299  1.00  0.00    -0.143 C  
HETATM   21  C   UNL     1      -9.044  11.241  66.519  1.00  0.00    -0.193 C  
ENDBRANCH  17  19
ENDBRANCH  16  17
ENDBRANCH  13  16
ENDBRANCH  12  13
ENDBRANCH  11  12
ENDBRANCH   8  11
ENDBRANCH   4   5
ENDBRANCH   3   4
ENDBRANCH   2   3
TORSDOF 9
ENDMDL
MODEL      128
REMARK 921   NORMALIZED FREE ENERGY PREDICTED BY IDOCK:   -3.94 KCAL/MOL
REMARK 922        TOTAL FREE ENERGY PREDICTED BY IDOCK:   -6.65 KCAL/MOL
REMARK 923 INTER-LIGAND FREE ENERGY PREDICTED BY IDOCK:   -5.83 KCAL/MOL
REMARK 924 INTRA-LIGAND FREE ENERGY PREDICTED BY IDOCK:   -0.82 KCAL/MOL
REMARK 927      BINDING AFFINITY PREDICTED BY RF-SCORE:    0.00 PKD
ROOT
HETATM    1  C   UNL     1     -12.382  15.761  72.055  1.00  0.00    -0.456 C  
HETATM    2  O   UNL     1     -13.287  15.142  72.963  1.00  0.00    -0.462 OA 
ENDROOT
BRANCH   2   3
HETATM    3  C   UNL     1     -13.451  13.757  72.657  1.00  0.00    -0.530 C  
BRANCH   3   4
HETATM    4  C   UNL     1     -12.841  13.463  71.284  1.00  0.00    -0.407 C  
BRANCH   4   5
HETATM    5  C   UNL     1     -12.556  11.995  71.093  1.00  0.00    -0.372 A  
HETATM    6  C   UNL     1     -11.557  11.602  70.199  1.00  0.00    -0.303 A  
HETATM    7  C   UNL     1     -11.281  10.254  69.989  1.00  0.00    -0.376 A  
HETATM    8  C   UNL     1     -11.984   9.262  70.674  1.00  0.00    -0.152 A  
HETATM    9  C   UNL     1     -13.258  11.005  71.792  1.00  0.00    -0.505 A  
HETATM   10  C   UNL     1     -12.975   9.645  71.580  1.00  0.00    -0.501 A  
BRANCH   8  11
HETATM   11  O   UNL     1     -11.771   7.913  70.527  1.00  0.00    -0.213 OA 
BRANCH  11  12
HETATM   12  C   UNL     1     -11.875   7.157  71.747  1.00  0.00    -0.303 C  
BRANCH  12  13
HETATM   13  C   UNL     1     -11.041   5.870  71.690  1.00  0.00    -0.258 C  
HETATM   14  H   UNL     1     -10.486   4.577  70.313  1.00  0.00     0.000 HD 
HETATM   15  O   UNL     1     -11.002   5.373  70.349  1.00  0.00    -0.212 OA 
BRANCH  13  16
HETATM   16  C   UNL     1      -9.604   6.060  72.209  1.00  0.00    -0.150 C  
BRANCH  16  17
HETATM   17  N   UNL     1      -8.788   6.855  71.287  1.00  0.00    -0.135 NA 
HETATM   18  H   UNL     1      -9.227   6.901  70.368  1.00  0.00     0.000 HD 
BRANCH  17  19
HETATM   19  C   UNL     1      -8.479   8.202  71.779  1.00  0.00    -0.144 C  
HETATM   20  C   UNL     1      -8.544   8.311  73.305  1.00  0.00    -0.273 C  
HETATM   21  C   UNL     1      -7.067   8.558  71.304  1.00  0.00    -0.078 C  
ENDBRANCH  17  19
ENDBRANCH  16  17
ENDBRANCH  13  16
ENDBRANCH  12  13
ENDBRANCH  11  12
ENDBRANCH   8  11
ENDBRANCH   4   5
ENDBRANCH   3   4
ENDBRANCH   2   3
TORSDOF 9
ENDMDL
MODEL      129
REMARK 921   NORMALIZED FREE ENERGY PREDICTED BY IDOCK:   -3.92 KCAL/MOL
REMARK 922        TOTAL FREE ENERGY PREDICTED BY IDOCK:   -6.62 KCAL/MOL
REMARK 923 INTER-LIGAND FREE ENERGY PREDICTED BY IDOCK:   -5.90 KCAL/MOL
REMARK 924 INTRA-LIGAND FREE ENERGY PREDICTED BY IDOCK:   -0.72 KCAL/MOL
REMARK 927      BINDING AFFINITY PREDICTED BY RF-SCORE:    0.00 PKD
ROOT
HETATM    1  C   UNL     1     -12.092  14.856  64.350  1.00  0.00    -0.401 C  
HETATM    2  O   UNL     1     -12.448  13.598  63.786  1.00  0.00    -0.703 OA 
ENDROOT
BRANCH   2   3
HETATM    3  C   UNL     1     -12.483  12.580  64.787  1.00  0.00    -0.457 C  
BRANCH   3   4
HETATM    4  C   UNL     1     -11.838  13.108  66.072  1.00  0.00    -0.457 C  
BRANCH   4   5
HETATM    5  C   UNL     1     -11.356  11.992  66.963  1.00  0.00    -0.396 A  
HETATM    6  C   UNL     1     -10.550  10.986  66.426  1.00  0.00    -0.308 A  
HETATM    7  C   UNL     1     -10.103   9.933  67.219  1.00  0.00    -0.264 A  
HETATM    8  C   UNL     1     -10.435   9.863  68.572  1.00  0.00    -0.205 A  
HETATM    9  C   UNL     1     -11.685  11.933  68.324  1.00  0.00    -0.385 A  
HETATM   10  C   UNL     1     -11.228  10.872  69.123  1.00  0.00    -0.318 A  
BRANCH   8  11
HETATM   11  O   UNL     1     -10.031   8.863  69.423  1.00  0.00    -0.182 OA 
BRANCH  11  12
HETATM   12  C   UNL     1      -8.914   9.209  70.263  1.00  0.00    -0.217 C  
BRANCH  12  13
HETATM   13  C   UNL     1      -8.503   8.041  71.170  1.00  0.00    -0.123 C  
HETATM   14  H   UNL     1      -7.143   7.705  72.552  1.00  0.00     0.000 HD 
HETATM   15  O   UNL     1      -7.397   8.428  71.991  1.00  0.00    -0.091 OA 
BRANCH  13  16
HETATM   16  C   UNL     1      -9.653   7.536  72.060  1.00  0.00    -0.154 C  
BRANCH  16  17
HETATM   17  N   UNL     1     -10.826   8.412  71.989  1.00  0.00    -0.295 NA 
HETATM   18  H   UNL     1     -10.861   8.893  71.091  1.00  0.00     0.000 HD 
BRANCH  17  19
HETATM   19  C   UNL     1     -12.096   7.726  72.257  1.00  0.00    -0.287 C  
HETATM   20  C   UNL     1     -13.320   8.569  71.892  1.00  0.00    -0.401 C  
HETATM   21  C   UNL     1     -12.106   6.431  71.439  1.00  0.00    -0.257 C  
ENDBRANCH  17  19
ENDBRANCH  16  17
ENDBRANCH  13  16
ENDBRANCH  12  13
ENDBRANCH  11  12
ENDBRANCH   8  11
ENDBRANCH   4   5
ENDBRANCH   3   4
ENDBRANCH   2   3
TORSDOF 9
ENDMDL
MODEL      130
REMARK 921   NORMALIZED FREE ENERGY PREDICTED BY IDOCK:   -3.92 KCAL/MOL
REMARK 922        TOTAL FREE ENERGY PREDICTED BY IDOCK:   -6.61 KCAL/MOL
REMARK 923 INTER-LIGAND FREE ENERGY PREDICTED BY IDOCK:   -6.17 KCAL/MOL
REMARK 924 INTRA-LIGAND FREE ENERGY PREDICTED BY IDOCK:   -0.44 KCAL/MOL
REMARK 927      BINDING AFFINITY PREDICTED BY RF-SCORE:    0.00 PKD
ROOT
HETATM    1  C   UNL     1     -12.561  12.287  63.488  1.00  0.00    -0.476 C  
HETATM    2  O   UNL     1     -12.483  13.520  64.196  1.00  0.00    -0.624 OA 
ENDROOT
BRANCH   2   3
HETATM    3  C   UNL     1     -11.212  13.664  64.832  1.00  0.00    -0.342 C  
BRANCH   3   4
HETATM    4  C   UNL     1     -11.418  14.089  66.288  1.00  0.00    -0.358 C  
BRANCH   4   5
HETATM    5  C   UNL     1     -11.452  12.907  67.224  1.00  0.00    -0.388 A  
HETATM    6  C   UNL     1     -11.828  13.098  68.555  1.00  0.00    -0.377 A  
HETATM    7  C   UNL     1     -11.855  12.029  69.447  1.00  0.00    -0.384 A  
HETATM    8  C   UNL     1     -11.520  10.740  69.032  1.00  0.00    -0.298 A  
HETATM    9  C   UNL     1     -11.125  11.613  66.798  1.00  0.00    -0.366 A  
HETATM   10  C   UNL     1     -11.157  10.536  67.699  1.00  0.00    -0.375 A  
BRANCH   8  11
HETATM   11  O   UNL     1     -11.526   9.633  69.846  1.00  0.00    -0.203 OA 
BRANCH  11  12
HETATM   12  C   UNL     1     -10.610   9.704  70.954  1.00  0.00    -0.316 C  
BRANCH  12  13
HETATM   13  C   UNL     1      -9.403   8.777  70.753  1.00  0.00    -0.208 C  
HETATM   14  H   UNL     1      -7.675   8.455  71.639  1.00  0.00     0.000 HD 
HETATM   15  O   UNL     1      -8.422   9.029  71.764  1.00  0.00    -0.351 OA 
BRANCH  13  16
HETATM   16  C   UNL     1      -9.782   7.285  70.764  1.00  0.00    -0.171 C  
BRANCH  16  17
HETATM   17  N   UNL     1      -9.187   6.576  71.902  1.00  0.00    -0.149 NA 
HETATM   18  H   UNL     1      -9.281   7.126  72.756  1.00  0.00     0.000 HD 
BRANCH  17  19
HETATM   19  C   UNL     1      -9.716   5.222  72.098  1.00  0.00    -0.164 C  
HETATM   20  C   UNL     1     -10.943   5.185  73.014  1.00  0.00    -0.355 C  
HETATM   21  C   UNL     1     -10.092   4.665  70.722  1.00  0.00    -0.264 C  
ENDBRANCH  17  19
ENDBRANCH  16  17
ENDBRANCH  13  16
ENDBRANCH  12  13
ENDBRANCH  11  12
ENDBRANCH   8  11
ENDBRANCH   4   5
ENDBRANCH   3   4
ENDBRANCH   2   3
TORSDOF 9
ENDMDL
MODEL      131
REMARK 921   NORMALIZED FREE ENERGY PREDICTED BY IDOCK:   -3.89 KCAL/MOL
REMARK 922        TOTAL FREE ENERGY PREDICTED BY IDOCK:   -6.57 KCAL/MOL
REMARK 923 INTER-LIGAND FREE ENERGY PREDICTED BY IDOCK:   -6.13 KCAL/MOL
REMARK 924 INTRA-LIGAND FREE ENERGY PREDICTED BY IDOCK:   -0.44 KCAL/MOL
REMARK 927      BINDING AFFINITY PREDICTED BY RF-SCORE:    0.00 PKD
ROOT
HETATM    1  C   UNL     1     -10.589  19.533  66.441  1.00  0.00    -0.472 C  
HETATM    2  O   UNL     1      -9.322  19.091  65.966  1.00  0.00    -0.454 OA 
ENDROOT
BRANCH   2   3
HETATM    3  C   UNL     1      -8.618  18.373  66.982  1.00  0.00    -0.262 C  
BRANCH   3   4
HETATM    4  C   UNL     1      -7.762  17.282  66.333  1.00  0.00    -0.347 C  
BRANCH   4   5
HETATM    5  C   UNL     1      -8.359  15.910  66.516  1.00  0.00    -0.330 A  
HETATM    6  C   UNL     1      -9.547  15.587  65.857  1.00  0.00    -0.383 A  
HETATM    7  C   UNL     1     -10.132  14.334  66.018  1.00  0.00    -0.333 A  
HETATM    8  C   UNL     1      -9.541  13.366  66.830  1.00  0.00    -0.262 A  
HETATM    9  C   UNL     1      -7.754  14.938  67.325  1.00  0.00    -0.227 A  
HETATM   10  C   UNL     1      -8.345  13.674  67.482  1.00  0.00    -0.191 A  
BRANCH   8  11
HETATM   11  O   UNL     1     -10.050  12.107  67.038  1.00  0.00    -0.203 OA 
BRANCH  11  12
HETATM   12  C   UNL     1      -9.871  11.604  68.375  1.00  0.00    -0.202 C  
BRANCH  12  13
HETATM   13  C   UNL     1     -11.214  11.415  69.094  1.00  0.00    -0.272 C  
HETATM   14  H   UNL     1     -13.088  11.103  68.580  1.00  0.00     0.000 HD 
HETATM   15  O   UNL     1     -12.257  11.221  68.135  1.00  0.00    -0.622 OA 
BRANCH  13  16
HETATM   16  C   UNL     1     -11.203  10.239  70.088  1.00  0.00    -0.318 C  
BRANCH  16  17
HETATM   17  N   UNL     1     -11.236   8.943  69.404  1.00  0.00    -0.432 NA 
HETATM   18  H   UNL     1     -10.760   8.999  68.505  1.00  0.00     0.000 HD 
BRANCH  17  19
HETATM   19  C   UNL     1     -10.699   7.836  70.205  1.00  0.00    -0.240 C  
HETATM   20  C   UNL     1     -11.755   6.784  70.556  1.00  0.00    -0.430 C  
HETATM   21  C   UNL     1      -9.576   7.180  69.396  1.00  0.00    -0.153 C  
ENDBRANCH  17  19
ENDBRANCH  16  17
ENDBRANCH  13  16
ENDBRANCH  12  13
ENDBRANCH  11  12
ENDBRANCH   8  11
ENDBRANCH   4   5
ENDBRANCH   3   4
ENDBRANCH   2   3
TORSDOF 9
ENDMDL
MODEL      132
REMARK 921   NORMALIZED FREE ENERGY PREDICTED BY IDOCK:   -3.88 KCAL/MOL
REMARK 922        TOTAL FREE ENERGY PREDICTED BY IDOCK:   -6.56 KCAL/MOL
REMARK 923 INTER-LIGAND FREE ENERGY PREDICTED BY IDOCK:   -5.78 KCAL/MOL
REMARK 924 INTRA-LIGAND FREE ENERGY PREDICTED BY IDOCK:   -0.78 KCAL/MOL
REMARK 927      BINDING AFFINITY PREDICTED BY RF-SCORE:    0.00 PKD
ROOT
HETATM    1  C   UNL     1     -10.124   6.132  74.406  1.00  0.00    -0.323 C  
HETATM    2  O   UNL     1     -10.810   5.618  73.269  1.00  0.00    -0.252 OA 
ENDROOT
BRANCH   2   3
HETATM    3  C   UNL     1     -11.477   6.663  72.559  1.00  0.00    -0.231 C  
BRANCH   3   4
HETATM    4  C   UNL     1     -10.753   7.989  72.808  1.00  0.00    -0.431 C  
BRANCH   4   5
HETATM    5  C   UNL     1     -10.950   8.963  71.674  1.00  0.00    -0.415 A  
HETATM    6  C   UNL     1     -12.155   9.661  71.572  1.00  0.00    -0.482 A  
HETATM    7  C   UNL     1     -12.373  10.554  70.527  1.00  0.00    -0.432 A  
HETATM    8  C   UNL     1     -11.390  10.786  69.564  1.00  0.00    -0.289 A  
HETATM    9  C   UNL     1      -9.955   9.198  70.716  1.00  0.00    -0.334 A  
HETATM   10  C   UNL     1     -10.176  10.104  69.665  1.00  0.00    -0.272 A  
BRANCH   8  11
HETATM   11  O   UNL     1     -11.524  11.652  68.507  1.00  0.00    -0.245 OA 
BRANCH  11  12
HETATM   12  C   UNL     1     -10.886  11.216  67.292  1.00  0.00    -0.274 C  
BRANCH  12  13
HETATM   13  C   UNL     1     -11.074  12.230  66.156  1.00  0.00    -0.311 C  
HETATM   14  H   UNL     1     -12.541  13.327  65.437  1.00  0.00     0.000 HD 
HETATM   15  O   UNL     1     -12.425  12.699  66.140  1.00  0.00    -0.520 OA 
BRANCH  13  16
HETATM   16  C   UNL     1     -10.114  13.429  66.255  1.00  0.00    -0.299 C  
BRANCH  16  17
HETATM   17  N   UNL     1      -9.524  13.551  67.591  1.00  0.00    -0.215 NA 
HETATM   18  H   UNL     1      -9.752  12.735  68.160  1.00  0.00     0.000 HD 
BRANCH  17  19
HETATM   19  C   UNL     1      -8.075  13.784  67.581  1.00  0.00    -0.177 C  
HETATM   20  C   UNL     1      -7.557  14.389  68.889  1.00  0.00    -0.128 C  
HETATM   21  C   UNL     1      -7.389  12.438  67.336  1.00  0.00    -0.149 C  
ENDBRANCH  17  19
ENDBRANCH  16  17
ENDBRANCH  13  16
ENDBRANCH  12  13
ENDBRANCH  11  12
ENDBRANCH   8  11
ENDBRANCH   4   5
ENDBRANCH   3   4
ENDBRANCH   2   3
TORSDOF 9
ENDMDL
MODEL      133
REMARK 921   NORMALIZED FREE ENERGY PREDICTED BY IDOCK:   -3.87 KCAL/MOL
REMARK 922        TOTAL FREE ENERGY PREDICTED BY IDOCK:   -6.55 KCAL/MOL
REMARK 923 INTER-LIGAND FREE ENERGY PREDICTED BY IDOCK:   -5.92 KCAL/MOL
REMARK 924 INTRA-LIGAND FREE ENERGY PREDICTED BY IDOCK:   -0.63 KCAL/MOL
REMARK 927      BINDING AFFINITY PREDICTED BY RF-SCORE:    0.00 PKD
ROOT
HETATM    1  C   UNL     1     -10.563   6.666  73.485  1.00  0.00    -0.311 C  
HETATM    2  O   UNL     1     -11.360   5.782  72.703  1.00  0.00    -0.282 OA 
ENDROOT
BRANCH   2   3
HETATM    3  C   UNL     1     -12.267   6.511  71.874  1.00  0.00    -0.324 C  
BRANCH   3   4
HETATM    4  C   UNL     1     -12.302   7.975  72.322  1.00  0.00    -0.336 C  
BRANCH   4   5
HETATM    5  C   UNL     1     -11.873   8.914  71.223  1.00  0.00    -0.371 A  
HETATM    6  C   UNL     1     -12.366  10.220  71.207  1.00  0.00    -0.506 A  
HETATM    7  C   UNL     1     -12.002  11.106  70.197  1.00  0.00    -0.449 A  
HETATM    8  C   UNL     1     -11.126  10.717  69.184  1.00  0.00    -0.255 A  
HETATM    9  C   UNL     1     -10.984   8.520  70.214  1.00  0.00    -0.245 A  
HETATM   10  C   UNL     1     -10.615   9.417  69.199  1.00  0.00    -0.234 A  
BRANCH   8  11
HETATM   11  O   UNL     1     -10.714  11.529  68.156  1.00  0.00    -0.188 OA 
BRANCH  11  12
HETATM   12  C   UNL     1      -9.285  11.629  68.010  1.00  0.00    -0.178 C  
BRANCH  12  13
HETATM   13  C   UNL     1      -8.828  11.223  66.602  1.00  0.00    -0.175 C  
HETATM   14  H   UNL     1      -8.212   9.581  65.709  1.00  0.00     0.000 HD 
HETATM   15  O   UNL     1      -8.495   9.832  66.581  1.00  0.00    -0.123 OA 
BRANCH  13  16
HETATM   16  C   UNL     1      -9.882  11.516  65.519  1.00  0.00    -0.234 C  
BRANCH  16  17
HETATM   17  N   UNL     1     -10.248  12.935  65.479  1.00  0.00    -0.288 NA 
HETATM   18  H   UNL     1      -9.413  13.521  65.457  1.00  0.00     0.000 HD 
BRANCH  17  19
HETATM   19  C   UNL     1     -11.152  13.284  64.377  1.00  0.00    -0.384 C  
HETATM   20  C   UNL     1     -11.738  12.057  63.673  1.00  0.00    -0.587 C  
HETATM   21  C   UNL     1     -12.290  14.127  64.959  1.00  0.00    -0.452 C  
ENDBRANCH  17  19
ENDBRANCH  16  17
ENDBRANCH  13  16
ENDBRANCH  12  13
ENDBRANCH  11  12
ENDBRANCH   8  11
ENDBRANCH   4   5
ENDBRANCH   3   4
ENDBRANCH   2   3
TORSDOF 9
ENDMDL
MODEL      134
REMARK 921   NORMALIZED FREE ENERGY PREDICTED BY IDOCK:   -3.87 KCAL/MOL
REMARK 922        TOTAL FREE ENERGY PREDICTED BY IDOCK:   -6.55 KCAL/MOL
REMARK 923 INTER-LIGAND FREE ENERGY PREDICTED BY IDOCK:   -5.71 KCAL/MOL
REMARK 924 INTRA-LIGAND FREE ENERGY PREDICTED BY IDOCK:   -0.84 KCAL/MOL
REMARK 927      BINDING AFFINITY PREDICTED BY RF-SCORE:    0.00 PKD
ROOT
HETATM    1  C   UNL     1      -8.113   9.908  69.696  1.00  0.00    -0.165 C  
HETATM    2  O   UNL     1      -9.355   9.335  69.299  1.00  0.00    -0.152 OA 
ENDROOT
BRANCH   2   3
HETATM    3  C   UNL     1      -9.317   8.931  67.930  1.00  0.00    -0.141 C  
BRANCH   3   4
HETATM    4  C   UNL     1     -10.609   9.368  67.235  1.00  0.00    -0.314 C  
BRANCH   4   5
HETATM    5  C   UNL     1     -10.731  10.869  67.157  1.00  0.00    -0.320 A  
HETATM    6  C   UNL     1     -11.749  11.511  67.865  1.00  0.00    -0.317 A  
HETATM    7  C   UNL     1     -11.897  12.894  67.801  1.00  0.00    -0.391 A  
HETATM    8  C   UNL     1     -11.026  13.674  67.040  1.00  0.00    -0.289 A  
HETATM    9  C   UNL     1      -9.846  11.648  66.399  1.00  0.00    -0.233 A  
HETATM   10  C   UNL     1      -9.996  13.044  66.340  1.00  0.00    -0.277 A  
BRANCH   8  11
HETATM   11  O   UNL     1     -11.101  15.041  66.928  1.00  0.00    -0.324 OA 
BRANCH  11  12
HETATM   12  C   UNL     1     -10.993  15.749  68.177  1.00  0.00    -0.330 C  
BRANCH  12  13
HETATM   13  C   UNL     1      -9.740  16.634  68.221  1.00  0.00    -0.244 C  
HETATM   14  H   UNL     1      -8.127  16.786  69.339  1.00  0.00     0.000 HD 
HETATM   15  O   UNL     1      -8.903  16.239  69.312  1.00  0.00    -0.237 OA 
BRANCH  13  16
HETATM   16  C   UNL     1      -8.931  16.597  66.912  1.00  0.00    -0.222 C  
BRANCH  16  17
HETATM   17  N   UNL     1      -9.424  17.570  65.934  1.00  0.00    -0.527 NA 
HETATM   18  H   UNL     1     -10.301  17.253  65.523  1.00  0.00     0.000 HD 
BRANCH  17  19
HETATM   19  C   UNL     1      -9.566  18.929  66.469  1.00  0.00    -0.346 C  
HETATM   20  C   UNL     1      -8.303  19.777  66.294  1.00  0.00    -0.383 C  
HETATM   21  C   UNL     1     -10.733  19.598  65.735  1.00  0.00    -0.493 C  
ENDBRANCH  17  19
ENDBRANCH  16  17
ENDBRANCH  13  16
ENDBRANCH  12  13
ENDBRANCH  11  12
ENDBRANCH   8  11
ENDBRANCH   4   5
ENDBRANCH   3   4
ENDBRANCH   2   3
TORSDOF 9
ENDMDL
MODEL      135
REMARK 921   NORMALIZED FREE ENERGY PREDICTED BY IDOCK:   -3.87 KCAL/MOL
REMARK 922        TOTAL FREE ENERGY PREDICTED BY IDOCK:   -6.54 KCAL/MOL
REMARK 923 INTER-LIGAND FREE ENERGY PREDICTED BY IDOCK:   -5.60 KCAL/MOL
REMARK 924 INTRA-LIGAND FREE ENERGY PREDICTED BY IDOCK:   -0.95 KCAL/MOL
REMARK 927      BINDING AFFINITY PREDICTED BY RF-SCORE:    0.00 PKD
ROOT
HETATM    1  C   UNL     1     -10.284   6.464  74.023  1.00  0.00    -0.332 C  
HETATM    2  O   UNL     1     -11.259   7.415  73.607  1.00  0.00    -0.180 OA 
ENDROOT
BRANCH   2   3
HETATM    3  C   UNL     1     -10.844   8.083  72.414  1.00  0.00    -0.327 C  
BRANCH   3   4
HETATM    4  C   UNL     1     -11.903   9.113  72.013  1.00  0.00    -0.407 C  
BRANCH   4   5
HETATM    5  C   UNL     1     -11.442   9.985  70.872  1.00  0.00    -0.452 A  
HETATM    6  C   UNL     1     -12.243  11.051  70.458  1.00  0.00    -0.472 A  
HETATM    7  C   UNL     1     -11.853  11.865  69.398  1.00  0.00    -0.389 A  
HETATM    8  C   UNL     1     -10.646  11.645  68.732  1.00  0.00    -0.212 A  
HETATM    9  C   UNL     1     -10.224   9.766  70.215  1.00  0.00    -0.346 A  
HETATM   10  C   UNL     1      -9.831  10.591  69.148  1.00  0.00    -0.233 A  
BRANCH   8  11
HETATM   11  O   UNL     1     -10.187  12.403  67.683  1.00  0.00    -0.202 OA 
BRANCH  11  12
HETATM   12  C   UNL     1     -11.222  12.989  66.872  1.00  0.00    -0.295 C  
BRANCH  12  13
HETATM   13  C   UNL     1     -11.772  11.991  65.844  1.00  0.00    -0.242 C  
HETATM   14  H   UNL     1     -13.029  12.033  64.330  1.00  0.00     0.000 HD 
HETATM   15  O   UNL     1     -12.689  12.651  64.966  1.00  0.00    -0.658 OA 
BRANCH  13  16
HETATM   16  C   UNL     1     -10.668  11.310  65.016  1.00  0.00    -0.256 C  
BRANCH  16  17
HETATM   17  N   UNL     1     -10.301  10.000  65.562  1.00  0.00    -0.177 NA 
HETATM   18  H   UNL     1     -10.945   9.281  65.233  1.00  0.00     0.000 HD 
BRANCH  17  19
HETATM   19  C   UNL     1      -8.912   9.612  65.291  1.00  0.00    -0.204 C  
HETATM   20  C   UNL     1      -7.916  10.750  65.527  1.00  0.00    -0.064 C  
HETATM   21  C   UNL     1      -8.570   8.437  66.211  1.00  0.00    -0.149 C  
ENDBRANCH  17  19
ENDBRANCH  16  17
ENDBRANCH  13  16
ENDBRANCH  12  13
ENDBRANCH  11  12
ENDBRANCH   8  11
ENDBRANCH   4   5
ENDBRANCH   3   4
ENDBRANCH   2   3
TORSDOF 9
ENDMDL
MODEL      136
REMARK 921   NORMALIZED FREE ENERGY PREDICTED BY IDOCK:   -3.87 KCAL/MOL
REMARK 922        TOTAL FREE ENERGY PREDICTED BY IDOCK:   -6.54 KCAL/MOL
REMARK 923 INTER-LIGAND FREE ENERGY PREDICTED BY IDOCK:   -5.87 KCAL/MOL
REMARK 924 INTRA-LIGAND FREE ENERGY PREDICTED BY IDOCK:   -0.68 KCAL/MOL
REMARK 927      BINDING AFFINITY PREDICTED BY RF-SCORE:    0.00 PKD
ROOT
HETATM    1  C   UNL     1     -10.461  19.894  65.611  1.00  0.00    -0.341 C  
HETATM    2  O   UNL     1      -9.631  19.107  66.459  1.00  0.00    -0.325 OA 
ENDROOT
BRANCH   2   3
HETATM    3  C   UNL     1      -8.928  19.930  67.391  1.00  0.00    -0.337 C  
BRANCH   3   4
HETATM    4  C   UNL     1      -8.095  19.045  68.323  1.00  0.00    -0.359 C  
BRANCH   4   5
HETATM    5  C   UNL     1      -8.549  17.608  68.295  1.00  0.00    -0.268 A  
HETATM    6  C   UNL     1      -9.708  17.242  68.984  1.00  0.00    -0.201 A  
HETATM    7  C   UNL     1     -10.145  15.921  68.991  1.00  0.00    -0.228 A  
HETATM    8  C   UNL     1      -9.445  14.931  68.299  1.00  0.00    -0.210 A  
HETATM    9  C   UNL     1      -7.848  16.620  67.590  1.00  0.00    -0.189 A  
HETATM   10  C   UNL     1      -8.294  15.289  67.595  1.00  0.00    -0.176 A  
BRANCH   8  11
HETATM   11  O   UNL     1      -9.811  13.608  68.252  1.00  0.00    -0.224 OA 
BRANCH  11  12
HETATM   12  C   UNL     1     -11.204  13.363  68.521  1.00  0.00    -0.283 C  
BRANCH  12  13
HETATM   13  C   UNL     1     -11.969  12.976  67.248  1.00  0.00    -0.321 C  
HETATM   14  H   UNL     1     -12.739  13.908  65.695  1.00  0.00     0.000 HD 
HETATM   15  O   UNL     1     -12.266  14.148  66.483  1.00  0.00    -0.445 OA 
BRANCH  13  16
HETATM   16  C   UNL     1     -11.204  11.969  66.370  1.00  0.00    -0.337 C  
BRANCH  16  17
HETATM   17  N   UNL     1     -10.322  12.638  65.409  1.00  0.00    -0.287 NA 
HETATM   18  H   UNL     1      -9.362  12.652  65.753  1.00  0.00     0.000 HD 
BRANCH  17  19
HETATM   19  C   UNL     1     -10.378  12.070  64.057  1.00  0.00    -0.373 C  
HETATM   20  C   UNL     1     -10.035  10.578  64.020  1.00  0.00    -0.363 C  
HETATM   21  C   UNL     1     -11.798  12.278  63.523  1.00  0.00    -0.601 C  
ENDBRANCH  17  19
ENDBRANCH  16  17
ENDBRANCH  13  16
ENDBRANCH  12  13
ENDBRANCH  11  12
ENDBRANCH   8  11
ENDBRANCH   4   5
ENDBRANCH   3   4
ENDBRANCH   2   3
TORSDOF 9
ENDMDL
MODEL      137
REMARK 921   NORMALIZED FREE ENERGY PREDICTED BY IDOCK:   -3.87 KCAL/MOL
REMARK 922        TOTAL FREE ENERGY PREDICTED BY IDOCK:   -6.54 KCAL/MOL
REMARK 923 INTER-LIGAND FREE ENERGY PREDICTED BY IDOCK:   -5.76 KCAL/MOL
REMARK 924 INTRA-LIGAND FREE ENERGY PREDICTED BY IDOCK:   -0.78 KCAL/MOL
REMARK 927      BINDING AFFINITY PREDICTED BY RF-SCORE:    0.00 PKD
ROOT
HETATM    1  C   UNL     1      -9.346  20.238  67.128  1.00  0.00    -0.405 C  
HETATM    2  O   UNL     1      -8.179  19.830  66.422  1.00  0.00    -0.317 OA 
ENDROOT
BRANCH   2   3
HETATM    3  C   UNL     1      -7.550  18.725  67.071  1.00  0.00    -0.229 C  
BRANCH   3   4
HETATM    4  C   UNL     1      -7.434  17.556  66.088  1.00  0.00    -0.334 C  
BRANCH   4   5
HETATM    5  C   UNL     1      -8.379  16.432  66.431  1.00  0.00    -0.363 A  
HETATM    6  C   UNL     1      -9.732  16.554  66.109  1.00  0.00    -0.344 A  
HETATM    7  C   UNL     1     -10.633  15.541  66.427  1.00  0.00    -0.312 A  
HETATM    8  C   UNL     1     -10.205  14.374  67.061  1.00  0.00    -0.263 A  
HETATM    9  C   UNL     1      -7.941  15.259  67.059  1.00  0.00    -0.243 A  
HETATM   10  C   UNL     1      -8.852  14.237  67.374  1.00  0.00    -0.211 A  
BRANCH   8  11
HETATM   11  O   UNL     1     -11.027  13.328  67.404  1.00  0.00    -0.263 OA 
BRANCH  11  12
HETATM   12  C   UNL     1     -12.002  13.642  68.416  1.00  0.00    -0.356 C  
BRANCH  12  13
HETATM   13  C   UNL     1     -11.702  12.920  69.737  1.00  0.00    -0.281 C  
HETATM   14  H   UNL     1     -12.320  13.022  71.603  1.00  0.00     0.000 HD 
HETATM   15  O   UNL     1     -12.505  13.469  70.785  1.00  0.00    -0.351 OA 
BRANCH  13  16
HETATM   16  C   UNL     1     -11.930  11.400  69.657  1.00  0.00    -0.348 C  
BRANCH  16  17
HETATM   17  N   UNL     1     -10.757  10.644  70.107  1.00  0.00    -0.463 NA 
HETATM   18  H   UNL     1     -11.015   9.985  70.841  1.00  0.00     0.000 HD 
BRANCH  17  19
HETATM   19  C   UNL     1     -10.042   9.959  69.024  1.00  0.00    -0.189 C  
HETATM   20  C   UNL     1     -10.868   9.842  67.741  1.00  0.00    -0.321 C  
HETATM   21  C   UNL     1      -8.764  10.753  68.736  1.00  0.00    -0.163 C  
ENDBRANCH  17  19
ENDBRANCH  16  17
ENDBRANCH  13  16
ENDBRANCH  12  13
ENDBRANCH  11  12
ENDBRANCH   8  11
ENDBRANCH   4   5
ENDBRANCH   3   4
ENDBRANCH   2   3
TORSDOF 9
ENDMDL
MODEL      138
REMARK 921   NORMALIZED FREE ENERGY PREDICTED BY IDOCK:   -3.86 KCAL/MOL
REMARK 922        TOTAL FREE ENERGY PREDICTED BY IDOCK:   -6.52 KCAL/MOL
REMARK 923 INTER-LIGAND FREE ENERGY PREDICTED BY IDOCK:   -5.77 KCAL/MOL
REMARK 924 INTRA-LIGAND FREE ENERGY PREDICTED BY IDOCK:   -0.76 KCAL/MOL
REMARK 927      BINDING AFFINITY PREDICTED BY RF-SCORE:    0.00 PKD
ROOT
HETATM    1  C   UNL     1     -12.271  14.935  71.307  1.00  0.00    -0.325 C  
HETATM    2  O   UNL     1     -13.313  14.559  72.201  1.00  0.00    -0.326 OA 
ENDROOT
BRANCH   2   3
HETATM    3  C   UNL     1     -13.565  13.156  72.130  1.00  0.00    -0.544 C  
BRANCH   3   4
HETATM    4  C   UNL     1     -12.682  12.534  71.045  1.00  0.00    -0.316 C  
BRANCH   4   5
HETATM    5  C   UNL     1     -12.483  11.054  71.256  1.00  0.00    -0.475 A  
HETATM    6  C   UNL     1     -11.400  10.415  70.648  1.00  0.00    -0.411 A  
HETATM    7  C   UNL     1     -11.198   9.048  70.810  1.00  0.00    -0.329 A  
HETATM    8  C   UNL     1     -12.063   8.283  71.594  1.00  0.00    -0.306 A  
HETATM    9  C   UNL     1     -13.349  10.294  72.053  1.00  0.00    -0.466 A  
HETATM   10  C   UNL     1     -13.140   8.915  72.218  1.00  0.00    -0.491 A  
BRANCH   8  11
HETATM   11  O   UNL     1     -11.932   6.932  71.808  1.00  0.00    -0.300 OA 
BRANCH  11  12
HETATM   12  C   UNL     1     -11.020   6.582  72.865  1.00  0.00    -0.250 C  
BRANCH  12  13
HETATM   13  C   UNL     1     -10.023   5.503  72.420  1.00  0.00    -0.168 C  
HETATM   14  H   UNL     1     -10.030   3.548  72.189  1.00  0.00     0.000 HD 
HETATM   15  O   UNL     1     -10.646   4.216  72.465  1.00  0.00    -0.166 OA 
BRANCH  13  16
HETATM   16  C   UNL     1      -9.457   5.751  71.010  1.00  0.00    -0.165 C  
BRANCH  16  17
HETATM   17  N   UNL     1     -10.298   5.154  69.968  1.00  0.00    -0.289 NA 
HETATM   18  H   UNL     1     -10.809   5.876  69.461  1.00  0.00     0.000 HD 
BRANCH  17  19
HETATM   19  C   UNL     1      -9.564   4.289  69.036  1.00  0.00    -0.170 C  
HETATM   20  C   UNL     1      -9.697   4.733  67.577  1.00  0.00    -0.209 C  
HETATM   21  C   UNL     1      -8.088   4.315  69.443  1.00  0.00    -0.062 C  
ENDBRANCH  17  19
ENDBRANCH  16  17
ENDBRANCH  13  16
ENDBRANCH  12  13
ENDBRANCH  11  12
ENDBRANCH   8  11
ENDBRANCH   4   5
ENDBRANCH   3   4
ENDBRANCH   2   3
TORSDOF 9
ENDMDL
MODEL      139
REMARK 921   NORMALIZED FREE ENERGY PREDICTED BY IDOCK:   -3.85 KCAL/MOL
REMARK 922        TOTAL FREE ENERGY PREDICTED BY IDOCK:   -6.52 KCAL/MOL
REMARK 923 INTER-LIGAND FREE ENERGY PREDICTED BY IDOCK:   -5.59 KCAL/MOL
REMARK 924 INTRA-LIGAND FREE ENERGY PREDICTED BY IDOCK:   -0.93 KCAL/MOL
REMARK 927      BINDING AFFINITY PREDICTED BY RF-SCORE:    0.00 PKD
ROOT
HETATM    1  C   UNL     1     -10.446  17.602  67.753  1.00  0.00    -0.378 C  
HETATM    2  O   UNL     1      -9.719  16.778  68.658  1.00  0.00    -0.239 OA 
ENDROOT
BRANCH   2   3
HETATM    3  C   UNL     1     -10.602  16.082  69.538  1.00  0.00    -0.290 C  
BRANCH   3   4
HETATM    4  C   UNL     1     -11.654  15.333  68.715  1.00  0.00    -0.379 C  
BRANCH   4   5
HETATM    5  C   UNL     1     -11.831  13.910  69.182  1.00  0.00    -0.401 A  
HETATM    6  C   UNL     1     -11.575  12.861  68.296  1.00  0.00    -0.374 A  
HETATM    7  C   UNL     1     -11.744  11.538  68.692  1.00  0.00    -0.389 A  
HETATM    8  C   UNL     1     -12.160  11.224  69.986  1.00  0.00    -0.348 A  
HETATM    9  C   UNL     1     -12.239  13.601  70.487  1.00  0.00    -0.438 A  
HETATM   10  C   UNL     1     -12.404  12.264  70.884  1.00  0.00    -0.363 A  
BRANCH   8  11
HETATM   11  O   UNL     1     -12.346   9.947  70.457  1.00  0.00    -0.241 OA 
BRANCH  11  12
HETATM   12  C   UNL     1     -11.502   9.591  71.567  1.00  0.00    -0.395 C  
BRANCH  12  13
HETATM   13  C   UNL     1     -10.790   8.252  71.333  1.00  0.00    -0.239 C  
HETATM   14  H   UNL     1     -10.965   6.728  70.101  1.00  0.00     0.000 HD 
HETATM   15  O   UNL     1     -11.406   7.556  70.246  1.00  0.00    -0.268 OA 
BRANCH  13  16
HETATM   16  C   UNL     1      -9.285   8.412  71.054  1.00  0.00    -0.168 C  
BRANCH  16  17
HETATM   17  N   UNL     1      -8.982   9.685  70.392  1.00  0.00    -0.308 NA 
HETATM   18  H   UNL     1      -8.193  10.146  70.845  1.00  0.00     0.000 HD 
BRANCH  17  19
HETATM   19  C   UNL     1      -8.747   9.562  68.948  1.00  0.00    -0.133 C  
HETATM   20  C   UNL     1      -7.980  10.750  68.363  1.00  0.00    -0.124 C  
HETATM   21  C   UNL     1      -7.949   8.276  68.715  1.00  0.00    -0.114 C  
ENDBRANCH  17  19
ENDBRANCH  16  17
ENDBRANCH  13  16
ENDBRANCH  12  13
ENDBRANCH  11  12
ENDBRANCH   8  11
ENDBRANCH   4   5
ENDBRANCH   3   4
ENDBRANCH   2   3
TORSDOF 9
ENDMDL
MODEL      140
REMARK 921   NORMALIZED FREE ENERGY PREDICTED BY IDOCK:   -3.85 KCAL/MOL
REMARK 922        TOTAL FREE ENERGY PREDICTED BY IDOCK:   -6.52 KCAL/MOL
REMARK 923 INTER-LIGAND FREE ENERGY PREDICTED BY IDOCK:   -5.71 KCAL/MOL
REMARK 924 INTRA-LIGAND FREE ENERGY PREDICTED BY IDOCK:   -0.80 KCAL/MOL
REMARK 927      BINDING AFFINITY PREDICTED BY RF-SCORE:    0.00 PKD
ROOT
HETATM    1  C   UNL     1     -11.545  15.987  69.418  1.00  0.00    -0.320 C  
HETATM    2  O   UNL     1     -10.467  15.498  68.627  1.00  0.00    -0.227 OA 
ENDROOT
BRANCH   2   3
HETATM    3  C   UNL     1     -10.442  14.070  68.624  1.00  0.00    -0.247 C  
BRANCH   3   4
HETATM    4  C   UNL     1     -11.872  13.536  68.743  1.00  0.00    -0.390 C  
BRANCH   4   5
HETATM    5  C   UNL     1     -11.954  12.332  69.647  1.00  0.00    -0.347 A  
HETATM    6  C   UNL     1     -11.287  11.159  69.287  1.00  0.00    -0.349 A  
HETATM    7  C   UNL     1     -11.356  10.026  70.093  1.00  0.00    -0.357 A  
HETATM    8  C   UNL     1     -12.081  10.037  71.285  1.00  0.00    -0.394 A  
HETATM    9  C   UNL     1     -12.674  12.353  70.849  1.00  0.00    -0.273 A  
HETATM   10  C   UNL     1     -12.738  11.209  71.662  1.00  0.00    -0.466 A  
BRANCH   8  11
HETATM   11  O   UNL     1     -12.195   8.965  72.137  1.00  0.00    -0.356 OA 
BRANCH  11  12
HETATM   12  C   UNL     1     -13.038   7.904  71.651  1.00  0.00    -0.332 C  
BRANCH  12  13
HETATM   13  C   UNL     1     -12.249   6.604  71.440  1.00  0.00    -0.324 C  
HETATM   14  H   UNL     1     -11.416   5.659  69.928  1.00  0.00     0.000 HD 
HETATM   15  O   UNL     1     -11.904   6.463  70.059  1.00  0.00    -0.404 OA 
BRANCH  13  16
HETATM   16  C   UNL     1     -10.974   6.528  72.299  1.00  0.00    -0.249 C  
BRANCH  16  17
HETATM   17  N   UNL     1      -9.798   6.161  71.504  1.00  0.00    -0.166 NA 
HETATM   18  H   UNL     1     -10.079   5.806  70.590  1.00  0.00     0.000 HD 
BRANCH  17  19
HETATM   19  C   UNL     1      -8.819   7.244  71.359  1.00  0.00    -0.130 C  
HETATM   20  C   UNL     1      -8.846   8.236  72.525  1.00  0.00    -0.297 C  
HETATM   21  C   UNL     1      -7.430   6.606  71.265  1.00  0.00    -0.084 C  
ENDBRANCH  17  19
ENDBRANCH  16  17
ENDBRANCH  13  16
ENDBRANCH  12  13
ENDBRANCH  11  12
ENDBRANCH   8  11
ENDBRANCH   4   5
ENDBRANCH   3   4
ENDBRANCH   2   3
TORSDOF 9
ENDMDL
MODEL      141
REMARK 921   NORMALIZED FREE ENERGY PREDICTED BY IDOCK:   -3.84 KCAL/MOL
REMARK 922        TOTAL FREE ENERGY PREDICTED BY IDOCK:   -6.50 KCAL/MOL
REMARK 923 INTER-LIGAND FREE ENERGY PREDICTED BY IDOCK:   -6.18 KCAL/MOL
REMARK 924 INTRA-LIGAND FREE ENERGY PREDICTED BY IDOCK:   -0.32 KCAL/MOL
REMARK 927      BINDING AFFINITY PREDICTED BY RF-SCORE:    0.00 PKD
ROOT
HETATM    1  C   UNL     1     -10.945   8.857  70.549  1.00  0.00    -0.241 C  
HETATM    2  O   UNL     1     -11.475  10.144  70.848  1.00  0.00    -0.327 OA 
ENDROOT
BRANCH   2   3
HETATM    3  C   UNL     1     -12.027  10.753  69.680  1.00  0.00    -0.313 C  
BRANCH   3   4
HETATM    4  C   UNL     1     -11.137  10.439  68.474  1.00  0.00    -0.318 C  
BRANCH   4   5
HETATM    5  C   UNL     1     -10.762  11.683  67.708  1.00  0.00    -0.244 A  
HETATM    6  C   UNL     1     -11.254  11.865  66.414  1.00  0.00    -0.387 A  
HETATM    7  C   UNL     1     -10.914  12.994  65.676  1.00  0.00    -0.296 A  
HETATM    8  C   UNL     1     -10.083  13.979  66.213  1.00  0.00    -0.300 A  
HETATM    9  C   UNL     1      -9.937  12.673  68.258  1.00  0.00    -0.229 A  
HETATM   10  C   UNL     1      -9.598  13.813  67.511  1.00  0.00    -0.219 A  
BRANCH   8  11
HETATM   11  O   UNL     1      -9.704  15.122  65.553  1.00  0.00    -0.332 OA 
BRANCH  11  12
HETATM   12  C   UNL     1     -10.698  16.163  65.543  1.00  0.00    -0.342 C  
BRANCH  12  13
HETATM   13  C   UNL     1     -10.356  17.285  66.534  1.00  0.00    -0.308 C  
HETATM   14  H   UNL     1     -10.696  17.678  68.432  1.00  0.00     0.000 HD 
HETATM   15  O   UNL     1     -10.908  16.984  67.819  1.00  0.00    -0.340 OA 
BRANCH  13  16
HETATM   16  C   UNL     1      -8.842  17.528  66.669  1.00  0.00    -0.262 C  
BRANCH  16  17
HETATM   17  N   UNL     1      -8.408  18.713  65.923  1.00  0.00    -0.473 NA 
HETATM   18  H   UNL     1      -8.939  18.807  65.058  1.00  0.00     0.000 HD 
BRANCH  17  19
HETATM   19  C   UNL     1      -8.463  19.956  66.701  1.00  0.00    -0.335 C  
HETATM   20  C   UNL     1      -9.891  20.463  66.919  1.00  0.00    -0.572 C  
HETATM   21  C   UNL     1      -7.807  19.684  68.058  1.00  0.00    -0.341 C  
ENDBRANCH  17  19
ENDBRANCH  16  17
ENDBRANCH  13  16
ENDBRANCH  12  13
ENDBRANCH  11  12
ENDBRANCH   8  11
ENDBRANCH   4   5
ENDBRANCH   3   4
ENDBRANCH   2   3
TORSDOF 9
ENDMDL
MODEL      142
REMARK 921   NORMALIZED FREE ENERGY PREDICTED BY IDOCK:   -3.81 KCAL/MOL
REMARK 922        TOTAL FREE ENERGY PREDICTED BY IDOCK:   -6.46 KCAL/MOL
REMARK 923 INTER-LIGAND FREE ENERGY PREDICTED BY IDOCK:   -5.95 KCAL/MOL
REMARK 924 INTRA-LIGAND FREE ENERGY PREDICTED BY IDOCK:   -0.51 KCAL/MOL
REMARK 927      BINDING AFFINITY PREDICTED BY RF-SCORE:    0.00 PKD
ROOT
HETATM    1  C   UNL     1      -8.734   5.855  73.964  1.00  0.00    -0.119 C  
HETATM    2  O   UNL     1      -9.692   6.257  72.991  1.00  0.00    -0.153 OA 
ENDROOT
BRANCH   2   3
HETATM    3  C   UNL     1     -10.132   7.595  73.229  1.00  0.00    -0.334 C  
BRANCH   3   4
HETATM    4  C   UNL     1     -11.553   7.768  72.684  1.00  0.00    -0.398 C  
BRANCH   4   5
HETATM    5  C   UNL     1     -11.678   8.990  71.809  1.00  0.00    -0.440 A  
HETATM    6  C   UNL     1     -10.761   9.188  70.775  1.00  0.00    -0.327 A  
HETATM    7  C   UNL     1     -10.841  10.314  69.960  1.00  0.00    -0.364 A  
HETATM    8  C   UNL     1     -11.845  11.264  70.146  1.00  0.00    -0.364 A  
HETATM    9  C   UNL     1     -12.696   9.935  71.995  1.00  0.00    -0.456 A  
HETATM   10  C   UNL     1     -12.776  11.067  71.168  1.00  0.00    -0.521 A  
BRANCH   8  11
HETATM   11  O   UNL     1     -11.996  12.397  69.384  1.00  0.00    -0.300 OA 
BRANCH  11  12
HETATM   12  C   UNL     1     -11.886  12.182  67.965  1.00  0.00    -0.285 C  
BRANCH  12  13
HETATM   13  C   UNL     1     -10.995  13.239  67.298  1.00  0.00    -0.268 C  
HETATM   14  H   UNL     1     -10.593  15.148  67.555  1.00  0.00     0.000 HD 
HETATM   15  O   UNL     1     -11.144  14.494  67.968  1.00  0.00    -0.259 OA 
BRANCH  13  16
HETATM   16  C   UNL     1      -9.508  12.843  67.271  1.00  0.00    -0.216 C  
BRANCH  16  17
HETATM   17  N   UNL     1      -9.052  12.512  65.918  1.00  0.00    -0.432 NA 
HETATM   18  H   UNL     1      -8.092  12.825  65.777  1.00  0.00     0.000 HD 
BRANCH  17  19
HETATM   19  C   UNL     1      -9.188  11.091  65.577  1.00  0.00    -0.213 C  
HETATM   20  C   UNL     1      -9.971  10.859  64.282  1.00  0.00    -0.392 C  
HETATM   21  C   UNL     1      -7.778  10.512  65.429  1.00  0.00    -0.106 C  
ENDBRANCH  17  19
ENDBRANCH  16  17
ENDBRANCH  13  16
ENDBRANCH  12  13
ENDBRANCH  11  12
ENDBRANCH   8  11
ENDBRANCH   4   5
ENDBRANCH   3   4
ENDBRANCH   2   3
TORSDOF 9
ENDMDL
MODEL      143
REMARK 921   NORMALIZED FREE ENERGY PREDICTED BY IDOCK:   -3.80 KCAL/MOL
REMARK 922        TOTAL FREE ENERGY PREDICTED BY IDOCK:   -6.44 KCAL/MOL
REMARK 923 INTER-LIGAND FREE ENERGY PREDICTED BY IDOCK:   -5.89 KCAL/MOL
REMARK 924 INTRA-LIGAND FREE ENERGY PREDICTED BY IDOCK:   -0.54 KCAL/MOL
REMARK 927      BINDING AFFINITY PREDICTED BY RF-SCORE:    0.00 PKD
ROOT
HETATM    1  C   UNL     1     -12.155  16.223  72.817  1.00  0.00    -0.540 C  
HETATM    2  O   UNL     1     -13.506  15.840  73.052  1.00  0.00    -0.537 OA 
ENDROOT
BRANCH   2   3
HETATM    3  C   UNL     1     -13.972  14.956  72.031  1.00  0.00    -0.491 C  
BRANCH   3   4
HETATM    4  C   UNL     1     -13.733  13.507  72.464  1.00  0.00    -0.664 C  
BRANCH   4   5
HETATM    5  C   UNL     1     -13.005  12.713  71.409  1.00  0.00    -0.353 A  
HETATM    6  C   UNL     1     -13.014  11.318  71.474  1.00  0.00    -0.520 A  
HETATM    7  C   UNL     1     -12.338  10.557  70.525  1.00  0.00    -0.432 A  
HETATM    8  C   UNL     1     -11.648  11.167  69.476  1.00  0.00    -0.321 A  
HETATM    9  C   UNL     1     -12.322  13.331  70.353  1.00  0.00    -0.365 A  
HETATM   10  C   UNL     1     -11.645  12.560  69.394  1.00  0.00    -0.368 A  
BRANCH   8  11
HETATM   11  O   UNL     1     -10.961  10.489  68.498  1.00  0.00    -0.218 OA 
BRANCH  11  12
HETATM   12  C   UNL     1      -9.948   9.593  68.991  1.00  0.00    -0.185 C  
BRANCH  12  13
HETATM   13  C   UNL     1     -10.193   8.150  68.527  1.00  0.00    -0.208 C  
HETATM   14  H   UNL     1     -10.837   7.255  66.898  1.00  0.00     0.000 HD 
HETATM   15  O   UNL     1     -10.686   8.147  67.185  1.00  0.00    -0.316 OA 
BRANCH  13  16
HETATM   16  C   UNL     1      -8.934   7.269  68.614  1.00  0.00    -0.128 C  
BRANCH  16  17
HETATM   17  N   UNL     1      -8.152   7.304  67.375  1.00  0.00    -0.112 NA 
HETATM   18  H   UNL     1      -8.685   7.748  66.627  1.00  0.00     0.000 HD 
BRANCH  17  19
HETATM   19  C   UNL     1      -6.838   7.940  67.520  1.00  0.00    -0.070 C  
HETATM   20  C   UNL     1      -6.406   8.094  68.980  1.00  0.00    -0.040 C  
HETATM   21  C   UNL     1      -5.818   7.072  66.776  1.00  0.00    -0.026 C  
ENDBRANCH  17  19
ENDBRANCH  16  17
ENDBRANCH  13  16
ENDBRANCH  12  13
ENDBRANCH  11  12
ENDBRANCH   8  11
ENDBRANCH   4   5
ENDBRANCH   3   4
ENDBRANCH   2   3
TORSDOF 9
ENDMDL
MODEL      144
REMARK 921   NORMALIZED FREE ENERGY PREDICTED BY IDOCK:   -3.79 KCAL/MOL
REMARK 922        TOTAL FREE ENERGY PREDICTED BY IDOCK:   -6.42 KCAL/MOL
REMARK 923 INTER-LIGAND FREE ENERGY PREDICTED BY IDOCK:   -5.74 KCAL/MOL
REMARK 924 INTRA-LIGAND FREE ENERGY PREDICTED BY IDOCK:   -0.69 KCAL/MOL
REMARK 927      BINDING AFFINITY PREDICTED BY RF-SCORE:    0.00 PKD
ROOT
HETATM    1  C   UNL     1     -10.450   7.100  72.907  1.00  0.00    -0.266 C  
HETATM    2  O   UNL     1      -9.184   7.504  72.395  1.00  0.00    -0.138 OA 
ENDROOT
BRANCH   2   3
HETATM    3  C   UNL     1      -9.338   8.478  71.362  1.00  0.00    -0.211 C  
BRANCH   3   4
HETATM    4  C   UNL     1     -10.651   9.238  71.571  1.00  0.00    -0.405 C  
BRANCH   4   5
HETATM    5  C   UNL     1     -11.051  10.024  70.348  1.00  0.00    -0.393 A  
HETATM    6  C   UNL     1     -10.659   9.572  69.086  1.00  0.00    -0.237 A  
HETATM    7  C   UNL     1     -10.998  10.284  67.939  1.00  0.00    -0.350 A  
HETATM    8  C   UNL     1     -11.750  11.457  68.018  1.00  0.00    -0.254 A  
HETATM    9  C   UNL     1     -11.814  11.196  70.434  1.00  0.00    -0.462 A  
HETATM   10  C   UNL     1     -12.159  11.909  69.274  1.00  0.00    -0.270 A  
BRANCH   8  11
HETATM   11  O   UNL     1     -12.130  12.214  66.937  1.00  0.00    -0.600 OA 
BRANCH  11  12
HETATM   12  C   UNL     1     -11.287  12.066  65.779  1.00  0.00    -0.331 C  
BRANCH  12  13
HETATM   13  C   UNL     1     -10.715  13.413  65.317  1.00  0.00    -0.313 C  
HETATM   14  H   UNL     1     -11.417  15.087  64.556  1.00  0.00     0.000 HD 
HETATM   15  O   UNL     1     -11.771  14.253  64.841  1.00  0.00    -0.359 OA 
BRANCH  13  16
HETATM   16  C   UNL     1      -9.934  14.146  66.423  1.00  0.00    -0.293 C  
BRANCH  16  17
HETATM   17  N   UNL     1      -8.537  13.708  66.490  1.00  0.00    -0.427 NA 
HETATM   18  H   UNL     1      -7.928  14.486  66.743  1.00  0.00     0.000 HD 
BRANCH  17  19
HETATM   19  C   UNL     1      -8.316  12.567  67.387  1.00  0.00    -0.182 C  
HETATM   20  C   UNL     1      -7.654  11.376  66.689  1.00  0.00    -0.119 C  
HETATM   21  C   UNL     1      -7.421  13.045  68.535  1.00  0.00    -0.123 C  
ENDBRANCH  17  19
ENDBRANCH  16  17
ENDBRANCH  13  16
ENDBRANCH  12  13
ENDBRANCH  11  12
ENDBRANCH   8  11
ENDBRANCH   4   5
ENDBRANCH   3   4
ENDBRANCH   2   3
TORSDOF 9
ENDMDL
MODEL      145
REMARK 921   NORMALIZED FREE ENERGY PREDICTED BY IDOCK:   -3.79 KCAL/MOL
REMARK 922        TOTAL FREE ENERGY PREDICTED BY IDOCK:   -6.42 KCAL/MOL
REMARK 923 INTER-LIGAND FREE ENERGY PREDICTED BY IDOCK:   -6.06 KCAL/MOL
REMARK 924 INTRA-LIGAND FREE ENERGY PREDICTED BY IDOCK:   -0.36 KCAL/MOL
REMARK 927      BINDING AFFINITY PREDICTED BY RF-SCORE:    0.00 PKD
ROOT
HETATM    1  C   UNL     1     -10.183  19.400  68.207  1.00  0.00    -0.433 C  
HETATM    2  O   UNL     1     -11.118  19.370  67.133  1.00  0.00    -0.445 OA 
ENDROOT
BRANCH   2   3
HETATM    3  C   UNL     1     -10.530  18.809  65.959  1.00  0.00    -0.432 C  
BRANCH   3   4
HETATM    4  C   UNL     1      -9.371  17.891  66.359  1.00  0.00    -0.268 C  
BRANCH   4   5
HETATM    5  C   UNL     1      -9.688  16.438  66.108  1.00  0.00    -0.355 A  
HETATM    6  C   UNL     1      -8.928  15.453  66.742  1.00  0.00    -0.288 A  
HETATM    7  C   UNL     1      -9.185  14.103  66.519  1.00  0.00    -0.247 A  
HETATM    8  C   UNL     1     -10.216  13.700  65.670  1.00  0.00    -0.304 A  
HETATM    9  C   UNL     1     -10.732  16.040  65.263  1.00  0.00    -0.417 A  
HETATM   10  C   UNL     1     -10.992  14.677  65.043  1.00  0.00    -0.415 A  
BRANCH   8  11
HETATM   11  O   UNL     1     -10.538  12.392  65.401  1.00  0.00    -0.269 OA 
BRANCH  11  12
HETATM   12  C   UNL     1      -9.486  11.449  65.681  1.00  0.00    -0.230 C  
BRANCH  12  13
HETATM   13  C   UNL     1      -9.884  10.021  65.284  1.00  0.00    -0.318 C  
HETATM   14  H   UNL     1      -9.163   8.596  64.133  1.00  0.00     0.000 HD 
HETATM   15  O   UNL     1      -8.917   9.480  64.378  1.00  0.00    -0.224 OA 
BRANCH  13  16
HETATM   16  C   UNL     1     -10.037   9.081  66.493  1.00  0.00    -0.283 C  
BRANCH  16  17
HETATM   17  N   UNL     1      -9.634   7.708  66.176  1.00  0.00    -0.422 NA 
HETATM   18  H   UNL     1      -8.742   7.701  65.682  1.00  0.00     0.000 HD 
BRANCH  17  19
HETATM   19  C   UNL     1      -9.585   6.819  67.343  1.00  0.00    -0.134 C  
HETATM   20  C   UNL     1      -9.001   7.496  68.586  1.00  0.00    -0.132 C  
HETATM   21  C   UNL     1     -11.016   6.360  67.638  1.00  0.00    -0.441 C  
ENDBRANCH  17  19
ENDBRANCH  16  17
ENDBRANCH  13  16
ENDBRANCH  12  13
ENDBRANCH  11  12
ENDBRANCH   8  11
ENDBRANCH   4   5
ENDBRANCH   3   4
ENDBRANCH   2   3
TORSDOF 9
ENDMDL
MODEL      146
REMARK 921   NORMALIZED FREE ENERGY PREDICTED BY IDOCK:   -3.78 KCAL/MOL
REMARK 922        TOTAL FREE ENERGY PREDICTED BY IDOCK:   -6.40 KCAL/MOL
REMARK 923 INTER-LIGAND FREE ENERGY PREDICTED BY IDOCK:   -5.60 KCAL/MOL
REMARK 924 INTRA-LIGAND FREE ENERGY PREDICTED BY IDOCK:   -0.80 KCAL/MOL
REMARK 927      BINDING AFFINITY PREDICTED BY RF-SCORE:    0.00 PKD
ROOT
HETATM    1  C   UNL     1      -8.486   4.085  65.534  1.00  0.00    -0.109 C  
HETATM    2  O   UNL     1      -9.597   4.943  65.296  1.00  0.00    -0.147 OA 
ENDROOT
BRANCH   2   3
HETATM    3  C   UNL     1     -10.153   5.412  66.525  1.00  0.00    -0.216 C  
BRANCH   3   4
HETATM    4  C   UNL     1      -9.227   6.472  67.130  1.00  0.00    -0.134 C  
BRANCH   4   5
HETATM    5  C   UNL     1      -9.444   7.831  66.515  1.00  0.00    -0.262 A  
HETATM    6  C   UNL     1     -10.382   8.697  67.081  1.00  0.00    -0.369 A  
HETATM    7  C   UNL     1     -10.616   9.952  66.527  1.00  0.00    -0.156 A  
HETATM    8  C   UNL     1      -9.913  10.382  65.402  1.00  0.00    -0.295 A  
HETATM    9  C   UNL     1      -8.727   8.261  65.391  1.00  0.00    -0.147 A  
HETATM   10  C   UNL     1      -8.963   9.530  64.837  1.00  0.00    -0.264 A  
BRANCH   8  11
HETATM   11  O   UNL     1     -10.081  11.605  64.798  1.00  0.00    -0.242 OA 
BRANCH  11  12
HETATM   12  C   UNL     1     -11.399  11.831  64.264  1.00  0.00    -0.325 C  
BRANCH  12  13
HETATM   13  C   UNL     1     -11.789  13.314  64.324  1.00  0.00    -0.417 C  
HETATM   14  H   UNL     1     -12.792  14.582  63.201  1.00  0.00     0.000 HD 
HETATM   15  O   UNL     1     -12.550  13.664  63.164  1.00  0.00    -0.792 OA 
BRANCH  13  16
HETATM   16  C   UNL     1     -12.585  13.676  65.591  1.00  0.00    -0.484 C  
BRANCH  16  17
HETATM   17  N   UNL     1     -12.060  13.001  66.781  1.00  0.00    -0.389 NA 
HETATM   18  H   UNL     1     -11.641  12.106  66.530  1.00  0.00     0.000 HD 
BRANCH  17  19
HETATM   19  C   UNL     1     -11.116  13.814  67.557  1.00  0.00    -0.278 C  
HETATM   20  C   UNL     1     -11.524  15.287  67.641  1.00  0.00    -0.287 C  
HETATM   21  C   UNL     1     -11.044  13.224  68.968  1.00  0.00    -0.291 C  
ENDBRANCH  17  19
ENDBRANCH  16  17
ENDBRANCH  13  16
ENDBRANCH  12  13
ENDBRANCH  11  12
ENDBRANCH   8  11
ENDBRANCH   4   5
ENDBRANCH   3   4
ENDBRANCH   2   3
TORSDOF 9
ENDMDL
MODEL      147
REMARK 921   NORMALIZED FREE ENERGY PREDICTED BY IDOCK:   -3.78 KCAL/MOL
REMARK 922        TOTAL FREE ENERGY PREDICTED BY IDOCK:   -6.40 KCAL/MOL
REMARK 923 INTER-LIGAND FREE ENERGY PREDICTED BY IDOCK:   -5.89 KCAL/MOL
REMARK 924 INTRA-LIGAND FREE ENERGY PREDICTED BY IDOCK:   -0.52 KCAL/MOL
REMARK 927      BINDING AFFINITY PREDICTED BY RF-SCORE:    0.00 PKD
ROOT
HETATM    1  C   UNL     1     -10.856  14.590  64.796  1.00  0.00    -0.393 C  
HETATM    2  O   UNL     1     -12.213  14.307  65.124  1.00  0.00    -0.396 OA 
ENDROOT
BRANCH   2   3
HETATM    3  C   UNL     1     -12.421  12.901  65.268  1.00  0.00    -0.493 C  
BRANCH   3   4
HETATM    4  C   UNL     1     -11.127  12.242  65.754  1.00  0.00    -0.362 C  
BRANCH   4   5
HETATM    5  C   UNL     1     -11.234  11.771  67.183  1.00  0.00    -0.375 A  
HETATM    6  C   UNL     1     -10.728  10.517  67.530  1.00  0.00    -0.326 A  
HETATM    7  C   UNL     1     -10.826  10.047  68.836  1.00  0.00    -0.250 A  
HETATM    8  C   UNL     1     -11.417  10.822  69.835  1.00  0.00    -0.321 A  
HETATM    9  C   UNL     1     -11.819  12.559  68.183  1.00  0.00    -0.371 A  
HETATM   10  C   UNL     1     -11.912  12.084  69.501  1.00  0.00    -0.346 A  
BRANCH   8  11
HETATM   11  O   UNL     1     -11.549  10.435  71.146  1.00  0.00    -0.333 OA 
BRANCH  11  12
HETATM   12  C   UNL     1     -11.900   9.050  71.327  1.00  0.00    -0.312 C  
BRANCH  12  13
HETATM   13  C   UNL     1     -11.027   8.378  72.396  1.00  0.00    -0.355 C  
HETATM   14  H   UNL     1     -10.944   6.627  73.290  1.00  0.00     0.000 HD 
HETATM   15  O   UNL     1     -11.484   7.042  72.629  1.00  0.00    -0.267 OA 
BRANCH  13  16
HETATM   16  C   UNL     1      -9.533   8.353  72.024  1.00  0.00    -0.268 C  
BRANCH  16  17
HETATM   17  N   UNL     1      -8.673   8.553  73.194  1.00  0.00    -0.364 NA 
HETATM   18  H   UNL     1      -9.118   8.183  74.034  1.00  0.00     0.000 HD 
BRANCH  17  19
HETATM   19  C   UNL     1      -7.323   8.001  73.039  1.00  0.00    -0.110 C  
HETATM   20  C   UNL     1      -6.398   8.343  74.210  1.00  0.00    -0.150 C  
HETATM   21  C   UNL     1      -7.453   6.479  72.921  1.00  0.00    -0.093 C  
ENDBRANCH  17  19
ENDBRANCH  16  17
ENDBRANCH  13  16
ENDBRANCH  12  13
ENDBRANCH  11  12
ENDBRANCH   8  11
ENDBRANCH   4   5
ENDBRANCH   3   4
ENDBRANCH   2   3
TORSDOF 9
ENDMDL
MODEL      148
REMARK 921   NORMALIZED FREE ENERGY PREDICTED BY IDOCK:   -3.77 KCAL/MOL
REMARK 922        TOTAL FREE ENERGY PREDICTED BY IDOCK:   -6.39 KCAL/MOL
REMARK 923 INTER-LIGAND FREE ENERGY PREDICTED BY IDOCK:   -5.94 KCAL/MOL
REMARK 924 INTRA-LIGAND FREE ENERGY PREDICTED BY IDOCK:   -0.45 KCAL/MOL
REMARK 927      BINDING AFFINITY PREDICTED BY RF-SCORE:    0.00 PKD
ROOT
HETATM    1  C   UNL     1      -8.112   9.269  67.900  1.00  0.00    -0.104 C  
HETATM    2  O   UNL     1      -8.951   8.944  66.797  1.00  0.00    -0.124 OA 
ENDROOT
BRANCH   2   3
HETATM    3  C   UNL     1     -10.307   9.306  67.062  1.00  0.00    -0.255 C  
BRANCH   3   4
HETATM    4  C   UNL     1     -10.629   9.030  68.533  1.00  0.00    -0.196 C  
BRANCH   4   5
HETATM    5  C   UNL     1     -11.199  10.242  69.226  1.00  0.00    -0.281 A  
HETATM    6  C   UNL     1     -11.820  10.092  70.467  1.00  0.00    -0.408 A  
HETATM    7  C   UNL     1     -12.371  11.189  71.125  1.00  0.00    -0.451 A  
HETATM    8  C   UNL     1     -12.305  12.466  70.567  1.00  0.00    -0.262 A  
HETATM    9  C   UNL     1     -11.120  11.524  68.665  1.00  0.00    -0.291 A  
HETATM   10  C   UNL     1     -11.673  12.629  69.333  1.00  0.00    -0.387 A  
BRANCH   8  11
HETATM   11  O   UNL     1     -12.818  13.599  71.151  1.00  0.00    -0.337 OA 
BRANCH  11  12
HETATM   12  C   UNL     1     -12.782  14.770  70.315  1.00  0.00    -0.276 C  
BRANCH  12  13
HETATM   13  C   UNL     1     -11.796  15.818  70.849  1.00  0.00    -0.414 C  
HETATM   14  H   UNL     1     -10.619  16.018  72.414  1.00  0.00     0.000 HD 
HETATM   15  O   UNL     1     -11.229  15.369  72.084  1.00  0.00    -0.404 OA 
BRANCH  13  16
HETATM   16  C   UNL     1     -10.668  16.145  69.854  1.00  0.00    -0.328 C  
BRANCH  16  17
HETATM   17  N   UNL     1     -11.188  16.683  68.593  1.00  0.00    -0.297 NA 
HETATM   18  H   UNL     1     -12.016  17.254  68.761  1.00  0.00     0.000 HD 
BRANCH  17  19
HETATM   19  C   UNL     1     -10.194  17.431  67.813  1.00  0.00    -0.345 C  
HETATM   20  C   UNL     1     -10.618  18.875  67.533  1.00  0.00    -0.524 C  
HETATM   21  C   UNL     1      -8.884  17.430  68.606  1.00  0.00    -0.258 C  
ENDBRANCH  17  19
ENDBRANCH  16  17
ENDBRANCH  13  16
ENDBRANCH  12  13
ENDBRANCH  11  12
ENDBRANCH   8  11
ENDBRANCH   4   5
ENDBRANCH   3   4
ENDBRANCH   2   3
TORSDOF 9
ENDMDL
MODEL      149
REMARK 921   NORMALIZED FREE ENERGY PREDICTED BY IDOCK:   -3.76 KCAL/MOL
REMARK 922        TOTAL FREE ENERGY PREDICTED BY IDOCK:   -6.38 KCAL/MOL
REMARK 923 INTER-LIGAND FREE ENERGY PREDICTED BY IDOCK:   -5.66 KCAL/MOL
REMARK 924 INTRA-LIGAND FREE ENERGY PREDICTED BY IDOCK:   -0.72 KCAL/MOL
REMARK 927      BINDING AFFINITY PREDICTED BY RF-SCORE:    0.00 PKD
ROOT
HETATM    1  C   UNL     1     -12.143  12.967  63.362  1.00  0.00    -0.515 C  
HETATM    2  O   UNL     1     -10.891  12.307  63.517  1.00  0.00    -0.425 OA 
ENDROOT
BRANCH   2   3
HETATM    3  C   UNL     1     -10.896  11.470  64.674  1.00  0.00    -0.310 C  
BRANCH   3   4
HETATM    4  C   UNL     1     -11.224  12.311  65.910  1.00  0.00    -0.381 C  
BRANCH   4   5
HETATM    5  C   UNL     1     -10.016  13.050  66.429  1.00  0.00    -0.277 A  
HETATM    6  C   UNL     1      -9.926  14.431  66.241  1.00  0.00    -0.320 A  
HETATM    7  C   UNL     1      -8.816  15.140  66.693  1.00  0.00    -0.321 A  
HETATM    8  C   UNL     1      -7.774  14.492  67.359  1.00  0.00    -0.192 A  
HETATM    9  C   UNL     1      -8.979  12.396  67.106  1.00  0.00    -0.195 A  
HETATM   10  C   UNL     1      -7.863  13.114  67.565  1.00  0.00    -0.173 A  
BRANCH   8  11
HETATM   11  O   UNL     1      -6.650  15.117  67.840  1.00  0.00    -0.128 OA 
BRANCH  11  12
HETATM   12  C   UNL     1      -6.407  16.422  67.282  1.00  0.00    -0.180 C  
BRANCH  12  13
HETATM   13  C   UNL     1      -6.471  17.519  68.353  1.00  0.00    -0.183 C  
HETATM   14  H   UNL     1      -5.448  19.134  68.819  1.00  0.00     0.000 HD 
HETATM   15  O   UNL     1      -5.409  18.456  68.156  1.00  0.00    -0.167 OA 
BRANCH  13  16
HETATM   16  C   UNL     1      -7.818  18.264  68.371  1.00  0.00    -0.305 C  
BRANCH  16  17
HETATM   17  N   UNL     1      -8.191  18.755  67.041  1.00  0.00    -0.258 NA 
HETATM   18  H   UNL     1      -7.872  18.110  66.318  1.00  0.00     0.000 HD 
BRANCH  17  19
HETATM   19  C   UNL     1      -9.625  19.031  66.892  1.00  0.00    -0.321 C  
HETATM   20  C   UNL     1     -10.507  18.053  67.672  1.00  0.00    -0.422 C  
HETATM   21  C   UNL     1      -9.879  20.456  67.392  1.00  0.00    -0.587 C  
ENDBRANCH  17  19
ENDBRANCH  16  17
ENDBRANCH  13  16
ENDBRANCH  12  13
ENDBRANCH  11  12
ENDBRANCH   8  11
ENDBRANCH   4   5
ENDBRANCH   3   4
ENDBRANCH   2   3
TORSDOF 9
ENDMDL
MODEL      150
REMARK 921   NORMALIZED FREE ENERGY PREDICTED BY IDOCK:   -3.74 KCAL/MOL
REMARK 922        TOTAL FREE ENERGY PREDICTED BY IDOCK:   -6.35 KCAL/MOL
REMARK 923 INTER-LIGAND FREE ENERGY PREDICTED BY IDOCK:   -5.48 KCAL/MOL
REMARK 924 INTRA-LIGAND FREE ENERGY PREDICTED BY IDOCK:   -0.87 KCAL/MOL
REMARK 927      BINDING AFFINITY PREDICTED BY RF-SCORE:    0.00 PKD
ROOT
HETATM    1  C   UNL     1     -10.300  10.679  64.999  1.00  0.00    -0.271 C  
HETATM    2  O   UNL     1      -8.963  10.230  65.196  1.00  0.00    -0.167 OA 
ENDROOT
BRANCH   2   3
HETATM    3  C   UNL     1      -8.812   9.625  66.481  1.00  0.00    -0.142 C  
BRANCH   3   4
HETATM    4  C   UNL     1      -9.061   8.119  66.367  1.00  0.00    -0.226 C  
BRANCH   4   5
HETATM    5  C   UNL     1      -9.660   7.546  67.627  1.00  0.00    -0.171 A  
HETATM    6  C   UNL     1     -10.687   6.605  67.531  1.00  0.00    -0.387 A  
HETATM    7  C   UNL     1     -11.272   6.070  68.675  1.00  0.00    -0.169 A  
HETATM    8  C   UNL     1     -10.839   6.450  69.946  1.00  0.00    -0.310 A  
HETATM    9  C   UNL     1      -9.214   7.924  68.900  1.00  0.00    -0.144 A  
HETATM   10  C   UNL     1      -9.803   7.380  70.053  1.00  0.00    -0.179 A  
BRANCH   8  11
HETATM   11  O   UNL     1     -11.359   5.968  71.123  1.00  0.00    -0.292 OA 
BRANCH  11  12
HETATM   12  C   UNL     1     -11.833   6.983  72.026  1.00  0.00    -0.298 C  
BRANCH  12  13
HETATM   13  C   UNL     1     -13.002   7.776  71.426  1.00  0.00    -0.288 C  
HETATM   14  H   UNL     1     -14.967   7.744  71.536  1.00  0.00     0.000 HD 
HETATM   15  O   UNL     1     -14.244   7.253  71.907  1.00  0.00    -0.370 OA 
BRANCH  13  16
HETATM   16  C   UNL     1     -12.926   9.283  71.729  1.00  0.00    -0.396 C  
BRANCH  16  17
HETATM   17  N   UNL     1     -13.134  10.096  70.528  1.00  0.00    -0.589 NA 
HETATM   18  H   UNL     1     -13.945  10.705  70.643  1.00  0.00     0.000 HD 
BRANCH  17  19
HETATM   19  C   UNL     1     -11.957  10.874  70.127  1.00  0.00    -0.352 C  
HETATM   20  C   UNL     1     -11.654  10.772  68.629  1.00  0.00    -0.342 C  
HETATM   21  C   UNL     1     -12.219  12.337  70.494  1.00  0.00    -0.387 C  
ENDBRANCH  17  19
ENDBRANCH  16  17
ENDBRANCH  13  16
ENDBRANCH  12  13
ENDBRANCH  11  12
ENDBRANCH   8  11
ENDBRANCH   4   5
ENDBRANCH   3   4
ENDBRANCH   2   3
TORSDOF 9
ENDMDL
MODEL      151
REMARK 921   NORMALIZED FREE ENERGY PREDICTED BY IDOCK:   -3.73 KCAL/MOL
REMARK 922        TOTAL FREE ENERGY PREDICTED BY IDOCK:   -6.34 KCAL/MOL
REMARK 923 INTER-LIGAND FREE ENERGY PREDICTED BY IDOCK:   -5.30 KCAL/MOL
REMARK 924 INTRA-LIGAND FREE ENERGY PREDICTED BY IDOCK:   -1.03 KCAL/MOL
REMARK 927      BINDING AFFINITY PREDICTED BY RF-SCORE:    0.00 PKD
ROOT
HETATM    1  C   UNL     1     -11.704  12.435  66.587  1.00  0.00    -0.372 C  
HETATM    2  O   UNL     1     -11.277  12.315  67.940  1.00  0.00    -0.239 OA 
ENDROOT
BRANCH   2   3
HETATM    3  C   UNL     1     -11.885  13.315  68.759  1.00  0.00    -0.334 C  
BRANCH   3   4
HETATM    4  C   UNL     1     -11.759  14.679  68.074  1.00  0.00    -0.371 C  
BRANCH   4   5
HETATM    5  C   UNL     1     -10.377  15.262  68.223  1.00  0.00    -0.234 A  
HETATM    6  C   UNL     1      -9.747  15.823  67.110  1.00  0.00    -0.227 A  
HETATM    7  C   UNL     1      -8.465  16.355  67.211  1.00  0.00    -0.196 A  
HETATM    8  C   UNL     1      -7.782  16.354  68.428  1.00  0.00    -0.177 A  
HETATM    9  C   UNL     1      -9.701  15.267  69.450  1.00  0.00    -0.248 A  
HETATM   10  C   UNL     1      -8.409  15.809  69.550  1.00  0.00    -0.135 A  
BRANCH   8  11
HETATM   11  O   UNL     1      -6.519  16.863  68.613  1.00  0.00    -0.156 OA 
BRANCH  11  12
HETATM   12  C   UNL     1      -6.202  17.992  67.778  1.00  0.00    -0.174 C  
BRANCH  12  13
HETATM   13  C   UNL     1      -6.092  19.288  68.594  1.00  0.00    -0.226 C  
HETATM   14  H   UNL     1      -5.082  20.973  68.483  1.00  0.00     0.000 HD 
HETATM   15  O   UNL     1      -5.150  20.171  67.979  1.00  0.00    -0.175 OA 
BRANCH  13  16
HETATM   16  C   UNL     1      -7.441  20.010  68.761  1.00  0.00    -0.142 C  
BRANCH  16  17
HETATM   17  N   UNL     1      -8.074  20.296  67.470  1.00  0.00    -0.320 NA 
HETATM   18  H   UNL     1      -7.786  19.612  66.770  1.00  0.00     0.000 HD 
BRANCH  17  19
HETATM   19  C   UNL     1      -9.538  20.384  67.534  1.00  0.00    -0.420 C  
HETATM   20  C   UNL     1     -10.227  19.800  66.298  1.00  0.00    -0.615 C  
HETATM   21  C   UNL     1      -9.996  19.621  68.780  1.00  0.00    -0.542 C  
ENDBRANCH  17  19
ENDBRANCH  16  17
ENDBRANCH  13  16
ENDBRANCH  12  13
ENDBRANCH  11  12
ENDBRANCH   8  11
ENDBRANCH   4   5
ENDBRANCH   3   4
ENDBRANCH   2   3
TORSDOF 9
ENDMDL
MODEL      152
REMARK 921   NORMALIZED FREE ENERGY PREDICTED BY IDOCK:   -3.72 KCAL/MOL
REMARK 922        TOTAL FREE ENERGY PREDICTED BY IDOCK:   -6.32 KCAL/MOL
REMARK 923 INTER-LIGAND FREE ENERGY PREDICTED BY IDOCK:   -4.97 KCAL/MOL
REMARK 924 INTRA-LIGAND FREE ENERGY PREDICTED BY IDOCK:   -1.35 KCAL/MOL
REMARK 927      BINDING AFFINITY PREDICTED BY RF-SCORE:    0.00 PKD
ROOT
HETATM    1  C   UNL     1     -13.386  12.313  72.064  1.00  0.00    -0.386 C  
HETATM    2  O   UNL     1     -12.647  11.693  71.016  1.00  0.00    -0.378 OA 
ENDROOT
BRANCH   2   3
HETATM    3  C   UNL     1     -13.016  10.321  70.874  1.00  0.00    -0.371 C  
BRANCH   3   4
HETATM    4  C   UNL     1     -12.741   9.580  72.185  1.00  0.00    -0.442 C  
BRANCH   4   5
HETATM    5  C   UNL     1     -11.805   8.414  71.991  1.00  0.00    -0.417 A  
HETATM    6  C   UNL     1     -10.442   8.581  72.243  1.00  0.00    -0.402 A  
HETATM    7  C   UNL     1      -9.550   7.528  72.058  1.00  0.00    -0.189 A  
HETATM    8  C   UNL     1      -9.996   6.277  71.630  1.00  0.00    -0.179 A  
HETATM    9  C   UNL     1     -12.261   7.157  71.572  1.00  0.00    -0.396 A  
HETATM   10  C   UNL     1     -11.360   6.096  71.390  1.00  0.00    -0.336 A  
BRANCH   8  11
HETATM   11  O   UNL     1      -9.184   5.187  71.428  1.00  0.00    -0.141 OA 
BRANCH  11  12
HETATM   12  C   UNL     1      -9.848   4.048  70.850  1.00  0.00    -0.159 C  
BRANCH  12  13
HETATM   13  C   UNL     1      -9.089   3.509  69.630  1.00  0.00    -0.135 C  
HETATM   14  H   UNL     1      -8.965   1.804  68.653  1.00  0.00     0.000 HD 
HETATM   15  O   UNL     1      -9.435   2.138  69.408  1.00  0.00    -0.115 OA 
BRANCH  13  16
HETATM   16  C   UNL     1      -9.356   4.319  68.349  1.00  0.00    -0.153 C  
BRANCH  16  17
HETATM   17  N   UNL     1      -8.672   5.616  68.367  1.00  0.00    -0.110 NA 
HETATM   18  H   UNL     1      -7.743   5.537  67.956  1.00  0.00     0.000 HD 
BRANCH  17  19
HETATM   19  C   UNL     1      -9.431   6.696  67.726  1.00  0.00    -0.120 C  
HETATM   20  C   UNL     1     -10.947   6.488  67.800  1.00  0.00    -0.407 C  
HETATM   21  C   UNL     1      -9.062   8.005  68.429  1.00  0.00    -0.136 C  
ENDBRANCH  17  19
ENDBRANCH  16  17
ENDBRANCH  13  16
ENDBRANCH  12  13
ENDBRANCH  11  12
ENDBRANCH   8  11
ENDBRANCH   4   5
ENDBRANCH   3   4
ENDBRANCH   2   3
TORSDOF 9
ENDMDL
MODEL      153
REMARK 921   NORMALIZED FREE ENERGY PREDICTED BY IDOCK:   -3.69 KCAL/MOL
REMARK 922        TOTAL FREE ENERGY PREDICTED BY IDOCK:   -6.28 KCAL/MOL
REMARK 923 INTER-LIGAND FREE ENERGY PREDICTED BY IDOCK:   -5.39 KCAL/MOL
REMARK 924 INTRA-LIGAND FREE ENERGY PREDICTED BY IDOCK:   -0.88 KCAL/MOL
REMARK 927      BINDING AFFINITY PREDICTED BY RF-SCORE:    0.00 PKD
ROOT
HETATM    1  C   UNL     1     -12.479  12.381  63.467  1.00  0.00    -0.500 C  
HETATM    2  O   UNL     1     -12.522  13.612  64.180  1.00  0.00    -0.635 OA 
ENDROOT
BRANCH   2   3
HETATM    3  C   UNL     1     -11.345  13.785  64.971  1.00  0.00    -0.328 C  
BRANCH   3   4
HETATM    4  C   UNL     1     -11.744  14.120  66.411  1.00  0.00    -0.404 C  
BRANCH   4   5
HETATM    5  C   UNL     1     -11.636  12.923  67.322  1.00  0.00    -0.416 A  
HETATM    6  C   UNL     1     -11.886  13.077  68.687  1.00  0.00    -0.353 A  
HETATM    7  C   UNL     1     -11.779  11.995  69.556  1.00  0.00    -0.408 A  
HETATM    8  C   UNL     1     -11.433  10.728  69.085  1.00  0.00    -0.298 A  
HETATM    9  C   UNL     1     -11.299  11.651  66.840  1.00  0.00    -0.364 A  
HETATM   10  C   UNL     1     -11.196  10.561  67.719  1.00  0.00    -0.344 A  
BRANCH   8  11
HETATM   11  O   UNL     1     -11.311   9.610  69.874  1.00  0.00    -0.230 OA 
BRANCH  11  12
HETATM   12  C   UNL     1     -10.236   9.669  70.830  1.00  0.00    -0.260 C  
BRANCH  12  13
HETATM   13  C   UNL     1      -8.994   8.917  70.333  1.00  0.00    -0.182 C  
HETATM   14  H   UNL     1      -8.617   7.384  69.158  1.00  0.00     0.000 HD 
HETATM   15  O   UNL     1      -9.385   7.849  69.465  1.00  0.00    -0.156 OA 
BRANCH  13  16
HETATM   16  C   UNL     1      -7.989   9.828  69.606  1.00  0.00    -0.150 C  
BRANCH  16  17
HETATM   17  N   UNL     1      -7.916   9.531  68.173  1.00  0.00    -0.094 NA 
HETATM   18  H   UNL     1      -8.837   9.611  67.742  1.00  0.00     0.000 HD 
BRANCH  17  19
HETATM   19  C   UNL     1      -6.934  10.346  67.447  1.00  0.00    -0.085 C  
HETATM   20  C   UNL     1      -7.456  11.743  67.099  1.00  0.00    -0.149 C  
HETATM   21  C   UNL     1      -5.691  10.473  68.332  1.00  0.00    -0.036 C  
ENDBRANCH  17  19
ENDBRANCH  16  17
ENDBRANCH  13  16
ENDBRANCH  12  13
ENDBRANCH  11  12
ENDBRANCH   8  11
ENDBRANCH   4   5
ENDBRANCH   3   4
ENDBRANCH   2   3
TORSDOF 9
ENDMDL
MODEL      154
REMARK 921   NORMALIZED FREE ENERGY PREDICTED BY IDOCK:   -3.69 KCAL/MOL
REMARK 922        TOTAL FREE ENERGY PREDICTED BY IDOCK:   -6.27 KCAL/MOL
REMARK 923 INTER-LIGAND FREE ENERGY PREDICTED BY IDOCK:   -5.54 KCAL/MOL
REMARK 924 INTRA-LIGAND FREE ENERGY PREDICTED BY IDOCK:   -0.73 KCAL/MOL
REMARK 927      BINDING AFFINITY PREDICTED BY RF-SCORE:    0.00 PKD
ROOT
HETATM    1  C   UNL     1     -11.492   2.025  73.617  1.00  0.00    -0.213 C  
HETATM    2  O   UNL     1     -10.129   2.012  73.205  1.00  0.00    -0.095 OA 
ENDROOT
BRANCH   2   3
HETATM    3  C   UNL     1      -9.977   2.619  71.922  1.00  0.00    -0.142 C  
BRANCH   3   4
HETATM    4  C   UNL     1      -9.018   3.808  72.032  1.00  0.00    -0.147 C  
BRANCH   4   5
HETATM    5  C   UNL     1      -9.663   5.099  71.594  1.00  0.00    -0.217 A  
HETATM    6  C   UNL     1     -10.965   5.389  72.009  1.00  0.00    -0.244 A  
HETATM    7  C   UNL     1     -11.594   6.564  71.609  1.00  0.00    -0.357 A  
HETATM    8  C   UNL     1     -10.937   7.488  70.795  1.00  0.00    -0.252 A  
HETATM    9  C   UNL     1      -8.994   6.027  70.786  1.00  0.00    -0.153 A  
HETATM   10  C   UNL     1      -9.631   7.214  70.387  1.00  0.00    -0.169 A  
BRANCH   8  11
HETATM   11  O   UNL     1     -11.484   8.671  70.361  1.00  0.00    -0.239 OA 
BRANCH  11  12
HETATM   12  C   UNL     1     -11.704   9.643  71.399  1.00  0.00    -0.404 C  
BRANCH  12  13
HETATM   13  C   UNL     1     -12.710  10.719  70.965  1.00  0.00    -0.415 C  
HETATM   14  H   UNL     1     -13.688  12.199  71.818  1.00  0.00     0.000 HD 
HETATM   15  O   UNL     1     -13.065  11.533  72.086  1.00  0.00    -0.466 OA 
BRANCH  13  16
HETATM   16  C   UNL     1     -12.184  11.611  69.827  1.00  0.00    -0.219 C  
BRANCH  16  17
HETATM   17  N   UNL     1     -12.247  10.937  68.527  1.00  0.00    -0.809 NA 
HETATM   18  H   UNL     1     -13.156  11.085  68.090  1.00  0.00     0.000 HD 
BRANCH  17  19
HETATM   19  C   UNL     1     -11.166  11.316  67.609  1.00  0.00    -0.292 C  
HETATM   20  C   UNL     1     -10.509  10.111  66.929  1.00  0.00    -0.286 C  
HETATM   21  C   UNL     1     -11.762  12.239  66.544  1.00  0.00    -0.420 C  
ENDBRANCH  17  19
ENDBRANCH  16  17
ENDBRANCH  13  16
ENDBRANCH  12  13
ENDBRANCH  11  12
ENDBRANCH   8  11
ENDBRANCH   4   5
ENDBRANCH   3   4
ENDBRANCH   2   3
TORSDOF 9
ENDMDL
MODEL      155
REMARK 921   NORMALIZED FREE ENERGY PREDICTED BY IDOCK:   -3.68 KCAL/MOL
REMARK 922        TOTAL FREE ENERGY PREDICTED BY IDOCK:   -6.26 KCAL/MOL
REMARK 923 INTER-LIGAND FREE ENERGY PREDICTED BY IDOCK:   -5.76 KCAL/MOL
REMARK 924 INTRA-LIGAND FREE ENERGY PREDICTED BY IDOCK:   -0.49 KCAL/MOL
REMARK 927      BINDING AFFINITY PREDICTED BY RF-SCORE:    0.00 PKD
ROOT
HETATM    1  C   UNL     1     -11.600  15.855  68.865  1.00  0.00    -0.388 C  
HETATM    2  O   UNL     1     -10.954  14.753  68.237  1.00  0.00    -0.244 OA 
ENDROOT
BRANCH   2   3
HETATM    3  C   UNL     1     -11.812  14.138  67.275  1.00  0.00    -0.419 C  
BRANCH   3   4
HETATM    4  C   UNL     1     -10.964  13.416  66.224  1.00  0.00    -0.296 C  
BRANCH   4   5
HETATM    5  C   UNL     1     -10.788  11.953  66.547  1.00  0.00    -0.317 A  
HETATM    6  C   UNL     1     -10.059  11.143  65.674  1.00  0.00    -0.304 A  
HETATM    7  C   UNL     1      -9.892   9.786  65.936  1.00  0.00    -0.352 A  
HETATM    8  C   UNL     1     -10.436   9.204  67.081  1.00  0.00    -0.255 A  
HETATM    9  C   UNL     1     -11.328  11.378  67.705  1.00  0.00    -0.359 A  
HETATM   10  C   UNL     1     -11.154  10.009  67.968  1.00  0.00    -0.263 A  
BRANCH   8  11
HETATM   11  O   UNL     1     -10.313   7.877  67.414  1.00  0.00    -0.228 OA 
BRANCH  11  12
HETATM   12  C   UNL     1     -10.143   7.628  68.822  1.00  0.00    -0.194 C  
BRANCH  12  13
HETATM   13  C   UNL     1     -11.132   6.572  69.335  1.00  0.00    -0.348 C  
HETATM   14  H   UNL     1     -11.141   4.623  69.604  1.00  0.00     0.000 HD 
HETATM   15  O   UNL     1     -10.529   5.276  69.287  1.00  0.00    -0.239 OA 
BRANCH  13  16
HETATM   16  C   UNL     1     -11.627   6.856  70.765  1.00  0.00    -0.349 C  
BRANCH  16  17
HETATM   17  N   UNL     1     -10.533   6.835  71.739  1.00  0.00    -0.207 NA 
HETATM   18  H   UNL     1      -9.651   6.598  71.284  1.00  0.00     0.000 HD 
BRANCH  17  19
HETATM   19  C   UNL     1     -10.399   8.078  72.508  1.00  0.00    -0.306 C  
HETATM   20  C   UNL     1      -8.949   8.557  72.625  1.00  0.00    -0.243 C  
HETATM   21  C   UNL     1     -11.234   9.152  71.804  1.00  0.00    -0.451 C  
ENDBRANCH  17  19
ENDBRANCH  16  17
ENDBRANCH  13  16
ENDBRANCH  12  13
ENDBRANCH  11  12
ENDBRANCH   8  11
ENDBRANCH   4   5
ENDBRANCH   3   4
ENDBRANCH   2   3
TORSDOF 9
ENDMDL
MODEL      156
REMARK 921   NORMALIZED FREE ENERGY PREDICTED BY IDOCK:   -3.68 KCAL/MOL
REMARK 922        TOTAL FREE ENERGY PREDICTED BY IDOCK:   -6.26 KCAL/MOL
REMARK 923 INTER-LIGAND FREE ENERGY PREDICTED BY IDOCK:   -5.52 KCAL/MOL
REMARK 924 INTRA-LIGAND FREE ENERGY PREDICTED BY IDOCK:   -0.74 KCAL/MOL
REMARK 927      BINDING AFFINITY PREDICTED BY RF-SCORE:    0.00 PKD
ROOT
HETATM    1  C   UNL     1     -10.456  16.174  65.565  1.00  0.00    -0.386 C  
HETATM    2  O   UNL     1     -10.590  15.063  64.685  1.00  0.00    -0.348 OA 
ENDROOT
BRANCH   2   3
HETATM    3  C   UNL     1     -11.965  14.738  64.478  1.00  0.00    -0.440 C  
BRANCH   3   4
HETATM    4  C   UNL     1     -12.074  13.318  63.916  1.00  0.00    -0.531 C  
BRANCH   4   5
HETATM    5  C   UNL     1     -11.441  12.298  64.828  1.00  0.00    -0.382 A  
HETATM    6  C   UNL     1     -10.523  11.386  64.303  1.00  0.00    -0.401 A  
HETATM    7  C   UNL     1      -9.934  10.422  65.116  1.00  0.00    -0.390 A  
HETATM    8  C   UNL     1     -10.234  10.350  66.477  1.00  0.00    -0.229 A  
HETATM    9  C   UNL     1     -11.739  12.238  66.196  1.00  0.00    -0.440 A  
HETATM   10  C   UNL     1     -11.139  11.267  67.015  1.00  0.00    -0.356 A  
BRANCH   8  11
HETATM   11  O   UNL     1      -9.693   9.434  67.347  1.00  0.00    -0.147 OA 
BRANCH  11  12
HETATM   12  C   UNL     1     -10.655   8.771  68.188  1.00  0.00    -0.147 C  
BRANCH  12  13
HETATM   13  C   UNL     1     -10.284   8.887  69.673  1.00  0.00    -0.206 C  
HETATM   14  H   UNL     1     -11.216   8.751  71.401  1.00  0.00     0.000 HD 
HETATM   15  O   UNL     1     -11.446   8.680  70.483  1.00  0.00    -0.260 OA 
BRANCH  13  16
HETATM   16  C   UNL     1      -9.180   7.901  70.096  1.00  0.00    -0.153 C  
BRANCH  16  17
HETATM   17  N   UNL     1      -8.825   6.978  69.015  1.00  0.00    -0.135 NA 
HETATM   18  H   UNL     1      -7.923   7.229  68.610  1.00  0.00     0.000 HD 
BRANCH  17  19
HETATM   19  C   UNL     1      -8.837   5.565  69.413  1.00  0.00    -0.106 C  
HETATM   20  C   UNL     1     -10.203   5.099  69.923  1.00  0.00    -0.361 C  
HETATM   21  C   UNL     1      -8.440   4.734  68.189  1.00  0.00    -0.102 C  
ENDBRANCH  17  19
ENDBRANCH  16  17
ENDBRANCH  13  16
ENDBRANCH  12  13
ENDBRANCH  11  12
ENDBRANCH   8  11
ENDBRANCH   4   5
ENDBRANCH   3   4
ENDBRANCH   2   3
TORSDOF 9
ENDMDL
MODEL      157
REMARK 921   NORMALIZED FREE ENERGY PREDICTED BY IDOCK:   -3.67 KCAL/MOL
REMARK 922        TOTAL FREE ENERGY PREDICTED BY IDOCK:   -6.23 KCAL/MOL
REMARK 923 INTER-LIGAND FREE ENERGY PREDICTED BY IDOCK:   -5.37 KCAL/MOL
REMARK 924 INTRA-LIGAND FREE ENERGY PREDICTED BY IDOCK:   -0.86 KCAL/MOL
REMARK 927      BINDING AFFINITY PREDICTED BY RF-SCORE:    0.00 PKD
ROOT
HETATM    1  C   UNL     1      -8.809   4.291  65.701  1.00  0.00    -0.123 C  
HETATM    2  O   UNL     1      -8.342   5.118  66.762  1.00  0.00    -0.108 OA 
ENDROOT
BRANCH   2   3
HETATM    3  C   UNL     1      -7.514   6.169  66.264  1.00  0.00    -0.086 C  
BRANCH   3   4
HETATM    4  C   UNL     1      -8.149   6.763  65.003  1.00  0.00    -0.126 C  
BRANCH   4   5
HETATM    5  C   UNL     1      -8.644   8.170  65.227  1.00  0.00    -0.132 A  
HETATM    6  C   UNL     1      -8.528   9.108  64.199  1.00  0.00    -0.198 A  
HETATM    7  C   UNL     1      -8.960  10.418  64.380  1.00  0.00    -0.247 A  
HETATM    8  C   UNL     1      -9.532  10.825  65.586  1.00  0.00    -0.209 A  
HETATM    9  C   UNL     1      -9.226   8.569  66.438  1.00  0.00    -0.251 A  
HETATM   10  C   UNL     1      -9.665   9.891  66.615  1.00  0.00    -0.252 A  
BRANCH   8  11
HETATM   11  O   UNL     1      -9.987  12.096  65.843  1.00  0.00    -0.236 OA 
BRANCH  11  12
HETATM   12  C   UNL     1     -11.236  12.422  65.208  1.00  0.00    -0.318 C  
BRANCH  12  13
HETATM   13  C   UNL     1     -11.831  13.725  65.760  1.00  0.00    -0.372 C  
HETATM   14  H   UNL     1     -13.544  14.686  65.641  1.00  0.00     0.000 HD 
HETATM   15  O   UNL     1     -13.176  13.880  65.299  1.00  0.00    -0.774 OA 
BRANCH  13  16
HETATM   16  C   UNL     1     -11.802  13.796  67.297  1.00  0.00    -0.401 C  
BRANCH  16  17
HETATM   17  N   UNL     1     -12.145  12.511  67.912  1.00  0.00    -0.373 NA 
HETATM   18  H   UNL     1     -11.880  11.738  67.301  1.00  0.00     0.000 HD 
BRANCH  17  19
HETATM   19  C   UNL     1     -11.579  12.325  69.254  1.00  0.00    -0.324 C  
HETATM   20  C   UNL     1     -12.103  13.344  70.270  1.00  0.00    -0.419 C  
HETATM   21  C   UNL     1     -11.940  10.911  69.719  1.00  0.00    -0.423 C  
ENDBRANCH  17  19
ENDBRANCH  16  17
ENDBRANCH  13  16
ENDBRANCH  12  13
ENDBRANCH  11  12
ENDBRANCH   8  11
ENDBRANCH   4   5
ENDBRANCH   3   4
ENDBRANCH   2   3
TORSDOF 9
ENDMDL
MODEL      158
REMARK 921   NORMALIZED FREE ENERGY PREDICTED BY IDOCK:   -3.66 KCAL/MOL
REMARK 922        TOTAL FREE ENERGY PREDICTED BY IDOCK:   -6.22 KCAL/MOL
REMARK 923 INTER-LIGAND FREE ENERGY PREDICTED BY IDOCK:   -5.81 KCAL/MOL
REMARK 924 INTRA-LIGAND FREE ENERGY PREDICTED BY IDOCK:   -0.41 KCAL/MOL
REMARK 927      BINDING AFFINITY PREDICTED BY RF-SCORE:    0.00 PKD
ROOT
HETATM    1  C   UNL     1      -7.893   3.930  73.500  1.00  0.00    -0.083 C  
HETATM    2  O   UNL     1      -9.182   4.346  73.940  1.00  0.00    -0.107 OA 
ENDROOT
BRANCH   2   3
HETATM    3  C   UNL     1     -10.200   3.872  73.059  1.00  0.00    -0.160 C  
BRANCH   3   4
HETATM    4  C   UNL     1     -11.394   4.830  73.099  1.00  0.00    -0.380 C  
BRANCH   4   5
HETATM    5  C   UNL     1     -11.105   6.125  72.381  1.00  0.00    -0.316 A  
HETATM    6  C   UNL     1     -11.137   6.156  70.985  1.00  0.00    -0.359 A  
HETATM    7  C   UNL     1     -10.859   7.331  70.293  1.00  0.00    -0.264 A  
HETATM    8  C   UNL     1     -10.556   8.510  70.975  1.00  0.00    -0.216 A  
HETATM    9  C   UNL     1     -10.812   7.308  73.072  1.00  0.00    -0.399 A  
HETATM   10  C   UNL     1     -10.537   8.493  72.371  1.00  0.00    -0.368 A  
BRANCH   8  11
HETATM   11  O   UNL     1     -10.275   9.710  70.369  1.00  0.00    -0.255 OA 
BRANCH  11  12
HETATM   12  C   UNL     1     -11.030   9.964  69.170  1.00  0.00    -0.200 C  
BRANCH  12  13
HETATM   13  C   UNL     1     -12.042  11.102  69.366  1.00  0.00    -0.326 C  
HETATM   14  H   UNL     1     -12.604  12.287  70.833  1.00  0.00     0.000 HD 
HETATM   15  O   UNL     1     -11.978  11.583  70.712  1.00  0.00    -0.344 OA 
BRANCH  13  16
HETATM   16  C   UNL     1     -11.826  12.273  68.391  1.00  0.00    -0.304 C  
BRANCH  16  17
HETATM   17  N   UNL     1     -11.763  11.823  66.997  1.00  0.00    -0.594 NA 
HETATM   18  H   UNL     1     -12.623  11.340  66.737  1.00  0.00     0.000 HD 
BRANCH  17  19
HETATM   19  C   UNL     1     -11.462  12.894  66.040  1.00  0.00    -0.340 C  
HETATM   20  C   UNL     1     -10.993  12.367  64.681  1.00  0.00    -0.344 C  
HETATM   21  C   UNL     1     -12.737  13.721  65.853  1.00  0.00    -0.452 C  
ENDBRANCH  17  19
ENDBRANCH  16  17
ENDBRANCH  13  16
ENDBRANCH  12  13
ENDBRANCH  11  12
ENDBRANCH   8  11
ENDBRANCH   4   5
ENDBRANCH   3   4
ENDBRANCH   2   3
TORSDOF 9
ENDMDL
MODEL      159
REMARK 921   NORMALIZED FREE ENERGY PREDICTED BY IDOCK:   -3.66 KCAL/MOL
REMARK 922        TOTAL FREE ENERGY PREDICTED BY IDOCK:   -6.22 KCAL/MOL
REMARK 923 INTER-LIGAND FREE ENERGY PREDICTED BY IDOCK:   -5.28 KCAL/MOL
REMARK 924 INTRA-LIGAND FREE ENERGY PREDICTED BY IDOCK:   -0.94 KCAL/MOL
REMARK 927      BINDING AFFINITY PREDICTED BY RF-SCORE:    0.00 PKD
ROOT
HETATM    1  C   UNL     1      -7.103   2.820  68.263  1.00  0.00    -0.049 C  
HETATM    2  O   UNL     1      -8.304   3.582  68.330  1.00  0.00    -0.080 OA 
ENDROOT
BRANCH   2   3
HETATM    3  C   UNL     1      -8.610   3.938  69.678  1.00  0.00    -0.069 C  
BRANCH   3   4
HETATM    4  C   UNL     1     -10.013   4.547  69.739  1.00  0.00    -0.268 C  
BRANCH   4   5
HETATM    5  C   UNL     1     -10.082   5.881  69.038  1.00  0.00    -0.237 A  
HETATM    6  C   UNL     1     -10.865   6.010  67.889  1.00  0.00    -0.378 A  
HETATM    7  C   UNL     1     -10.937   7.223  67.210  1.00  0.00    -0.284 A  
HETATM    8  C   UNL     1     -10.240   8.343  67.666  1.00  0.00    -0.236 A  
HETATM    9  C   UNL     1      -9.389   7.004  69.507  1.00  0.00    -0.148 A  
HETATM   10  C   UNL     1      -9.466   8.227  68.822  1.00  0.00    -0.148 A  
BRANCH   8  11
HETATM   11  O   UNL     1     -10.261   9.574  67.058  1.00  0.00    -0.224 OA 
BRANCH  11  12
HETATM   12  C   UNL     1      -9.905  10.671  67.920  1.00  0.00    -0.161 C  
BRANCH  12  13
HETATM   13  C   UNL     1     -10.975  11.772  67.909  1.00  0.00    -0.221 C  
HETATM   14  H   UNL     1     -12.479  12.302  66.756  1.00  0.00     0.000 HD 
HETATM   15  O   UNL     1     -11.818  11.621  66.763  1.00  0.00    -0.557 OA 
BRANCH  13  16
HETATM   16  C   UNL     1     -11.838  11.786  69.183  1.00  0.00    -0.326 C  
BRANCH  16  17
HETATM   17  N   UNL     1     -12.518  10.506  69.399  1.00  0.00    -0.693 NA 
HETATM   18  H   UNL     1     -12.006   9.747  68.949  1.00  0.00     0.000 HD 
BRANCH  17  19
HETATM   19  C   UNL     1     -12.764  10.195  70.812  1.00  0.00    -0.311 C  
HETATM   20  C   UNL     1     -11.545   9.589  71.513  1.00  0.00    -0.465 C  
HETATM   21  C   UNL     1     -13.157  11.499  71.513  1.00  0.00    -0.429 C  
ENDBRANCH  17  19
ENDBRANCH  16  17
ENDBRANCH  13  16
ENDBRANCH  12  13
ENDBRANCH  11  12
ENDBRANCH   8  11
ENDBRANCH   4   5
ENDBRANCH   3   4
ENDBRANCH   2   3
TORSDOF 9
ENDMDL
MODEL      160
REMARK 921   NORMALIZED FREE ENERGY PREDICTED BY IDOCK:   -3.65 KCAL/MOL
REMARK 922        TOTAL FREE ENERGY PREDICTED BY IDOCK:   -6.21 KCAL/MOL
REMARK 923 INTER-LIGAND FREE ENERGY PREDICTED BY IDOCK:   -5.44 KCAL/MOL
REMARK 924 INTRA-LIGAND FREE ENERGY PREDICTED BY IDOCK:   -0.77 KCAL/MOL
REMARK 927      BINDING AFFINITY PREDICTED BY RF-SCORE:    0.00 PKD
ROOT
HETATM    1  C   UNL     1      -9.047   2.829  64.563  1.00  0.00    -0.125 C  
HETATM    2  O   UNL     1      -9.443   3.052  65.912  1.00  0.00    -0.115 OA 
ENDROOT
BRANCH   2   3
HETATM    3  C   UNL     1      -9.919   4.387  66.090  1.00  0.00    -0.238 C  
BRANCH   3   4
HETATM    4  C   UNL     1      -8.727   5.340  66.215  1.00  0.00    -0.122 C  
BRANCH   4   5
HETATM    5  C   UNL     1      -9.158   6.785  66.240  1.00  0.00    -0.165 A  
HETATM    6  C   UNL     1      -8.468   7.718  65.463  1.00  0.00    -0.146 A  
HETATM    7  C   UNL     1      -8.830   9.062  65.476  1.00  0.00    -0.233 A  
HETATM    8  C   UNL     1      -9.900   9.508  66.253  1.00  0.00    -0.266 A  
HETATM    9  C   UNL     1     -10.239   7.225  67.014  1.00  0.00    -0.348 A  
HETATM   10  C   UNL     1     -10.606   8.581  67.022  1.00  0.00    -0.305 A  
BRANCH   8  11
HETATM   11  O   UNL     1     -10.324  10.813  66.318  1.00  0.00    -0.241 OA 
BRANCH  11  12
HETATM   12  C   UNL     1     -10.371  11.360  67.649  1.00  0.00    -0.183 C  
BRANCH  12  13
HETATM   13  C   UNL     1     -11.678  12.124  67.904  1.00  0.00    -0.336 C  
HETATM   14  H   UNL     1     -12.480  13.146  69.382  1.00  0.00     0.000 HD 
HETATM   15  O   UNL     1     -11.672  12.673  69.225  1.00  0.00    -0.292 OA 
BRANCH  13  16
HETATM   16  C   UNL     1     -11.927  13.247  66.881  1.00  0.00    -0.375 C  
BRANCH  16  17
HETATM   17  N   UNL     1     -12.588  12.751  65.671  1.00  0.00    -0.568 NA 
HETATM   18  H   UNL     1     -13.599  12.860  65.743  1.00  0.00     0.000 HD 
BRANCH  17  19
HETATM   19  C   UNL     1     -12.090  13.360  64.431  1.00  0.00    -0.416 C  
HETATM   20  C   UNL     1     -10.897  14.292  64.659  1.00  0.00    -0.384 C  
HETATM   21  C   UNL     1     -11.676  12.225  63.490  1.00  0.00    -0.584 C  
ENDBRANCH  17  19
ENDBRANCH  16  17
ENDBRANCH  13  16
ENDBRANCH  12  13
ENDBRANCH  11  12
ENDBRANCH   8  11
ENDBRANCH   4   5
ENDBRANCH   3   4
ENDBRANCH   2   3
TORSDOF 9
ENDMDL
MODEL      161
REMARK 921   NORMALIZED FREE ENERGY PREDICTED BY IDOCK:   -3.65 KCAL/MOL
REMARK 922        TOTAL FREE ENERGY PREDICTED BY IDOCK:   -6.20 KCAL/MOL
REMARK 923 INTER-LIGAND FREE ENERGY PREDICTED BY IDOCK:   -5.55 KCAL/MOL
REMARK 924 INTRA-LIGAND FREE ENERGY PREDICTED BY IDOCK:   -0.65 KCAL/MOL
REMARK 927      BINDING AFFINITY PREDICTED BY RF-SCORE:    0.00 PKD
ROOT
HETATM    1  C   UNL     1     -12.958  15.616  73.381  1.00  0.00    -0.559 C  
HETATM    2  O   UNL     1     -12.842  16.102  72.048  1.00  0.00    -0.409 OA 
ENDROOT
BRANCH   2   3
HETATM    3  C   UNL     1     -13.042  15.051  71.101  1.00  0.00    -0.415 C  
BRANCH   3   4
HETATM    4  C   UNL     1     -13.734  13.871  71.790  1.00  0.00    -0.461 C  
BRANCH   4   5
HETATM    5  C   UNL     1     -13.119  12.550  71.402  1.00  0.00    -0.303 A  
HETATM    6  C   UNL     1     -13.485  11.395  72.097  1.00  0.00    -0.203 A  
HETATM    7  C   UNL     1     -12.923  10.163  71.774  1.00  0.00    -0.567 A  
HETATM    8  C   UNL     1     -11.994  10.048  70.740  1.00  0.00    -0.335 A  
HETATM    9  C   UNL     1     -12.194  12.439  70.356  1.00  0.00    -0.370 A  
HETATM   10  C   UNL     1     -11.633  11.194  70.029  1.00  0.00    -0.421 A  
BRANCH   8  11
HETATM   11  O   UNL     1     -11.398   8.871  70.355  1.00  0.00    -0.257 OA 
BRANCH  11  12
HETATM   12  C   UNL     1     -10.024   8.736  70.765  1.00  0.00    -0.213 C  
BRANCH  12  13
HETATM   13  C   UNL     1      -9.114   8.364  69.586  1.00  0.00    -0.153 C  
HETATM   14  H   UNL     1      -9.275   7.337  67.915  1.00  0.00     0.000 HD 
HETATM   15  O   UNL     1      -9.838   7.566  68.645  1.00  0.00    -0.158 OA 
BRANCH  13  16
HETATM   16  C   UNL     1      -8.523   9.592  68.872  1.00  0.00    -0.125 C  
BRANCH  16  17
HETATM   17  N   UNL     1      -7.833  10.490  69.804  1.00  0.00    -0.348 NA 
HETATM   18  H   UNL     1      -7.131   9.980  70.340  1.00  0.00     0.000 HD 
BRANCH  17  19
HETATM   19  C   UNL     1      -7.239  11.668  69.162  1.00  0.00    -0.064 C  
HETATM   20  C   UNL     1      -5.756  11.483  68.828  1.00  0.00    -0.046 C  
HETATM   21  C   UNL     1      -8.020  11.940  67.874  1.00  0.00    -0.144 C  
ENDBRANCH  17  19
ENDBRANCH  16  17
ENDBRANCH  13  16
ENDBRANCH  12  13
ENDBRANCH  11  12
ENDBRANCH   8  11
ENDBRANCH   4   5
ENDBRANCH   3   4
ENDBRANCH   2   3
TORSDOF 9
ENDMDL
MODEL      162
REMARK 921   NORMALIZED FREE ENERGY PREDICTED BY IDOCK:   -3.64 KCAL/MOL
REMARK 922        TOTAL FREE ENERGY PREDICTED BY IDOCK:   -6.19 KCAL/MOL
REMARK 923 INTER-LIGAND FREE ENERGY PREDICTED BY IDOCK:   -5.86 KCAL/MOL
REMARK 924 INTRA-LIGAND FREE ENERGY PREDICTED BY IDOCK:   -0.33 KCAL/MOL
REMARK 927      BINDING AFFINITY PREDICTED BY RF-SCORE:    0.00 PKD
ROOT
HETATM    1  C   UNL     1     -14.359   7.663  71.945  1.00  0.00    -0.404 C  
HETATM    2  O   UNL     1     -13.974   8.944  71.458  1.00  0.00    -0.384 OA 
ENDROOT
BRANCH   2   3
HETATM    3  C   UNL     1     -12.799   9.411  72.121  1.00  0.00    -0.401 C  
BRANCH   3   4
HETATM    4  C   UNL     1     -11.604   8.547  71.707  1.00  0.00    -0.380 C  
BRANCH   4   5
HETATM    5  C   UNL     1     -10.802   9.183  70.600  1.00  0.00    -0.321 A  
HETATM    6  C   UNL     1     -11.461   9.663  69.466  1.00  0.00     0.002 A  
HETATM    7  C   UNL     1     -10.748  10.240  68.420  1.00  0.00    -0.263 A  
HETATM    8  C   UNL     1      -9.360  10.367  68.482  1.00  0.00    -0.160 A  
HETATM    9  C   UNL     1      -9.409   9.317  70.673  1.00  0.00    -0.329 A  
HETATM   10  C   UNL     1      -8.693   9.904  69.618  1.00  0.00    -0.218 A  
BRANCH   8  11
HETATM   11  O   UNL     1      -8.584  10.928  67.497  1.00  0.00    -0.126 OA 
BRANCH  11  12
HETATM   12  C   UNL     1      -8.177  12.284  67.757  1.00  0.00    -0.161 C  
BRANCH  12  13
HETATM   13  C   UNL     1      -9.219  13.295  67.261  1.00  0.00    -0.222 C  
HETATM   14  H   UNL     1      -9.232  15.171  66.666  1.00  0.00     0.000 HD 
HETATM   15  O   UNL     1      -8.587  14.546  66.973  1.00  0.00    -0.217 OA 
BRANCH  13  16
HETATM   16  C   UNL     1      -9.985  12.808  66.018  1.00  0.00    -0.271 C  
BRANCH  16  17
HETATM   17  N   UNL     1     -10.259  13.900  65.079  1.00  0.00    -0.518 NA 
HETATM   18  H   UNL     1      -9.484  14.015  64.426  1.00  0.00     0.000 HD 
BRANCH  17  19
HETATM   19  C   UNL     1     -11.528  13.757  64.356  1.00  0.00    -0.372 C  
HETATM   20  C   UNL     1     -11.581  12.499  63.484  1.00  0.00    -0.584 C  
HETATM   21  C   UNL     1     -12.652  13.703  65.394  1.00  0.00    -0.533 C  
ENDBRANCH  17  19
ENDBRANCH  16  17
ENDBRANCH  13  16
ENDBRANCH  12  13
ENDBRANCH  11  12
ENDBRANCH   8  11
ENDBRANCH   4   5
ENDBRANCH   3   4
ENDBRANCH   2   3
TORSDOF 9
ENDMDL
MODEL      163
REMARK 921   NORMALIZED FREE ENERGY PREDICTED BY IDOCK:   -3.62 KCAL/MOL
REMARK 922        TOTAL FREE ENERGY PREDICTED BY IDOCK:   -6.16 KCAL/MOL
REMARK 923 INTER-LIGAND FREE ENERGY PREDICTED BY IDOCK:   -5.59 KCAL/MOL
REMARK 924 INTRA-LIGAND FREE ENERGY PREDICTED BY IDOCK:   -0.58 KCAL/MOL
REMARK 927      BINDING AFFINITY PREDICTED BY RF-SCORE:    0.00 PKD
ROOT
HETATM    1  C   UNL     1      -5.272  20.706  68.453  1.00  0.00    -0.259 C  
HETATM    2  O   UNL     1      -6.648  20.889  68.136  1.00  0.00    -0.295 OA 
ENDROOT
BRANCH   2   3
HETATM    3  C   UNL     1      -6.866  20.782  66.729  1.00  0.00    -0.286 C  
BRANCH   3   4
HETATM    4  C   UNL     1      -8.342  20.470  66.465  1.00  0.00    -0.096 C  
BRANCH   4   5
HETATM    5  C   UNL     1      -8.792  19.219  67.176  1.00  0.00    -0.329 A  
HETATM    6  C   UNL     1      -7.909  18.144  67.296  1.00  0.00    -0.230 A  
HETATM    7  C   UNL     1      -8.299  16.970  67.932  1.00  0.00    -0.201 A  
HETATM    8  C   UNL     1      -9.577  16.840  68.478  1.00  0.00    -0.245 A  
HETATM    9  C   UNL     1     -10.073  19.100  67.731  1.00  0.00    -0.469 A  
HETATM   10  C   UNL     1     -10.463  17.915  68.377  1.00  0.00    -0.338 A  
BRANCH   8  11
HETATM   11  O   UNL     1     -10.038  15.720  69.125  1.00  0.00    -0.208 OA 
BRANCH  11  12
HETATM   12  C   UNL     1     -11.342  15.280  68.701  1.00  0.00    -0.317 C  
BRANCH  12  13
HETATM   13  C   UNL     1     -11.552  13.784  68.971  1.00  0.00    -0.313 C  
HETATM   14  H   UNL     1     -12.890  12.662  69.880  1.00  0.00     0.000 HD 
HETATM   15  O   UNL     1     -12.760  13.588  69.713  1.00  0.00    -0.070 OA 
BRANCH  13  16
HETATM   16  C   UNL     1     -11.596  12.940  67.685  1.00  0.00    -0.355 C  
BRANCH  16  17
HETATM   17  N   UNL     1     -11.930  13.749  66.509  1.00  0.00    -0.411 NA 
HETATM   18  H   UNL     1     -12.012  14.733  66.762  1.00  0.00     0.000 HD 
BRANCH  17  19
HETATM   19  C   UNL     1     -10.998  13.580  65.388  1.00  0.00    -0.292 C  
HETATM   20  C   UNL     1     -11.707  13.403  64.042  1.00  0.00    -0.465 C  
HETATM   21  C   UNL     1     -10.105  14.823  65.334  1.00  0.00    -0.406 C  
ENDBRANCH  17  19
ENDBRANCH  16  17
ENDBRANCH  13  16
ENDBRANCH  12  13
ENDBRANCH  11  12
ENDBRANCH   8  11
ENDBRANCH   4   5
ENDBRANCH   3   4
ENDBRANCH   2   3
TORSDOF 9
ENDMDL
MODEL      164
REMARK 921   NORMALIZED FREE ENERGY PREDICTED BY IDOCK:   -3.62 KCAL/MOL
REMARK 922        TOTAL FREE ENERGY PREDICTED BY IDOCK:   -6.16 KCAL/MOL
REMARK 923 INTER-LIGAND FREE ENERGY PREDICTED BY IDOCK:   -5.61 KCAL/MOL
REMARK 924 INTRA-LIGAND FREE ENERGY PREDICTED BY IDOCK:   -0.55 KCAL/MOL
REMARK 927      BINDING AFFINITY PREDICTED BY RF-SCORE:    0.00 PKD
ROOT
HETATM    1  C   UNL     1     -11.628   6.237  72.027  1.00  0.00    -0.322 C  
HETATM    2  O   UNL     1     -12.447   6.863  71.045  1.00  0.00    -0.382 OA 
ENDROOT
BRANCH   2   3
HETATM    3  C   UNL     1     -13.115   8.003  71.587  1.00  0.00    -0.329 C  
BRANCH   3   4
HETATM    4  C   UNL     1     -12.076   9.009  72.090  1.00  0.00    -0.412 C  
BRANCH   4   5
HETATM    5  C   UNL     1     -11.628   9.953  71.003  1.00  0.00    -0.470 A  
HETATM    6  C   UNL     1     -10.457   9.674  70.294  1.00  0.00    -0.338 A  
HETATM    7  C   UNL     1     -10.008  10.534  69.296  1.00  0.00    -0.233 A  
HETATM    8  C   UNL     1     -10.722  11.687  68.968  1.00  0.00    -0.179 A  
HETATM    9  C   UNL     1     -12.355  11.103  70.671  1.00  0.00    -0.482 A  
HETATM   10  C   UNL     1     -11.902  11.966  69.660  1.00  0.00    -0.406 A  
BRANCH   8  11
HETATM   11  O   UNL     1     -10.351  12.583  67.995  1.00  0.00    -0.210 OA 
BRANCH  11  12
HETATM   12  C   UNL     1      -9.568  12.015  66.928  1.00  0.00    -0.203 C  
BRANCH  12  13
HETATM   13  C   UNL     1     -10.453  11.343  65.870  1.00  0.00    -0.258 C  
HETATM   14  H   UNL     1     -10.992  11.699  64.011  1.00  0.00     0.000 HD 
HETATM   15  O   UNL     1     -10.445  12.116  64.666  1.00  0.00    -0.275 OA 
BRANCH  13  16
HETATM   16  C   UNL     1     -10.025   9.898  65.557  1.00  0.00    -0.292 C  
BRANCH  16  17
HETATM   17  N   UNL     1      -9.531   9.757  64.184  1.00  0.00    -0.410 NA 
HETATM   18  H   UNL     1      -9.902  10.500  63.591  1.00  0.00     0.000 HD 
BRANCH  17  19
HETATM   19  C   UNL     1      -8.068   9.698  64.083  1.00  0.00    -0.151 C  
HETATM   20  C   UNL     1      -7.521   8.269  64.153  1.00  0.00    -0.108 C  
HETATM   21  C   UNL     1      -7.668  10.331  62.747  1.00  0.00    -0.151 C  
ENDBRANCH  17  19
ENDBRANCH  16  17
ENDBRANCH  13  16
ENDBRANCH  12  13
ENDBRANCH  11  12
ENDBRANCH   8  11
ENDBRANCH   4   5
ENDBRANCH   3   4
ENDBRANCH   2   3
TORSDOF 9
ENDMDL
MODEL      165
REMARK 921   NORMALIZED FREE ENERGY PREDICTED BY IDOCK:   -3.61 KCAL/MOL
REMARK 922        TOTAL FREE ENERGY PREDICTED BY IDOCK:   -6.15 KCAL/MOL
REMARK 923 INTER-LIGAND FREE ENERGY PREDICTED BY IDOCK:   -5.50 KCAL/MOL
REMARK 924 INTRA-LIGAND FREE ENERGY PREDICTED BY IDOCK:   -0.65 KCAL/MOL
REMARK 927      BINDING AFFINITY PREDICTED BY RF-SCORE:    0.00 PKD
ROOT
HETATM    1  C   UNL     1      -9.566  16.629  68.865  1.00  0.00    -0.252 C  
HETATM    2  O   UNL     1     -10.854  16.741  69.463  1.00  0.00    -0.317 OA 
ENDROOT
BRANCH   2   3
HETATM    3  C   UNL     1     -11.721  15.703  69.005  1.00  0.00    -0.395 C  
BRANCH   3   4
HETATM    4  C   UNL     1     -12.355  15.001  70.209  1.00  0.00    -0.392 C  
BRANCH   4   5
HETATM    5  C   UNL     1     -12.110  13.513  70.190  1.00  0.00    -0.425 A  
HETATM    6  C   UNL     1     -11.289  12.967  69.201  1.00  0.00    -0.329 A  
HETATM    7  C   UNL     1     -11.056  11.596  69.146  1.00  0.00    -0.302 A  
HETATM    8  C   UNL     1     -11.624  10.734  70.086  1.00  0.00    -0.337 A  
HETATM    9  C   UNL     1     -12.674  12.655  71.143  1.00  0.00    -0.347 A  
HETATM   10  C   UNL     1     -12.434  11.272  71.088  1.00  0.00    -0.479 A  
BRANCH   8  11
HETATM   11  O   UNL     1     -11.441   9.373  70.105  1.00  0.00    -0.230 OA 
BRANCH  11  12
HETATM   12  C   UNL     1     -10.728   8.850  68.969  1.00  0.00    -0.126 C  
BRANCH  12  13
HETATM   13  C   UNL     1     -10.497   7.338  69.090  1.00  0.00    -0.215 C  
HETATM   14  H   UNL     1      -9.639   5.925  68.022  1.00  0.00     0.000 HD 
HETATM   15  O   UNL     1      -9.782   6.861  67.946  1.00  0.00    -0.122 OA 
BRANCH  13  16
HETATM   16  C   UNL     1      -9.738   6.946  70.371  1.00  0.00    -0.172 C  
BRANCH  16  17
HETATM   17  N   UNL     1     -10.649   6.657  71.482  1.00  0.00    -0.220 NA 
HETATM   18  H   UNL     1     -11.599   6.512  71.140  1.00  0.00     0.000 HD 
BRANCH  17  19
HETATM   19  C   UNL     1     -10.224   5.531  72.321  1.00  0.00    -0.199 C  
HETATM   20  C   UNL     1     -11.358   4.962  73.178  1.00  0.00    -0.395 C  
HETATM   21  C   UNL     1      -9.690   4.436  71.393  1.00  0.00    -0.248 C  
ENDBRANCH  17  19
ENDBRANCH  16  17
ENDBRANCH  13  16
ENDBRANCH  12  13
ENDBRANCH  11  12
ENDBRANCH   8  11
ENDBRANCH   4   5
ENDBRANCH   3   4
ENDBRANCH   2   3
TORSDOF 9
ENDMDL
MODEL      166
REMARK 921   NORMALIZED FREE ENERGY PREDICTED BY IDOCK:   -3.61 KCAL/MOL
REMARK 922        TOTAL FREE ENERGY PREDICTED BY IDOCK:   -6.15 KCAL/MOL
REMARK 923 INTER-LIGAND FREE ENERGY PREDICTED BY IDOCK:   -5.08 KCAL/MOL
REMARK 924 INTRA-LIGAND FREE ENERGY PREDICTED BY IDOCK:   -1.06 KCAL/MOL
REMARK 927      BINDING AFFINITY PREDICTED BY RF-SCORE:    0.00 PKD
ROOT
HETATM    1  C   UNL     1     -13.338  10.243  72.043  1.00  0.00    -0.361 C  
HETATM    2  O   UNL     1     -13.630   8.999  72.671  1.00  0.00    -0.465 OA 
ENDROOT
BRANCH   2   3
HETATM    3  C   UNL     1     -13.305   7.905  71.812  1.00  0.00    -0.328 C  
BRANCH   3   4
HETATM    4  C   UNL     1     -11.860   7.468  72.068  1.00  0.00    -0.331 C  
BRANCH   4   5
HETATM    5  C   UNL     1     -10.929   7.921  70.971  1.00  0.00    -0.262 A  
HETATM    6  C   UNL     1     -10.043   8.972  71.216  1.00  0.00    -0.384 A  
HETATM    7  C   UNL     1      -9.183   9.423  70.219  1.00  0.00    -0.285 A  
HETATM    8  C   UNL     1      -9.174   8.830  68.956  1.00  0.00    -0.141 A  
HETATM    9  C   UNL     1     -10.918   7.313  69.708  1.00  0.00    -0.235 A  
HETATM   10  C   UNL     1     -10.046   7.768  68.706  1.00  0.00    -0.205 A  
BRANCH   8  11
HETATM   11  O   UNL     1      -8.354   9.211  67.922  1.00  0.00    -0.116 OA 
BRANCH  11  12
HETATM   12  C   UNL     1      -8.946   9.088  66.615  1.00  0.00    -0.135 C  
BRANCH  12  13
HETATM   13  C   UNL     1      -8.516  10.232  65.687  1.00  0.00    -0.160 C  
HETATM   14  H   UNL     1      -8.131  10.459  63.770  1.00  0.00     0.000 HD 
HETATM   15  O   UNL     1      -8.397   9.751  64.344  1.00  0.00    -0.144 OA 
BRANCH  13  16
HETATM   16  C   UNL     1      -9.482  11.429  65.720  1.00  0.00    -0.233 C  
BRANCH  16  17
HETATM   17  N   UNL     1      -9.824  11.821  67.090  1.00  0.00    -0.192 NA 
HETATM   18  H   UNL     1      -9.327  12.671  67.355  1.00  0.00     0.000 HD 
BRANCH  17  19
HETATM   19  C   UNL     1     -11.265  11.973  67.322  1.00  0.00    -0.311 C  
HETATM   20  C   UNL     1     -11.711  11.437  68.686  1.00  0.00    -0.394 C  
HETATM   21  C   UNL     1     -11.597  13.465  67.228  1.00  0.00    -0.400 C  
ENDBRANCH  17  19
ENDBRANCH  16  17
ENDBRANCH  13  16
ENDBRANCH  12  13
ENDBRANCH  11  12
ENDBRANCH   8  11
ENDBRANCH   4   5
ENDBRANCH   3   4
ENDBRANCH   2   3
TORSDOF 9
ENDMDL
MODEL      167
REMARK 921   NORMALIZED FREE ENERGY PREDICTED BY IDOCK:   -3.61 KCAL/MOL
REMARK 922        TOTAL FREE ENERGY PREDICTED BY IDOCK:   -6.14 KCAL/MOL
REMARK 923 INTER-LIGAND FREE ENERGY PREDICTED BY IDOCK:   -5.41 KCAL/MOL
REMARK 924 INTRA-LIGAND FREE ENERGY PREDICTED BY IDOCK:   -0.73 KCAL/MOL
REMARK 927      BINDING AFFINITY PREDICTED BY RF-SCORE:    0.00 PKD
ROOT
HETATM    1  C   UNL     1      -8.649  14.471  67.335  1.00  0.00    -0.201 C  
HETATM    2  O   UNL     1      -9.657  13.803  66.583  1.00  0.00    -0.271 OA 
ENDROOT
BRANCH   2   3
HETATM    3  C   UNL     1     -10.957  14.097  67.097  1.00  0.00    -0.299 C  
BRANCH   3   4
HETATM    4  C   UNL     1     -11.860  12.872  66.929  1.00  0.00    -0.444 C  
BRANCH   4   5
HETATM    5  C   UNL     1     -11.595  11.825  67.982  1.00  0.00    -0.386 A  
HETATM    6  C   UNL     1     -10.913  10.658  67.631  1.00  0.00    -0.370 A  
HETATM    7  C   UNL     1     -10.667   9.666  68.576  1.00  0.00    -0.239 A  
HETATM    8  C   UNL     1     -11.083   9.817  69.899  1.00  0.00    -0.254 A  
HETATM    9  C   UNL     1     -12.006  11.988  69.311  1.00  0.00    -0.329 A  
HETATM   10  C   UNL     1     -11.753  10.987  70.264  1.00  0.00    -0.445 A  
BRANCH   8  11
HETATM   11  O   UNL     1     -10.876   8.890  70.891  1.00  0.00    -0.220 OA 
BRANCH  11  12
HETATM   12  C   UNL     1     -11.964   7.966  71.080  1.00  0.00    -0.285 C  
BRANCH  12  13
HETATM   13  C   UNL     1     -11.523   6.515  70.842  1.00  0.00    -0.351 C  
HETATM   14  H   UNL     1     -11.268   5.327  69.294  1.00  0.00     0.000 HD 
HETATM   15  O   UNL     1     -11.541   6.224  69.441  1.00  0.00    -0.403 OA 
BRANCH  13  16
HETATM   16  C   UNL     1     -10.127   6.209  71.413  1.00  0.00    -0.194 C  
BRANCH  16  17
HETATM   17  N   UNL     1     -10.062   6.441  72.859  1.00  0.00    -0.178 NA 
HETATM   18  H   UNL     1     -10.515   5.681  73.365  1.00  0.00     0.000 HD 
BRANCH  17  19
HETATM   19  C   UNL     1      -8.701   6.659  73.364  1.00  0.00    -0.123 C  
HETATM   20  C   UNL     1      -8.515   8.036  74.007  1.00  0.00    -0.312 C  
HETATM   21  C   UNL     1      -8.410   5.570  74.401  1.00  0.00    -0.106 C  
ENDBRANCH  17  19
ENDBRANCH  16  17
ENDBRANCH  13  16
ENDBRANCH  12  13
ENDBRANCH  11  12
ENDBRANCH   8  11
ENDBRANCH   4   5
ENDBRANCH   3   4
ENDBRANCH   2   3
TORSDOF 9
ENDMDL
MODEL      168
REMARK 921   NORMALIZED FREE ENERGY PREDICTED BY IDOCK:   -3.59 KCAL/MOL
REMARK 922        TOTAL FREE ENERGY PREDICTED BY IDOCK:   -6.12 KCAL/MOL
REMARK 923 INTER-LIGAND FREE ENERGY PREDICTED BY IDOCK:   -5.61 KCAL/MOL
REMARK 924 INTRA-LIGAND FREE ENERGY PREDICTED BY IDOCK:   -0.51 KCAL/MOL
REMARK 927      BINDING AFFINITY PREDICTED BY RF-SCORE:    0.00 PKD
ROOT
HETATM    1  C   UNL     1     -10.670  19.757  67.327  1.00  0.00    -0.403 C  
HETATM    2  O   UNL     1     -10.061  19.451  66.077  1.00  0.00    -0.411 OA 
ENDROOT
BRANCH   2   3
HETATM    3  C   UNL     1      -8.656  19.245  66.230  1.00  0.00    -0.325 C  
BRANCH   3   4
HETATM    4  C   UNL     1      -8.368  18.731  67.643  1.00  0.00    -0.291 C  
BRANCH   4   5
HETATM    5  C   UNL     1      -8.594  17.245  67.762  1.00  0.00    -0.225 A  
HETATM    6  C   UNL     1      -8.343  16.610  68.980  1.00  0.00    -0.182 A  
HETATM    7  C   UNL     1      -8.526  15.237  69.117  1.00  0.00    -0.234 A  
HETATM    8  C   UNL     1      -8.978  14.463  68.047  1.00  0.00    -0.183 A  
HETATM    9  C   UNL     1      -9.058  16.476  66.687  1.00  0.00    -0.283 A  
HETATM   10  C   UNL     1      -9.246  15.091  66.830  1.00  0.00    -0.280 A  
BRANCH   8  11
HETATM   11  O   UNL     1      -9.189  13.107  68.101  1.00  0.00    -0.206 OA 
BRANCH  11  12
HETATM   12  C   UNL     1     -10.518  12.694  67.733  1.00  0.00    -0.221 C  
BRANCH  12  13
HETATM   13  C   UNL     1     -10.564  11.211  67.342  1.00  0.00    -0.234 C  
HETATM   14  H   UNL     1     -11.872   9.743  67.425  1.00  0.00     0.000 HD 
HETATM   15  O   UNL     1     -11.844  10.661  67.668  1.00  0.00    -0.411 OA 
BRANCH  13  16
HETATM   16  C   UNL     1     -10.267  10.973  65.850  1.00  0.00    -0.254 C  
BRANCH  16  17
HETATM   17  N   UNL     1      -9.530  12.090  65.252  1.00  0.00    -0.428 NA 
HETATM   18  H   UNL     1      -8.525  11.922  65.297  1.00  0.00     0.000 HD 
BRANCH  17  19
HETATM   19  C   UNL     1      -9.940  12.403  63.878  1.00  0.00    -0.235 C  
HETATM   20  C   UNL     1      -9.971  11.172  62.968  1.00  0.00    -0.347 C  
HETATM   21  C   UNL     1     -11.338  13.024  63.940  1.00  0.00    -0.460 C  
ENDBRANCH  17  19
ENDBRANCH  16  17
ENDBRANCH  13  16
ENDBRANCH  12  13
ENDBRANCH  11  12
ENDBRANCH   8  11
ENDBRANCH   4   5
ENDBRANCH   3   4
ENDBRANCH   2   3
TORSDOF 9
ENDMDL
MODEL      169
REMARK 921   NORMALIZED FREE ENERGY PREDICTED BY IDOCK:   -3.58 KCAL/MOL
REMARK 922        TOTAL FREE ENERGY PREDICTED BY IDOCK:   -6.10 KCAL/MOL
REMARK 923 INTER-LIGAND FREE ENERGY PREDICTED BY IDOCK:   -5.65 KCAL/MOL
REMARK 924 INTRA-LIGAND FREE ENERGY PREDICTED BY IDOCK:   -0.46 KCAL/MOL
REMARK 927      BINDING AFFINITY PREDICTED BY RF-SCORE:    0.00 PKD
ROOT
HETATM    1  C   UNL     1      -7.705   8.104  71.830  1.00  0.00    -0.102 C  
HETATM    2  O   UNL     1      -8.491   7.013  71.363  1.00  0.00    -0.114 OA 
ENDROOT
BRANCH   2   3
HETATM    3  C   UNL     1      -9.849   7.409  71.165  1.00  0.00    -0.174 C  
BRANCH   3   4
HETATM    4  C   UNL     1     -10.122   7.559  69.666  1.00  0.00    -0.189 C  
BRANCH   4   5
HETATM    5  C   UNL     1     -10.094   9.001  69.227  1.00  0.00    -0.197 A  
HETATM    6  C   UNL     1     -11.095   9.870  69.668  1.00  0.00    -0.279 A  
HETATM    7  C   UNL     1     -11.106  11.203  69.268  1.00  0.00    -0.318 A  
HETATM    8  C   UNL     1     -10.113  11.708  68.428  1.00  0.00    -0.206 A  
HETATM    9  C   UNL     1      -9.088   9.504  68.392  1.00  0.00    -0.127 A  
HETATM   10  C   UNL     1      -9.100  10.851  67.993  1.00  0.00    -0.152 A  
BRANCH   8  11
HETATM   11  O   UNL     1     -10.049  13.009  67.991  1.00  0.00    -0.222 OA 
BRANCH  11  12
HETATM   12  C   UNL     1     -11.313  13.700  67.987  1.00  0.00    -0.285 C  
BRANCH  12  13
HETATM   13  C   UNL     1     -11.375  14.776  69.080  1.00  0.00    -0.275 C  
HETATM   14  H   UNL     1     -11.656  16.722  69.165  1.00  0.00     0.000 HD 
HETATM   15  O   UNL     1     -11.617  16.056  68.489  1.00  0.00    -0.381 OA 
BRANCH  13  16
HETATM   16  C   UNL     1     -12.448  14.490  70.146  1.00  0.00    -0.321 C  
BRANCH  16  17
HETATM   17  N   UNL     1     -12.629  15.622  71.059  1.00  0.00    -0.452 NA 
HETATM   18  H   UNL     1     -12.922  16.454  70.546  1.00  0.00     0.000 HD 
BRANCH  17  19
HETATM   19  C   UNL     1     -13.551  15.348  72.168  1.00  0.00    -0.498 C  
HETATM   20  C   UNL     1     -13.747  13.852  72.427  1.00  0.00    -0.678 C  
HETATM   21  C   UNL     1     -12.978  16.011  73.423  1.00  0.00    -0.676 C  
ENDBRANCH  17  19
ENDBRANCH  16  17
ENDBRANCH  13  16
ENDBRANCH  12  13
ENDBRANCH  11  12
ENDBRANCH   8  11
ENDBRANCH   4   5
ENDBRANCH   3   4
ENDBRANCH   2   3
TORSDOF 9
ENDMDL
MODEL      170
REMARK 921   NORMALIZED FREE ENERGY PREDICTED BY IDOCK:   -3.58 KCAL/MOL
REMARK 922        TOTAL FREE ENERGY PREDICTED BY IDOCK:   -6.10 KCAL/MOL
REMARK 923 INTER-LIGAND FREE ENERGY PREDICTED BY IDOCK:   -4.94 KCAL/MOL
REMARK 924 INTRA-LIGAND FREE ENERGY PREDICTED BY IDOCK:   -1.16 KCAL/MOL
REMARK 927      BINDING AFFINITY PREDICTED BY RF-SCORE:    0.00 PKD
ROOT
HETATM    1  C   UNL     1     -10.282  10.781  64.977  1.00  0.00    -0.306 C  
HETATM    2  O   UNL     1      -9.425   9.691  64.654  1.00  0.00    -0.263 OA 
ENDROOT
BRANCH   2   3
HETATM    3  C   UNL     1      -8.547   9.391  65.740  1.00  0.00    -0.145 C  
BRANCH   3   4
HETATM    4  C   UNL     1      -8.466   7.873  65.925  1.00  0.00    -0.147 C  
BRANCH   4   5
HETATM    5  C   UNL     1      -9.097   7.426  67.220  1.00  0.00    -0.135 A  
HETATM    6  C   UNL     1     -10.366   6.845  67.198  1.00  0.00    -0.339 A  
HETATM    7  C   UNL     1     -10.982   6.437  68.378  1.00  0.00    -0.390 A  
HETATM    8  C   UNL     1     -10.342   6.585  69.609  1.00  0.00    -0.196 A  
HETATM    9  C   UNL     1      -8.444   7.568  68.452  1.00  0.00    -0.125 A  
HETATM   10  C   UNL     1      -9.067   7.151  69.640  1.00  0.00    -0.140 A  
BRANCH   8  11
HETATM   11  O   UNL     1     -10.877   6.205  70.816  1.00  0.00    -0.255 OA 
BRANCH  11  12
HETATM   12  C   UNL     1      -9.964   6.284  71.926  1.00  0.00    -0.172 C  
BRANCH  12  13
HETATM   13  C   UNL     1     -10.614   6.943  73.150  1.00  0.00    -0.302 C  
HETATM   14  H   UNL     1     -10.027   8.052  74.666  1.00  0.00     0.000 HD 
HETATM   15  O   UNL     1      -9.625   7.645  73.908  1.00  0.00    -0.274 OA 
BRANCH  13  16
HETATM   16  C   UNL     1     -11.757   7.905  72.780  1.00  0.00    -0.280 C  
BRANCH  16  17
HETATM   17  N   UNL     1     -11.277   9.058  72.013  1.00  0.00    -0.356 NA 
HETATM   18  H   UNL     1     -10.393   8.841  71.554  1.00  0.00     0.000 HD 
BRANCH  17  19
HETATM   19  C   UNL     1     -12.250   9.573  71.044  1.00  0.00    -0.304 C  
HETATM   20  C   UNL     1     -13.183  10.633  71.637  1.00  0.00    -0.495 C  
HETATM   21  C   UNL     1     -11.467  10.181  69.876  1.00  0.00    -0.317 C  
ENDBRANCH  17  19
ENDBRANCH  16  17
ENDBRANCH  13  16
ENDBRANCH  12  13
ENDBRANCH  11  12
ENDBRANCH   8  11
ENDBRANCH   4   5
ENDBRANCH   3   4
ENDBRANCH   2   3
TORSDOF 9
ENDMDL
MODEL      171
REMARK 921   NORMALIZED FREE ENERGY PREDICTED BY IDOCK:   -3.57 KCAL/MOL
REMARK 922        TOTAL FREE ENERGY PREDICTED BY IDOCK:   -6.09 KCAL/MOL
REMARK 923 INTER-LIGAND FREE ENERGY PREDICTED BY IDOCK:   -5.21 KCAL/MOL
REMARK 924 INTRA-LIGAND FREE ENERGY PREDICTED BY IDOCK:   -0.88 KCAL/MOL
REMARK 927      BINDING AFFINITY PREDICTED BY RF-SCORE:    0.00 PKD
ROOT
HETATM    1  C   UNL     1     -11.822   6.288  72.026  1.00  0.00    -0.318 C  
HETATM    2  O   UNL     1     -12.667   6.994  71.122  1.00  0.00    -0.381 OA 
ENDROOT
BRANCH   2   3
HETATM    3  C   UNL     1     -13.371   8.041  71.793  1.00  0.00    -0.340 C  
BRANCH   3   4
HETATM    4  C   UNL     1     -12.394   9.166  72.145  1.00  0.00    -0.424 C  
BRANCH   4   5
HETATM    5  C   UNL     1     -11.827   9.830  70.916  1.00  0.00    -0.420 A  
HETATM    6  C   UNL     1     -10.499   9.589  70.558  1.00  0.00    -0.358 A  
HETATM    7  C   UNL     1      -9.941  10.200  69.438  1.00  0.00    -0.247 A  
HETATM    8  C   UNL     1     -10.698  11.055  68.637  1.00  0.00    -0.198 A  
HETATM    9  C   UNL     1     -12.596  10.680  70.109  1.00  0.00    -0.283 A  
HETATM   10  C   UNL     1     -12.031  11.291  68.977  1.00  0.00    -0.393 A  
BRANCH   8  11
HETATM   11  O   UNL     1     -10.226  11.692  67.515  1.00  0.00    -0.191 OA 
BRANCH  11  12
HETATM   12  C   UNL     1      -9.231  10.953  66.783  1.00  0.00    -0.158 C  
BRANCH  12  13
HETATM   13  C   UNL     1      -9.861  10.088  65.683  1.00  0.00    -0.295 C  
HETATM   14  H   UNL     1     -10.186  10.238  63.747  1.00  0.00     0.000 HD 
HETATM   15  O   UNL     1      -9.796  10.773  64.428  1.00  0.00    -0.259 OA 
BRANCH  13  16
HETATM   16  C   UNL     1      -9.196   8.706  65.549  1.00  0.00    -0.091 C  
BRANCH  16  17
HETATM   17  N   UNL     1      -8.756   8.181  66.844  1.00  0.00    -0.126 NA 
HETATM   18  H   UNL     1      -8.931   8.860  67.585  1.00  0.00     0.000 HD 
BRANCH  17  19
HETATM   19  C   UNL     1      -9.343   6.880  67.187  1.00  0.00    -0.141 C  
HETATM   20  C   UNL     1     -10.868   6.928  67.320  1.00  0.00    -0.426 C  
HETATM   21  C   UNL     1      -8.960   5.892  66.082  1.00  0.00    -0.157 C  
ENDBRANCH  17  19
ENDBRANCH  16  17
ENDBRANCH  13  16
ENDBRANCH  12  13
ENDBRANCH  11  12
ENDBRANCH   8  11
ENDBRANCH   4   5
ENDBRANCH   3   4
ENDBRANCH   2   3
TORSDOF 9
ENDMDL
MODEL      172
REMARK 921   NORMALIZED FREE ENERGY PREDICTED BY IDOCK:   -3.57 KCAL/MOL
REMARK 922        TOTAL FREE ENERGY PREDICTED BY IDOCK:   -6.08 KCAL/MOL
REMARK 923 INTER-LIGAND FREE ENERGY PREDICTED BY IDOCK:   -5.45 KCAL/MOL
REMARK 924 INTRA-LIGAND FREE ENERGY PREDICTED BY IDOCK:   -0.63 KCAL/MOL
REMARK 927      BINDING AFFINITY PREDICTED BY RF-SCORE:    0.00 PKD
ROOT
HETATM    1  C   UNL     1      -6.522  20.550  64.506  1.00  0.00    -0.278 C  
HETATM    2  O   UNL     1      -7.338  19.899  65.475  1.00  0.00    -0.326 OA 
ENDROOT
BRANCH   2   3
HETATM    3  C   UNL     1      -7.147  20.468  66.770  1.00  0.00    -0.275 C  
BRANCH   3   4
HETATM    4  C   UNL     1      -8.474  20.454  67.534  1.00  0.00    -0.349 C  
BRANCH   4   5
HETATM    5  C   UNL     1      -9.010  19.056  67.713  1.00  0.00    -0.329 A  
HETATM    6  C   UNL     1     -10.308  18.761  67.293  1.00  0.00    -0.469 A  
HETATM    7  C   UNL     1     -10.837  17.485  67.460  1.00  0.00    -0.205 A  
HETATM    8  C   UNL     1     -10.080  16.464  68.037  1.00  0.00    -0.248 A  
HETATM    9  C   UNL     1      -8.240  18.033  68.284  1.00  0.00    -0.298 A  
HETATM   10  C   UNL     1      -8.776  16.745  68.447  1.00  0.00    -0.236 A  
BRANCH   8  11
HETATM   11  O   UNL     1     -10.525  15.179  68.233  1.00  0.00    -0.234 OA 
BRANCH  11  12
HETATM   12  C   UNL     1     -11.584  14.773  67.346  1.00  0.00    -0.360 C  
BRANCH  12  13
HETATM   13  C   UNL     1     -11.080  13.807  66.265  1.00  0.00    -0.302 C  
HETATM   14  H   UNL     1     -10.715  13.876  64.332  1.00  0.00     0.000 HD 
HETATM   15  O   UNL     1     -11.027  14.474  65.001  1.00  0.00    -0.352 OA 
BRANCH  13  16
HETATM   16  C   UNL     1      -9.699  13.210  66.589  1.00  0.00    -0.261 C  
BRANCH  16  17
HETATM   17  N   UNL     1      -9.774  11.773  66.872  1.00  0.00    -0.195 NA 
HETATM   18  H   UNL     1      -8.912  11.306  66.590  1.00  0.00     0.000 HD 
BRANCH  17  19
HETATM   19  C   UNL     1     -10.099  11.460  68.268  1.00  0.00    -0.196 C  
HETATM   20  C   UNL     1     -11.522  10.924  68.446  1.00  0.00    -0.374 C  
HETATM   21  C   UNL     1      -9.096  10.410  68.754  1.00  0.00    -0.165 C  
ENDBRANCH  17  19
ENDBRANCH  16  17
ENDBRANCH  13  16
ENDBRANCH  12  13
ENDBRANCH  11  12
ENDBRANCH   8  11
ENDBRANCH   4   5
ENDBRANCH   3   4
ENDBRANCH   2   3
TORSDOF 9
ENDMDL
MODEL      173
REMARK 921   NORMALIZED FREE ENERGY PREDICTED BY IDOCK:   -3.56 KCAL/MOL
REMARK 922        TOTAL FREE ENERGY PREDICTED BY IDOCK:   -6.08 KCAL/MOL
REMARK 923 INTER-LIGAND FREE ENERGY PREDICTED BY IDOCK:   -5.03 KCAL/MOL
REMARK 924 INTRA-LIGAND FREE ENERGY PREDICTED BY IDOCK:   -1.05 KCAL/MOL
REMARK 927      BINDING AFFINITY PREDICTED BY RF-SCORE:    0.00 PKD
ROOT
HETATM    1  C   UNL     1     -11.071   5.936  69.411  1.00  0.00    -0.299 C  
HETATM    2  O   UNL     1     -11.355   7.125  70.142  1.00  0.00    -0.277 OA 
ENDROOT
BRANCH   2   3
HETATM    3  C   UNL     1     -10.500   8.193  69.732  1.00  0.00    -0.227 C  
BRANCH   3   4
HETATM    4  C   UNL     1     -10.437   8.237  68.203  1.00  0.00    -0.226 C  
BRANCH   4   5
HETATM    5  C   UNL     1     -10.687   9.623  67.665  1.00  0.00    -0.324 A  
HETATM    6  C   UNL     1     -10.464   9.882  66.311  1.00  0.00    -0.171 A  
HETATM    7  C   UNL     1     -10.670  11.155  65.787  1.00  0.00    -0.252 A  
HETATM    8  C   UNL     1     -11.118  12.200  66.596  1.00  0.00    -0.306 A  
HETATM    9  C   UNL     1     -11.147  10.665  68.481  1.00  0.00    -0.318 A  
HETATM   10  C   UNL     1     -11.358  11.947  67.948  1.00  0.00    -0.358 A  
BRANCH   8  11
HETATM   11  O   UNL     1     -11.350  13.481  66.157  1.00  0.00    -0.300 OA 
BRANCH  11  12
HETATM   12  C   UNL     1     -11.086  14.504  67.135  1.00  0.00    -0.321 C  
BRANCH  12  13
HETATM   13  C   UNL     1     -10.472  15.756  66.495  1.00  0.00    -0.303 C  
HETATM   14  H   UNL     1     -10.483  17.695  66.833  1.00  0.00     0.000 HD 
HETATM   15  O   UNL     1     -10.863  16.920  67.229  1.00  0.00    -0.257 OA 
BRANCH  13  16
HETATM   16  C   UNL     1      -8.936  15.696  66.407  1.00  0.00    -0.326 C  
BRANCH  16  17
HETATM   17  N   UNL     1      -8.433  14.324  66.527  1.00  0.00    -0.387 NA 
HETATM   18  H   UNL     1      -8.086  13.989  65.628  1.00  0.00     0.000 HD 
BRANCH  17  19
HETATM   19  C   UNL     1      -7.414  14.155  67.569  1.00  0.00    -0.174 C  
HETATM   20  C   UNL     1      -7.119  15.449  68.334  1.00  0.00    -0.111 C  
HETATM   21  C   UNL     1      -7.921  13.091  68.547  1.00  0.00    -0.090 C  
ENDBRANCH  17  19
ENDBRANCH  16  17
ENDBRANCH  13  16
ENDBRANCH  12  13
ENDBRANCH  11  12
ENDBRANCH   8  11
ENDBRANCH   4   5
ENDBRANCH   3   4
ENDBRANCH   2   3
TORSDOF 9
ENDMDL
MODEL      174
REMARK 921   NORMALIZED FREE ENERGY PREDICTED BY IDOCK:   -3.56 KCAL/MOL
REMARK 922        TOTAL FREE ENERGY PREDICTED BY IDOCK:   -6.07 KCAL/MOL
REMARK 923 INTER-LIGAND FREE ENERGY PREDICTED BY IDOCK:   -5.62 KCAL/MOL
REMARK 924 INTRA-LIGAND FREE ENERGY PREDICTED BY IDOCK:   -0.45 KCAL/MOL
REMARK 927      BINDING AFFINITY PREDICTED BY RF-SCORE:    0.00 PKD
ROOT
HETATM    1  C   UNL     1     -13.777  15.676  72.790  1.00  0.00    -0.578 C  
HETATM    2  O   UNL     1     -12.661  15.961  71.953  1.00  0.00    -0.445 OA 
ENDROOT
BRANCH   2   3
HETATM    3  C   UNL     1     -12.465  14.923  70.992  1.00  0.00    -0.330 C  
BRANCH   3   4
HETATM    4  C   UNL     1     -11.044  15.013  70.428  1.00  0.00    -0.263 C  
BRANCH   4   5
HETATM    5  C   UNL     1     -11.016  14.831  68.931  1.00  0.00    -0.262 A  
HETATM    6  C   UNL     1      -9.813  15.002  68.243  1.00  0.00    -0.219 A  
HETATM    7  C   UNL     1      -9.758  14.857  66.860  1.00  0.00    -0.248 A  
HETATM    8  C   UNL     1     -10.898  14.524  66.128  1.00  0.00    -0.317 A  
HETATM    9  C   UNL     1     -12.162  14.486  68.203  1.00  0.00    -0.120 A  
HETATM   10  C   UNL     1     -12.102  14.336  66.808  1.00  0.00    -0.446 A  
BRANCH   8  11
HETATM   11  O   UNL     1     -10.927  14.357  64.765  1.00  0.00    -0.387 OA 
BRANCH  11  12
HETATM   12  C   UNL     1     -10.290  13.154  64.296  1.00  0.00    -0.339 C  
BRANCH  12  13
HETATM   13  C   UNL     1     -11.203  11.930  64.454  1.00  0.00    -0.336 C  
HETATM   14  H   UNL     1     -12.458  10.918  63.325  1.00  0.00     0.000 HD 
HETATM   15  O   UNL     1     -11.893  11.675  63.227  1.00  0.00    -0.359 OA 
BRANCH  13  16
HETATM   16  C   UNL     1     -10.443  10.665  64.890  1.00  0.00    -0.212 C  
BRANCH  16  17
HETATM   17  N   UNL     1     -10.480  10.475  66.343  1.00  0.00    -0.220 NA 
HETATM   18  H   UNL     1     -11.387  10.111  66.635  1.00  0.00     0.000 HD 
BRANCH  17  19
HETATM   19  C   UNL     1      -9.395   9.632  66.858  1.00  0.00    -0.146 C  
HETATM   20  C   UNL     1      -9.368   8.238  66.225  1.00  0.00    -0.267 C  
HETATM   21  C   UNL     1      -8.072  10.347  66.570  1.00  0.00    -0.122 C  
ENDBRANCH  17  19
ENDBRANCH  16  17
ENDBRANCH  13  16
ENDBRANCH  12  13
ENDBRANCH  11  12
ENDBRANCH   8  11
ENDBRANCH   4   5
ENDBRANCH   3   4
ENDBRANCH   2   3
TORSDOF 9
ENDMDL
MODEL      175
REMARK 921   NORMALIZED FREE ENERGY PREDICTED BY IDOCK:   -3.55 KCAL/MOL
REMARK 922        TOTAL FREE ENERGY PREDICTED BY IDOCK:   -6.06 KCAL/MOL
REMARK 923 INTER-LIGAND FREE ENERGY PREDICTED BY IDOCK:   -5.30 KCAL/MOL
REMARK 924 INTRA-LIGAND FREE ENERGY PREDICTED BY IDOCK:   -0.76 KCAL/MOL
REMARK 927      BINDING AFFINITY PREDICTED BY RF-SCORE:    0.00 PKD
ROOT
HETATM    1  C   UNL     1      -6.180  10.113  64.737  1.00  0.00    -0.130 C  
HETATM    2  O   UNL     1      -7.034   9.550  63.748  1.00  0.00    -0.097 OA 
ENDROOT
BRANCH   2   3
HETATM    3  C   UNL     1      -7.824  10.560  63.119  1.00  0.00    -0.063 C  
BRANCH   3   4
HETATM    4  C   UNL     1      -9.287  10.109  63.075  1.00  0.00    -0.330 C  
BRANCH   4   5
HETATM    5  C   UNL     1     -10.161  10.932  63.987  1.00  0.00    -0.422 A  
HETATM    6  C   UNL     1     -11.175  11.719  63.436  1.00  0.00    -0.440 A  
HETATM    7  C   UNL     1     -11.989  12.502  64.249  1.00  0.00    -0.484 A  
HETATM    8  C   UNL     1     -11.822  12.510  65.635  1.00  0.00    -0.438 A  
HETATM    9  C   UNL     1      -9.996  10.928  65.378  1.00  0.00    -0.319 A  
HETATM   10  C   UNL     1     -10.821  11.716  66.196  1.00  0.00    -0.343 A  
BRANCH   8  11
HETATM   11  O   UNL     1     -12.585  13.250  66.506  1.00  0.00    -0.279 OA 
BRANCH  11  12
HETATM   12  C   UNL     1     -11.923  13.586  67.740  1.00  0.00    -0.334 C  
BRANCH  12  13
HETATM   13  C   UNL     1     -11.761  15.104  67.901  1.00  0.00    -0.256 C  
HETATM   14  H   UNL     1     -11.625  16.384  69.390  1.00  0.00     0.000 HD 
HETATM   15  O   UNL     1     -11.725  15.445  69.290  1.00  0.00    -0.310 OA 
BRANCH  13  16
HETATM   16  C   UNL     1     -10.502  15.652  67.205  1.00  0.00    -0.303 C  
BRANCH  16  17
HETATM   17  N   UNL     1      -9.296  14.914  67.590  1.00  0.00    -0.190 NA 
HETATM   18  H   UNL     1      -8.993  14.302  66.833  1.00  0.00     0.000 HD 
BRANCH  17  19
HETATM   19  C   UNL     1      -8.192  15.772  68.034  1.00  0.00    -0.140 C  
HETATM   20  C   UNL     1      -8.658  17.152  68.504  1.00  0.00    -0.258 C  
HETATM   21  C   UNL     1      -7.482  15.056  69.187  1.00  0.00    -0.169 C  
ENDBRANCH  17  19
ENDBRANCH  16  17
ENDBRANCH  13  16
ENDBRANCH  12  13
ENDBRANCH  11  12
ENDBRANCH   8  11
ENDBRANCH   4   5
ENDBRANCH   3   4
ENDBRANCH   2   3
TORSDOF 9
ENDMDL
MODEL      176
REMARK 921   NORMALIZED FREE ENERGY PREDICTED BY IDOCK:   -3.55 KCAL/MOL
REMARK 922        TOTAL FREE ENERGY PREDICTED BY IDOCK:   -6.06 KCAL/MOL
REMARK 923 INTER-LIGAND FREE ENERGY PREDICTED BY IDOCK:   -5.08 KCAL/MOL
REMARK 924 INTRA-LIGAND FREE ENERGY PREDICTED BY IDOCK:   -0.98 KCAL/MOL
REMARK 927      BINDING AFFINITY PREDICTED BY RF-SCORE:    0.00 PKD
ROOT
HETATM    1  C   UNL     1     -10.567   3.752  62.533  1.00  0.00    -0.202 C  
HETATM    2  O   UNL     1     -10.665   3.729  63.953  1.00  0.00    -0.272 OA 
ENDROOT
BRANCH   2   3
HETATM    3  C   UNL     1      -9.485   4.262  64.555  1.00  0.00    -0.156 C  
BRANCH   3   4
HETATM    4  C   UNL     1      -9.305   3.653  65.948  1.00  0.00    -0.166 C  
BRANCH   4   5
HETATM    5  C   UNL     1      -9.881   4.532  67.029  1.00  0.00    -0.232 A  
HETATM    6  C   UNL     1      -9.672   4.196  68.369  1.00  0.00    -0.150 A  
HETATM    7  C   UNL     1     -10.204   4.978  69.390  1.00  0.00    -0.268 A  
HETATM    8  C   UNL     1     -10.947   6.124  69.102  1.00  0.00    -0.381 A  
HETATM    9  C   UNL     1     -10.617   5.687  66.734  1.00  0.00    -0.372 A  
HETATM   10  C   UNL     1     -11.149   6.477  67.767  1.00  0.00    -0.366 A  
BRANCH   8  11
HETATM   11  O   UNL     1     -11.501   6.951  70.049  1.00  0.00    -0.306 OA 
BRANCH  11  12
HETATM   12  C   UNL     1     -11.382   6.473  71.402  1.00  0.00    -0.294 C  
BRANCH  12  13
HETATM   13  C   UNL     1     -11.237   7.629  72.401  1.00  0.00    -0.320 C  
HETATM   14  H   UNL     1     -10.327   7.937  74.119  1.00  0.00     0.000 HD 
HETATM   15  O   UNL     1     -10.417   7.222  73.501  1.00  0.00    -0.349 OA 
BRANCH  13  16
HETATM   16  C   UNL     1     -10.650   8.903  71.767  1.00  0.00    -0.362 C  
BRANCH  16  17
HETATM   17  N   UNL     1      -9.200   8.996  71.963  1.00  0.00    -0.357 NA 
HETATM   18  H   UNL     1      -8.861   8.206  72.512  1.00  0.00     0.000 HD 
BRANCH  17  19
HETATM   19  C   UNL     1      -8.439   9.122  70.715  1.00  0.00    -0.212 C  
HETATM   20  C   UNL     1      -7.870   7.788  70.224  1.00  0.00    -0.091 C  
HETATM   21  C   UNL     1      -9.381   9.695  69.652  1.00  0.00    -0.226 C  
ENDBRANCH  17  19
ENDBRANCH  16  17
ENDBRANCH  13  16
ENDBRANCH  12  13
ENDBRANCH  11  12
ENDBRANCH   8  11
ENDBRANCH   4   5
ENDBRANCH   3   4
ENDBRANCH   2   3
TORSDOF 9
ENDMDL
MODEL      177
REMARK 921   NORMALIZED FREE ENERGY PREDICTED BY IDOCK:   -3.54 KCAL/MOL
REMARK 922        TOTAL FREE ENERGY PREDICTED BY IDOCK:   -6.05 KCAL/MOL
REMARK 923 INTER-LIGAND FREE ENERGY PREDICTED BY IDOCK:   -5.39 KCAL/MOL
REMARK 924 INTRA-LIGAND FREE ENERGY PREDICTED BY IDOCK:   -0.66 KCAL/MOL
REMARK 927      BINDING AFFINITY PREDICTED BY RF-SCORE:    0.00 PKD
ROOT
HETATM    1  C   UNL     1      -8.674   5.913  65.653  1.00  0.00    -0.146 C  
HETATM    2  O   UNL     1      -8.430   6.572  66.891  1.00  0.00    -0.112 OA 
ENDROOT
BRANCH   2   3
HETATM    3  C   UNL     1      -9.601   6.574  67.708  1.00  0.00    -0.122 C  
BRANCH   3   4
HETATM    4  C   UNL     1     -10.653   7.496  67.086  1.00  0.00    -0.415 C  
BRANCH   4   5
HETATM    5  C   UNL     1     -10.313   8.953  67.277  1.00  0.00    -0.350 A  
HETATM    6  C   UNL     1      -9.588   9.622  66.289  1.00  0.00    -0.281 A  
HETATM    7  C   UNL     1      -9.245  10.962  66.442  1.00  0.00    -0.193 A  
HETATM    8  C   UNL     1      -9.627  11.674  67.579  1.00  0.00    -0.171 A  
HETATM    9  C   UNL     1     -10.710   9.666  68.417  1.00  0.00    -0.251 A  
HETATM   10  C   UNL     1     -10.365  11.019  68.566  1.00  0.00    -0.204 A  
BRANCH   8  11
HETATM   11  O   UNL     1      -9.333  12.997  67.805  1.00  0.00    -0.185 OA 
BRANCH  11  12
HETATM   12  C   UNL     1      -8.783  13.689  66.669  1.00  0.00     0.004 C  
BRANCH  12  13
HETATM   13  C   UNL     1      -9.480  15.036  66.432  1.00  0.00    -0.297 C  
HETATM   14  H   UNL     1      -8.934  16.885  66.037  1.00  0.00     0.000 HD 
HETATM   15  O   UNL     1      -8.503  16.052  66.184  1.00  0.00    -0.323 OA 
BRANCH  13  16
HETATM   16  C   UNL     1     -10.488  14.996  65.270  1.00  0.00    -0.403 C  
BRANCH  16  17
HETATM   17  N   UNL     1     -10.350  13.780  64.464  1.00  0.00    -0.640 NA 
HETATM   18  H   UNL     1      -9.457  13.324  64.653  1.00  0.00     0.000 HD 
BRANCH  17  19
HETATM   19  C   UNL     1     -11.458  12.832  64.627  1.00  0.00    -0.324 C  
HETATM   20  C   UNL     1     -12.436  13.238  65.733  1.00  0.00    -0.480 C  
HETATM   21  C   UNL     1     -12.203  12.754  63.292  1.00  0.00    -0.500 C  
ENDBRANCH  17  19
ENDBRANCH  16  17
ENDBRANCH  13  16
ENDBRANCH  12  13
ENDBRANCH  11  12
ENDBRANCH   8  11
ENDBRANCH   4   5
ENDBRANCH   3   4
ENDBRANCH   2   3
TORSDOF 9
ENDMDL
MODEL      178
REMARK 921   NORMALIZED FREE ENERGY PREDICTED BY IDOCK:   -3.52 KCAL/MOL
REMARK 922        TOTAL FREE ENERGY PREDICTED BY IDOCK:   -6.00 KCAL/MOL
REMARK 923 INTER-LIGAND FREE ENERGY PREDICTED BY IDOCK:   -5.32 KCAL/MOL
REMARK 924 INTRA-LIGAND FREE ENERGY PREDICTED BY IDOCK:   -0.69 KCAL/MOL
REMARK 927      BINDING AFFINITY PREDICTED BY RF-SCORE:    0.00 PKD
ROOT
HETATM    1  C   UNL     1      -6.493  19.273  66.138  1.00  0.00    -0.197 C  
HETATM    2  O   UNL     1      -7.849  18.906  66.366  1.00  0.00    -0.261 OA 
ENDROOT
BRANCH   2   3
HETATM    3  C   UNL     1      -8.294  19.360  67.645  1.00  0.00    -0.299 C  
BRANCH   3   4
HETATM    4  C   UNL     1      -7.643  18.511  68.741  1.00  0.00    -0.308 C  
BRANCH   4   5
HETATM    5  C   UNL     1      -8.077  17.068  68.671  1.00  0.00    -0.254 A  
HETATM    6  C   UNL     1      -7.140  16.088  68.336  1.00  0.00    -0.125 A  
HETATM    7  C   UNL     1      -7.513  14.750  68.248  1.00  0.00    -0.115 A  
HETATM    8  C   UNL     1      -8.825  14.352  68.505  1.00  0.00    -0.182 A  
HETATM    9  C   UNL     1      -9.394  16.675  68.941  1.00  0.00    -0.244 A  
HETATM   10  C   UNL     1      -9.765  15.323  68.855  1.00  0.00    -0.220 A  
BRANCH   8  11
HETATM   11  O   UNL     1      -9.272  13.054  68.444  1.00  0.00    -0.196 OA 
BRANCH  11  12
HETATM   12  C   UNL     1      -9.474  12.554  67.110  1.00  0.00    -0.208 C  
BRANCH  12  13
HETATM   13  C   UNL     1     -10.895  12.005  66.918  1.00  0.00    -0.259 C  
HETATM   14  H   UNL     1     -11.715  10.285  66.426  1.00  0.00     0.000 HD 
HETATM   15  O   UNL     1     -10.836  10.625  66.544  1.00  0.00    -0.199 OA 
BRANCH  13  16
HETATM   16  C   UNL     1     -11.774  12.160  68.172  1.00  0.00    -0.341 C  
BRANCH  16  17
HETATM   17  N   UNL     1     -12.289  10.872  68.645  1.00  0.00    -0.777 NA 
HETATM   18  H   UNL     1     -11.794  10.101  68.197  1.00  0.00     0.000 HD 
BRANCH  17  19
HETATM   19  C   UNL     1     -12.266  10.723  70.104  1.00  0.00    -0.346 C  
HETATM   20  C   UNL     1     -10.987  10.056  70.617  1.00  0.00    -0.392 C  
HETATM   21  C   UNL     1     -12.390  12.122  70.717  1.00  0.00    -0.391 C  
ENDBRANCH  17  19
ENDBRANCH  16  17
ENDBRANCH  13  16
ENDBRANCH  12  13
ENDBRANCH  11  12
ENDBRANCH   8  11
ENDBRANCH   4   5
ENDBRANCH   3   4
ENDBRANCH   2   3
TORSDOF 9
ENDMDL
MODEL      179
REMARK 921   NORMALIZED FREE ENERGY PREDICTED BY IDOCK:   -3.51 KCAL/MOL
REMARK 922        TOTAL FREE ENERGY PREDICTED BY IDOCK:   -5.99 KCAL/MOL
REMARK 923 INTER-LIGAND FREE ENERGY PREDICTED BY IDOCK:   -5.87 KCAL/MOL
REMARK 924 INTRA-LIGAND FREE ENERGY PREDICTED BY IDOCK:   -0.13 KCAL/MOL
REMARK 927      BINDING AFFINITY PREDICTED BY RF-SCORE:    0.00 PKD
ROOT
HETATM    1  C   UNL     1     -11.339   6.131  69.716  1.00  0.00    -0.382 C  
HETATM    2  O   UNL     1     -10.312   6.765  70.472  1.00  0.00    -0.198 OA 
ENDROOT
BRANCH   2   3
HETATM    3  C   UNL     1     -10.588   6.692  71.871  1.00  0.00    -0.211 C  
BRANCH   3   4
HETATM    4  C   UNL     1     -10.481   8.091  72.485  1.00  0.00    -0.383 C  
BRANCH   4   5
HETATM    5  C   UNL     1     -10.891   9.168  71.513  1.00  0.00    -0.436 A  
HETATM    6  C   UNL     1     -12.194   9.670  71.556  1.00  0.00    -0.483 A  
HETATM    7  C   UNL     1     -12.608  10.653  70.662  1.00  0.00    -0.454 A  
HETATM    8  C   UNL     1     -11.729  11.172  69.710  1.00  0.00    -0.345 A  
HETATM    9  C   UNL     1     -10.001   9.693  70.566  1.00  0.00    -0.318 A  
HETATM   10  C   UNL     1     -10.421  10.688  69.668  1.00  0.00    -0.219 A  
BRANCH   8  11
HETATM   11  O   UNL     1     -12.057  12.145  68.797  1.00  0.00    -0.274 OA 
BRANCH  11  12
HETATM   12  C   UNL     1     -11.101  13.217  68.698  1.00  0.00    -0.269 C  
BRANCH  12  13
HETATM   13  C   UNL     1     -11.751  14.583  68.959  1.00  0.00    -0.311 C  
HETATM   14  H   UNL     1     -11.711  15.945  70.379  1.00  0.00     0.000 HD 
HETATM   15  O   UNL     1     -11.309  15.100  70.218  1.00  0.00    -0.251 OA 
BRANCH  13  16
HETATM   16  C   UNL     1     -11.459  15.610  67.850  1.00  0.00    -0.251 C  
BRANCH  16  17
HETATM   17  N   UNL     1     -10.451  16.590  68.262  1.00  0.00    -0.297 NA 
HETATM   18  H   UNL     1     -10.471  16.723  69.273  1.00  0.00     0.000 HD 
BRANCH  17  19
HETATM   19  C   UNL     1      -9.092  16.269  67.811  1.00  0.00    -0.195 C  
HETATM   20  C   UNL     1      -8.849  16.627  66.342  1.00  0.00    -0.337 C  
HETATM   21  C   UNL     1      -8.113  17.049  68.693  1.00  0.00    -0.254 C  
ENDBRANCH  17  19
ENDBRANCH  16  17
ENDBRANCH  13  16
ENDBRANCH  12  13
ENDBRANCH  11  12
ENDBRANCH   8  11
ENDBRANCH   4   5
ENDBRANCH   3   4
ENDBRANCH   2   3
TORSDOF 9
ENDMDL
MODEL      180
REMARK 921   NORMALIZED FREE ENERGY PREDICTED BY IDOCK:   -3.51 KCAL/MOL
REMARK 922        TOTAL FREE ENERGY PREDICTED BY IDOCK:   -5.99 KCAL/MOL
REMARK 923 INTER-LIGAND FREE ENERGY PREDICTED BY IDOCK:   -5.44 KCAL/MOL
REMARK 924 INTRA-LIGAND FREE ENERGY PREDICTED BY IDOCK:   -0.55 KCAL/MOL
REMARK 927      BINDING AFFINITY PREDICTED BY RF-SCORE:    0.00 PKD
ROOT
HETATM    1  C   UNL     1      -8.416  17.110  68.521  1.00  0.00    -0.262 C  
HETATM    2  O   UNL     1      -9.823  17.317  68.578  1.00  0.00    -0.276 OA 
ENDROOT
BRANCH   2   3
HETATM    3  C   UNL     1     -10.475  16.704  67.464  1.00  0.00    -0.317 C  
BRANCH   3   4
HETATM    4  C   UNL     1     -11.409  15.599  67.966  1.00  0.00    -0.324 C  
BRANCH   4   5
HETATM    5  C   UNL     1     -11.054  14.252  67.389  1.00  0.00    -0.314 A  
HETATM    6  C   UNL     1      -9.723  13.829  67.407  1.00  0.00    -0.235 A  
HETATM    7  C   UNL     1      -9.361  12.598  66.868  1.00  0.00    -0.228 A  
HETATM    8  C   UNL     1     -10.318  11.750  66.309  1.00  0.00    -0.224 A  
HETATM    9  C   UNL     1     -12.021  13.401  66.839  1.00  0.00    -0.437 A  
HETATM   10  C   UNL     1     -11.653  12.158  66.300  1.00  0.00    -0.424 A  
BRANCH   8  11
HETATM   11  O   UNL     1     -10.044  10.520  65.762  1.00  0.00    -0.247 OA 
BRANCH  11  12
HETATM   12  C   UNL     1      -9.347   9.618  66.641  1.00  0.00    -0.156 C  
BRANCH  12  13
HETATM   13  C   UNL     1     -10.095   8.287  66.798  1.00  0.00    -0.303 C  
HETATM   14  H   UNL     1      -9.818   6.412  66.269  1.00  0.00     0.000 HD 
HETATM   15  O   UNL     1      -9.355   7.235  66.171  1.00  0.00    -0.141 OA 
BRANCH  13  16
HETATM   16  C   UNL     1     -10.367   7.920  68.267  1.00  0.00    -0.197 C  
BRANCH  16  17
HETATM   17  N   UNL     1     -11.075   8.989  68.979  1.00  0.00    -0.436 NA 
HETATM   18  H   UNL     1     -11.995   9.145  68.568  1.00  0.00     0.000 HD 
BRANCH  17  19
HETATM   19  C   UNL     1     -11.185   8.767  70.425  1.00  0.00    -0.223 C  
HETATM   20  C   UNL     1     -11.525   7.318  70.784  1.00  0.00    -0.328 C  
HETATM   21  C   UNL     1      -9.843   9.146  71.057  1.00  0.00    -0.366 C  
ENDBRANCH  17  19
ENDBRANCH  16  17
ENDBRANCH  13  16
ENDBRANCH  12  13
ENDBRANCH  11  12
ENDBRANCH   8  11
ENDBRANCH   4   5
ENDBRANCH   3   4
ENDBRANCH   2   3
TORSDOF 9
ENDMDL
MODEL      181
REMARK 921   NORMALIZED FREE ENERGY PREDICTED BY IDOCK:   -3.50 KCAL/MOL
REMARK 922        TOTAL FREE ENERGY PREDICTED BY IDOCK:   -5.99 KCAL/MOL
REMARK 923 INTER-LIGAND FREE ENERGY PREDICTED BY IDOCK:   -5.36 KCAL/MOL
REMARK 924 INTRA-LIGAND FREE ENERGY PREDICTED BY IDOCK:   -0.62 KCAL/MOL
REMARK 927      BINDING AFFINITY PREDICTED BY RF-SCORE:    0.00 PKD
ROOT
HETATM    1  C   UNL     1     -11.548  15.813  70.456  1.00  0.00    -0.375 C  
HETATM    2  O   UNL     1     -12.317  15.261  69.393  1.00  0.00    -0.238 OA 
ENDROOT
BRANCH   2   3
HETATM    3  C   UNL     1     -11.493  14.969  68.264  1.00  0.00    -0.332 C  
BRANCH   3   4
HETATM    4  C   UNL     1     -12.190  13.931  67.380  1.00  0.00    -0.291 C  
BRANCH   4   5
HETATM    5  C   UNL     1     -11.536  12.576  67.475  1.00  0.00    -0.397 A  
HETATM    6  C   UNL     1     -11.436  11.950  68.719  1.00  0.00    -0.347 A  
HETATM    7  C   UNL     1     -10.824  10.706  68.842  1.00  0.00    -0.272 A  
HETATM    8  C   UNL     1     -10.306  10.047  67.726  1.00  0.00    -0.215 A  
HETATM    9  C   UNL     1     -11.028  11.916  66.348  1.00  0.00    -0.337 A  
HETATM   10  C   UNL     1     -10.414  10.658  66.475  1.00  0.00    -0.285 A  
BRANCH   8  11
HETATM   11  O   UNL     1      -9.692   8.819  67.761  1.00  0.00    -0.148 OA 
BRANCH  11  12
HETATM   12  C   UNL     1     -10.588   7.700  67.622  1.00  0.00    -0.224 C  
BRANCH  12  13
HETATM   13  C   UNL     1     -10.757   6.941  68.945  1.00  0.00    -0.222 C  
HETATM   14  H   UNL     1     -10.643   5.073  69.554  1.00  0.00     0.000 HD 
HETATM   15  O   UNL     1     -10.539   5.542  68.735  1.00  0.00    -0.212 OA 
BRANCH  13  16
HETATM   16  C   UNL     1      -9.818   7.447  70.054  1.00  0.00    -0.179 C  
BRANCH  16  17
HETATM   17  N   UNL     1     -10.537   7.713  71.303  1.00  0.00    -0.218 NA 
HETATM   18  H   UNL     1     -10.112   8.495  71.802  1.00  0.00     0.000 HD 
BRANCH  17  19
HETATM   19  C   UNL     1     -11.976   7.935  71.123  1.00  0.00    -0.285 C  
HETATM   20  C   UNL     1     -12.832   6.802  71.695  1.00  0.00    -0.328 C  
HETATM   21  C   UNL     1     -12.335   9.248  71.826  1.00  0.00    -0.454 C  
ENDBRANCH  17  19
ENDBRANCH  16  17
ENDBRANCH  13  16
ENDBRANCH  12  13
ENDBRANCH  11  12
ENDBRANCH   8  11
ENDBRANCH   4   5
ENDBRANCH   3   4
ENDBRANCH   2   3
TORSDOF 9
ENDMDL
MODEL      182
REMARK 921   NORMALIZED FREE ENERGY PREDICTED BY IDOCK:   -3.49 KCAL/MOL
REMARK 922        TOTAL FREE ENERGY PREDICTED BY IDOCK:   -5.97 KCAL/MOL
REMARK 923 INTER-LIGAND FREE ENERGY PREDICTED BY IDOCK:   -5.05 KCAL/MOL
REMARK 924 INTRA-LIGAND FREE ENERGY PREDICTED BY IDOCK:   -0.92 KCAL/MOL
REMARK 927      BINDING AFFINITY PREDICTED BY RF-SCORE:    0.00 PKD
ROOT
HETATM    1  C   UNL     1      -9.086   9.630  65.133  1.00  0.00    -0.228 C  
HETATM    2  O   UNL     1     -10.201   9.391  65.985  1.00  0.00    -0.269 OA 
ENDROOT
BRANCH   2   3
HETATM    3  C   UNL     1     -10.298  10.396  66.995  1.00  0.00    -0.240 C  
BRANCH   3   4
HETATM    4  C   UNL     1     -11.216  11.520  66.507  1.00  0.00    -0.324 C  
BRANCH   4   5
HETATM    5  C   UNL     1     -10.824  12.860  67.078  1.00  0.00    -0.282 A  
HETATM    6  C   UNL     1     -10.033  13.723  66.317  1.00  0.00    -0.312 A  
HETATM    7  C   UNL     1      -9.641  14.960  66.822  1.00  0.00    -0.265 A  
HETATM    8  C   UNL     1     -10.037  15.373  68.094  1.00  0.00    -0.222 A  
HETATM    9  C   UNL     1     -11.234  13.273  68.352  1.00  0.00    -0.314 A  
HETATM   10  C   UNL     1     -10.840  14.523  68.857  1.00  0.00    -0.262 A  
BRANCH   8  11
HETATM   11  O   UNL     1      -9.698  16.577  68.663  1.00  0.00    -0.228 OA 
BRANCH  11  12
HETATM   12  C   UNL     1     -10.617  17.649  68.384  1.00  0.00    -0.316 C  
BRANCH  12  13
HETATM   13  C   UNL     1      -9.906  18.860  67.766  1.00  0.00    -0.337 C  
HETATM   14  H   UNL     1     -10.031  20.820  67.894  1.00  0.00     0.000 HD 
HETATM   15  O   UNL     1     -10.471  20.071  68.277  1.00  0.00    -0.406 OA 
BRANCH  13  16
HETATM   16  C   UNL     1      -8.387  18.857  68.015  1.00  0.00    -0.294 C  
BRANCH  16  17
HETATM   17  N   UNL     1      -7.670  18.047  67.026  1.00  0.00    -0.210 NA 
HETATM   18  H   UNL     1      -7.604  18.541  66.136  1.00  0.00     0.000 HD 
BRANCH  17  19
HETATM   19  C   UNL     1      -6.343  17.604  67.471  1.00  0.00    -0.161 C  
HETATM   20  C   UNL     1      -6.240  16.085  67.625  1.00  0.00    -0.184 C  
HETATM   21  C   UNL     1      -5.322  18.081  66.433  1.00  0.00    -0.196 C  
ENDBRANCH  17  19
ENDBRANCH  16  17
ENDBRANCH  13  16
ENDBRANCH  12  13
ENDBRANCH  11  12
ENDBRANCH   8  11
ENDBRANCH   4   5
ENDBRANCH   3   4
ENDBRANCH   2   3
TORSDOF 9
ENDMDL
MODEL      183
REMARK 921   NORMALIZED FREE ENERGY PREDICTED BY IDOCK:   -3.49 KCAL/MOL
REMARK 922        TOTAL FREE ENERGY PREDICTED BY IDOCK:   -5.96 KCAL/MOL
REMARK 923 INTER-LIGAND FREE ENERGY PREDICTED BY IDOCK:   -5.19 KCAL/MOL
REMARK 924 INTRA-LIGAND FREE ENERGY PREDICTED BY IDOCK:   -0.77 KCAL/MOL
REMARK 927      BINDING AFFINITY PREDICTED BY RF-SCORE:    0.00 PKD
ROOT
HETATM    1  C   UNL     1      -9.192   3.520  67.146  1.00  0.00    -0.192 C  
HETATM    2  O   UNL     1      -9.454   3.908  68.490  1.00  0.00    -0.156 OA 
ENDROOT
BRANCH   2   3
HETATM    3  C   UNL     1      -9.343   5.324  68.644  1.00  0.00    -0.121 C  
BRANCH   3   4
HETATM    4  C   UNL     1     -10.731   5.959  68.519  1.00  0.00    -0.327 C  
BRANCH   4   5
HETATM    5  C   UNL     1     -10.667   7.466  68.538  1.00  0.00    -0.138 A  
HETATM    6  C   UNL     1     -10.646   8.135  69.763  1.00  0.00    -0.231 A  
HETATM    7  C   UNL     1     -10.604   9.525  69.814  1.00  0.00    -0.257 A  
HETATM    8  C   UNL     1     -10.568  10.285  68.644  1.00  0.00    -0.208 A  
HETATM    9  C   UNL     1     -10.621   8.222  67.359  1.00  0.00    -0.324 A  
HETATM   10  C   UNL     1     -10.574   9.625  67.414  1.00  0.00    -0.333 A  
BRANCH   8  11
HETATM   11  O   UNL     1     -10.521  11.657  68.608  1.00  0.00    -0.203 OA 
BRANCH  11  12
HETATM   12  C   UNL     1     -11.672  12.309  69.176  1.00  0.00    -0.323 C  
BRANCH  12  13
HETATM   13  C   UNL     1     -11.835  13.740  68.644  1.00  0.00    -0.374 C  
HETATM   14  H   UNL     1     -11.988  15.548  69.407  1.00  0.00     0.000 HD 
HETATM   15  O   UNL     1     -11.888  14.662  69.736  1.00  0.00    -0.280 OA 
BRANCH  13  16
HETATM   16  C   UNL     1     -10.712  14.153  67.676  1.00  0.00    -0.257 C  
BRANCH  16  17
HETATM   17  N   UNL     1     -10.774  13.411  66.414  1.00  0.00    -0.285 NA 
HETATM   18  H   UNL     1     -10.692  12.408  66.582  1.00  0.00     0.000 HD 
BRANCH  17  19
HETATM   19  C   UNL     1     -11.968  13.703  65.612  1.00  0.00    -0.395 C  
HETATM   20  C   UNL     1     -11.706  14.720  64.497  1.00  0.00    -0.398 C  
HETATM   21  C   UNL     1     -12.449  12.386  64.996  1.00  0.00    -0.393 C  
ENDBRANCH  17  19
ENDBRANCH  16  17
ENDBRANCH  13  16
ENDBRANCH  12  13
ENDBRANCH  11  12
ENDBRANCH   8  11
ENDBRANCH   4   5
ENDBRANCH   3   4
ENDBRANCH   2   3
TORSDOF 9
ENDMDL
MODEL      184
REMARK 921   NORMALIZED FREE ENERGY PREDICTED BY IDOCK:   -3.46 KCAL/MOL
REMARK 922        TOTAL FREE ENERGY PREDICTED BY IDOCK:   -5.92 KCAL/MOL
REMARK 923 INTER-LIGAND FREE ENERGY PREDICTED BY IDOCK:   -5.10 KCAL/MOL
REMARK 924 INTRA-LIGAND FREE ENERGY PREDICTED BY IDOCK:   -0.81 KCAL/MOL
REMARK 927      BINDING AFFINITY PREDICTED BY RF-SCORE:    0.00 PKD
ROOT
HETATM    1  C   UNL     1      -9.157   4.689  68.363  1.00  0.00    -0.120 C  
HETATM    2  O   UNL     1     -10.463   4.857  68.904  1.00  0.00    -0.085 OA 
ENDROOT
BRANCH   2   3
HETATM    3  C   UNL     1     -10.984   6.149  68.590  1.00  0.00    -0.336 C  
BRANCH   3   4
HETATM    4  C   UNL     1     -10.532   6.552  67.183  1.00  0.00    -0.354 C  
BRANCH   4   5
HETATM    5  C   UNL     1     -10.157   8.011  67.105  1.00  0.00    -0.334 A  
HETATM    6  C   UNL     1      -9.311   8.446  66.083  1.00  0.00    -0.267 A  
HETATM    7  C   UNL     1      -8.933   9.782  65.993  1.00  0.00    -0.186 A  
HETATM    8  C   UNL     1      -9.400  10.723  66.911  1.00  0.00    -0.160 A  
HETATM    9  C   UNL     1     -10.638   8.952  68.024  1.00  0.00    -0.226 A  
HETATM   10  C   UNL     1     -10.258  10.301  67.928  1.00  0.00    -0.217 A  
BRANCH   8  11
HETATM   11  O   UNL     1      -9.079  12.059  66.890  1.00  0.00    -0.184 OA 
BRANCH  11  12
HETATM   12  C   UNL     1      -9.969  12.898  67.649  1.00  0.00    -0.218 C  
BRANCH  12  13
HETATM   13  C   UNL     1     -11.065  13.509  66.766  1.00  0.00    -0.299 C  
HETATM   14  H   UNL     1     -12.647  14.653  67.023  1.00  0.00     0.000 HD 
HETATM   15  O   UNL     1     -11.968  14.274  67.570  1.00  0.00    -0.389 OA 
BRANCH  13  16
HETATM   16  C   UNL     1     -10.506  14.393  65.637  1.00  0.00    -0.334 C  
BRANCH  16  17
HETATM   17  N   UNL     1     -10.193  13.616  64.435  1.00  0.00    -0.712 NA 
HETATM   18  H   UNL     1      -9.298  13.137  64.539  1.00  0.00     0.000 HD 
BRANCH  17  19
HETATM   19  C   UNL     1     -11.245  12.666  64.052  1.00  0.00    -0.406 C  
HETATM   20  C   UNL     1     -12.532  13.354  63.590  1.00  0.00    -0.316 C  
HETATM   21  C   UNL     1     -10.696  11.798  62.916  1.00  0.00     0.042 C  
ENDBRANCH  17  19
ENDBRANCH  16  17
ENDBRANCH  13  16
ENDBRANCH  12  13
ENDBRANCH  11  12
ENDBRANCH   8  11
ENDBRANCH   4   5
ENDBRANCH   3   4
ENDBRANCH   2   3
TORSDOF 9
ENDMDL
MODEL      185
REMARK 921   NORMALIZED FREE ENERGY PREDICTED BY IDOCK:   -3.46 KCAL/MOL
REMARK 922        TOTAL FREE ENERGY PREDICTED BY IDOCK:   -5.92 KCAL/MOL
REMARK 923 INTER-LIGAND FREE ENERGY PREDICTED BY IDOCK:   -5.08 KCAL/MOL
REMARK 924 INTRA-LIGAND FREE ENERGY PREDICTED BY IDOCK:   -0.84 KCAL/MOL
REMARK 927      BINDING AFFINITY PREDICTED BY RF-SCORE:    0.00 PKD
ROOT
HETATM    1  C   UNL     1     -11.760  14.790  64.655  1.00  0.00    -0.422 C  
HETATM    2  O   UNL     1     -12.545  13.657  64.295  1.00  0.00    -0.640 OA 
ENDROOT
BRANCH   2   3
HETATM    3  C   UNL     1     -11.728  12.496  64.143  1.00  0.00    -0.399 C  
BRANCH   3   4
HETATM    4  C   UNL     1     -10.509  12.608  65.064  1.00  0.00    -0.331 C  
BRANCH   4   5
HETATM    5  C   UNL     1     -10.439  11.469  66.050  1.00  0.00    -0.298 A  
HETATM    6  C   UNL     1     -11.254  11.495  67.184  1.00  0.00    -0.365 A  
HETATM    7  C   UNL     1     -11.201  10.468  68.122  1.00  0.00    -0.357 A  
HETATM    8  C   UNL     1     -10.344   9.381  67.946  1.00  0.00    -0.225 A  
HETATM    9  C   UNL     1      -9.584  10.376  65.863  1.00  0.00    -0.258 A  
HETATM   10  C   UNL     1      -9.536   9.338  66.809  1.00  0.00    -0.240 A  
BRANCH   8  11
HETATM   11  O   UNL     1     -10.235   8.326  68.820  1.00  0.00    -0.202 OA 
BRANCH  11  12
HETATM   12  C   UNL     1     -10.991   8.477  70.035  1.00  0.00    -0.196 C  
BRANCH  12  13
HETATM   13  C   UNL     1     -10.094   8.383  71.277  1.00  0.00    -0.202 C  
HETATM   14  H   UNL     1     -10.258   8.766  73.201  1.00  0.00     0.000 HD 
HETATM   15  O   UNL     1     -10.813   8.825  72.432  1.00  0.00    -0.320 OA 
BRANCH  13  16
HETATM   16  C   UNL     1      -9.552   6.963  71.522  1.00  0.00    -0.162 C  
BRANCH  16  17
HETATM   17  N   UNL     1      -8.656   6.525  70.447  1.00  0.00    -0.145 NA 
HETATM   18  H   UNL     1      -7.682   6.671  70.711  1.00  0.00     0.000 HD 
BRANCH  17  19
HETATM   19  C   UNL     1      -8.873   5.138  70.022  1.00  0.00    -0.111 C  
HETATM   20  C   UNL     1     -10.355   4.762  69.941  1.00  0.00    -0.121 C  
HETATM   21  C   UNL     1      -8.230   4.968  68.642  1.00  0.00    -0.085 C  
ENDBRANCH  17  19
ENDBRANCH  16  17
ENDBRANCH  13  16
ENDBRANCH  12  13
ENDBRANCH  11  12
ENDBRANCH   8  11
ENDBRANCH   4   5
ENDBRANCH   3   4
ENDBRANCH   2   3
TORSDOF 9
ENDMDL
MODEL      186
REMARK 921   NORMALIZED FREE ENERGY PREDICTED BY IDOCK:   -3.46 KCAL/MOL
REMARK 922        TOTAL FREE ENERGY PREDICTED BY IDOCK:   -5.91 KCAL/MOL
REMARK 923 INTER-LIGAND FREE ENERGY PREDICTED BY IDOCK:   -5.04 KCAL/MOL
REMARK 924 INTRA-LIGAND FREE ENERGY PREDICTED BY IDOCK:   -0.87 KCAL/MOL
REMARK 927      BINDING AFFINITY PREDICTED BY RF-SCORE:    0.00 PKD
ROOT
HETATM    1  C   UNL     1     -10.682  19.550  65.711  1.00  0.00    -0.393 C  
HETATM    2  O   UNL     1      -9.912  20.354  66.598  1.00  0.00    -0.444 OA 
ENDROOT
BRANCH   2   3
HETATM    3  C   UNL     1     -10.094  19.938  67.952  1.00  0.00    -0.436 C  
BRANCH   3   4
HETATM    4  C   UNL     1      -8.758  19.446  68.517  1.00  0.00    -0.407 C  
BRANCH   4   5
HETATM    5  C   UNL     1      -8.494  18.002  68.171  1.00  0.00    -0.273 A  
HETATM    6  C   UNL     1      -9.363  17.016  68.642  1.00  0.00    -0.270 A  
HETATM    7  C   UNL     1      -9.138  15.673  68.354  1.00  0.00    -0.190 A  
HETATM    8  C   UNL     1      -8.048  15.279  67.576  1.00  0.00    -0.172 A  
HETATM    9  C   UNL     1      -7.404  17.615  67.381  1.00  0.00    -0.202 A  
HETATM   10  C   UNL     1      -7.182  16.259  67.088  1.00  0.00    -0.243 A  
BRANCH   8  11
HETATM   11  O   UNL     1      -7.758  13.978  67.243  1.00  0.00    -0.175 OA 
BRANCH  11  12
HETATM   12  C   UNL     1      -7.359  13.153  68.352  1.00  0.00    -0.116 C  
BRANCH  12  13
HETATM   13  C   UNL     1      -7.594  11.663  68.065  1.00  0.00    -0.117 C  
HETATM   14  H   UNL     1      -6.867   9.946  68.695  1.00  0.00     0.000 HD 
HETATM   15  O   UNL     1      -6.722  10.868  68.873  1.00  0.00    -0.057 OA 
BRANCH  13  16
HETATM   16  C   UNL     1      -9.051  11.228  68.299  1.00  0.00    -0.173 C  
BRANCH  16  17
HETATM   17  N   UNL     1      -9.890  12.339  68.757  1.00  0.00    -0.414 NA 
HETATM   18  H   UNL     1      -9.553  13.223  68.376  1.00  0.00     0.000 HD 
BRANCH  17  19
HETATM   19  C   UNL     1     -11.318  12.163  68.470  1.00  0.00    -0.275 C  
HETATM   20  C   UNL     1     -11.893  13.278  67.591  1.00  0.00    -0.400 C  
HETATM   21  C   UNL     1     -11.487  10.817  67.760  1.00  0.00    -0.283 C  
ENDBRANCH  17  19
ENDBRANCH  16  17
ENDBRANCH  13  16
ENDBRANCH  12  13
ENDBRANCH  11  12
ENDBRANCH   8  11
ENDBRANCH   4   5
ENDBRANCH   3   4
ENDBRANCH   2   3
TORSDOF 9
ENDMDL
MODEL      187
REMARK 921   NORMALIZED FREE ENERGY PREDICTED BY IDOCK:   -3.45 KCAL/MOL
REMARK 922        TOTAL FREE ENERGY PREDICTED BY IDOCK:   -5.90 KCAL/MOL
REMARK 923 INTER-LIGAND FREE ENERGY PREDICTED BY IDOCK:   -5.49 KCAL/MOL
REMARK 924 INTRA-LIGAND FREE ENERGY PREDICTED BY IDOCK:   -0.42 KCAL/MOL
REMARK 927      BINDING AFFINITY PREDICTED BY RF-SCORE:    0.00 PKD
ROOT
HETATM    1  C   UNL     1      -7.583   9.640  64.748  1.00  0.00    -0.122 C  
HETATM    2  O   UNL     1      -8.786   8.992  65.146  1.00  0.00    -0.188 OA 
ENDROOT
BRANCH   2   3
HETATM    3  C   UNL     1      -9.342   9.612  66.306  1.00  0.00    -0.185 C  
BRANCH   3   4
HETATM    4  C   UNL     1     -10.770  10.073  66.002  1.00  0.00     0.078 C  
BRANCH   4   5
HETATM    5  C   UNL     1     -10.890  11.576  65.986  1.00  0.00    -0.330 A  
HETATM    6  C   UNL     1      -9.730  12.354  65.963  1.00  0.00    -0.253 A  
HETATM    7  C   UNL     1      -9.807  13.744  65.964  1.00  0.00    -0.298 A  
HETATM    8  C   UNL     1     -11.041  14.394  65.974  1.00  0.00    -0.324 A  
HETATM    9  C   UNL     1     -12.133  12.222  65.985  1.00  0.00    -0.229 A  
HETATM   10  C   UNL     1     -12.206  13.625  65.982  1.00  0.00    -0.492 A  
BRANCH   8  11
HETATM   11  O   UNL     1     -11.203  15.758  65.971  1.00  0.00    -0.160 OA 
BRANCH  11  12
HETATM   12  C   UNL     1     -10.013  16.501  66.293  1.00  0.00    -0.329 C  
BRANCH  12  13
HETATM   13  C   UNL     1      -9.961  16.874  67.781  1.00  0.00    -0.278 C  
HETATM   14  H   UNL     1      -9.638  18.498  68.845  1.00  0.00     0.000 HD 
HETATM   15  O   UNL     1      -9.669  18.267  67.924  1.00  0.00    -0.284 OA 
BRANCH  13  16
HETATM   16  C   UNL     1     -11.265  16.542  68.530  1.00  0.00    -0.296 C  
BRANCH  16  17
HETATM   17  N   UNL     1     -11.056  16.443  69.977  1.00  0.00    -0.385 NA 
HETATM   18  H   UNL     1     -10.833  17.357  70.371  1.00  0.00     0.000 HD 
BRANCH  17  19
HETATM   19  C   UNL     1     -12.178  15.829  70.698  1.00  0.00    -0.384 C  
HETATM   20  C   UNL     1     -12.413  14.368  70.304  1.00  0.00    -0.413 C  
HETATM   21  C   UNL     1     -11.868  15.909  72.195  1.00  0.00    -0.615 C  
ENDBRANCH  17  19
ENDBRANCH  16  17
ENDBRANCH  13  16
ENDBRANCH  12  13
ENDBRANCH  11  12
ENDBRANCH   8  11
ENDBRANCH   4   5
ENDBRANCH   3   4
ENDBRANCH   2   3
TORSDOF 9
ENDMDL
MODEL      188
REMARK 921   NORMALIZED FREE ENERGY PREDICTED BY IDOCK:   -3.45 KCAL/MOL
REMARK 922        TOTAL FREE ENERGY PREDICTED BY IDOCK:   -5.90 KCAL/MOL
REMARK 923 INTER-LIGAND FREE ENERGY PREDICTED BY IDOCK:   -5.49 KCAL/MOL
REMARK 924 INTRA-LIGAND FREE ENERGY PREDICTED BY IDOCK:   -0.40 KCAL/MOL
REMARK 927      BINDING AFFINITY PREDICTED BY RF-SCORE:    0.00 PKD
ROOT
HETATM    1  C   UNL     1      -8.566  19.852  66.167  1.00  0.00    -0.312 C  
HETATM    2  O   UNL     1      -9.430  20.359  67.178  1.00  0.00    -0.401 OA 
ENDROOT
BRANCH   2   3
HETATM    3  C   UNL     1     -10.518  19.466  67.416  1.00  0.00    -0.466 C  
BRANCH   3   4
HETATM    4  C   UNL     1     -10.142  18.491  68.536  1.00  0.00    -0.414 C  
BRANCH   4   5
HETATM    5  C   UNL     1     -10.698  17.110  68.296  1.00  0.00    -0.363 A  
HETATM    6  C   UNL     1     -10.517  16.506  67.050  1.00  0.00    -0.289 A  
HETATM    7  C   UNL     1     -11.032  15.239  66.792  1.00  0.00    -0.306 A  
HETATM    8  C   UNL     1     -11.730  14.536  67.774  1.00  0.00    -0.374 A  
HETATM    9  C   UNL     1     -11.390  16.405  69.289  1.00  0.00    -0.225 A  
HETATM   10  C   UNL     1     -11.905  15.125  69.027  1.00  0.00    -0.331 A  
BRANCH   8  11
HETATM   11  O   UNL     1     -12.265  13.282  67.602  1.00  0.00    -0.292 OA 
BRANCH  11  12
HETATM   12  C   UNL     1     -11.296  12.218  67.575  1.00  0.00    -0.325 C  
BRANCH  12  13
HETATM   13  C   UNL     1     -11.344  11.374  68.856  1.00  0.00    -0.270 C  
HETATM   14  H   UNL     1     -12.518   9.995  69.625  1.00  0.00     0.000 HD 
HETATM   15  O   UNL     1     -12.489  10.517  68.832  1.00  0.00    -0.194 OA 
BRANCH  13  16
HETATM   16  C   UNL     1     -10.074  10.530  69.069  1.00  0.00    -0.217 C  
BRANCH  16  17
HETATM   17  N   UNL     1     -10.335   9.343  69.887  1.00  0.00    -0.212 NA 
HETATM   18  H   UNL     1     -11.155   8.843  69.543  1.00  0.00     0.000 HD 
BRANCH  17  19
HETATM   19  C   UNL     1      -9.187   8.436  70.000  1.00  0.00    -0.158 C  
HETATM   20  C   UNL     1      -7.932   9.124  70.546  1.00  0.00    -0.170 C  
HETATM   21  C   UNL     1      -9.588   7.292  70.936  1.00  0.00    -0.170 C  
ENDBRANCH  17  19
ENDBRANCH  16  17
ENDBRANCH  13  16
ENDBRANCH  12  13
ENDBRANCH  11  12
ENDBRANCH   8  11
ENDBRANCH   4   5
ENDBRANCH   3   4
ENDBRANCH   2   3
TORSDOF 9
ENDMDL
MODEL      189
REMARK 921   NORMALIZED FREE ENERGY PREDICTED BY IDOCK:   -3.43 KCAL/MOL
REMARK 922        TOTAL FREE ENERGY PREDICTED BY IDOCK:   -5.88 KCAL/MOL
REMARK 923 INTER-LIGAND FREE ENERGY PREDICTED BY IDOCK:   -5.64 KCAL/MOL
REMARK 924 INTRA-LIGAND FREE ENERGY PREDICTED BY IDOCK:   -0.24 KCAL/MOL
REMARK 927      BINDING AFFINITY PREDICTED BY RF-SCORE:    0.00 PKD
ROOT
HETATM    1  C   UNL     1     -10.268  20.026  66.568  1.00  0.00    -0.474 C  
HETATM    2  O   UNL     1      -8.927  20.323  66.193  1.00  0.00    -0.249 OA 
ENDROOT
BRANCH   2   3
HETATM    3  C   UNL     1      -8.012  19.413  66.805  1.00  0.00    -0.273 C  
BRANCH   3   4
HETATM    4  C   UNL     1      -8.020  18.089  66.036  1.00  0.00    -0.156 C  
BRANCH   4   5
HETATM    5  C   UNL     1      -8.790  17.016  66.763  1.00  0.00    -0.267 A  
HETATM    6  C   UNL     1      -9.604  16.145  66.035  1.00  0.00    -0.381 A  
HETATM    7  C   UNL     1     -10.340  15.155  66.678  1.00  0.00    -0.274 A  
HETATM    8  C   UNL     1     -10.274  14.997  68.063  1.00  0.00    -0.228 A  
HETATM    9  C   UNL     1      -8.711  16.856  68.152  1.00  0.00    -0.226 A  
HETATM   10  C   UNL     1      -9.452  15.853  68.798  1.00  0.00    -0.221 A  
BRANCH   8  11
HETATM   11  O   UNL     1     -10.963  14.044  68.772  1.00  0.00    -0.246 OA 
BRANCH  11  12
HETATM   12  C   UNL     1     -12.312  14.414  69.115  1.00  0.00    -0.121 C  
BRANCH  12  13
HETATM   13  C   UNL     1     -12.590  14.223  70.612  1.00  0.00    -0.355 C  
HETATM   14  H   UNL     1     -12.721  12.713  71.868  1.00  0.00     0.000 HD 
HETATM   15  O   UNL     1     -12.549  12.831  70.941  1.00  0.00    -0.337 OA 
BRANCH  13  16
HETATM   16  C   UNL     1     -11.606  14.994  71.510  1.00  0.00    -0.353 C  
BRANCH  16  17
HETATM   17  N   UNL     1     -12.185  16.242  72.015  1.00  0.00    -0.597 NA 
HETATM   18  H   UNL     1     -12.869  16.612  71.356  1.00  0.00     0.000 HD 
BRANCH  17  19
HETATM   19  C   UNL     1     -12.770  16.124  73.356  1.00  0.00    -0.527 C  
HETATM   20  C   UNL     1     -12.620  14.723  73.953  1.00  0.00    -0.365 C  
HETATM   21  C   UNL     1     -12.068  17.141  74.260  1.00  0.00     0.009 C  
ENDBRANCH  17  19
ENDBRANCH  16  17
ENDBRANCH  13  16
ENDBRANCH  12  13
ENDBRANCH  11  12
ENDBRANCH   8  11
ENDBRANCH   4   5
ENDBRANCH   3   4
ENDBRANCH   2   3
TORSDOF 9
ENDMDL
MODEL      190
REMARK 921   NORMALIZED FREE ENERGY PREDICTED BY IDOCK:   -3.42 KCAL/MOL
REMARK 922        TOTAL FREE ENERGY PREDICTED BY IDOCK:   -5.85 KCAL/MOL
REMARK 923 INTER-LIGAND FREE ENERGY PREDICTED BY IDOCK:   -5.18 KCAL/MOL
REMARK 924 INTRA-LIGAND FREE ENERGY PREDICTED BY IDOCK:   -0.68 KCAL/MOL
REMARK 927      BINDING AFFINITY PREDICTED BY RF-SCORE:    0.00 PKD
ROOT
HETATM    1  C   UNL     1      -5.268  19.253  67.021  1.00  0.00    -0.154 C  
HETATM    2  O   UNL     1      -6.113  19.056  65.893  1.00  0.00    -0.171 OA 
ENDROOT
BRANCH   2   3
HETATM    3  C   UNL     1      -7.035  17.989  66.125  1.00  0.00    -0.289 C  
BRANCH   3   4
HETATM    4  C   UNL     1      -8.403  18.570  66.492  1.00  0.00    -0.297 C  
BRANCH   4   5
HETATM    5  C   UNL     1      -9.350  17.512  66.999  1.00  0.00    -0.262 A  
HETATM    6  C   UNL     1      -9.663  17.469  68.360  1.00  0.00    -0.316 A  
HETATM    7  C   UNL     1     -10.520  16.494  68.862  1.00  0.00    -0.304 A  
HETATM    8  C   UNL     1     -11.100  15.545  68.019  1.00  0.00    -0.322 A  
HETATM    9  C   UNL     1      -9.937  16.568  66.145  1.00  0.00    -0.363 A  
HETATM   10  C   UNL     1     -10.805  15.589  66.655  1.00  0.00    -0.285 A  
BRANCH   8  11
HETATM   11  O   UNL     1     -11.958  14.556  68.433  1.00  0.00    -0.321 OA 
BRANCH  11  12
HETATM   12  C   UNL     1     -11.912  13.355  67.640  1.00  0.00    -0.322 C  
BRANCH  12  13
HETATM   13  C   UNL     1     -11.318  12.178  68.426  1.00  0.00    -0.286 C  
HETATM   14  H   UNL     1     -11.906  10.388  68.995  1.00  0.00     0.000 HD 
HETATM   15  O   UNL     1     -12.273  11.116  68.509  1.00  0.00    -0.600 OA 
BRANCH  13  16
HETATM   16  C   UNL     1     -10.009  11.646  67.816  1.00  0.00    -0.181 C  
BRANCH  16  17
HETATM   17  N   UNL     1      -9.025  11.299  68.845  1.00  0.00    -0.354 NA 
HETATM   18  H   UNL     1      -8.906  10.288  68.902  1.00  0.00     0.000 HD 
BRANCH  17  19
HETATM   19  C   UNL     1      -7.727  11.962  68.671  1.00  0.00    -0.113 C  
HETATM   20  C   UNL     1      -6.605  10.992  68.292  1.00  0.00    -0.058 C  
HETATM   21  C   UNL     1      -7.885  13.013  67.568  1.00  0.00    -0.178 C  
ENDBRANCH  17  19
ENDBRANCH  16  17
ENDBRANCH  13  16
ENDBRANCH  12  13
ENDBRANCH  11  12
ENDBRANCH   8  11
ENDBRANCH   4   5
ENDBRANCH   3   4
ENDBRANCH   2   3
TORSDOF 9
ENDMDL
MODEL      191
REMARK 921   NORMALIZED FREE ENERGY PREDICTED BY IDOCK:   -3.42 KCAL/MOL
REMARK 922        TOTAL FREE ENERGY PREDICTED BY IDOCK:   -5.85 KCAL/MOL
REMARK 923 INTER-LIGAND FREE ENERGY PREDICTED BY IDOCK:   -5.23 KCAL/MOL
REMARK 924 INTRA-LIGAND FREE ENERGY PREDICTED BY IDOCK:   -0.62 KCAL/MOL
REMARK 927      BINDING AFFINITY PREDICTED BY RF-SCORE:    0.00 PKD
ROOT
HETATM    1  C   UNL     1      -9.172   9.563  65.027  1.00  0.00    -0.236 C  
HETATM    2  O   UNL     1     -10.176   9.235  65.981  1.00  0.00    -0.269 OA 
ENDROOT
BRANCH   2   3
HETATM    3  C   UNL     1     -10.530  10.375  66.764  1.00  0.00    -0.225 C  
BRANCH   3   4
HETATM    4  C   UNL     1     -10.966  11.514  65.837  1.00  0.00    -0.301 C  
BRANCH   4   5
HETATM    5  C   UNL     1     -10.441  12.851  66.297  1.00  0.00    -0.282 A  
HETATM    6  C   UNL     1     -10.158  13.046  67.650  1.00  0.00    -0.217 A  
HETATM    7  C   UNL     1      -9.688  14.274  68.108  1.00  0.00    -0.226 A  
HETATM    8  C   UNL     1      -9.475  15.334  67.227  1.00  0.00    -0.208 A  
HETATM    9  C   UNL     1     -10.219  13.908  65.405  1.00  0.00    -0.356 A  
HETATM   10  C   UNL     1      -9.741  15.144  65.870  1.00  0.00    -0.385 A  
BRANCH   8  11
HETATM   11  O   UNL     1      -9.010  16.573  67.596  1.00  0.00    -0.196 OA 
BRANCH  11  12
HETATM   12  C   UNL     1      -7.577  16.663  67.709  1.00  0.00    -0.159 C  
BRANCH  12  13
HETATM   13  C   UNL     1      -7.155  17.660  68.797  1.00  0.00    -0.263 C  
HETATM   14  H   UNL     1      -5.470  18.270  69.610  1.00  0.00     0.000 HD 
HETATM   15  O   UNL     1      -5.731  17.654  68.937  1.00  0.00    -0.169 OA 
BRANCH  13  16
HETATM   16  C   UNL     1      -7.638  19.095  68.519  1.00  0.00    -0.334 C  
BRANCH  16  17
HETATM   17  N   UNL     1      -9.017  19.307  68.970  1.00  0.00    -0.299 NA 
HETATM   18  H   UNL     1      -9.030  19.789  69.868  1.00  0.00     0.000 HD 
BRANCH  17  19
HETATM   19  C   UNL     1      -9.858  20.010  67.994  1.00  0.00    -0.394 C  
HETATM   20  C   UNL     1      -9.058  20.601  66.830  1.00  0.00    -0.221 C  
HETATM   21  C   UNL     1     -10.879  19.005  67.452  1.00  0.00    -0.496 C  
ENDBRANCH  17  19
ENDBRANCH  16  17
ENDBRANCH  13  16
ENDBRANCH  12  13
ENDBRANCH  11  12
ENDBRANCH   8  11
ENDBRANCH   4   5
ENDBRANCH   3   4
ENDBRANCH   2   3
TORSDOF 9
ENDMDL
MODEL      192
REMARK 921   NORMALIZED FREE ENERGY PREDICTED BY IDOCK:   -3.41 KCAL/MOL
REMARK 922        TOTAL FREE ENERGY PREDICTED BY IDOCK:   -5.85 KCAL/MOL
REMARK 923 INTER-LIGAND FREE ENERGY PREDICTED BY IDOCK:   -4.38 KCAL/MOL
REMARK 924 INTRA-LIGAND FREE ENERGY PREDICTED BY IDOCK:   -1.47 KCAL/MOL
REMARK 927      BINDING AFFINITY PREDICTED BY RF-SCORE:    0.00 PKD
ROOT
HETATM    1  C   UNL     1     -11.672  11.674  69.064  1.00  0.00    -0.324 C  
HETATM    2  O   UNL     1     -12.113  11.348  67.751  1.00  0.00    -0.637 OA 
ENDROOT
BRANCH   2   3
HETATM    3  C   UNL     1     -11.766  12.378  66.824  1.00  0.00    -0.362 C  
BRANCH   3   4
HETATM    4  C   UNL     1     -10.250  12.593  66.847  1.00  0.00    -0.242 C  
BRANCH   4   5
HETATM    5  C   UNL     1      -9.525  11.608  65.965  1.00  0.00    -0.246 A  
HETATM    6  C   UNL     1      -8.237  11.196  66.315  1.00  0.00    -0.153 A  
HETATM    7  C   UNL     1      -7.535  10.300  65.514  1.00  0.00    -0.149 A  
HETATM    8  C   UNL     1      -8.104   9.781  64.350  1.00  0.00    -0.150 A  
HETATM    9  C   UNL     1     -10.106  11.082  64.804  1.00  0.00    -0.367 A  
HETATM   10  C   UNL     1      -9.396  10.175  64.000  1.00  0.00    -0.339 A  
BRANCH   8  11
HETATM   11  O   UNL     1      -7.481   8.891  63.509  1.00  0.00    -0.100 OA 
BRANCH  11  12
HETATM   12  C   UNL     1      -8.147   7.620  63.386  1.00  0.00    -0.044 C  
BRANCH  12  13
HETATM   13  C   UNL     1      -7.330   6.487  64.022  1.00  0.00    -0.077 C  
HETATM   14  H   UNL     1      -5.484   6.225  64.651  1.00  0.00     0.000 HD 
HETATM   15  O   UNL     1      -5.989   6.926  64.257  1.00  0.00    -0.035 OA 
BRANCH  13  16
HETATM   16  C   UNL     1      -7.940   5.971  65.337  1.00  0.00    -0.118 C  
BRANCH  16  17
HETATM   17  N   UNL     1      -9.263   6.548  65.593  1.00  0.00    -0.373 NA 
HETATM   18  H   UNL     1      -9.998   5.903  65.302  1.00  0.00     0.000 HD 
BRANCH  17  19
HETATM   19  C   UNL     1      -9.467   6.970  66.983  1.00  0.00    -0.149 C  
HETATM   20  C   UNL     1      -8.179   7.448  67.659  1.00  0.00    -0.118 C  
HETATM   21  C   UNL     1     -10.491   8.109  66.978  1.00  0.00    -0.396 C  
ENDBRANCH  17  19
ENDBRANCH  16  17
ENDBRANCH  13  16
ENDBRANCH  12  13
ENDBRANCH  11  12
ENDBRANCH   8  11
ENDBRANCH   4   5
ENDBRANCH   3   4
ENDBRANCH   2   3
TORSDOF 9
ENDMDL
MODEL      193
REMARK 921   NORMALIZED FREE ENERGY PREDICTED BY IDOCK:   -3.41 KCAL/MOL
REMARK 922        TOTAL FREE ENERGY PREDICTED BY IDOCK:   -5.84 KCAL/MOL
REMARK 923 INTER-LIGAND FREE ENERGY PREDICTED BY IDOCK:   -5.10 KCAL/MOL
REMARK 924 INTRA-LIGAND FREE ENERGY PREDICTED BY IDOCK:   -0.74 KCAL/MOL
REMARK 927      BINDING AFFINITY PREDICTED BY RF-SCORE:    0.00 PKD
ROOT
HETATM    1  C   UNL     1      -9.660   2.289  63.663  1.00  0.00    -0.117 C  
HETATM    2  O   UNL     1      -9.332   1.940  65.004  1.00  0.00    -0.127 OA 
ENDROOT
BRANCH   2   3
HETATM    3  C   UNL     1      -9.062   3.106  65.783  1.00  0.00    -0.149 C  
BRANCH   3   4
HETATM    4  C   UNL     1      -9.641   4.335  65.078  1.00  0.00    -0.179 C  
BRANCH   4   5
HETATM    5  C   UNL     1      -9.657   5.548  65.974  1.00  0.00    -0.128 A  
HETATM    6  C   UNL     1      -8.587   6.444  65.932  1.00  0.00    -0.151 A  
HETATM    7  C   UNL     1      -8.564   7.564  66.759  1.00  0.00    -0.127 A  
HETATM    8  C   UNL     1      -9.615   7.827  67.639  1.00  0.00    -0.146 A  
HETATM    9  C   UNL     1     -10.720   5.812  66.848  1.00  0.00    -0.381 A  
HETATM   10  C   UNL     1     -10.696   6.945  67.677  1.00  0.00    -0.344 A  
BRANCH   8  11
HETATM   11  O   UNL     1      -9.671   8.910  68.482  1.00  0.00    -0.155 OA 
BRANCH  11  12
HETATM   12  C   UNL     1     -10.262  10.087  67.903  1.00  0.00    -0.188 C  
BRANCH  12  13
HETATM   13  C   UNL     1     -10.963  10.950  68.961  1.00  0.00    -0.235 C  
HETATM   14  H   UNL     1     -12.697  11.861  69.152  1.00  0.00     0.000 HD 
HETATM   15  O   UNL     1     -12.263  11.328  68.498  1.00  0.00    -0.588 OA 
BRANCH  13  16
HETATM   16  C   UNL     1     -11.088  10.247  70.325  1.00  0.00    -0.319 C  
BRANCH  16  17
HETATM   17  N   UNL     1     -12.030   9.125  70.280  1.00  0.00    -0.461 NA 
HETATM   18  H   UNL     1     -11.661   8.370  69.702  1.00  0.00     0.000 HD 
BRANCH  17  19
HETATM   19  C   UNL     1     -12.416   8.621  71.603  1.00  0.00    -0.335 C  
HETATM   20  C   UNL     1     -13.530   9.444  72.255  1.00  0.00    -0.539 C  
HETATM   21  C   UNL     1     -12.886   7.174  71.431  1.00  0.00    -0.431 C  
ENDBRANCH  17  19
ENDBRANCH  16  17
ENDBRANCH  13  16
ENDBRANCH  12  13
ENDBRANCH  11  12
ENDBRANCH   8  11
ENDBRANCH   4   5
ENDBRANCH   3   4
ENDBRANCH   2   3
TORSDOF 9
ENDMDL
MODEL      194
REMARK 921   NORMALIZED FREE ENERGY PREDICTED BY IDOCK:   -3.39 KCAL/MOL
REMARK 922        TOTAL FREE ENERGY PREDICTED BY IDOCK:   -5.81 KCAL/MOL
REMARK 923 INTER-LIGAND FREE ENERGY PREDICTED BY IDOCK:   -5.16 KCAL/MOL
REMARK 924 INTRA-LIGAND FREE ENERGY PREDICTED BY IDOCK:   -0.65 KCAL/MOL
REMARK 927      BINDING AFFINITY PREDICTED BY RF-SCORE:    0.00 PKD
ROOT
HETATM    1  C   UNL     1     -13.069  11.180  71.752  1.00  0.00    -0.431 C  
HETATM    2  O   UNL     1     -13.407  10.037  70.974  1.00  0.00    -0.385 OA 
ENDROOT
BRANCH   2   3
HETATM    3  C   UNL     1     -13.814   8.952  71.809  1.00  0.00    -0.417 C  
BRANCH   3   4
HETATM    4  C   UNL     1     -12.584   8.345  72.490  1.00  0.00    -0.311 C  
BRANCH   4   5
HETATM    5  C   UNL     1     -11.632   7.730  71.494  1.00  0.00    -0.303 A  
HETATM    6  C   UNL     1     -10.357   8.277  71.339  1.00  0.00    -0.270 A  
HETATM    7  C   UNL     1      -9.461   7.743  70.418  1.00  0.00    -0.164 A  
HETATM    8  C   UNL     1      -9.808   6.640  69.636  1.00  0.00    -0.157 A  
HETATM    9  C   UNL     1     -11.983   6.616  70.721  1.00  0.00    -0.412 A  
HETATM   10  C   UNL     1     -11.075   6.077  69.795  1.00  0.00    -0.476 A  
BRANCH   8  11
HETATM   11  O   UNL     1      -8.982   6.051  68.710  1.00  0.00    -0.119 OA 
BRANCH  11  12
HETATM   12  C   UNL     1      -9.448   6.144  67.351  1.00  0.00    -0.114 C  
BRANCH  12  13
HETATM   13  C   UNL     1      -8.577   7.092  66.515  1.00  0.00    -0.129 C  
HETATM   14  H   UNL     1      -7.959   7.207  64.650  1.00  0.00     0.000 HD 
HETATM   15  O   UNL     1      -8.498   6.620  65.167  1.00  0.00    -0.122 OA 
BRANCH  13  16
HETATM   16  C   UNL     1      -9.088   8.544  66.523  1.00  0.00    -0.176 C  
BRANCH  16  17
HETATM   17  N   UNL     1      -9.534   8.976  65.196  1.00  0.00    -0.449 NA 
HETATM   18  H   UNL     1     -10.552   9.021  65.157  1.00  0.00     0.000 HD 
BRANCH  17  19
HETATM   19  C   UNL     1      -8.944  10.245  64.755  1.00  0.00    -0.203 C  
HETATM   20  C   UNL     1      -7.504  10.094  64.257  1.00  0.00    -0.116 C  
HETATM   21  C   UNL     1      -9.818  10.797  63.625  1.00  0.00    -0.406 C  
ENDBRANCH  17  19
ENDBRANCH  16  17
ENDBRANCH  13  16
ENDBRANCH  12  13
ENDBRANCH  11  12
ENDBRANCH   8  11
ENDBRANCH   4   5
ENDBRANCH   3   4
ENDBRANCH   2   3
TORSDOF 9
ENDMDL
MODEL      195
REMARK 921   NORMALIZED FREE ENERGY PREDICTED BY IDOCK:   -3.37 KCAL/MOL
REMARK 922        TOTAL FREE ENERGY PREDICTED BY IDOCK:   -5.79 KCAL/MOL
REMARK 923 INTER-LIGAND FREE ENERGY PREDICTED BY IDOCK:   -5.14 KCAL/MOL
REMARK 924 INTRA-LIGAND FREE ENERGY PREDICTED BY IDOCK:   -0.65 KCAL/MOL
REMARK 927      BINDING AFFINITY PREDICTED BY RF-SCORE:    0.00 PKD
ROOT
HETATM    1  C   UNL     1      -5.963  16.214  69.114  1.00  0.00    -0.134 C  
HETATM    2  O   UNL     1      -6.187  17.342  68.274  1.00  0.00    -0.156 OA 
ENDROOT
BRANCH   2   3
HETATM    3  C   UNL     1      -7.157  18.220  68.847  1.00  0.00    -0.274 C  
BRANCH   3   4
HETATM    4  C   UNL     1      -8.131  18.681  67.759  1.00  0.00    -0.269 C  
BRANCH   4   5
HETATM    5  C   UNL     1      -9.106  17.596  67.376  1.00  0.00    -0.239 A  
HETATM    6  C   UNL     1     -10.205  17.342  68.198  1.00  0.00    -0.343 A  
HETATM    7  C   UNL     1     -11.114  16.337  67.880  1.00  0.00    -0.270 A  
HETATM    8  C   UNL     1     -10.957  15.567  66.727  1.00  0.00    -0.257 A  
HETATM    9  C   UNL     1      -8.948  16.834  66.211  1.00  0.00    -0.325 A  
HETATM   10  C   UNL     1      -9.869  15.823  65.890  1.00  0.00    -0.381 A  
BRANCH   8  11
HETATM   11  O   UNL     1     -11.810  14.561  66.339  1.00  0.00    -0.383 OA 
BRANCH  11  12
HETATM   12  C   UNL     1     -11.803  13.408  67.201  1.00  0.00    -0.382 C  
BRANCH  12  13
HETATM   13  C   UNL     1     -11.636  12.106  66.406  1.00  0.00    -0.364 C  
HETATM   14  H   UNL     1     -10.601  11.499  64.845  1.00  0.00     0.000 HD 
HETATM   15  O   UNL     1     -10.705  12.304  65.337  1.00  0.00    -0.268 OA 
BRANCH  13  16
HETATM   16  C   UNL     1     -11.174  10.924  67.277  1.00  0.00    -0.233 C  
BRANCH  16  17
HETATM   17  N   UNL     1     -10.049  11.287  68.144  1.00  0.00    -0.177 NA 
HETATM   18  H   UNL     1      -9.851  12.285  68.076  1.00  0.00     0.000 HD 
BRANCH  17  19
HETATM   19  C   UNL     1     -10.228  10.891  69.545  1.00  0.00    -0.062 C  
HETATM   20  C   UNL     1     -11.657  10.441  69.862  1.00  0.00    -0.358 C  
HETATM   21  C   UNL     1      -9.258   9.741  69.831  1.00  0.00    -0.263 C  
ENDBRANCH  17  19
ENDBRANCH  16  17
ENDBRANCH  13  16
ENDBRANCH  12  13
ENDBRANCH  11  12
ENDBRANCH   8  11
ENDBRANCH   4   5
ENDBRANCH   3   4
ENDBRANCH   2   3
TORSDOF 9
ENDMDL
MODEL      196
REMARK 921   NORMALIZED FREE ENERGY PREDICTED BY IDOCK:   -3.37 KCAL/MOL
REMARK 922        TOTAL FREE ENERGY PREDICTED BY IDOCK:   -5.77 KCAL/MOL
REMARK 923 INTER-LIGAND FREE ENERGY PREDICTED BY IDOCK:   -4.94 KCAL/MOL
REMARK 924 INTRA-LIGAND FREE ENERGY PREDICTED BY IDOCK:   -0.84 KCAL/MOL
REMARK 927      BINDING AFFINITY PREDICTED BY RF-SCORE:    0.00 PKD
ROOT
HETATM    1  C   UNL     1     -12.951  13.909  71.452  1.00  0.00    -0.355 C  
HETATM    2  O   UNL     1     -13.472  12.973  72.390  1.00  0.00    -0.567 OA 
ENDROOT
BRANCH   2   3
HETATM    3  C   UNL     1     -13.326  11.635  71.911  1.00  0.00    -0.298 C  
BRANCH   3   4
HETATM    4  C   UNL     1     -12.334  11.618  70.744  1.00  0.00    -0.454 C  
BRANCH   4   5
HETATM    5  C   UNL     1     -11.724  10.254  70.540  1.00  0.00    -0.418 A  
HETATM    6  C   UNL     1     -10.966  10.007  69.394  1.00  0.00    -0.280 A  
HETATM    7  C   UNL     1     -10.403   8.755  69.168  1.00  0.00    -0.227 A  
HETATM    8  C   UNL     1     -10.570   7.718  70.087  1.00  0.00    -0.237 A  
HETATM    9  C   UNL     1     -11.886   9.220  71.473  1.00  0.00    -0.444 A  
HETATM   10  C   UNL     1     -11.313   7.958  71.244  1.00  0.00    -0.289 A  
BRANCH   8  11
HETATM   11  O   UNL     1     -10.045   6.457  69.943  1.00  0.00    -0.165 OA 
BRANCH  11  12
HETATM   12  C   UNL     1      -8.664   6.337  70.333  1.00  0.00    -0.146 C  
BRANCH  12  13
HETATM   13  C   UNL     1      -7.907   5.340  69.444  1.00  0.00    -0.088 C  
HETATM   14  H   UNL     1      -8.140   3.478  68.853  1.00  0.00     0.000 HD 
HETATM   15  O   UNL     1      -8.608   4.094  69.404  1.00  0.00    -0.074 OA 
BRANCH  13  16
HETATM   16  C   UNL     1      -7.693   5.856  68.010  1.00  0.00    -0.100 C  
BRANCH  16  17
HETATM   17  N   UNL     1      -8.493   5.111  67.033  1.00  0.00    -0.107 NA 
HETATM   18  H   UNL     1      -9.026   4.374  67.493  1.00  0.00     0.000 HD 
BRANCH  17  19
HETATM   19  C   UNL     1      -9.376   5.957  66.221  1.00  0.00    -0.152 C  
HETATM   20  C   UNL     1     -10.820   5.975  66.730  1.00  0.00    -0.356 C  
HETATM   21  C   UNL     1      -8.810   7.379  66.246  1.00  0.00    -0.182 C  
ENDBRANCH  17  19
ENDBRANCH  16  17
ENDBRANCH  13  16
ENDBRANCH  12  13
ENDBRANCH  11  12
ENDBRANCH   8  11
ENDBRANCH   4   5
ENDBRANCH   3   4
ENDBRANCH   2   3
TORSDOF 9
ENDMDL
MODEL      197
REMARK 921   NORMALIZED FREE ENERGY PREDICTED BY IDOCK:   -3.36 KCAL/MOL
REMARK 922        TOTAL FREE ENERGY PREDICTED BY IDOCK:   -5.77 KCAL/MOL
REMARK 923 INTER-LIGAND FREE ENERGY PREDICTED BY IDOCK:   -5.56 KCAL/MOL
REMARK 924 INTRA-LIGAND FREE ENERGY PREDICTED BY IDOCK:   -0.21 KCAL/MOL
REMARK 927      BINDING AFFINITY PREDICTED BY RF-SCORE:    0.00 PKD
ROOT
HETATM    1  C   UNL     1      -8.881  19.806  66.196  1.00  0.00    -0.336 C  
HETATM    2  O   UNL     1      -8.038  18.671  66.367  1.00  0.00    -0.276 OA 
ENDROOT
BRANCH   2   3
HETATM    3  C   UNL     1      -8.674  17.679  67.174  1.00  0.00    -0.243 C  
BRANCH   3   4
HETATM    4  C   UNL     1     -10.126  17.508  66.720  1.00  0.00    -0.320 C  
BRANCH   4   5
HETATM    5  C   UNL     1     -10.542  16.059  66.686  1.00  0.00    -0.297 A  
HETATM    6  C   UNL     1     -10.891  15.475  65.466  1.00  0.00    -0.372 A  
HETATM    7  C   UNL     1     -11.294  14.144  65.403  1.00  0.00    -0.322 A  
HETATM    8  C   UNL     1     -11.346  13.356  66.554  1.00  0.00    -0.320 A  
HETATM    9  C   UNL     1     -10.582  15.270  67.843  1.00  0.00    -0.260 A  
HETATM   10  C   UNL     1     -10.985  13.926  67.776  1.00  0.00    -0.271 A  
BRANCH   8  11
HETATM   11  O   UNL     1     -11.728  12.037  66.577  1.00  0.00    -0.523 OA 
BRANCH  11  12
HETATM   12  C   UNL     1     -10.795  11.135  65.953  1.00  0.00    -0.157 C  
BRANCH  12  13
HETATM   13  C   UNL     1     -10.023  10.308  66.990  1.00  0.00    -0.201 C  
HETATM   14  H   UNL     1      -9.697  10.380  68.930  1.00  0.00     0.000 HD 
HETATM   15  O   UNL     1     -10.175  10.891  68.288  1.00  0.00    -0.162 OA 
BRANCH  13  16
HETATM   16  C   UNL     1     -10.464   8.834  67.034  1.00  0.00    -0.268 C  
BRANCH  16  17
HETATM   17  N   UNL     1     -11.027   8.468  68.337  1.00  0.00    -0.439 NA 
HETATM   18  H   UNL     1     -12.018   8.247  68.251  1.00  0.00     0.000 HD 
BRANCH  17  19
HETATM   19  C   UNL     1     -10.311   7.376  69.007  1.00  0.00    -0.210 C  
HETATM   20  C   UNL     1      -9.648   7.811  70.318  1.00  0.00    -0.175 C  
HETATM   21  C   UNL     1     -11.323   6.263  69.293  1.00  0.00    -0.411 C  
ENDBRANCH  17  19
ENDBRANCH  16  17
ENDBRANCH  13  16
ENDBRANCH  12  13
ENDBRANCH  11  12
ENDBRANCH   8  11
ENDBRANCH   4   5
ENDBRANCH   3   4
ENDBRANCH   2   3
TORSDOF 9
ENDMDL
MODEL      198
REMARK 921   NORMALIZED FREE ENERGY PREDICTED BY IDOCK:   -3.35 KCAL/MOL
REMARK 922        TOTAL FREE ENERGY PREDICTED BY IDOCK:   -5.76 KCAL/MOL
REMARK 923 INTER-LIGAND FREE ENERGY PREDICTED BY IDOCK:   -5.54 KCAL/MOL
REMARK 924 INTRA-LIGAND FREE ENERGY PREDICTED BY IDOCK:   -0.21 KCAL/MOL
REMARK 927      BINDING AFFINITY PREDICTED BY RF-SCORE:    0.00 PKD
ROOT
HETATM    1  C   UNL     1      -7.712   5.098  73.410  1.00  0.00    -0.099 C  
HETATM    2  O   UNL     1      -8.601   5.950  72.694  1.00  0.00    -0.120 OA 
ENDROOT
BRANCH   2   3
HETATM    3  C   UNL     1      -9.074   7.009  73.527  1.00  0.00    -0.156 C  
BRANCH   3   4
HETATM    4  C   UNL     1     -10.586   7.166  73.340  1.00  0.00    -0.424 C  
BRANCH   4   5
HETATM    5  C   UNL     1     -10.925   8.272  72.373  1.00  0.00    -0.438 A  
HETATM    6  C   UNL     1      -9.921   8.801  71.559  1.00  0.00    -0.370 A  
HETATM    7  C   UNL     1     -10.199   9.834  70.668  1.00  0.00    -0.290 A  
HETATM    8  C   UNL     1     -11.488  10.356  70.554  1.00  0.00    -0.345 A  
HETATM    9  C   UNL     1     -12.224   8.785  72.257  1.00  0.00    -0.429 A  
HETATM   10  C   UNL     1     -12.501   9.824  71.353  1.00  0.00    -0.482 A  
BRANCH   8  11
HETATM   11  O   UNL     1     -11.845  11.370  69.698  1.00  0.00    -0.301 OA 
BRANCH  11  12
HETATM   12  C   UNL     1     -11.885  10.991  68.310  1.00  0.00    -0.148 C  
BRANCH  12  13
HETATM   13  C   UNL     1     -11.096  11.972  67.432  1.00  0.00    -0.281 C  
HETATM   14  H   UNL     1     -10.010  11.880  65.792  1.00  0.00     0.000 HD 
HETATM   15  O   UNL     1     -10.498  11.273  66.336  1.00  0.00    -0.241 OA 
BRANCH  13  16
HETATM   16  C   UNL     1     -11.960  13.127  66.894  1.00  0.00    -0.362 C  
BRANCH  16  17
HETATM   17  N   UNL     1     -11.165  14.329  66.626  1.00  0.00    -0.324 NA 
HETATM   18  H   UNL     1     -11.760  15.085  66.288  1.00  0.00     0.000 HD 
BRANCH  17  19
HETATM   19  C   UNL     1     -10.362  14.776  67.771  1.00  0.00    -0.244 C  
HETATM   20  C   UNL     1      -8.875  14.441  67.626  1.00  0.00    -0.193 C  
HETATM   21  C   UNL     1     -10.532  16.293  67.893  1.00  0.00    -0.295 C  
ENDBRANCH  17  19
ENDBRANCH  16  17
ENDBRANCH  13  16
ENDBRANCH  12  13
ENDBRANCH  11  12
ENDBRANCH   8  11
ENDBRANCH   4   5
ENDBRANCH   3   4
ENDBRANCH   2   3
TORSDOF 9
ENDMDL
MODEL      199
REMARK 921   NORMALIZED FREE ENERGY PREDICTED BY IDOCK:   -3.35 KCAL/MOL
REMARK 922        TOTAL FREE ENERGY PREDICTED BY IDOCK:   -5.75 KCAL/MOL
REMARK 923 INTER-LIGAND FREE ENERGY PREDICTED BY IDOCK:   -5.40 KCAL/MOL
REMARK 924 INTRA-LIGAND FREE ENERGY PREDICTED BY IDOCK:   -0.35 KCAL/MOL
REMARK 927      BINDING AFFINITY PREDICTED BY RF-SCORE:    0.00 PKD
ROOT
HETATM    1  C   UNL     1      -9.226   3.905  66.437  1.00  0.00    -0.166 C  
HETATM    2  O   UNL     1     -10.387   4.489  65.857  1.00  0.00    -0.269 OA 
ENDROOT
BRANCH   2   3
HETATM    3  C   UNL     1     -10.878   5.560  66.665  1.00  0.00    -0.179 C  
BRANCH   3   4
HETATM    4  C   UNL     1      -9.698   6.386  67.186  1.00  0.00    -0.170 C  
BRANCH   4   5
HETATM    5  C   UNL     1     -10.153   7.576  67.993  1.00  0.00    -0.221 A  
HETATM    6  C   UNL     1     -10.260   7.461  69.380  1.00  0.00    -0.201 A  
HETATM    7  C   UNL     1     -10.692   8.536  70.152  1.00  0.00    -0.240 A  
HETATM    8  C   UNL     1     -11.016   9.759  69.561  1.00  0.00    -0.227 A  
HETATM    9  C   UNL     1     -10.466   8.804  67.394  1.00  0.00    -0.349 A  
HETATM   10  C   UNL     1     -10.897   9.888  68.176  1.00  0.00    -0.282 A  
BRANCH   8  11
HETATM   11  O   UNL     1     -11.444  10.867  70.250  1.00  0.00    -0.300 OA 
BRANCH  11  12
HETATM   12  C   UNL     1     -12.062  11.877  69.430  1.00  0.00    -0.216 C  
BRANCH  12  13
HETATM   13  C   UNL     1     -11.666  13.291  69.877  1.00  0.00    -0.259 C  
HETATM   14  H   UNL     1     -10.927  14.910  69.035  1.00  0.00     0.000 HD 
HETATM   15  O   UNL     1     -11.172  14.035  68.759  1.00  0.00    -0.244 OA 
BRANCH  13  16
HETATM   16  C   UNL     1     -12.825  14.061  70.535  1.00  0.00    -0.220 C  
BRANCH  16  17
HETATM   17  N   UNL     1     -12.703  14.094  71.995  1.00  0.00    -0.325 NA 
HETATM   18  H   UNL     1     -11.898  13.548  72.300  1.00  0.00     0.000 HD 
BRANCH  17  19
HETATM   19  C   UNL     1     -12.651  15.450  72.555  1.00  0.00    -0.385 C  
HETATM   20  C   UNL     1     -12.521  15.462  74.081  1.00  0.00    -0.785 C  
HETATM   21  C   UNL     1     -11.445  16.162  71.936  1.00  0.00    -0.360 C  
ENDBRANCH  17  19
ENDBRANCH  16  17
ENDBRANCH  13  16
ENDBRANCH  12  13
ENDBRANCH  11  12
ENDBRANCH   8  11
ENDBRANCH   4   5
ENDBRANCH   3   4
ENDBRANCH   2   3
TORSDOF 9
ENDMDL
MODEL      200
REMARK 921   NORMALIZED FREE ENERGY PREDICTED BY IDOCK:   -3.35 KCAL/MOL
REMARK 922        TOTAL FREE ENERGY PREDICTED BY IDOCK:   -5.75 KCAL/MOL
REMARK 923 INTER-LIGAND FREE ENERGY PREDICTED BY IDOCK:   -4.79 KCAL/MOL
REMARK 924 INTRA-LIGAND FREE ENERGY PREDICTED BY IDOCK:   -0.95 KCAL/MOL
REMARK 927      BINDING AFFINITY PREDICTED BY RF-SCORE:    0.00 PKD
ROOT
HETATM    1  C   UNL     1     -10.687  19.316  67.015  1.00  0.00    -0.464 C  
HETATM    2  O   UNL     1     -10.076  18.537  65.992  1.00  0.00    -0.485 OA 
ENDROOT
BRANCH   2   3
HETATM    3  C   UNL     1      -8.786  18.079  66.400  1.00  0.00    -0.227 C  
BRANCH   3   4
HETATM    4  C   UNL     1      -8.908  17.338  67.735  1.00  0.00    -0.234 C  
BRANCH   4   5
HETATM    5  C   UNL     1      -9.005  15.845  67.547  1.00  0.00    -0.201 A  
HETATM    6  C   UNL     1     -10.254  15.265  67.315  1.00  0.00    -0.248 A  
HETATM    7  C   UNL     1     -10.379  13.888  67.154  1.00  0.00    -0.265 A  
HETATM    8  C   UNL     1      -9.261  13.055  67.205  1.00  0.00    -0.213 A  
HETATM    9  C   UNL     1      -7.877  15.016  67.590  1.00  0.00    -0.186 A  
HETATM   10  C   UNL     1      -8.006  13.627  67.422  1.00  0.00    -0.177 A  
BRANCH   8  11
HETATM   11  O   UNL     1      -9.298  11.690  67.052  1.00  0.00    -0.175 OA 
BRANCH  11  12
HETATM   12  C   UNL     1      -8.396  10.968  67.911  1.00  0.00    -0.124 C  
BRANCH  12  13
HETATM   13  C   UNL     1      -8.800   9.494  68.046  1.00  0.00    -0.123 C  
HETATM   14  H   UNL     1      -7.940   7.815  68.607  1.00  0.00     0.000 HD 
HETATM   15  O   UNL     1      -7.690   8.727  68.523  1.00  0.00    -0.096 OA 
BRANCH  13  16
HETATM   16  C   UNL     1     -10.008   9.283  68.976  1.00  0.00    -0.182 C  
BRANCH  16  17
HETATM   17  N   UNL     1     -11.128  10.162  68.628  1.00  0.00    -0.370 NA 
HETATM   18  H   UNL     1     -11.745   9.708  67.955  1.00  0.00     0.000 HD 
BRANCH  17  19
HETATM   19  C   UNL     1     -11.890  10.639  69.788  1.00  0.00    -0.304 C  
HETATM   20  C   UNL     1     -11.578   9.863  71.070  1.00  0.00    -0.470 C  
HETATM   21  C   UNL     1     -11.548  12.118  69.993  1.00  0.00    -0.251 C  
ENDBRANCH  17  19
ENDBRANCH  16  17
ENDBRANCH  13  16
ENDBRANCH  12  13
ENDBRANCH  11  12
ENDBRANCH   8  11
ENDBRANCH   4   5
ENDBRANCH   3   4
ENDBRANCH   2   3
TORSDOF 9
ENDMDL
MODEL      201
REMARK 921   NORMALIZED FREE ENERGY PREDICTED BY IDOCK:   -3.34 KCAL/MOL
REMARK 922        TOTAL FREE ENERGY PREDICTED BY IDOCK:   -5.73 KCAL/MOL
REMARK 923 INTER-LIGAND FREE ENERGY PREDICTED BY IDOCK:   -5.56 KCAL/MOL
REMARK 924 INTRA-LIGAND FREE ENERGY PREDICTED BY IDOCK:   -0.17 KCAL/MOL
REMARK 927      BINDING AFFINITY PREDICTED BY RF-SCORE:    0.00 PKD
ROOT
HETATM    1  C   UNL     1      -7.687   5.805  73.111  1.00  0.00    -0.099 C  
HETATM    2  O   UNL     1      -8.400   6.607  72.175  1.00  0.00    -0.106 OA 
ENDROOT
BRANCH   2   3
HETATM    3  C   UNL     1      -8.529   7.949  72.646  1.00  0.00    -0.150 C  
BRANCH   3   4
HETATM    4  C   UNL     1      -9.990   8.391  72.532  1.00  0.00    -0.356 C  
BRANCH   4   5
HETATM    5  C   UNL     1     -10.257   9.138  71.249  1.00  0.00    -0.400 A  
HETATM    6  C   UNL     1      -9.229   9.285  70.316  1.00  0.00    -0.273 A  
HETATM    7  C   UNL     1      -9.439   9.983  69.130  1.00  0.00    -0.214 A  
HETATM    8  C   UNL     1     -10.684  10.541  68.837  1.00  0.00    -0.220 A  
HETATM    9  C   UNL     1     -11.513   9.687  70.956  1.00  0.00    -0.444 A  
HETATM   10  C   UNL     1     -11.722  10.387  69.757  1.00  0.00    -0.310 A  
BRANCH   8  11
HETATM   11  O   UNL     1     -10.974  11.239  67.690  1.00  0.00    -0.223 OA 
BRANCH  11  12
HETATM   12  C   UNL     1     -10.563  10.586  66.474  1.00  0.00    -0.174 C  
BRANCH  12  13
HETATM   13  C   UNL     1      -9.649  11.484  65.629  1.00  0.00    -0.231 C  
HETATM   14  H   UNL     1      -7.931  11.303  64.685  1.00  0.00     0.000 HD 
HETATM   15  O   UNL     1      -8.497  10.748  65.208  1.00  0.00    -0.171 OA 
BRANCH  13  16
HETATM   16  C   UNL     1     -10.359  12.075  64.398  1.00  0.00    -0.305 C  
BRANCH  16  17
HETATM   17  N   UNL     1     -10.084  13.506  64.240  1.00  0.00    -0.771 NA 
HETATM   18  H   UNL     1     -10.502  13.860  63.380  1.00  0.00     0.000 HD 
BRANCH  17  19
HETATM   19  C   UNL     1     -10.498  14.320  65.389  1.00  0.00    -0.365 C  
HETATM   20  C   UNL     1      -9.361  14.580  66.380  1.00  0.00    -0.300 C  
HETATM   21  C   UNL     1     -11.018  15.656  64.850  1.00  0.00    -0.447 C  
ENDBRANCH  17  19
ENDBRANCH  16  17
ENDBRANCH  13  16
ENDBRANCH  12  13
ENDBRANCH  11  12
ENDBRANCH   8  11
ENDBRANCH   4   5
ENDBRANCH   3   4
ENDBRANCH   2   3
TORSDOF 9
ENDMDL
MODEL      202
REMARK 921   NORMALIZED FREE ENERGY PREDICTED BY IDOCK:   -3.33 KCAL/MOL
REMARK 922        TOTAL FREE ENERGY PREDICTED BY IDOCK:   -5.72 KCAL/MOL
REMARK 923 INTER-LIGAND FREE ENERGY PREDICTED BY IDOCK:   -4.78 KCAL/MOL
REMARK 924 INTRA-LIGAND FREE ENERGY PREDICTED BY IDOCK:   -0.94 KCAL/MOL
REMARK 927      BINDING AFFINITY PREDICTED BY RF-SCORE:    0.00 PKD
ROOT
HETATM    1  C   UNL     1     -13.157  11.295  71.701  1.00  0.00    -0.408 C  
HETATM    2  O   UNL     1     -13.328  10.118  70.919  1.00  0.00    -0.388 OA 
ENDROOT
BRANCH   2   3
HETATM    3  C   UNL     1     -13.659   9.000  71.745  1.00  0.00    -0.413 C  
BRANCH   3   4
HETATM    4  C   UNL     1     -12.396   8.494  72.447  1.00  0.00    -0.424 C  
BRANCH   4   5
HETATM    5  C   UNL     1     -11.273   8.233  71.474  1.00  0.00    -0.316 A  
HETATM    6  C   UNL     1     -10.109   9.001  71.551  1.00  0.00    -0.409 A  
HETATM    7  C   UNL     1      -9.062   8.796  70.657  1.00  0.00    -0.221 A  
HETATM    8  C   UNL     1      -9.142   7.811  69.672  1.00  0.00    -0.146 A  
HETATM    9  C   UNL     1     -11.356   7.235  70.494  1.00  0.00    -0.308 A  
HETATM   10  C   UNL     1     -10.295   7.028  69.597  1.00  0.00    -0.222 A  
BRANCH   8  11
HETATM   11  O   UNL     1      -8.153   7.542  68.757  1.00  0.00    -0.124 OA 
BRANCH  11  12
HETATM   12  C   UNL     1      -7.720   8.683  67.994  1.00  0.00    -0.102 C  
BRANCH  12  13
HETATM   13  C   UNL     1      -8.724   9.042  66.890  1.00  0.00    -0.123 C  
HETATM   14  H   UNL     1      -9.007  10.530  65.633  1.00  0.00     0.000 HD 
HETATM   15  O   UNL     1      -8.386  10.308  66.316  1.00  0.00    -0.127 OA 
BRANCH  13  16
HETATM   16  C   UNL     1      -8.803   7.979  65.780  1.00  0.00    -0.132 C  
BRANCH  16  17
HETATM   17  N   UNL     1      -9.776   6.928  66.094  1.00  0.00    -0.405 NA 
HETATM   18  H   UNL     1     -10.483   6.864  65.362  1.00  0.00     0.000 HD 
BRANCH  17  19
HETATM   19  C   UNL     1      -9.171   5.615  66.345  1.00  0.00    -0.152 C  
HETATM   20  C   UNL     1     -10.042   4.453  65.862  1.00  0.00    -0.262 C  
HETATM   21  C   UNL     1      -7.823   5.578  65.618  1.00  0.00    -0.101 C  
ENDBRANCH  17  19
ENDBRANCH  16  17
ENDBRANCH  13  16
ENDBRANCH  12  13
ENDBRANCH  11  12
ENDBRANCH   8  11
ENDBRANCH   4   5
ENDBRANCH   3   4
ENDBRANCH   2   3
TORSDOF 9
ENDMDL
MODEL      203
REMARK 921   NORMALIZED FREE ENERGY PREDICTED BY IDOCK:   -3.32 KCAL/MOL
REMARK 922        TOTAL FREE ENERGY PREDICTED BY IDOCK:   -5.71 KCAL/MOL
REMARK 923 INTER-LIGAND FREE ENERGY PREDICTED BY IDOCK:   -5.20 KCAL/MOL
REMARK 924 INTRA-LIGAND FREE ENERGY PREDICTED BY IDOCK:   -0.51 KCAL/MOL
REMARK 927      BINDING AFFINITY PREDICTED BY RF-SCORE:    0.00 PKD
ROOT
HETATM    1  C   UNL     1     -11.437  15.925  70.702  1.00  0.00    -0.400 C  
HETATM    2  O   UNL     1     -12.059  15.160  69.675  1.00  0.00    -0.314 OA 
ENDROOT
BRANCH   2   3
HETATM    3  C   UNL     1     -11.082  14.526  68.848  1.00  0.00    -0.256 C  
BRANCH   3   4
HETATM    4  C   UNL     1     -11.723  13.338  68.124  1.00  0.00    -0.397 C  
BRANCH   4   5
HETATM    5  C   UNL     1     -11.458  12.033  68.833  1.00  0.00    -0.356 A  
HETATM    6  C   UNL     1     -12.112  11.763  70.037  1.00  0.00    -0.387 A  
HETATM    7  C   UNL     1     -11.877  10.575  70.723  1.00  0.00    -0.465 A  
HETATM    8  C   UNL     1     -10.994   9.619  70.219  1.00  0.00    -0.285 A  
HETATM    9  C   UNL     1     -10.578  11.073  68.316  1.00  0.00    -0.220 A  
HETATM   10  C   UNL     1     -10.347   9.873  69.009  1.00  0.00    -0.224 A  
BRANCH   8  11
HETATM   11  O   UNL     1     -10.710   8.422  70.831  1.00  0.00    -0.213 OA 
BRANCH  11  12
HETATM   12  C   UNL     1     -11.282   7.271  70.183  1.00  0.00    -0.239 C  
BRANCH  12  13
HETATM   13  C   UNL     1     -10.370   6.042  70.300  1.00  0.00    -0.222 C  
HETATM   14  H   UNL     1      -9.083   5.094  69.152  1.00  0.00     0.000 HD 
HETATM   15  O   UNL     1      -9.647   5.854  69.080  1.00  0.00    -0.124 OA 
BRANCH  13  16
HETATM   16  C   UNL     1      -9.380   6.137  71.475  1.00  0.00    -0.148 C  
BRANCH  16  17
HETATM   17  N   UNL     1      -9.361   4.910  72.276  1.00  0.00    -0.137 NA 
HETATM   18  H   UNL     1      -8.420   4.517  72.309  1.00  0.00     0.000 HD 
BRANCH  17  19
HETATM   19  C   UNL     1      -9.898   5.078  73.632  1.00  0.00    -0.154 C  
HETATM   20  C   UNL     1     -10.346   6.513  73.924  1.00  0.00    -0.356 C  
HETATM   21  C   UNL     1     -11.093   4.132  73.779  1.00  0.00    -0.305 C  
ENDBRANCH  17  19
ENDBRANCH  16  17
ENDBRANCH  13  16
ENDBRANCH  12  13
ENDBRANCH  11  12
ENDBRANCH   8  11
ENDBRANCH   4   5
ENDBRANCH   3   4
ENDBRANCH   2   3
TORSDOF 9
ENDMDL
MODEL      204
REMARK 921   NORMALIZED FREE ENERGY PREDICTED BY IDOCK:   -3.32 KCAL/MOL
REMARK 922        TOTAL FREE ENERGY PREDICTED BY IDOCK:   -5.70 KCAL/MOL
REMARK 923 INTER-LIGAND FREE ENERGY PREDICTED BY IDOCK:   -5.59 KCAL/MOL
REMARK 924 INTRA-LIGAND FREE ENERGY PREDICTED BY IDOCK:   -0.11 KCAL/MOL
REMARK 927      BINDING AFFINITY PREDICTED BY RF-SCORE:    0.00 PKD
ROOT
HETATM    1  C   UNL     1     -10.688   5.857  66.864  1.00  0.00    -0.321 C  
HETATM    2  O   UNL     1     -10.157   7.172  66.990  1.00  0.00    -0.194 OA 
ENDROOT
BRANCH   2   3
HETATM    3  C   UNL     1      -9.121   7.399  66.033  1.00  0.00    -0.085 C  
BRANCH   3   4
HETATM    4  C   UNL     1      -8.351   8.668  66.408  1.00  0.00    -0.114 C  
BRANCH   4   5
HETATM    5  C   UNL     1      -9.259   9.865  66.535  1.00  0.00    -0.190 A  
HETATM    6  C   UNL     1      -9.208  10.642  67.694  1.00  0.00    -0.153 A  
HETATM    7  C   UNL     1     -10.045  11.744  67.850  1.00  0.00    -0.195 A  
HETATM    8  C   UNL     1     -10.945  12.107  66.848  1.00  0.00    -0.270 A  
HETATM    9  C   UNL     1     -10.154  10.230  65.521  1.00  0.00    -0.351 A  
HETATM   10  C   UNL     1     -10.994  11.345  65.679  1.00  0.00    -0.254 A  
BRANCH   8  11
HETATM   11  O   UNL     1     -11.800  13.180  66.920  1.00  0.00    -0.365 OA 
BRANCH  11  12
HETATM   12  C   UNL     1     -12.374  13.572  65.660  1.00  0.00    -0.476 C  
BRANCH  12  13
HETATM   13  C   UNL     1     -11.448  14.521  64.886  1.00  0.00    -0.396 C  
HETATM   14  H   UNL     1     -11.638  16.175  63.836  1.00  0.00     0.000 HD 
HETATM   15  O   UNL     1     -12.211  15.588  64.315  1.00  0.00    -0.504 OA 
BRANCH  13  16
HETATM   16  C   UNL     1     -10.320  15.103  65.756  1.00  0.00    -0.339 C  
BRANCH  16  17
HETATM   17  N   UNL     1      -9.929  16.447  65.320  1.00  0.00    -0.487 NA 
HETATM   18  H   UNL     1     -10.483  16.739  64.515  1.00  0.00     0.000 HD 
BRANCH  17  19
HETATM   19  C   UNL     1      -9.991  17.457  66.383  1.00  0.00    -0.316 C  
HETATM   20  C   UNL     1     -10.325  16.863  67.754  1.00  0.00    -0.327 C  
HETATM   21  C   UNL     1      -8.625  18.148  66.447  1.00  0.00    -0.251 C  
ENDBRANCH  17  19
ENDBRANCH  16  17
ENDBRANCH  13  16
ENDBRANCH  12  13
ENDBRANCH  11  12
ENDBRANCH   8  11
ENDBRANCH   4   5
ENDBRANCH   3   4
ENDBRANCH   2   3
TORSDOF 9
ENDMDL
MODEL      205
REMARK 921   NORMALIZED FREE ENERGY PREDICTED BY IDOCK:   -3.31 KCAL/MOL
REMARK 922        TOTAL FREE ENERGY PREDICTED BY IDOCK:   -5.69 KCAL/MOL
REMARK 923 INTER-LIGAND FREE ENERGY PREDICTED BY IDOCK:   -5.33 KCAL/MOL
REMARK 924 INTRA-LIGAND FREE ENERGY PREDICTED BY IDOCK:   -0.37 KCAL/MOL
REMARK 927      BINDING AFFINITY PREDICTED BY RF-SCORE:    0.00 PKD
ROOT
HETATM    1  C   UNL     1      -8.992   1.834  68.310  1.00  0.00    -0.133 C  
HETATM    2  O   UNL     1      -9.351   1.802  69.688  1.00  0.00    -0.101 OA 
ENDROOT
BRANCH   2   3
HETATM    3  C   UNL     1      -9.556   3.123  70.193  1.00  0.00    -0.102 C  
BRANCH   3   4
HETATM    4  C   UNL     1      -9.468   4.127  69.041  1.00  0.00    -0.244 C  
BRANCH   4   5
HETATM    5  C   UNL     1      -9.980   5.489  69.437  1.00  0.00    -0.276 A  
HETATM    6  C   UNL     1      -9.630   6.602  68.670  1.00  0.00    -0.130 A  
HETATM    7  C   UNL     1     -10.073   7.875  69.018  1.00  0.00    -0.204 A  
HETATM    8  C   UNL     1     -10.889   8.069  70.133  1.00  0.00    -0.242 A  
HETATM    9  C   UNL     1     -10.808   5.676  70.551  1.00  0.00    -0.315 A  
HETATM   10  C   UNL     1     -11.258   6.961  70.898  1.00  0.00    -0.332 A  
BRANCH   8  11
HETATM   11  O   UNL     1     -11.372   9.289  70.542  1.00  0.00    -0.252 OA 
BRANCH  11  12
HETATM   12  C   UNL     1     -10.706  10.422  69.954  1.00  0.00    -0.279 C  
BRANCH  12  13
HETATM   13  C   UNL     1     -11.707  11.484  69.479  1.00  0.00    -0.346 C  
HETATM   14  H   UNL     1     -12.572  13.083  70.233  1.00  0.00     0.000 HD 
HETATM   15  O   UNL     1     -11.953  12.425  70.528  1.00  0.00    -0.330 OA 
BRANCH  13  16
HETATM   16  C   UNL     1     -11.238  12.231  68.217  1.00  0.00    -0.267 C  
BRANCH  16  17
HETATM   17  N   UNL     1     -11.975  11.808  67.023  1.00  0.00    -0.575 NA 
HETATM   18  H   UNL     1     -12.978  11.928  67.159  1.00  0.00     0.000 HD 
BRANCH  17  19
HETATM   19  C   UNL     1     -11.537  12.472  65.789  1.00  0.00    -0.392 C  
HETATM   20  C   UNL     1     -10.792  11.533  64.837  1.00  0.00    -0.345 C  
HETATM   21  C   UNL     1     -12.784  13.021  65.090  1.00  0.00    -0.461 C  
ENDBRANCH  17  19
ENDBRANCH  16  17
ENDBRANCH  13  16
ENDBRANCH  12  13
ENDBRANCH  11  12
ENDBRANCH   8  11
ENDBRANCH   4   5
ENDBRANCH   3   4
ENDBRANCH   2   3
TORSDOF 9
ENDMDL
MODEL      206
REMARK 921   NORMALIZED FREE ENERGY PREDICTED BY IDOCK:   -3.30 KCAL/MOL
REMARK 922        TOTAL FREE ENERGY PREDICTED BY IDOCK:   -5.67 KCAL/MOL
REMARK 923 INTER-LIGAND FREE ENERGY PREDICTED BY IDOCK:   -4.94 KCAL/MOL
REMARK 924 INTRA-LIGAND FREE ENERGY PREDICTED BY IDOCK:   -0.73 KCAL/MOL
REMARK 927      BINDING AFFINITY PREDICTED BY RF-SCORE:    0.00 PKD
ROOT
HETATM    1  C   UNL     1      -8.441   5.185  65.217  1.00  0.00    -0.144 C  
HETATM    2  O   UNL     1      -8.976   6.347  65.842  1.00  0.00    -0.154 OA 
ENDROOT
BRANCH   2   3
HETATM    3  C   UNL     1      -8.041   7.425  65.803  1.00  0.00    -0.129 C  
BRANCH   3   4
HETATM    4  C   UNL     1      -8.377   8.349  64.629  1.00  0.00    -0.137 C  
BRANCH   4   5
HETATM    5  C   UNL     1      -9.260   9.498  65.048  1.00  0.00    -0.297 A  
HETATM    6  C   UNL     1      -9.834  10.311  64.069  1.00  0.00    -0.286 A  
HETATM    7  C   UNL     1     -10.641  11.389  64.423  1.00  0.00    -0.403 A  
HETATM    8  C   UNL     1     -10.907  11.675  65.762  1.00  0.00    -0.281 A  
HETATM    9  C   UNL     1      -9.532   9.773  66.394  1.00  0.00    -0.237 A  
HETATM   10  C   UNL     1     -10.350  10.859  66.748  1.00  0.00    -0.289 A  
BRANCH   8  11
HETATM   11  O   UNL     1     -11.695  12.715  66.195  1.00  0.00    -0.364 OA 
BRANCH  11  12
HETATM   12  C   UNL     1     -11.824  12.810  67.626  1.00  0.00    -0.339 C  
BRANCH  12  13
HETATM   13  C   UNL     1     -11.774  14.267  68.104  1.00  0.00    -0.350 C  
HETATM   14  H   UNL     1     -12.289  15.268  69.719  1.00  0.00     0.000 HD 
HETATM   15  O   UNL     1     -12.321  14.366  69.423  1.00  0.00    -0.294 OA 
BRANCH  13  16
HETATM   16  C   UNL     1     -10.351  14.856  68.093  1.00  0.00    -0.237 C  
BRANCH  16  17
HETATM   17  N   UNL     1      -9.778  14.879  66.744  1.00  0.00    -0.242 NA 
HETATM   18  H   UNL     1     -10.515  14.923  66.041  1.00  0.00     0.000 HD 
BRANCH  17  19
HETATM   19  C   UNL     1      -8.799  15.952  66.534  1.00  0.00    -0.305 C  
HETATM   20  C   UNL     1      -9.431  17.347  66.537  1.00  0.00    -0.288 C  
HETATM   21  C   UNL     1      -7.761  15.861  67.656  1.00  0.00    -0.169 C  
ENDBRANCH  17  19
ENDBRANCH  16  17
ENDBRANCH  13  16
ENDBRANCH  12  13
ENDBRANCH  11  12
ENDBRANCH   8  11
ENDBRANCH   4   5
ENDBRANCH   3   4
ENDBRANCH   2   3
TORSDOF 9
ENDMDL
MODEL      207
REMARK 921   NORMALIZED FREE ENERGY PREDICTED BY IDOCK:   -3.29 KCAL/MOL
REMARK 922        TOTAL FREE ENERGY PREDICTED BY IDOCK:   -5.66 KCAL/MOL
REMARK 923 INTER-LIGAND FREE ENERGY PREDICTED BY IDOCK:   -4.60 KCAL/MOL
REMARK 924 INTRA-LIGAND FREE ENERGY PREDICTED BY IDOCK:   -1.07 KCAL/MOL
REMARK 927      BINDING AFFINITY PREDICTED BY RF-SCORE:    0.00 PKD
ROOT
HETATM    1  C   UNL     1     -13.069  11.191  71.747  1.00  0.00    -0.431 C  
HETATM    2  O   UNL     1     -13.374  10.055  70.945  1.00  0.00    -0.382 OA 
ENDROOT
BRANCH   2   3
HETATM    3  C   UNL     1     -13.893   8.991  71.743  1.00  0.00    -0.399 C  
BRANCH   3   4
HETATM    4  C   UNL     1     -12.763   8.381  72.576  1.00  0.00    -0.286 C  
BRANCH   4   5
HETATM    5  C   UNL     1     -11.697   7.755  71.713  1.00  0.00    -0.323 A  
HETATM    6  C   UNL     1     -10.378   8.200  71.823  1.00  0.00    -0.293 A  
HETATM    7  C   UNL     1      -9.374   7.654  71.029  1.00  0.00    -0.156 A  
HETATM    8  C   UNL     1      -9.656   6.640  70.112  1.00  0.00    -0.161 A  
HETATM    9  C   UNL     1     -11.986   6.730  70.802  1.00  0.00    -0.433 A  
HETATM   10  C   UNL     1     -10.969   6.178  70.004  1.00  0.00    -0.441 A  
BRANCH   8  11
HETATM   11  O   UNL     1      -8.725   6.046  69.296  1.00  0.00    -0.116 OA 
BRANCH  11  12
HETATM   12  C   UNL     1      -8.914   6.300  67.891  1.00  0.00    -0.113 C  
BRANCH  12  13
HETATM   13  C   UNL     1      -7.632   6.829  67.233  1.00  0.00    -0.104 C  
HETATM   14  H   UNL     1      -6.578   6.435  65.618  1.00  0.00     0.000 HD 
HETATM   15  O   UNL     1      -7.371   6.107  66.026  1.00  0.00    -0.077 OA 
BRANCH  13  16
HETATM   16  C   UNL     1      -7.691   8.337  66.928  1.00  0.00    -0.095 C  
BRANCH  16  17
HETATM   17  N   UNL     1      -8.385   9.083  67.981  1.00  0.00    -0.117 NA 
HETATM   18  H   UNL     1      -7.716   9.483  68.639  1.00  0.00     0.000 HD 
BRANCH  17  19
HETATM   19  C   UNL     1      -9.293  10.119  67.474  1.00  0.00    -0.151 C  
HETATM   20  C   UNL     1     -10.150   9.641  66.299  1.00  0.00    -0.322 C  
HETATM   21  C   UNL     1     -10.204  10.545  68.629  1.00  0.00    -0.197 C  
ENDBRANCH  17  19
ENDBRANCH  16  17
ENDBRANCH  13  16
ENDBRANCH  12  13
ENDBRANCH  11  12
ENDBRANCH   8  11
ENDBRANCH   4   5
ENDBRANCH   3   4
ENDBRANCH   2   3
TORSDOF 9
ENDMDL
MODEL      208
REMARK 921   NORMALIZED FREE ENERGY PREDICTED BY IDOCK:   -3.28 KCAL/MOL
REMARK 922        TOTAL FREE ENERGY PREDICTED BY IDOCK:   -5.64 KCAL/MOL
REMARK 923 INTER-LIGAND FREE ENERGY PREDICTED BY IDOCK:   -5.45 KCAL/MOL
REMARK 924 INTRA-LIGAND FREE ENERGY PREDICTED BY IDOCK:   -0.19 KCAL/MOL
REMARK 927      BINDING AFFINITY PREDICTED BY RF-SCORE:    0.00 PKD
ROOT
HETATM    1  C   UNL     1      -6.736  10.069  64.274  1.00  0.00    -0.128 C  
HETATM    2  O   UNL     1      -8.029   9.653  63.848  1.00  0.00    -0.127 OA 
ENDROOT
BRANCH   2   3
HETATM    3  C   UNL     1      -8.865  10.779  63.578  1.00  0.00    -0.147 C  
BRANCH   3   4
HETATM    4  C   UNL     1     -10.211  10.595  64.285  1.00  0.00    -0.391 C  
BRANCH   4   5
HETATM    5  C   UNL     1     -10.589  11.803  65.105  1.00  0.00    -0.332 A  
HETATM    6  C   UNL     1     -11.734  12.528  64.767  1.00  0.00    -0.411 A  
HETATM    7  C   UNL     1     -12.101  13.657  65.494  1.00  0.00    -0.440 A  
HETATM    8  C   UNL     1     -11.344  14.085  66.585  1.00  0.00    -0.335 A  
HETATM    9  C   UNL     1      -9.831  12.221  66.206  1.00  0.00    -0.254 A  
HETATM   10  C   UNL     1     -10.206  13.358  66.941  1.00  0.00    -0.252 A  
BRANCH   8  11
HETATM   11  O   UNL     1     -11.640  15.183  67.356  1.00  0.00    -0.328 OA 
BRANCH  11  12
HETATM   12  C   UNL     1     -10.566  15.619  68.210  1.00  0.00    -0.262 C  
BRANCH  12  13
HETATM   13  C   UNL     1      -9.792  16.793  67.594  1.00  0.00    -0.261 C  
HETATM   14  H   UNL     1      -9.982  17.978  66.034  1.00  0.00     0.000 HD 
HETATM   15  O   UNL     1     -10.461  17.252  66.415  1.00  0.00    -0.322 OA 
BRANCH  13  16
HETATM   16  C   UNL     1      -9.605  17.969  68.570  1.00  0.00    -0.336 C  
BRANCH  16  17
HETATM   17  N   UNL     1      -8.730  19.006  68.017  1.00  0.00    -0.297 NA 
HETATM   18  H   UNL     1      -9.186  19.918  68.055  1.00  0.00     0.000 HD 
BRANCH  17  19
HETATM   19  C   UNL     1      -7.407  19.064  68.649  1.00  0.00    -0.318 C  
HETATM   20  C   UNL     1      -6.808  17.680  68.911  1.00  0.00    -0.243 C  
HETATM   21  C   UNL     1      -6.481  19.850  67.716  1.00  0.00    -0.263 C  
ENDBRANCH  17  19
ENDBRANCH  16  17
ENDBRANCH  13  16
ENDBRANCH  12  13
ENDBRANCH  11  12
ENDBRANCH   8  11
ENDBRANCH   4   5
ENDBRANCH   3   4
ENDBRANCH   2   3
TORSDOF 9
ENDMDL
MODEL      209
REMARK 921   NORMALIZED FREE ENERGY PREDICTED BY IDOCK:   -3.27 KCAL/MOL
REMARK 922        TOTAL FREE ENERGY PREDICTED BY IDOCK:   -5.63 KCAL/MOL
REMARK 923 INTER-LIGAND FREE ENERGY PREDICTED BY IDOCK:   -5.22 KCAL/MOL
REMARK 924 INTRA-LIGAND FREE ENERGY PREDICTED BY IDOCK:   -0.41 KCAL/MOL
REMARK 927      BINDING AFFINITY PREDICTED BY RF-SCORE:    0.00 PKD
ROOT
HETATM    1  C   UNL     1     -10.042  19.295  68.550  1.00  0.00    -0.430 C  
HETATM    2  O   UNL     1      -9.693  18.784  67.268  1.00  0.00    -0.291 OA 
ENDROOT
BRANCH   2   3
HETATM    3  C   UNL     1     -10.740  17.969  66.740  1.00  0.00    -0.171 C  
BRANCH   3   4
HETATM    4  C   UNL     1     -10.152  16.971  65.738  1.00  0.00    -0.219 C  
BRANCH   4   5
HETATM    5  C   UNL     1     -10.623  15.563  65.998  1.00  0.00    -0.333 A  
HETATM    6  C   UNL     1     -10.780  15.126  67.316  1.00  0.00    -0.305 A  
HETATM    7  C   UNL     1     -11.198  13.827  67.589  1.00  0.00    -0.316 A  
HETATM    8  C   UNL     1     -11.483  12.933  66.557  1.00  0.00    -0.341 A  
HETATM    9  C   UNL     1     -10.918  14.673  64.957  1.00  0.00    -0.415 A  
HETATM   10  C   UNL     1     -11.343  13.364  65.236  1.00  0.00    -0.313 A  
BRANCH   8  11
HETATM   11  O   UNL     1     -11.904  11.638  66.741  1.00  0.00    -0.557 OA 
BRANCH  11  12
HETATM   12  C   UNL     1     -11.283  10.961  67.849  1.00  0.00    -0.321 C  
BRANCH  12  13
HETATM   13  C   UNL     1     -10.294   9.887  67.376  1.00  0.00    -0.246 C  
HETATM   14  H   UNL     1     -10.397   8.085  66.590  1.00  0.00     0.000 HD 
HETATM   15  O   UNL     1     -11.009   8.750  66.883  1.00  0.00    -0.060 OA 
BRANCH  13  16
HETATM   16  C   UNL     1      -9.326  10.395  66.292  1.00  0.00    -0.166 C  
BRANCH  16  17
HETATM   17  N   UNL     1      -9.406   9.596  65.066  1.00  0.00    -0.283 NA 
HETATM   18  H   UNL     1     -10.201   9.888  64.498  1.00  0.00     0.000 HD 
BRANCH  17  19
HETATM   19  C   UNL     1      -8.172   9.604  64.271  1.00  0.00    -0.156 C  
HETATM   20  C   UNL     1      -8.337  10.304  62.919  1.00  0.00    -0.172 C  
HETATM   21  C   UNL     1      -7.097  10.325  65.089  1.00  0.00    -0.121 C  
ENDBRANCH  17  19
ENDBRANCH  16  17
ENDBRANCH  13  16
ENDBRANCH  12  13
ENDBRANCH  11  12
ENDBRANCH   8  11
ENDBRANCH   4   5
ENDBRANCH   3   4
ENDBRANCH   2   3
TORSDOF 9
ENDMDL
MODEL      210
REMARK 921   NORMALIZED FREE ENERGY PREDICTED BY IDOCK:   -3.27 KCAL/MOL
REMARK 922        TOTAL FREE ENERGY PREDICTED BY IDOCK:   -5.63 KCAL/MOL
REMARK 923 INTER-LIGAND FREE ENERGY PREDICTED BY IDOCK:   -4.80 KCAL/MOL
REMARK 924 INTRA-LIGAND FREE ENERGY PREDICTED BY IDOCK:   -0.82 KCAL/MOL
REMARK 927      BINDING AFFINITY PREDICTED BY RF-SCORE:    0.00 PKD
ROOT
HETATM    1  C   UNL     1     -11.749  11.281  68.389  1.00  0.00    -0.294 C  
HETATM    2  O   UNL     1     -11.430  12.100  69.509  1.00  0.00    -0.279 OA 
ENDROOT
BRANCH   2   3
HETATM    3  C   UNL     1     -11.976  13.411  69.356  1.00  0.00    -0.315 C  
BRANCH   3   4
HETATM    4  C   UNL     1     -11.924  13.814  67.879  1.00  0.00    -0.391 C  
BRANCH   4   5
HETATM    5  C   UNL     1     -10.698  14.632  67.558  1.00  0.00    -0.268 A  
HETATM    6  C   UNL     1     -10.371  14.881  66.224  1.00  0.00    -0.302 A  
HETATM    7  C   UNL     1      -9.238  15.618  65.894  1.00  0.00    -0.330 A  
HETATM    8  C   UNL     1      -8.407  16.138  66.888  1.00  0.00    -0.236 A  
HETATM    9  C   UNL     1      -9.874  15.160  68.561  1.00  0.00    -0.220 A  
HETATM   10  C   UNL     1      -8.733  15.907  68.225  1.00  0.00    -0.174 A  
BRANCH   8  11
HETATM   11  O   UNL     1      -7.275  16.878  66.648  1.00  0.00    -0.208 OA 
BRANCH  11  12
HETATM   12  C   UNL     1      -7.497  18.076  65.881  1.00  0.00    -0.178 C  
BRANCH  12  13
HETATM   13  C   UNL     1      -6.275  19.005  65.913  1.00  0.00    -0.201 C  
HETATM   14  H   UNL     1      -5.877  20.873  65.437  1.00  0.00     0.000 HD 
HETATM   15  O   UNL     1      -6.633  20.298  65.417  1.00  0.00    -0.248 OA 
BRANCH  13  16
HETATM   16  C   UNL     1      -5.662  19.145  67.318  1.00  0.00    -0.174 C  
BRANCH  16  17
HETATM   17  N   UNL     1      -6.354  20.158  68.121  1.00  0.00    -0.260 NA 
HETATM   18  H   UNL     1      -7.008  20.687  67.544  1.00  0.00     0.000 HD 
BRANCH  17  19
HETATM   19  C   UNL     1      -7.031  19.617  69.305  1.00  0.00    -0.340 C  
HETATM   20  C   UNL     1      -8.506  19.291  69.055  1.00  0.00    -0.259 C  
HETATM   21  C   UNL     1      -6.291  18.342  69.721  1.00  0.00    -0.128 C  
ENDBRANCH  17  19
ENDBRANCH  16  17
ENDBRANCH  13  16
ENDBRANCH  12  13
ENDBRANCH  11  12
ENDBRANCH   8  11
ENDBRANCH   4   5
ENDBRANCH   3   4
ENDBRANCH   2   3
TORSDOF 9
ENDMDL
MODEL      211
REMARK 921   NORMALIZED FREE ENERGY PREDICTED BY IDOCK:   -3.26 KCAL/MOL
REMARK 922        TOTAL FREE ENERGY PREDICTED BY IDOCK:   -5.62 KCAL/MOL
REMARK 923 INTER-LIGAND FREE ENERGY PREDICTED BY IDOCK:   -5.22 KCAL/MOL
REMARK 924 INTRA-LIGAND FREE ENERGY PREDICTED BY IDOCK:   -0.40 KCAL/MOL
REMARK 927      BINDING AFFINITY PREDICTED BY RF-SCORE:    0.00 PKD
ROOT
HETATM    1  C   UNL     1     -14.217   7.770  72.030  1.00  0.00    -0.313 C  
HETATM    2  O   UNL     1     -14.148   9.004  71.323  1.00  0.00    -0.302 OA 
ENDROOT
BRANCH   2   3
HETATM    3  C   UNL     1     -13.177   9.874  71.906  1.00  0.00    -0.458 C  
BRANCH   3   4
HETATM    4  C   UNL     1     -11.774   9.322  71.639  1.00  0.00    -0.462 C  
BRANCH   4   5
HETATM    5  C   UNL     1     -11.122   9.982  70.450  1.00  0.00    -0.393 A  
HETATM    6  C   UNL     1     -11.766  11.050  69.823  1.00  0.00    -0.410 A  
HETATM    7  C   UNL     1     -11.199  11.671  68.713  1.00  0.00    -0.304 A  
HETATM    8  C   UNL     1      -9.967  11.250  68.209  1.00  0.00    -0.195 A  
HETATM    9  C   UNL     1      -9.881   9.562  69.955  1.00  0.00    -0.269 A  
HETATM   10  C   UNL     1      -9.309  10.193  68.838  1.00  0.00    -0.179 A  
BRANCH   8  11
HETATM   11  O   UNL     1      -9.338  11.811  67.124  1.00  0.00    -0.172 OA 
BRANCH  11  12
HETATM   12  C   UNL     1      -8.035  12.354  67.405  1.00  0.00    -0.178 C  
BRANCH  12  13
HETATM   13  C   UNL     1      -8.108  13.839  67.783  1.00  0.00    -0.176 C  
HETATM   14  H   UNL     1      -6.983  15.438  67.554  1.00  0.00     0.000 HD 
HETATM   15  O   UNL     1      -6.937  14.518  67.320  1.00  0.00    -0.214 OA 
BRANCH  13  16
HETATM   16  C   UNL     1      -9.362  14.540  67.229  1.00  0.00    -0.210 C  
BRANCH  16  17
HETATM   17  N   UNL     1      -9.082  15.918  66.813  1.00  0.00    -0.229 NA 
HETATM   18  H   UNL     1      -8.672  15.935  65.880  1.00  0.00     0.000 HD 
BRANCH  17  19
HETATM   19  C   UNL     1     -10.248  16.806  66.881  1.00  0.00    -0.290 C  
HETATM   20  C   UNL     1      -9.941  18.147  67.554  1.00  0.00    -0.338 C  
HETATM   21  C   UNL     1     -10.728  17.054  65.448  1.00  0.00    -0.126 C  
ENDBRANCH  17  19
ENDBRANCH  16  17
ENDBRANCH  13  16
ENDBRANCH  12  13
ENDBRANCH  11  12
ENDBRANCH   8  11
ENDBRANCH   4   5
ENDBRANCH   3   4
ENDBRANCH   2   3
TORSDOF 9
ENDMDL
MODEL      212
REMARK 921   NORMALIZED FREE ENERGY PREDICTED BY IDOCK:   -3.25 KCAL/MOL
REMARK 922        TOTAL FREE ENERGY PREDICTED BY IDOCK:   -5.60 KCAL/MOL
REMARK 923 INTER-LIGAND FREE ENERGY PREDICTED BY IDOCK:   -4.94 KCAL/MOL
REMARK 924 INTRA-LIGAND FREE ENERGY PREDICTED BY IDOCK:   -0.66 KCAL/MOL
REMARK 927      BINDING AFFINITY PREDICTED BY RF-SCORE:    0.00 PKD
ROOT
HETATM    1  C   UNL     1     -12.718  11.875  63.500  1.00  0.00    -0.405 C  
HETATM    2  O   UNL     1     -12.925  12.813  64.550  1.00  0.00    -0.730 OA 
ENDROOT
BRANCH   2   3
HETATM    3  C   UNL     1     -11.704  13.090  65.237  1.00  0.00    -0.353 C  
BRANCH   3   4
HETATM    4  C   UNL     1     -11.828  12.644  66.697  1.00  0.00    -0.449 C  
BRANCH   4   5
HETATM    5  C   UNL     1     -10.895  11.505  67.022  1.00  0.00    -0.320 A  
HETATM    6  C   UNL     1     -10.043  11.611  68.123  1.00  0.00    -0.202 A  
HETATM    7  C   UNL     1      -9.159  10.584  68.440  1.00  0.00    -0.148 A  
HETATM    8  C   UNL     1      -9.111   9.417  67.676  1.00  0.00    -0.121 A  
HETATM    9  C   UNL     1     -10.860  10.331  66.257  1.00  0.00     0.014 A  
HETATM   10  C   UNL     1      -9.970   9.295  66.582  1.00  0.00    -0.333 A  
BRANCH   8  11
HETATM   11  O   UNL     1      -8.273   8.357  67.923  1.00  0.00    -0.124 OA 
BRANCH  11  12
HETATM   12  C   UNL     1      -8.292   7.887  69.284  1.00  0.00    -0.136 C  
BRANCH  12  13
HETATM   13  C   UNL     1      -9.483   6.956  69.546  1.00  0.00    -0.146 C  
HETATM   14  H   UNL     1     -10.310   5.398  68.671  1.00  0.00     0.000 HD 
HETATM   15  O   UNL     1      -9.573   5.975  68.509  1.00  0.00    -0.119 OA 
BRANCH  13  16
HETATM   16  C   UNL     1      -9.408   6.253  70.914  1.00  0.00    -0.161 C  
BRANCH  16  17
HETATM   17  N   UNL     1     -10.606   6.494  71.722  1.00  0.00    -0.212 NA 
HETATM   18  H   UNL     1     -10.354   6.665  72.695  1.00  0.00     0.000 HD 
BRANCH  17  19
HETATM   19  C   UNL     1     -11.459   7.573  71.211  1.00  0.00    -0.274 C  
HETATM   20  C   UNL     1     -12.945   7.203  71.191  1.00  0.00    -0.316 C  
HETATM   21  C   UNL     1     -11.252   8.795  72.110  1.00  0.00    -0.408 C  
ENDBRANCH  17  19
ENDBRANCH  16  17
ENDBRANCH  13  16
ENDBRANCH  12  13
ENDBRANCH  11  12
ENDBRANCH   8  11
ENDBRANCH   4   5
ENDBRANCH   3   4
ENDBRANCH   2   3
TORSDOF 9
ENDMDL
MODEL      213
REMARK 921   NORMALIZED FREE ENERGY PREDICTED BY IDOCK:   -3.24 KCAL/MOL
REMARK 922        TOTAL FREE ENERGY PREDICTED BY IDOCK:   -5.59 KCAL/MOL
REMARK 923 INTER-LIGAND FREE ENERGY PREDICTED BY IDOCK:   -5.02 KCAL/MOL
REMARK 924 INTRA-LIGAND FREE ENERGY PREDICTED BY IDOCK:   -0.57 KCAL/MOL
REMARK 927      BINDING AFFINITY PREDICTED BY RF-SCORE:    0.00 PKD
ROOT
HETATM    1  C   UNL     1     -12.137  15.853  71.750  1.00  0.00    -0.492 C  
HETATM    2  O   UNL     1     -12.613  15.626  70.428  1.00  0.00    -0.426 OA 
ENDROOT
BRANCH   2   3
HETATM    3  C   UNL     1     -11.531  15.365  69.533  1.00  0.00    -0.319 C  
BRANCH   3   4
HETATM    4  C   UNL     1     -12.069  14.698  68.264  1.00  0.00    -0.214 C  
BRANCH   4   5
HETATM    5  C   UNL     1     -11.732  13.229  68.210  1.00  0.00    -0.388 A  
HETATM    6  C   UNL     1     -11.580  12.607  66.969  1.00  0.00    -0.431 A  
HETATM    7  C   UNL     1     -11.285  11.249  66.885  1.00  0.00    -0.300 A  
HETATM    8  C   UNL     1     -11.119  10.479  68.037  1.00  0.00    -0.300 A  
HETATM    9  C   UNL     1     -11.556  12.463  69.370  1.00  0.00    -0.371 A  
HETATM   10  C   UNL     1     -11.253  11.095  69.282  1.00  0.00    -0.331 A  
BRANCH   8  11
HETATM   11  O   UNL     1     -10.822   9.137  68.041  1.00  0.00    -0.185 OA 
BRANCH  11  12
HETATM   12  C   UNL     1     -10.723   8.552  69.352  1.00  0.00    -0.156 C  
BRANCH  12  13
HETATM   13  C   UNL     1     -10.315   7.074  69.285  1.00  0.00    -0.200 C  
HETATM   14  H   UNL     1     -10.956   5.447  68.382  1.00  0.00     0.000 HD 
HETATM   15  O   UNL     1     -11.208   6.361  68.424  1.00  0.00    -0.320 OA 
BRANCH  13  16
HETATM   16  C   UNL     1      -8.867   6.871  68.804  1.00  0.00    -0.132 C  
BRANCH  16  17
HETATM   17  N   UNL     1      -8.761   5.786  67.824  1.00  0.00    -0.108 NA 
HETATM   18  H   UNL     1      -9.686   5.491  67.513  1.00  0.00     0.000 HD 
BRANCH  17  19
HETATM   19  C   UNL     1      -7.908   6.108  66.673  1.00  0.00    -0.104 C  
HETATM   20  C   UNL     1      -8.227   5.261  65.438  1.00  0.00    -0.127 C  
HETATM   21  C   UNL     1      -8.113   7.589  66.342  1.00  0.00    -0.114 C  
ENDBRANCH  17  19
ENDBRANCH  16  17
ENDBRANCH  13  16
ENDBRANCH  12  13
ENDBRANCH  11  12
ENDBRANCH   8  11
ENDBRANCH   4   5
ENDBRANCH   3   4
ENDBRANCH   2   3
TORSDOF 9
ENDMDL
MODEL      214
REMARK 921   NORMALIZED FREE ENERGY PREDICTED BY IDOCK:   -3.22 KCAL/MOL
REMARK 922        TOTAL FREE ENERGY PREDICTED BY IDOCK:   -5.55 KCAL/MOL
REMARK 923 INTER-LIGAND FREE ENERGY PREDICTED BY IDOCK:   -5.15 KCAL/MOL
REMARK 924 INTRA-LIGAND FREE ENERGY PREDICTED BY IDOCK:   -0.40 KCAL/MOL
REMARK 927      BINDING AFFINITY PREDICTED BY RF-SCORE:    0.00 PKD
ROOT
HETATM    1  C   UNL     1      -8.476   8.892  71.102  1.00  0.00    -0.198 C  
HETATM    2  O   UNL     1      -9.731   8.251  71.307  1.00  0.00    -0.161 OA 
ENDROOT
BRANCH   2   3
HETATM    3  C   UNL     1     -10.714   9.185  71.755  1.00  0.00    -0.335 C  
BRANCH   3   4
HETATM    4  C   UNL     1     -11.826   9.295  70.707  1.00  0.00    -0.303 C  
BRANCH   4   5
HETATM    5  C   UNL     1     -11.896  10.674  70.099  1.00  0.00    -0.421 A  
HETATM    6  C   UNL     1     -12.268  11.756  70.898  1.00  0.00    -0.378 A  
HETATM    7  C   UNL     1     -12.358  13.038  70.363  1.00  0.00    -0.351 A  
HETATM    8  C   UNL     1     -12.065  13.276  69.020  1.00  0.00    -0.226 A  
HETATM    9  C   UNL     1     -11.591  10.907  68.752  1.00  0.00    -0.378 A  
HETATM   10  C   UNL     1     -11.678  12.203  68.216  1.00  0.00    -0.401 A  
BRANCH   8  11
HETATM   11  O   UNL     1     -12.124  14.509  68.416  1.00  0.00    -0.302 OA 
BRANCH  11  12
HETATM   12  C   UNL     1     -11.255  15.499  68.995  1.00  0.00    -0.303 C  
BRANCH  12  13
HETATM   13  C   UNL     1      -9.924  15.600  68.237  1.00  0.00    -0.213 C  
HETATM   14  H   UNL     1      -8.476  16.919  68.045  1.00  0.00     0.000 HD 
HETATM   15  O   UNL     1      -9.299  16.857  68.515  1.00  0.00    -0.243 OA 
BRANCH  13  16
HETATM   16  C   UNL     1      -8.951  14.456  68.574  1.00  0.00    -0.187 C  
BRANCH  16  17
HETATM   17  N   UNL     1      -7.938  14.867  69.549  1.00  0.00    -0.383 NA 
HETATM   18  H   UNL     1      -8.349  14.956  70.478  1.00  0.00     0.000 HD 
BRANCH  17  19
HETATM   19  C   UNL     1      -6.761  13.992  69.587  1.00  0.00    -0.064 C  
HETATM   20  C   UNL     1      -5.821  14.200  68.396  1.00  0.00    -0.104 C  
HETATM   21  C   UNL     1      -6.006  14.283  70.887  1.00  0.00    -0.200 C  
ENDBRANCH  17  19
ENDBRANCH  16  17
ENDBRANCH  13  16
ENDBRANCH  12  13
ENDBRANCH  11  12
ENDBRANCH   8  11
ENDBRANCH   4   5
ENDBRANCH   3   4
ENDBRANCH   2   3
TORSDOF 9
ENDMDL
MODEL      215
REMARK 921   NORMALIZED FREE ENERGY PREDICTED BY IDOCK:   -3.21 KCAL/MOL
REMARK 922        TOTAL FREE ENERGY PREDICTED BY IDOCK:   -5.53 KCAL/MOL
REMARK 923 INTER-LIGAND FREE ENERGY PREDICTED BY IDOCK:   -5.00 KCAL/MOL
REMARK 924 INTRA-LIGAND FREE ENERGY PREDICTED BY IDOCK:   -0.53 KCAL/MOL
REMARK 927      BINDING AFFINITY PREDICTED BY RF-SCORE:    0.00 PKD
ROOT
HETATM    1  C   UNL     1      -5.945  17.482  68.561  1.00  0.00    -0.167 C  
HETATM    2  O   UNL     1      -6.666  18.498  67.871  1.00  0.00    -0.209 OA 
ENDROOT
BRANCH   2   3
HETATM    3  C   UNL     1      -7.902  18.783  68.528  1.00  0.00    -0.336 C  
BRANCH   3   4
HETATM    4  C   UNL     1      -8.980  19.074  67.480  1.00  0.00    -0.322 C  
BRANCH   4   5
HETATM    5  C   UNL     1      -9.798  17.850  67.154  1.00  0.00    -0.308 A  
HETATM    6  C   UNL     1     -10.319  17.078  68.195  1.00  0.00    -0.347 A  
HETATM    7  C   UNL     1     -11.065  15.934  67.928  1.00  0.00    -0.317 A  
HETATM    8  C   UNL     1     -11.322  15.536  66.615  1.00  0.00    -0.034 A  
HETATM    9  C   UNL     1     -10.061  17.462  65.834  1.00  0.00    -0.219 A  
HETATM   10  C   UNL     1     -10.817  16.308  65.568  1.00  0.00    -0.254 A  
BRANCH   8  11
HETATM   11  O   UNL     1     -12.051  14.425  66.267  1.00  0.00    -0.409 OA 
BRANCH  11  12
HETATM   12  C   UNL     1     -11.353  13.177  66.435  1.00  0.00    -0.315 C  
BRANCH  12  13
HETATM   13  C   UNL     1     -11.408  12.320  65.162  1.00  0.00    -0.329 C  
HETATM   14  H   UNL     1     -11.444  12.633  63.220  1.00  0.00     0.000 HD 
HETATM   15  O   UNL     1     -11.410  13.163  64.007  1.00  0.00    -0.380 OA 
BRANCH  13  16
HETATM   16  C   UNL     1     -10.247  11.314  65.063  1.00  0.00    -0.284 C  
BRANCH  16  17
HETATM   17  N   UNL     1      -9.179  11.613  66.022  1.00  0.00    -0.232 NA 
HETATM   18  H   UNL     1      -9.356  12.501  66.491  1.00  0.00     0.000 HD 
BRANCH  17  19
HETATM   19  C   UNL     1      -8.948  10.547  67.004  1.00  0.00    -0.140 C  
HETATM   20  C   UNL     1      -9.975   9.415  66.911  1.00  0.00    -0.293 C  
HETATM   21  C   UNL     1      -7.546   9.983  66.756  1.00  0.00    -0.103 C  
ENDBRANCH  17  19
ENDBRANCH  16  17
ENDBRANCH  13  16
ENDBRANCH  12  13
ENDBRANCH  11  12
ENDBRANCH   8  11
ENDBRANCH   4   5
ENDBRANCH   3   4
ENDBRANCH   2   3
TORSDOF 9
ENDMDL
MODEL      216
REMARK 921   NORMALIZED FREE ENERGY PREDICTED BY IDOCK:   -3.20 KCAL/MOL
REMARK 922        TOTAL FREE ENERGY PREDICTED BY IDOCK:   -5.52 KCAL/MOL
REMARK 923 INTER-LIGAND FREE ENERGY PREDICTED BY IDOCK:   -4.98 KCAL/MOL
REMARK 924 INTRA-LIGAND FREE ENERGY PREDICTED BY IDOCK:   -0.54 KCAL/MOL
REMARK 927      BINDING AFFINITY PREDICTED BY RF-SCORE:    0.00 PKD
ROOT
HETATM    1  C   UNL     1      -5.594  20.635  69.143  1.00  0.00    -0.359 C  
HETATM    2  O   UNL     1      -6.903  20.348  68.662  1.00  0.00    -0.264 OA 
ENDROOT
BRANCH   2   3
HETATM    3  C   UNL     1      -6.932  20.340  67.234  1.00  0.00    -0.266 C  
BRANCH   3   4
HETATM    4  C   UNL     1      -8.386  20.317  66.755  1.00  0.00    -0.317 C  
BRANCH   4   5
HETATM    5  C   UNL     1      -9.057  18.998  67.044  1.00  0.00    -0.319 A  
HETATM    6  C   UNL     1      -8.423  17.811  66.671  1.00  0.00    -0.283 A  
HETATM    7  C   UNL     1      -9.023  16.579  66.910  1.00  0.00    -0.242 A  
HETATM    8  C   UNL     1     -10.266  16.496  67.539  1.00  0.00    -0.283 A  
HETATM    9  C   UNL     1     -10.300  18.922  67.686  1.00  0.00    -0.496 A  
HETATM   10  C   UNL     1     -10.902  17.676  67.929  1.00  0.00    -0.245 A  
BRANCH   8  11
HETATM   11  O   UNL     1     -10.923  15.322  67.814  1.00  0.00    -0.293 OA 
BRANCH  11  12
HETATM   12  C   UNL     1     -11.278  14.549  66.652  1.00  0.00    -0.346 C  
BRANCH  12  13
HETATM   13  C   UNL     1     -11.106  13.044  66.897  1.00  0.00    -0.277 C  
HETATM   14  H   UNL     1     -10.596  11.466  65.838  1.00  0.00     0.000 HD 
HETATM   15  O   UNL     1     -10.703  12.397  65.686  1.00  0.00    -0.253 OA 
BRANCH  13  16
HETATM   16  C   UNL     1     -10.093  12.727  68.011  1.00  0.00    -0.230 C  
BRANCH  16  17
HETATM   17  N   UNL     1      -8.857  12.145  67.480  1.00  0.00    -0.167 NA 
HETATM   18  H   UNL     1      -8.085  12.807  67.558  1.00  0.00     0.000 HD 
BRANCH  17  19
HETATM   19  C   UNL     1      -8.498  10.859  68.089  1.00  0.00    -0.131 C  
HETATM   20  C   UNL     1      -8.711   9.670  67.147  1.00  0.00    -0.137 C  
HETATM   21  C   UNL     1      -7.022  10.931  68.491  1.00  0.00    -0.072 C  
ENDBRANCH  17  19
ENDBRANCH  16  17
ENDBRANCH  13  16
ENDBRANCH  12  13
ENDBRANCH  11  12
ENDBRANCH   8  11
ENDBRANCH   4   5
ENDBRANCH   3   4
ENDBRANCH   2   3
TORSDOF 9
ENDMDL
MODEL      217
REMARK 921   NORMALIZED FREE ENERGY PREDICTED BY IDOCK:   -3.18 KCAL/MOL
REMARK 922        TOTAL FREE ENERGY PREDICTED BY IDOCK:   -5.50 KCAL/MOL
REMARK 923 INTER-LIGAND FREE ENERGY PREDICTED BY IDOCK:   -4.82 KCAL/MOL
REMARK 924 INTRA-LIGAND FREE ENERGY PREDICTED BY IDOCK:   -0.67 KCAL/MOL
REMARK 927      BINDING AFFINITY PREDICTED BY RF-SCORE:    0.00 PKD
ROOT
HETATM    1  C   UNL     1     -10.704  19.813  67.274  1.00  0.00    -0.403 C  
HETATM    2  O   UNL     1      -9.841  19.536  66.176  1.00  0.00    -0.388 OA 
ENDROOT
BRANCH   2   3
HETATM    3  C   UNL     1      -8.577  19.050  66.629  1.00  0.00    -0.313 C  
BRANCH   3   4
HETATM    4  C   UNL     1      -8.775  18.234  67.910  1.00  0.00    -0.274 C  
BRANCH   4   5
HETATM    5  C   UNL     1      -8.938  16.762  67.624  1.00  0.00    -0.210 A  
HETATM    6  C   UNL     1      -9.105  15.873  68.688  1.00  0.00    -0.206 A  
HETATM    7  C   UNL     1      -9.242  14.507  68.458  1.00  0.00    -0.195 A  
HETATM    8  C   UNL     1      -9.229  13.993  67.161  1.00  0.00    -0.235 A  
HETATM    9  C   UNL     1      -8.935  16.254  66.318  1.00  0.00    -0.366 A  
HETATM   10  C   UNL     1      -9.078  14.875  66.090  1.00  0.00    -0.202 A  
BRANCH   8  11
HETATM   11  O   UNL     1      -9.362  12.662  66.849  1.00  0.00    -0.215 OA 
BRANCH  11  12
HETATM   12  C   UNL     1     -10.572  12.333  66.141  1.00  0.00    -0.249 C  
BRANCH  12  13
HETATM   13  C   UNL     1     -10.405  11.068  65.288  1.00  0.00    -0.275 C  
HETATM   14  H   UNL     1      -9.377  10.533  63.697  1.00  0.00     0.000 HD 
HETATM   15  O   UNL     1      -9.480  11.316  64.224  1.00  0.00    -0.225 OA 
BRANCH  13  16
HETATM   16  C   UNL     1      -9.935   9.850  66.104  1.00  0.00    -0.263 C  
BRANCH  16  17
HETATM   17  N   UNL     1     -10.308   9.958  67.517  1.00  0.00    -0.220 NA 
HETATM   18  H   UNL     1     -11.309   9.800  67.637  1.00  0.00     0.000 HD 
BRANCH  17  19
HETATM   19  C   UNL     1      -9.537   9.080  68.404  1.00  0.00    -0.152 C  
HETATM   20  C   UNL     1      -8.997   9.804  69.641  1.00  0.00    -0.229 C  
HETATM   21  C   UNL     1     -10.458   7.939  68.844  1.00  0.00    -0.205 C  
ENDBRANCH  17  19
ENDBRANCH  16  17
ENDBRANCH  13  16
ENDBRANCH  12  13
ENDBRANCH  11  12
ENDBRANCH   8  11
ENDBRANCH   4   5
ENDBRANCH   3   4
ENDBRANCH   2   3
TORSDOF 9
ENDMDL
MODEL      218
REMARK 921   NORMALIZED FREE ENERGY PREDICTED BY IDOCK:   -3.18 KCAL/MOL
REMARK 922        TOTAL FREE ENERGY PREDICTED BY IDOCK:   -5.49 KCAL/MOL
REMARK 923 INTER-LIGAND FREE ENERGY PREDICTED BY IDOCK:   -4.76 KCAL/MOL
REMARK 924 INTRA-LIGAND FREE ENERGY PREDICTED BY IDOCK:   -0.73 KCAL/MOL
REMARK 927      BINDING AFFINITY PREDICTED BY RF-SCORE:    0.00 PKD
ROOT
HETATM    1  C   UNL     1     -10.591   3.481  62.660  1.00  0.00    -0.199 C  
HETATM    2  O   UNL     1     -10.740   3.640  64.067  1.00  0.00    -0.271 OA 
ENDROOT
BRANCH   2   3
HETATM    3  C   UNL     1      -9.482   3.909  64.687  1.00  0.00    -0.167 C  
BRANCH   3   4
HETATM    4  C   UNL     1      -9.240   2.895  65.808  1.00  0.00    -0.111 C  
BRANCH   4   5
HETATM    5  C   UNL     1      -9.355   3.522  67.175  1.00  0.00    -0.229 A  
HETATM    6  C   UNL     1      -9.212   2.722  68.310  1.00  0.00    -0.250 A  
HETATM    7  C   UNL     1      -9.328   3.268  69.585  1.00  0.00    -0.236 A  
HETATM    8  C   UNL     1      -9.577   4.629  69.762  1.00  0.00    -0.188 A  
HETATM    9  C   UNL     1      -9.594   4.892  67.345  1.00  0.00    -0.175 A  
HETATM   10  C   UNL     1      -9.707   5.441  68.633  1.00  0.00    -0.187 A  
BRANCH   8  11
HETATM   11  O   UNL     1      -9.701   5.246  70.983  1.00  0.00    -0.166 OA 
BRANCH  11  12
HETATM   12  C   UNL     1     -10.117   4.376  72.052  1.00  0.00    -0.186 C  
BRANCH  12  13
HETATM   13  C   UNL     1     -11.279   4.978  72.854  1.00  0.00    -0.271 C  
HETATM   14  H   UNL     1     -11.560   5.669  74.676  1.00  0.00     0.000 HD 
HETATM   15  O   UNL     1     -10.842   5.297  74.179  1.00  0.00    -0.258 OA 
BRANCH  13  16
HETATM   16  C   UNL     1     -11.879   6.233  72.195  1.00  0.00    -0.315 C  
BRANCH  16  17
HETATM   17  N   UNL     1     -11.783   7.409  73.065  1.00  0.00    -0.579 NA 
HETATM   18  H   UNL     1     -11.498   7.137  74.006  1.00  0.00     0.000 HD 
BRANCH  17  19
HETATM   19  C   UNL     1     -10.905   8.463  72.543  1.00  0.00    -0.305 C  
HETATM   20  C   UNL     1      -9.419   8.167  72.765  1.00  0.00    -0.349 C  
HETATM   21  C   UNL     1     -11.178   8.595  71.042  1.00  0.00    -0.321 C  
ENDBRANCH  17  19
ENDBRANCH  16  17
ENDBRANCH  13  16
ENDBRANCH  12  13
ENDBRANCH  11  12
ENDBRANCH   8  11
ENDBRANCH   4   5
ENDBRANCH   3   4
ENDBRANCH   2   3
TORSDOF 9
ENDMDL
MODEL      219
REMARK 921   NORMALIZED FREE ENERGY PREDICTED BY IDOCK:   -3.17 KCAL/MOL
REMARK 922        TOTAL FREE ENERGY PREDICTED BY IDOCK:   -5.47 KCAL/MOL
REMARK 923 INTER-LIGAND FREE ENERGY PREDICTED BY IDOCK:   -4.99 KCAL/MOL
REMARK 924 INTRA-LIGAND FREE ENERGY PREDICTED BY IDOCK:   -0.49 KCAL/MOL
REMARK 927      BINDING AFFINITY PREDICTED BY RF-SCORE:    0.00 PKD
ROOT
HETATM    1  C   UNL     1      -8.068   3.598  67.081  1.00  0.00    -0.091 C  
HETATM    2  O   UNL     1      -8.733   4.718  66.505  1.00  0.00    -0.112 OA 
ENDROOT
BRANCH   2   3
HETATM    3  C   UNL     1      -8.347   5.930  67.154  1.00  0.00    -0.105 C  
BRANCH   3   4
HETATM    4  C   UNL     1      -9.596   6.650  67.671  1.00  0.00    -0.135 C  
BRANCH   4   5
HETATM    5  C   UNL     1      -9.745   8.026  67.073  1.00  0.00    -0.275 A  
HETATM    6  C   UNL     1     -10.580   8.956  67.696  1.00  0.00    -0.292 A  
HETATM    7  C   UNL     1     -10.751  10.229  67.160  1.00  0.00    -0.303 A  
HETATM    8  C   UNL     1     -10.084  10.613  65.996  1.00  0.00    -0.250 A  
HETATM    9  C   UNL     1      -9.064   8.408  65.910  1.00  0.00    -0.225 A  
HETATM   10  C   UNL     1      -9.236   9.695  65.374  1.00  0.00    -0.295 A  
BRANCH   8  11
HETATM   11  O   UNL     1     -10.195  11.849  65.406  1.00  0.00    -0.246 OA 
BRANCH  11  12
HETATM   12  C   UNL     1     -11.543  12.345  65.310  1.00  0.00    -0.373 C  
BRANCH  12  13
HETATM   13  C   UNL     1     -11.680  13.740  65.936  1.00  0.00    -0.352 C  
HETATM   14  H   UNL     1     -11.746  14.500  67.750  1.00  0.00     0.000 HD 
HETATM   15  O   UNL     1     -11.662  13.637  67.363  1.00  0.00    -0.337 OA 
BRANCH  13  16
HETATM   16  C   UNL     1     -10.582  14.716  65.477  1.00  0.00    -0.355 C  
BRANCH  16  17
HETATM   17  N   UNL     1     -11.036  16.109  65.513  1.00  0.00    -0.232 NA 
HETATM   18  H   UNL     1     -11.941  16.180  65.977  1.00  0.00     0.000 HD 
BRANCH  17  19
HETATM   19  C   UNL     1     -10.071  17.032  66.122  1.00  0.00    -0.319 C  
HETATM   20  C   UNL     1     -10.518  18.495  66.055  1.00  0.00    -0.433 C  
HETATM   21  C   UNL     1      -9.893  16.621  67.586  1.00  0.00    -0.256 C  
ENDBRANCH  17  19
ENDBRANCH  16  17
ENDBRANCH  13  16
ENDBRANCH  12  13
ENDBRANCH  11  12
ENDBRANCH   8  11
ENDBRANCH   4   5
ENDBRANCH   3   4
ENDBRANCH   2   3
TORSDOF 9
ENDMDL
MODEL      220
REMARK 921   NORMALIZED FREE ENERGY PREDICTED BY IDOCK:   -3.16 KCAL/MOL
REMARK 922        TOTAL FREE ENERGY PREDICTED BY IDOCK:   -5.47 KCAL/MOL
REMARK 923 INTER-LIGAND FREE ENERGY PREDICTED BY IDOCK:   -4.96 KCAL/MOL
REMARK 924 INTRA-LIGAND FREE ENERGY PREDICTED BY IDOCK:   -0.51 KCAL/MOL
REMARK 927      BINDING AFFINITY PREDICTED BY RF-SCORE:    0.00 PKD
ROOT
HETATM    1  C   UNL     1     -10.435   3.911  62.865  1.00  0.00    -0.183 C  
HETATM    2  O   UNL     1     -10.818   3.804  64.233  1.00  0.00    -0.265 OA 
ENDROOT
BRANCH   2   3
HETATM    3  C   UNL     1      -9.674   3.845  65.088  1.00  0.00    -0.191 C  
BRANCH   3   4
HETATM    4  C   UNL     1      -9.140   5.278  65.154  1.00  0.00    -0.065 C  
BRANCH   4   5
HETATM    5  C   UNL     1      -9.524   5.967  66.439  1.00  0.00    -0.174 A  
HETATM    6  C   UNL     1      -8.844   7.124  66.825  1.00  0.00    -0.137 A  
HETATM    7  C   UNL     1      -9.164   7.774  68.013  1.00  0.00    -0.140 A  
HETATM    8  C   UNL     1     -10.180   7.296  68.841  1.00  0.00    -0.193 A  
HETATM    9  C   UNL     1     -10.552   5.487  67.261  1.00  0.00    -0.294 A  
HETATM   10  C   UNL     1     -10.876   6.148  68.457  1.00  0.00    -0.389 A  
BRANCH   8  11
HETATM   11  O   UNL     1     -10.560   7.880  70.025  1.00  0.00    -0.233 OA 
BRANCH  11  12
HETATM   12  C   UNL     1     -10.359   9.304  70.079  1.00  0.00    -0.217 C  
BRANCH  12  13
HETATM   13  C   UNL     1     -11.692  10.064  70.106  1.00  0.00    -0.215 C  
HETATM   14  H   UNL     1     -12.989  10.644  71.468  1.00  0.00     0.000 HD 
HETATM   15  O   UNL     1     -12.164  10.173  71.452  1.00  0.00    -0.357 OA 
BRANCH  13  16
HETATM   16  C   UNL     1     -11.598  11.467  69.479  1.00  0.00    -0.333 C  
BRANCH  16  17
HETATM   17  N   UNL     1     -12.143  11.499  68.119  1.00  0.00    -0.591 NA 
HETATM   18  H   UNL     1     -12.954  12.116  68.072  1.00  0.00     0.000 HD 
BRANCH  17  19
HETATM   19  C   UNL     1     -11.159  11.861  67.093  1.00  0.00    -0.293 C  
HETATM   20  C   UNL     1     -11.744  12.744  65.988  1.00  0.00    -0.470 C  
HETATM   21  C   UNL     1     -10.016  12.607  67.788  1.00  0.00    -0.218 C  
ENDBRANCH  17  19
ENDBRANCH  16  17
ENDBRANCH  13  16
ENDBRANCH  12  13
ENDBRANCH  11  12
ENDBRANCH   8  11
ENDBRANCH   4   5
ENDBRANCH   3   4
ENDBRANCH   2   3
TORSDOF 9
ENDMDL
MODEL      221
REMARK 921   NORMALIZED FREE ENERGY PREDICTED BY IDOCK:   -3.15 KCAL/MOL
REMARK 922        TOTAL FREE ENERGY PREDICTED BY IDOCK:   -5.45 KCAL/MOL
REMARK 923 INTER-LIGAND FREE ENERGY PREDICTED BY IDOCK:   -4.55 KCAL/MOL
REMARK 924 INTRA-LIGAND FREE ENERGY PREDICTED BY IDOCK:   -0.90 KCAL/MOL
REMARK 927      BINDING AFFINITY PREDICTED BY RF-SCORE:    0.00 PKD
ROOT
HETATM    1  C   UNL     1     -10.841  12.139  65.998  1.00  0.00    -0.282 C  
HETATM    2  O   UNL     1      -9.873  12.518  66.970  1.00  0.00    -0.210 OA 
ENDROOT
BRANCH   2   3
HETATM    3  C   UNL     1      -9.674  11.477  67.927  1.00  0.00    -0.183 C  
BRANCH   3   4
HETATM    4  C   UNL     1      -9.344  10.172  67.197  1.00  0.00    -0.176 C  
BRANCH   4   5
HETATM    5  C   UNL     1      -9.254   9.001  68.143  1.00  0.00    -0.141 A  
HETATM    6  C   UNL     1      -9.997   7.849  67.879  1.00  0.00    -0.220 A  
HETATM    7  C   UNL     1      -9.948   6.757  68.741  1.00  0.00    -0.149 A  
HETATM    8  C   UNL     1      -9.145   6.780  69.882  1.00  0.00    -0.144 A  
HETATM    9  C   UNL     1      -8.437   9.027  69.281  1.00  0.00    -0.128 A  
HETATM   10  C   UNL     1      -8.386   7.922  70.147  1.00  0.00    -0.127 A  
BRANCH   8  11
HETATM   11  O   UNL     1      -9.037   5.746  70.779  1.00  0.00    -0.145 OA 
BRANCH  11  12
HETATM   12  C   UNL     1      -9.518   6.050  72.102  1.00  0.00    -0.148 C  
BRANCH  12  13
HETATM   13  C   UNL     1     -11.001   5.688  72.263  1.00  0.00    -0.258 C  
HETATM   14  H   UNL     1     -12.174   5.046  73.707  1.00  0.00     0.000 HD 
HETATM   15  O   UNL     1     -11.257   5.269  73.607  1.00  0.00    -0.269 OA 
BRANCH  13  16
HETATM   16  C   UNL     1     -11.947   6.846  71.896  1.00  0.00    -0.327 C  
BRANCH  16  17
HETATM   17  N   UNL     1     -11.573   8.093  72.568  1.00  0.00    -0.399 NA 
HETATM   18  H   UNL     1     -10.572   8.266  72.473  1.00  0.00     0.000 HD 
BRANCH  17  19
HETATM   19  C   UNL     1     -12.343   9.261  72.123  1.00  0.00    -0.328 C  
HETATM   20  C   UNL     1     -11.673  10.017  70.974  1.00  0.00    -0.479 C  
HETATM   21  C   UNL     1     -13.720   8.765  71.671  1.00  0.00    -0.437 C  
ENDBRANCH  17  19
ENDBRANCH  16  17
ENDBRANCH  13  16
ENDBRANCH  12  13
ENDBRANCH  11  12
ENDBRANCH   8  11
ENDBRANCH   4   5
ENDBRANCH   3   4
ENDBRANCH   2   3
TORSDOF 9
ENDMDL
MODEL      222
REMARK 921   NORMALIZED FREE ENERGY PREDICTED BY IDOCK:   -3.14 KCAL/MOL
REMARK 922        TOTAL FREE ENERGY PREDICTED BY IDOCK:   -5.43 KCAL/MOL
REMARK 923 INTER-LIGAND FREE ENERGY PREDICTED BY IDOCK:   -4.91 KCAL/MOL
REMARK 924 INTRA-LIGAND FREE ENERGY PREDICTED BY IDOCK:   -0.52 KCAL/MOL
REMARK 927      BINDING AFFINITY PREDICTED BY RF-SCORE:    0.00 PKD
ROOT
HETATM    1  C   UNL     1      -7.916   3.821  72.195  1.00  0.00    -0.072 C  
HETATM    2  O   UNL     1      -8.779   4.127  73.285  1.00  0.00    -0.095 OA 
ENDROOT
BRANCH   2   3
HETATM    3  C   UNL     1     -10.129   3.770  72.983  1.00  0.00    -0.151 C  
BRANCH   3   4
HETATM    4  C   UNL     1     -11.067   4.886  73.453  1.00  0.00    -0.415 C  
BRANCH   4   5
HETATM    5  C   UNL     1     -11.146   6.016  72.457  1.00  0.00    -0.321 A  
HETATM    6  C   UNL     1     -11.316   7.323  72.918  1.00  0.00    -0.290 A  
HETATM    7  C   UNL     1     -11.408   8.386  72.024  1.00  0.00    -0.411 A  
HETATM    8  C   UNL     1     -11.319   8.175  70.648  1.00  0.00    -0.249 A  
HETATM    9  C   UNL     1     -11.045   5.798  71.077  1.00  0.00    -0.264 A  
HETATM   10  C   UNL     1     -11.135   6.874  70.178  1.00  0.00    -0.344 A  
BRANCH   8  11
HETATM   11  O   UNL     1     -11.396   9.168  69.701  1.00  0.00    -0.085 OA 
BRANCH  11  12
HETATM   12  C   UNL     1     -10.588  10.325  69.984  1.00  0.00    -0.269 C  
BRANCH  12  13
HETATM   13  C   UNL     1      -9.673  10.681  68.804  1.00  0.00    -0.189 C  
HETATM   14  H   UNL     1      -8.981   9.776  67.199  1.00  0.00     0.000 HD 
HETATM   15  O   UNL     1      -9.547   9.556  67.929  1.00  0.00    -0.132 OA 
BRANCH  13  16
HETATM   16  C   UNL     1     -10.167  11.900  68.005  1.00  0.00    -0.192 C  
BRANCH  16  17
HETATM   17  N   UNL     1     -10.532  13.018  68.880  1.00  0.00    -0.415 NA 
HETATM   18  H   UNL     1      -9.741  13.292  69.462  1.00  0.00     0.000 HD 
BRANCH  17  19
HETATM   19  C   UNL     1     -11.073  14.180  68.165  1.00  0.00    -0.257 C  
HETATM   20  C   UNL     1     -11.851  13.796  66.903  1.00  0.00    -0.447 C  
HETATM   21  C   UNL     1     -12.001  14.928  69.126  1.00  0.00    -0.313 C  
ENDBRANCH  17  19
ENDBRANCH  16  17
ENDBRANCH  13  16
ENDBRANCH  12  13
ENDBRANCH  11  12
ENDBRANCH   8  11
ENDBRANCH   4   5
ENDBRANCH   3   4
ENDBRANCH   2   3
TORSDOF 9
ENDMDL
MODEL      223
REMARK 921   NORMALIZED FREE ENERGY PREDICTED BY IDOCK:   -3.13 KCAL/MOL
REMARK 922        TOTAL FREE ENERGY PREDICTED BY IDOCK:   -5.42 KCAL/MOL
REMARK 923 INTER-LIGAND FREE ENERGY PREDICTED BY IDOCK:   -4.61 KCAL/MOL
REMARK 924 INTRA-LIGAND FREE ENERGY PREDICTED BY IDOCK:   -0.81 KCAL/MOL
REMARK 927      BINDING AFFINITY PREDICTED BY RF-SCORE:    0.00 PKD
ROOT
HETATM    1  C   UNL     1      -7.699   4.502  65.330  1.00  0.00    -0.086 C  
HETATM    2  O   UNL     1      -7.768   5.386  66.444  1.00  0.00    -0.097 OA 
ENDROOT
BRANCH   2   3
HETATM    3  C   UNL     1      -8.815   5.003  67.336  1.00  0.00    -0.102 C  
BRANCH   3   4
HETATM    4  C   UNL     1     -10.088   5.781  66.990  1.00  0.00    -0.224 C  
BRANCH   4   5
HETATM    5  C   UNL     1     -10.075   7.174  67.567  1.00  0.00    -0.241 A  
HETATM    6  C   UNL     1     -10.088   8.272  66.705  1.00  0.00    -0.373 A  
HETATM    7  C   UNL     1     -10.060   9.570  67.207  1.00  0.00    -0.272 A  
HETATM    8  C   UNL     1     -10.033   9.807  68.581  1.00  0.00    -0.167 A  
HETATM    9  C   UNL     1     -10.058   7.405  68.949  1.00  0.00    -0.188 A  
HETATM   10  C   UNL     1     -10.035   8.716  69.452  1.00  0.00    -0.197 A  
BRANCH   8  11
HETATM   11  O   UNL     1     -10.010  11.055  69.156  1.00  0.00    -0.195 OA 
BRANCH  11  12
HETATM   12  C   UNL     1      -9.586  12.111  68.274  1.00  0.00    -0.210 C  
BRANCH  12  13
HETATM   13  C   UNL     1     -10.547  13.306  68.317  1.00  0.00    -0.251 C  
HETATM   14  H   UNL     1     -11.451  14.470  67.012  1.00  0.00     0.000 HD 
HETATM   15  O   UNL     1     -10.855  13.731  66.986  1.00  0.00    -0.281 OA 
BRANCH  13  16
HETATM   16  C   UNL     1     -11.852  13.002  69.075  1.00  0.00    -0.316 C  
BRANCH  16  17
HETATM   17  N   UNL     1     -11.695  13.159  70.523  1.00  0.00    -0.525 NA 
HETATM   18  H   UNL     1     -11.493  14.130  70.759  1.00  0.00     0.000 HD 
BRANCH  17  19
HETATM   19  C   UNL     1     -12.838  12.666  71.301  1.00  0.00    -0.250 C  
HETATM   20  C   UNL     1     -12.808  11.150  71.513  1.00  0.00    -0.542 C  
HETATM   21  C   UNL     1     -12.813  13.370  72.661  1.00  0.00    -0.089 C  
ENDBRANCH  17  19
ENDBRANCH  16  17
ENDBRANCH  13  16
ENDBRANCH  12  13
ENDBRANCH  11  12
ENDBRANCH   8  11
ENDBRANCH   4   5
ENDBRANCH   3   4
ENDBRANCH   2   3
TORSDOF 9
ENDMDL
MODEL      224
REMARK 921   NORMALIZED FREE ENERGY PREDICTED BY IDOCK:   -3.13 KCAL/MOL
REMARK 922        TOTAL FREE ENERGY PREDICTED BY IDOCK:   -5.42 KCAL/MOL
REMARK 923 INTER-LIGAND FREE ENERGY PREDICTED BY IDOCK:   -4.78 KCAL/MOL
REMARK 924 INTRA-LIGAND FREE ENERGY PREDICTED BY IDOCK:   -0.64 KCAL/MOL
REMARK 927      BINDING AFFINITY PREDICTED BY RF-SCORE:    0.00 PKD
ROOT
HETATM    1  C   UNL     1     -11.033   6.603  66.974  1.00  0.00    -0.393 C  
HETATM    2  O   UNL     1     -10.904   5.304  66.405  1.00  0.00    -0.292 OA 
ENDROOT
BRANCH   2   3
HETATM    3  C   UNL     1      -9.533   4.910  66.336  1.00  0.00    -0.155 C  
BRANCH   3   4
HETATM    4  C   UNL     1      -9.310   3.684  67.225  1.00  0.00    -0.235 C  
BRANCH   4   5
HETATM    5  C   UNL     1      -8.968   4.066  68.643  1.00  0.00    -0.164 A  
HETATM    6  C   UNL     1      -8.116   5.149  68.873  1.00  0.00    -0.085 A  
HETATM    7  C   UNL     1      -7.769   5.517  70.170  1.00  0.00    -0.085 A  
HETATM    8  C   UNL     1      -8.272   4.824  71.272  1.00  0.00    -0.102 A  
HETATM    9  C   UNL     1      -9.485   3.373  69.745  1.00  0.00    -0.229 A  
HETATM   10  C   UNL     1      -9.135   3.750  71.053  1.00  0.00    -0.180 A  
BRANCH   8  11
HETATM   11  O   UNL     1      -7.982   5.126  72.580  1.00  0.00    -0.100 OA 
BRANCH  11  12
HETATM   12  C   UNL     1      -8.403   6.438  72.997  1.00  0.00    -0.116 C  
BRANCH  12  13
HETATM   13  C   UNL     1      -9.927   6.522  73.153  1.00  0.00    -0.178 C  
HETATM   14  H   UNL     1     -11.230   6.409  74.624  1.00  0.00     0.000 HD 
HETATM   15  O   UNL     1     -10.286   6.356  74.528  1.00  0.00    -0.329 OA 
BRANCH  13  16
HETATM   16  C   UNL     1     -10.514   7.844  72.624  1.00  0.00    -0.320 C  
BRANCH  16  17
HETATM   17  N   UNL     1     -11.866   8.087  73.135  1.00  0.00    -0.574 NA 
HETATM   18  H   UNL     1     -11.832   8.646  73.987  1.00  0.00     0.000 HD 
BRANCH  17  19
HETATM   19  C   UNL     1     -12.771   8.696  72.153  1.00  0.00    -0.392 C  
HETATM   20  C   UNL     1     -12.037   9.537  71.105  1.00  0.00    -0.429 C  
HETATM   21  C   UNL     1     -13.530   7.564  71.456  1.00  0.00    -0.426 C  
ENDBRANCH  17  19
ENDBRANCH  16  17
ENDBRANCH  13  16
ENDBRANCH  12  13
ENDBRANCH  11  12
ENDBRANCH   8  11
ENDBRANCH   4   5
ENDBRANCH   3   4
ENDBRANCH   2   3
TORSDOF 9
ENDMDL
MODEL      225
REMARK 921   NORMALIZED FREE ENERGY PREDICTED BY IDOCK:   -3.12 KCAL/MOL
REMARK 922        TOTAL FREE ENERGY PREDICTED BY IDOCK:   -5.40 KCAL/MOL
REMARK 923 INTER-LIGAND FREE ENERGY PREDICTED BY IDOCK:   -4.79 KCAL/MOL
REMARK 924 INTRA-LIGAND FREE ENERGY PREDICTED BY IDOCK:   -0.61 KCAL/MOL
REMARK 927      BINDING AFFINITY PREDICTED BY RF-SCORE:    0.00 PKD
ROOT
HETATM    1  C   UNL     1      -8.734   9.874  64.093  1.00  0.00    -0.206 C  
HETATM    2  O   UNL     1      -9.776   9.501  64.989  1.00  0.00    -0.248 OA 
ENDROOT
BRANCH   2   3
HETATM    3  C   UNL     1      -9.715  10.269  66.192  1.00  0.00    -0.211 C  
BRANCH   3   4
HETATM    4  C   UNL     1     -10.870  11.274  66.212  1.00  0.00    -0.296 C  
BRANCH   4   5
HETATM    5  C   UNL     1     -10.399  12.671  66.531  1.00  0.00    -0.256 A  
HETATM    6  C   UNL     1     -10.258  13.598  65.497  1.00  0.00    -0.316 A  
HETATM    7  C   UNL     1      -9.810  14.890  65.756  1.00  0.00    -0.380 A  
HETATM    8  C   UNL     1      -9.504  15.296  67.055  1.00  0.00    -0.223 A  
HETATM    9  C   UNL     1     -10.103  13.075  67.840  1.00  0.00    -0.235 A  
HETATM   10  C   UNL     1      -9.656  14.381  68.098  1.00  0.00    -0.218 A  
BRANCH   8  11
HETATM   11  O   UNL     1      -9.061  16.551  67.396  1.00  0.00    -0.202 OA 
BRANCH  11  12
HETATM   12  C   UNL     1      -8.680  17.374  66.277  1.00  0.00    -0.207 C  
BRANCH  12  13
HETATM   13  C   UNL     1      -7.175  17.281  65.992  1.00  0.00    -0.184 C  
HETATM   14  H   UNL     1      -5.866  18.224  64.863  1.00  0.00     0.000 HD 
HETATM   15  O   UNL     1      -6.798  18.281  65.040  1.00  0.00    -0.397 OA 
BRANCH  13  16
HETATM   16  C   UNL     1      -6.312  17.426  67.258  1.00  0.00    -0.145 C  
BRANCH  16  17
HETATM   17  N   UNL     1      -6.926  18.324  68.241  1.00  0.00    -0.230 NA 
HETATM   18  H   UNL     1      -6.659  18.056  69.188  1.00  0.00     0.000 HD 
BRANCH  17  19
HETATM   19  C   UNL     1      -6.641  19.744  68.006  1.00  0.00    -0.248 C  
HETATM   20  C   UNL     1      -7.901  20.570  67.733  1.00  0.00    -0.214 C  
HETATM   21  C   UNL     1      -5.936  20.289  69.252  1.00  0.00    -0.372 C  
ENDBRANCH  17  19
ENDBRANCH  16  17
ENDBRANCH  13  16
ENDBRANCH  12  13
ENDBRANCH  11  12
ENDBRANCH   8  11
ENDBRANCH   4   5
ENDBRANCH   3   4
ENDBRANCH   2   3
TORSDOF 9
ENDMDL
MODEL      226
REMARK 921   NORMALIZED FREE ENERGY PREDICTED BY IDOCK:   -3.12 KCAL/MOL
REMARK 922        TOTAL FREE ENERGY PREDICTED BY IDOCK:   -5.40 KCAL/MOL
REMARK 923 INTER-LIGAND FREE ENERGY PREDICTED BY IDOCK:   -4.59 KCAL/MOL
REMARK 924 INTRA-LIGAND FREE ENERGY PREDICTED BY IDOCK:   -0.82 KCAL/MOL
REMARK 927      BINDING AFFINITY PREDICTED BY RF-SCORE:    0.00 PKD
ROOT
HETATM    1  C   UNL     1     -10.763  19.381  66.957  1.00  0.00    -0.474 C  
HETATM    2  O   UNL     1     -10.247  18.461  66.001  1.00  0.00    -0.486 OA 
ENDROOT
BRANCH   2   3
HETATM    3  C   UNL     1      -9.050  17.845  66.478  1.00  0.00    -0.261 C  
BRANCH   3   4
HETATM    4  C   UNL     1      -9.243  17.420  67.937  1.00  0.00    -0.256 C  
BRANCH   4   5
HETATM    5  C   UNL     1      -9.769  16.012  68.052  1.00  0.00    -0.217 A  
HETATM    6  C   UNL     1     -11.149  15.796  68.074  1.00  0.00    -0.337 A  
HETATM    7  C   UNL     1     -11.666  14.510  68.195  1.00  0.00    -0.369 A  
HETATM    8  C   UNL     1     -10.821  13.403  68.284  1.00  0.00    -0.256 A  
HETATM    9  C   UNL     1      -8.915  14.904  68.129  1.00  0.00    -0.176 A  
HETATM   10  C   UNL     1      -9.440  13.606  68.247  1.00  0.00    -0.213 A  
BRANCH   8  11
HETATM   11  O   UNL     1     -11.250  12.103  68.401  1.00  0.00    -0.225 OA 
BRANCH  11  12
HETATM   12  C   UNL     1     -10.642  11.188  67.470  1.00  0.00    -0.221 C  
BRANCH  12  13
HETATM   13  C   UNL     1     -10.733   9.736  67.960  1.00  0.00    -0.247 C  
HETATM   14  H   UNL     1     -10.946   7.957  67.146  1.00  0.00     0.000 HD 
HETATM   15  O   UNL     1     -10.889   8.855  66.843  1.00  0.00    -0.162 OA 
BRANCH  13  16
HETATM   16  C   UNL     1      -9.512   9.303  68.790  1.00  0.00    -0.150 C  
BRANCH  16  17
HETATM   17  N   UNL     1      -8.849  10.444  69.428  1.00  0.00    -0.292 NA 
HETATM   18  H   UNL     1      -9.229  10.603  70.362  1.00  0.00     0.000 HD 
BRANCH  17  19
HETATM   19  C   UNL     1      -7.387  10.330  69.478  1.00  0.00    -0.132 C  
HETATM   20  C   UNL     1      -6.692  11.665  69.756  1.00  0.00    -0.013 C  
HETATM   21  C   UNL     1      -7.036   9.333  70.585  1.00  0.00    -0.101 C  
ENDBRANCH  17  19
ENDBRANCH  16  17
ENDBRANCH  13  16
ENDBRANCH  12  13
ENDBRANCH  11  12
ENDBRANCH   8  11
ENDBRANCH   4   5
ENDBRANCH   3   4
ENDBRANCH   2   3
TORSDOF 9
ENDMDL
MODEL      227
REMARK 921   NORMALIZED FREE ENERGY PREDICTED BY IDOCK:   -3.12 KCAL/MOL
REMARK 922        TOTAL FREE ENERGY PREDICTED BY IDOCK:   -5.40 KCAL/MOL
REMARK 923 INTER-LIGAND FREE ENERGY PREDICTED BY IDOCK:   -5.06 KCAL/MOL
REMARK 924 INTRA-LIGAND FREE ENERGY PREDICTED BY IDOCK:   -0.34 KCAL/MOL
REMARK 927      BINDING AFFINITY PREDICTED BY RF-SCORE:    0.00 PKD
ROOT
HETATM    1  C   UNL     1      -8.732   1.714  68.841  1.00  0.00    -0.066 C  
HETATM    2  O   UNL     1      -9.497   1.837  70.035  1.00  0.00    -0.109 OA 
ENDROOT
BRANCH   2   3
HETATM    3  C   UNL     1      -9.587   3.201  70.447  1.00  0.00    -0.122 C  
BRANCH   3   4
HETATM    4  C   UNL     1      -9.146   4.110  69.296  1.00  0.00    -0.188 C  
BRANCH   4   5
HETATM    5  C   UNL     1      -9.695   5.508  69.435  1.00  0.00    -0.216 A  
HETATM    6  C   UNL     1      -8.940   6.589  68.975  1.00  0.00    -0.129 A  
HETATM    7  C   UNL     1      -9.412   7.892  69.103  1.00  0.00    -0.155 A  
HETATM    8  C   UNL     1     -10.655   8.151  69.683  1.00  0.00    -0.223 A  
HETATM    9  C   UNL     1     -10.948   5.760  70.008  1.00  0.00    -0.382 A  
HETATM   10  C   UNL     1     -11.423   7.076  70.133  1.00  0.00    -0.302 A  
BRANCH   8  11
HETATM   11  O   UNL     1     -11.194   9.404  69.843  1.00  0.00    -0.230 OA 
BRANCH  11  12
HETATM   12  C   UNL     1     -11.784   9.639  71.134  1.00  0.00    -0.372 C  
BRANCH  12  13
HETATM   13  C   UNL     1     -12.872  10.721  71.073  1.00  0.00    -0.385 C  
HETATM   14  H   UNL     1     -14.330  11.359  72.230  1.00  0.00     0.000 HD 
HETATM   15  O   UNL     1     -13.657  10.690  72.269  1.00  0.00    -0.253 OA 
BRANCH  13  16
HETATM   16  C   UNL     1     -12.302  12.136  70.868  1.00  0.00    -0.273 C  
BRANCH  16  17
HETATM   17  N   UNL     1     -12.922  13.113  71.768  1.00  0.00    -0.360 NA 
HETATM   18  H   UNL     1     -12.981  12.740  72.716  1.00  0.00     0.000 HD 
BRANCH  17  19
HETATM   19  C   UNL     1     -12.259  14.422  71.770  1.00  0.00    -0.278 C  
HETATM   20  C   UNL     1     -12.926  15.431  70.831  1.00  0.00    -0.539 C  
HETATM   21  C   UNL     1     -12.295  14.960  73.203  1.00  0.00    -0.473 C  
ENDBRANCH  17  19
ENDBRANCH  16  17
ENDBRANCH  13  16
ENDBRANCH  12  13
ENDBRANCH  11  12
ENDBRANCH   8  11
ENDBRANCH   4   5
ENDBRANCH   3   4
ENDBRANCH   2   3
TORSDOF 9
ENDMDL
MODEL      228
REMARK 921   NORMALIZED FREE ENERGY PREDICTED BY IDOCK:   -3.12 KCAL/MOL
REMARK 922        TOTAL FREE ENERGY PREDICTED BY IDOCK:   -5.39 KCAL/MOL
REMARK 923 INTER-LIGAND FREE ENERGY PREDICTED BY IDOCK:   -4.60 KCAL/MOL
REMARK 924 INTRA-LIGAND FREE ENERGY PREDICTED BY IDOCK:   -0.80 KCAL/MOL
REMARK 927      BINDING AFFINITY PREDICTED BY RF-SCORE:    0.00 PKD
ROOT
HETATM    1  C   UNL     1      -8.934   9.894  64.256  1.00  0.00    -0.243 C  
HETATM    2  O   UNL     1      -9.899   9.498  65.226  1.00  0.00    -0.282 OA 
ENDROOT
BRANCH   2   3
HETATM    3  C   UNL     1      -9.675  10.162  66.470  1.00  0.00    -0.200 C  
BRANCH   3   4
HETATM    4  C   UNL     1     -10.838  11.116  66.754  1.00  0.00    -0.322 C  
BRANCH   4   5
HETATM    5  C   UNL     1     -10.370  12.534  66.961  1.00  0.00    -0.236 A  
HETATM    6  C   UNL     1     -10.330  13.408  65.872  1.00  0.00    -0.290 A  
HETATM    7  C   UNL     1      -9.887  14.718  66.026  1.00  0.00    -0.350 A  
HETATM    8  C   UNL     1      -9.485  15.197  67.274  1.00  0.00    -0.210 A  
HETATM    9  C   UNL     1      -9.977  13.012  68.218  1.00  0.00    -0.235 A  
HETATM   10  C   UNL     1      -9.535  14.336  68.372  1.00  0.00    -0.213 A  
BRANCH   8  11
HETATM   11  O   UNL     1      -9.040  16.474  67.512  1.00  0.00    -0.197 OA 
BRANCH  11  12
HETATM   12  C   UNL     1      -8.716  17.224  66.326  1.00  0.00    -0.224 C  
BRANCH  12  13
HETATM   13  C   UNL     1      -7.203  17.440  66.187  1.00  0.00    -0.292 C  
HETATM   14  H   UNL     1      -6.008  18.596  65.134  1.00  0.00     0.000 HD 
HETATM   15  O   UNL     1      -6.945  18.462  65.220  1.00  0.00    -0.534 OA 
BRANCH  13  16
HETATM   16  C   UNL     1      -6.523  17.808  67.518  1.00  0.00    -0.163 C  
BRANCH  16  17
HETATM   17  N   UNL     1      -5.709  16.707  68.040  1.00  0.00    -0.114 NA 
HETATM   18  H   UNL     1      -4.731  16.988  68.117  1.00  0.00     0.000 HD 
BRANCH  17  19
HETATM   19  C   UNL     1      -6.191  16.165  69.316  1.00  0.00    -0.163 C  
HETATM   20  C   UNL     1      -6.174  14.635  69.361  1.00  0.00    -0.115 C  
HETATM   21  C   UNL     1      -5.292  16.717  70.426  1.00  0.00    -0.215 C  
ENDBRANCH  17  19
ENDBRANCH  16  17
ENDBRANCH  13  16
ENDBRANCH  12  13
ENDBRANCH  11  12
ENDBRANCH   8  11
ENDBRANCH   4   5
ENDBRANCH   3   4
ENDBRANCH   2   3
TORSDOF 9
ENDMDL
MODEL      229
REMARK 921   NORMALIZED FREE ENERGY PREDICTED BY IDOCK:   -3.11 KCAL/MOL
REMARK 922        TOTAL FREE ENERGY PREDICTED BY IDOCK:   -5.39 KCAL/MOL
REMARK 923 INTER-LIGAND FREE ENERGY PREDICTED BY IDOCK:   -5.04 KCAL/MOL
REMARK 924 INTRA-LIGAND FREE ENERGY PREDICTED BY IDOCK:   -0.35 KCAL/MOL
REMARK 927      BINDING AFFINITY PREDICTED BY RF-SCORE:    0.00 PKD
ROOT
HETATM    1  C   UNL     1     -12.295  16.009  72.082  1.00  0.00    -0.482 C  
HETATM    2  O   UNL     1     -13.589  15.804  72.639  1.00  0.00    -0.523 OA 
ENDROOT
BRANCH   2   3
HETATM    3  C   UNL     1     -14.091  14.510  72.302  1.00  0.00    -0.500 C  
BRANCH   3   4
HETATM    4  C   UNL     1     -13.490  14.062  70.967  1.00  0.00    -0.178 C  
BRANCH   4   5
HETATM    5  C   UNL     1     -12.928  12.665  71.038  1.00  0.00    -0.156 A  
HETATM    6  C   UNL     1     -12.124  12.196  69.997  1.00  0.00    -0.352 A  
HETATM    7  C   UNL     1     -11.604  10.905  70.026  1.00  0.00    -0.424 A  
HETATM    8  C   UNL     1     -11.860  10.053  71.101  1.00  0.00    -0.393 A  
HETATM    9  C   UNL     1     -13.180  11.818  72.126  1.00  0.00    -0.342 A  
HETATM   10  C   UNL     1     -12.650  10.517  72.154  1.00  0.00    -0.032 A  
BRANCH   8  11
HETATM   11  O   UNL     1     -11.381   8.769  71.208  1.00  0.00    -0.258 OA 
BRANCH  11  12
HETATM   12  C   UNL     1     -10.468   8.563  72.302  1.00  0.00    -0.332 C  
BRANCH  12  13
HETATM   13  C   UNL     1     -10.642   7.173  72.931  1.00  0.00    -0.281 C  
HETATM   14  H   UNL     1     -11.904   5.672  72.772  1.00  0.00     0.000 HD 
HETATM   15  O   UNL     1     -11.797   6.531  72.383  1.00  0.00    -0.269 OA 
BRANCH  13  16
HETATM   16  C   UNL     1      -9.411   6.269  72.741  1.00  0.00    -0.147 C  
BRANCH  16  17
HETATM   17  N   UNL     1      -9.517   5.028  73.514  1.00  0.00    -0.132 NA 
HETATM   18  H   UNL     1     -10.435   4.603  73.386  1.00  0.00     0.000 HD 
BRANCH  17  19
HETATM   19  C   UNL     1      -8.454   4.058  73.228  1.00  0.00    -0.089 C  
HETATM   20  C   UNL     1      -7.175   4.318  74.029  1.00  0.00    -0.068 C  
HETATM   21  C   UNL     1      -8.992   2.665  73.566  1.00  0.00    -0.082 C  
ENDBRANCH  17  19
ENDBRANCH  16  17
ENDBRANCH  13  16
ENDBRANCH  12  13
ENDBRANCH  11  12
ENDBRANCH   8  11
ENDBRANCH   4   5
ENDBRANCH   3   4
ENDBRANCH   2   3
TORSDOF 9
ENDMDL
MODEL      230
REMARK 921   NORMALIZED FREE ENERGY PREDICTED BY IDOCK:   -3.10 KCAL/MOL
REMARK 922        TOTAL FREE ENERGY PREDICTED BY IDOCK:   -5.36 KCAL/MOL
REMARK 923 INTER-LIGAND FREE ENERGY PREDICTED BY IDOCK:   -4.71 KCAL/MOL
REMARK 924 INTRA-LIGAND FREE ENERGY PREDICTED BY IDOCK:   -0.66 KCAL/MOL
REMARK 927      BINDING AFFINITY PREDICTED BY RF-SCORE:    0.00 PKD
ROOT
HETATM    1  C   UNL     1     -12.393  10.818  71.377  1.00  0.00    -0.328 C  
HETATM    2  O   UNL     1     -11.453   9.791  71.675  1.00  0.00    -0.364 OA 
ENDROOT
BRANCH   2   3
HETATM    3  C   UNL     1     -11.245   8.945  70.542  1.00  0.00    -0.252 C  
BRANCH   3   4
HETATM    4  C   UNL     1      -9.745   8.849  70.249  1.00  0.00    -0.212 C  
BRANCH   4   5
HETATM    5  C   UNL     1      -9.445   8.997  68.778  1.00  0.00    -0.148 A  
HETATM    6  C   UNL     1      -8.141   9.287  68.371  1.00  0.00    -0.106 A  
HETATM    7  C   UNL     1      -7.836   9.445  67.022  1.00  0.00    -0.098 A  
HETATM    8  C   UNL     1      -8.820   9.305  66.043  1.00  0.00    -0.160 A  
HETATM    9  C   UNL     1     -10.436   8.844  67.799  1.00  0.00    -0.300 A  
HETATM   10  C   UNL     1     -10.123   9.000  66.439  1.00  0.00    -0.351 A  
BRANCH   8  11
HETATM   11  O   UNL     1      -8.601   9.440  64.694  1.00  0.00    -0.165 OA 
BRANCH  11  12
HETATM   12  C   UNL     1      -9.702  10.014  63.965  1.00  0.00    -0.087 C  
BRANCH  12  13
HETATM   13  C   UNL     1      -9.488  11.509  63.696  1.00  0.00    -0.173 C  
HETATM   14  H   UNL     1      -8.638  12.612  62.305  1.00  0.00     0.000 HD 
HETATM   15  O   UNL     1      -8.770  11.687  62.471  1.00  0.00    -0.259 OA 
BRANCH  13  16
HETATM   16  C   UNL     1     -10.804  12.305  63.641  1.00  0.00    -0.469 C  
BRANCH  16  17
HETATM   17  N   UNL     1     -10.909  13.270  64.740  1.00  0.00    -0.339 NA 
HETATM   18  H   UNL     1     -11.137  14.197  64.383  1.00  0.00     0.000 HD 
BRANCH  17  19
HETATM   19  C   UNL     1     -11.855  12.873  65.789  1.00  0.00    -0.419 C  
HETATM   20  C   UNL     1     -11.313  13.103  67.202  1.00  0.00    -0.354 C  
HETATM   21  C   UNL     1     -13.135  13.692  65.595  1.00  0.00    -0.124 C  
ENDBRANCH  17  19
ENDBRANCH  16  17
ENDBRANCH  13  16
ENDBRANCH  12  13
ENDBRANCH  11  12
ENDBRANCH   8  11
ENDBRANCH   4   5
ENDBRANCH   3   4
ENDBRANCH   2   3
TORSDOF 9
ENDMDL
MODEL      231
REMARK 921   NORMALIZED FREE ENERGY PREDICTED BY IDOCK:   -3.09 KCAL/MOL
REMARK 922        TOTAL FREE ENERGY PREDICTED BY IDOCK:   -5.36 KCAL/MOL
REMARK 923 INTER-LIGAND FREE ENERGY PREDICTED BY IDOCK:   -4.86 KCAL/MOL
REMARK 924 INTRA-LIGAND FREE ENERGY PREDICTED BY IDOCK:   -0.50 KCAL/MOL
REMARK 927      BINDING AFFINITY PREDICTED BY RF-SCORE:    0.00 PKD
ROOT
HETATM    1  C   UNL     1      -8.140  18.042  67.421  1.00  0.00    -0.222 C  
HETATM    2  O   UNL     1      -9.286  18.020  68.266  1.00  0.00    -0.277 OA 
ENDROOT
BRANCH   2   3
HETATM    3  C   UNL     1     -10.436  17.561  67.555  1.00  0.00    -0.355 C  
BRANCH   3   4
HETATM    4  C   UNL     1     -11.003  16.321  68.251  1.00  0.00    -0.348 C  
BRANCH   4   5
HETATM    5  C   UNL     1     -10.600  15.046  67.555  1.00  0.00    -0.265 A  
HETATM    6  C   UNL     1      -9.341  14.497  67.807  1.00  0.00    -0.198 A  
HETATM    7  C   UNL     1      -8.932  13.330  67.168  1.00  0.00    -0.229 A  
HETATM    8  C   UNL     1      -9.773  12.672  66.270  1.00  0.00    -0.259 A  
HETATM    9  C   UNL     1     -11.453  14.384  66.662  1.00  0.00    -0.372 A  
HETATM   10  C   UNL     1     -11.040  13.204  66.022  1.00  0.00    -0.299 A  
BRANCH   8  11
HETATM   11  O   UNL     1      -9.449  11.516  65.603  1.00  0.00    -0.223 OA 
BRANCH  11  12
HETATM   12  C   UNL     1      -9.950  10.313  66.215  1.00  0.00    -0.235 C  
BRANCH  12  13
HETATM   13  C   UNL     1      -8.812   9.379  66.648  1.00  0.00    -0.135 C  
HETATM   14  H   UNL     1      -7.614   9.199  68.200  1.00  0.00     0.000 HD 
HETATM   15  O   UNL     1      -8.318   9.776  67.931  1.00  0.00    -0.113 OA 
BRANCH  13  16
HETATM   16  C   UNL     1      -9.232   7.899  66.695  1.00  0.00    -0.177 C  
BRANCH  16  17
HETATM   17  N   UNL     1      -9.757   7.519  68.010  1.00  0.00    -0.143 NA 
HETATM   18  H   UNL     1     -10.065   8.343  68.525  1.00  0.00     0.000 HD 
BRANCH  17  19
HETATM   19  C   UNL     1     -10.827   6.515  67.954  1.00  0.00    -0.304 C  
HETATM   20  C   UNL     1     -10.721   5.596  66.733  1.00  0.00    -0.358 C  
HETATM   21  C   UNL     1     -10.743   5.675  69.231  1.00  0.00    -0.350 C  
ENDBRANCH  17  19
ENDBRANCH  16  17
ENDBRANCH  13  16
ENDBRANCH  12  13
ENDBRANCH  11  12
ENDBRANCH   8  11
ENDBRANCH   4   5
ENDBRANCH   3   4
ENDBRANCH   2   3
TORSDOF 9
ENDMDL
MODEL      232
REMARK 921   NORMALIZED FREE ENERGY PREDICTED BY IDOCK:   -3.08 KCAL/MOL
REMARK 922        TOTAL FREE ENERGY PREDICTED BY IDOCK:   -5.34 KCAL/MOL
REMARK 923 INTER-LIGAND FREE ENERGY PREDICTED BY IDOCK:   -5.03 KCAL/MOL
REMARK 924 INTRA-LIGAND FREE ENERGY PREDICTED BY IDOCK:   -0.31 KCAL/MOL
REMARK 927      BINDING AFFINITY PREDICTED BY RF-SCORE:    0.00 PKD
ROOT
HETATM    1  C   UNL     1      -6.389  21.133  63.110  1.00  0.00    -0.220 C  
HETATM    2  O   UNL     1      -6.034  20.081  64.002  1.00  0.00    -0.260 OA 
ENDROOT
BRANCH   2   3
HETATM    3  C   UNL     1      -6.934  20.025  65.109  1.00  0.00    -0.209 C  
BRANCH   3   4
HETATM    4  C   UNL     1      -6.690  18.736  65.899  1.00  0.00    -0.294 C  
BRANCH   4   5
HETATM    5  C   UNL     1      -7.921  18.286  66.644  1.00  0.00    -0.273 A  
HETATM    6  C   UNL     1      -7.950  18.380  68.037  1.00  0.00    -0.289 A  
HETATM    7  C   UNL     1      -9.065  17.958  68.755  1.00  0.00    -0.213 A  
HETATM    8  C   UNL     1     -10.186  17.444  68.102  1.00  0.00    -0.350 A  
HETATM    9  C   UNL     1      -9.047  17.782  65.982  1.00  0.00    -0.033 A  
HETATM   10  C   UNL     1     -10.173  17.361  66.709  1.00  0.00    -0.318 A  
BRANCH   8  11
HETATM   11  O   UNL     1     -11.326  17.012  68.735  1.00  0.00    -0.098 OA 
BRANCH  11  12
HETATM   12  C   UNL     1     -11.100  16.046  69.778  1.00  0.00    -0.337 C  
BRANCH  12  13
HETATM   13  C   UNL     1     -11.278  14.608  69.270  1.00  0.00    -0.282 C  
HETATM   14  H   UNL     1     -10.279  13.354  68.129  1.00  0.00     0.000 HD 
HETATM   15  O   UNL     1     -10.169  14.243  68.443  1.00  0.00    -0.232 OA 
BRANCH  13  16
HETATM   16  C   UNL     1     -11.432  13.583  70.407  1.00  0.00     0.143 C  
BRANCH  16  17
HETATM   17  N   UNL     1     -11.285  12.205  69.927  1.00  0.00    -0.488 NA 
HETATM   18  H   UNL     1     -10.341  11.862  70.106  1.00  0.00     0.000 HD 
BRANCH  17  19
HETATM   19  C   UNL     1     -12.283  11.278  70.471  1.00  0.00    -0.383 C  
HETATM   20  C   UNL     1     -11.678   9.948  70.929  1.00  0.00    -0.449 C  
HETATM   21  C   UNL     1     -12.958  11.966  71.661  1.00  0.00    -0.447 C  
ENDBRANCH  17  19
ENDBRANCH  16  17
ENDBRANCH  13  16
ENDBRANCH  12  13
ENDBRANCH  11  12
ENDBRANCH   8  11
ENDBRANCH   4   5
ENDBRANCH   3   4
ENDBRANCH   2   3
TORSDOF 9
ENDMDL
MODEL      233
REMARK 921   NORMALIZED FREE ENERGY PREDICTED BY IDOCK:   -3.08 KCAL/MOL
REMARK 922        TOTAL FREE ENERGY PREDICTED BY IDOCK:   -5.34 KCAL/MOL
REMARK 923 INTER-LIGAND FREE ENERGY PREDICTED BY IDOCK:   -4.60 KCAL/MOL
REMARK 924 INTRA-LIGAND FREE ENERGY PREDICTED BY IDOCK:   -0.74 KCAL/MOL
REMARK 927      BINDING AFFINITY PREDICTED BY RF-SCORE:    0.00 PKD
ROOT
HETATM    1  C   UNL     1     -13.043  11.053  71.710  1.00  0.00    -0.449 C  
HETATM    2  O   UNL     1     -13.524   9.962  70.932  1.00  0.00    -0.334 OA 
ENDROOT
BRANCH   2   3
HETATM    3  C   UNL     1     -13.683   8.792  71.736  1.00  0.00    -0.419 C  
BRANCH   3   4
HETATM    4  C   UNL     1     -12.352   8.455  72.413  1.00  0.00    -0.412 C  
BRANCH   4   5
HETATM    5  C   UNL     1     -11.663   7.284  71.757  1.00  0.00    -0.321 A  
HETATM    6  C   UNL     1     -10.971   6.366  72.549  1.00  0.00    -0.283 A  
HETATM    7  C   UNL     1     -10.312   5.284  71.973  1.00  0.00    -0.273 A  
HETATM    8  C   UNL     1     -10.337   5.082  70.592  1.00  0.00    -0.208 A  
HETATM    9  C   UNL     1     -11.702   7.081  70.371  1.00  0.00    -0.326 A  
HETATM   10  C   UNL     1     -11.039   5.986  69.793  1.00  0.00    -0.476 A  
BRANCH   8  11
HETATM   11  O   UNL     1      -9.718   4.039  69.946  1.00  0.00    -0.203 OA 
BRANCH  11  12
HETATM   12  C   UNL     1      -8.331   3.864  70.289  1.00  0.00    -0.060 C  
BRANCH  12  13
HETATM   13  C   UNL     1      -7.422   3.989  69.059  1.00  0.00    -0.054 C  
HETATM   14  H   UNL     1      -6.213   2.816  68.041  1.00  0.00     0.000 HD 
HETATM   15  O   UNL     1      -6.775   2.739  68.802  1.00  0.00    -0.036 OA 
BRANCH  13  16
HETATM   16  C   UNL     1      -8.176   4.446  67.798  1.00  0.00    -0.098 C  
BRANCH  16  17
HETATM   17  N   UNL     1      -9.021   3.383  67.247  1.00  0.00    -0.136 NA 
HETATM   18  H   UNL     1      -9.854   3.253  67.822  1.00  0.00     0.000 HD 
BRANCH  17  19
HETATM   19  C   UNL     1      -9.391   3.586  65.842  1.00  0.00    -0.157 C  
HETATM   20  C   UNL     1     -10.532   4.591  65.662  1.00  0.00    -0.261 C  
HETATM   21  C   UNL     1      -8.148   4.091  65.103  1.00  0.00    -0.097 C  
ENDBRANCH  17  19
ENDBRANCH  16  17
ENDBRANCH  13  16
ENDBRANCH  12  13
ENDBRANCH  11  12
ENDBRANCH   8  11
ENDBRANCH   4   5
ENDBRANCH   3   4
ENDBRANCH   2   3
TORSDOF 9
ENDMDL
MODEL      234
REMARK 921   NORMALIZED FREE ENERGY PREDICTED BY IDOCK:   -3.07 KCAL/MOL
REMARK 922        TOTAL FREE ENERGY PREDICTED BY IDOCK:   -5.32 KCAL/MOL
REMARK 923 INTER-LIGAND FREE ENERGY PREDICTED BY IDOCK:   -4.91 KCAL/MOL
REMARK 924 INTRA-LIGAND FREE ENERGY PREDICTED BY IDOCK:   -0.41 KCAL/MOL
REMARK 927      BINDING AFFINITY PREDICTED BY RF-SCORE:    0.00 PKD
ROOT
HETATM    1  C   UNL     1     -11.247  12.644  63.706  1.00  0.00    -0.463 C  
HETATM    2  O   UNL     1     -10.859  12.897  65.052  1.00  0.00    -0.283 OA 
ENDROOT
BRANCH   2   3
HETATM    3  C   UNL     1     -11.969  12.757  65.939  1.00  0.00    -0.449 C  
BRANCH   3   4
HETATM    4  C   UNL     1     -11.577  13.267  67.329  1.00  0.00    -0.404 C  
BRANCH   4   5
HETATM    5  C   UNL     1     -11.251  12.138  68.275  1.00  0.00    -0.319 A  
HETATM    6  C   UNL     1     -12.156  11.809  69.286  1.00  0.00    -0.292 A  
HETATM    7  C   UNL     1     -11.877  10.784  70.185  1.00  0.00    -0.427 A  
HETATM    8  C   UNL     1     -10.695  10.049  70.090  1.00  0.00    -0.307 A  
HETATM    9  C   UNL     1     -10.067  11.398  68.168  1.00  0.00    -0.200 A  
HETATM   10  C   UNL     1      -9.790  10.360  69.073  1.00  0.00    -0.222 A  
BRANCH   8  11
HETATM   11  O   UNL     1     -10.346   9.021  70.932  1.00  0.00    -0.215 OA 
BRANCH  11  12
HETATM   12  C   UNL     1     -10.836   7.729  70.529  1.00  0.00    -0.241 C  
BRANCH  12  13
HETATM   13  C   UNL     1     -10.796   6.721  71.686  1.00  0.00    -0.229 C  
HETATM   14  H   UNL     1     -12.077   5.952  72.968  1.00  0.00     0.000 HD 
HETATM   15  O   UNL     1     -12.102   6.576  72.252  1.00  0.00    -0.278 OA 
BRANCH  13  16
HETATM   16  C   UNL     1     -10.263   5.340  71.263  1.00  0.00    -0.224 C  
BRANCH  16  17
HETATM   17  N   UNL     1      -8.999   5.012  71.928  1.00  0.00    -0.132 NA 
HETATM   18  H   UNL     1      -8.914   4.005  72.061  1.00  0.00     0.000 HD 
BRANCH  17  19
HETATM   19  C   UNL     1      -7.814   5.545  71.245  1.00  0.00    -0.110 C  
HETATM   20  C   UNL     1      -7.101   6.637  72.048  1.00  0.00    -0.080 C  
HETATM   21  C   UNL     1      -6.851   4.378  71.008  1.00  0.00    -0.036 C  
ENDBRANCH  17  19
ENDBRANCH  16  17
ENDBRANCH  13  16
ENDBRANCH  12  13
ENDBRANCH  11  12
ENDBRANCH   8  11
ENDBRANCH   4   5
ENDBRANCH   3   4
ENDBRANCH   2   3
TORSDOF 9
ENDMDL
MODEL      235
REMARK 921   NORMALIZED FREE ENERGY PREDICTED BY IDOCK:   -3.07 KCAL/MOL
REMARK 922        TOTAL FREE ENERGY PREDICTED BY IDOCK:   -5.32 KCAL/MOL
REMARK 923 INTER-LIGAND FREE ENERGY PREDICTED BY IDOCK:   -4.75 KCAL/MOL
REMARK 924 INTRA-LIGAND FREE ENERGY PREDICTED BY IDOCK:   -0.57 KCAL/MOL
REMARK 927      BINDING AFFINITY PREDICTED BY RF-SCORE:    0.00 PKD
ROOT
HETATM    1  C   UNL     1     -10.397  19.888  65.775  1.00  0.00    -0.410 C  
HETATM    2  O   UNL     1      -9.029  19.511  65.892  1.00  0.00    -0.406 OA 
ENDROOT
BRANCH   2   3
HETATM    3  C   UNL     1      -8.542  19.758  67.211  1.00  0.00    -0.321 C  
BRANCH   3   4
HETATM    4  C   UNL     1      -7.447  18.742  67.548  1.00  0.00    -0.241 C  
BRANCH   4   5
HETATM    5  C   UNL     1      -7.999  17.348  67.715  1.00  0.00    -0.208 A  
HETATM    6  C   UNL     1      -8.228  16.852  69.000  1.00  0.00    -0.153 A  
HETATM    7  C   UNL     1      -8.722  15.565  69.188  1.00  0.00    -0.247 A  
HETATM    8  C   UNL     1      -9.013  14.742  68.098  1.00  0.00    -0.179 A  
HETATM    9  C   UNL     1      -8.298  16.531  66.616  1.00  0.00    -0.297 A  
HETATM   10  C   UNL     1      -8.800  15.234  66.809  1.00  0.00    -0.302 A  
BRANCH   8  11
HETATM   11  O   UNL     1      -9.506  13.464  68.197  1.00  0.00    -0.208 OA 
BRANCH  11  12
HETATM   12  C   UNL     1     -10.853  13.381  68.698  1.00  0.00    -0.263 C  
BRANCH  12  13
HETATM   13  C   UNL     1     -11.668  12.310  67.959  1.00  0.00    -0.356 C  
HETATM   14  H   UNL     1     -12.363  12.035  66.139  1.00  0.00     0.000 HD 
HETATM   15  O   UNL     1     -11.859  12.698  66.595  1.00  0.00    -0.389 OA 
BRANCH  13  16
HETATM   16  C   UNL     1     -11.017  10.916  68.012  1.00  0.00    -0.265 C  
BRANCH  16  17
HETATM   17  N   UNL     1      -9.816  10.840  67.175  1.00  0.00    -0.181 NA 
HETATM   18  H   UNL     1      -9.482  11.774  66.940  1.00  0.00     0.000 HD 
BRANCH  17  19
HETATM   19  C   UNL     1      -8.735  10.038  67.761  1.00  0.00    -0.125 C  
HETATM   20  C   UNL     1      -8.420   8.776  66.952  1.00  0.00    -0.112 C  
HETATM   21  C   UNL     1      -7.487  10.921  67.833  1.00  0.00    -0.090 C  
ENDBRANCH  17  19
ENDBRANCH  16  17
ENDBRANCH  13  16
ENDBRANCH  12  13
ENDBRANCH  11  12
ENDBRANCH   8  11
ENDBRANCH   4   5
ENDBRANCH   3   4
ENDBRANCH   2   3
TORSDOF 9
ENDMDL
MODEL      236
REMARK 921   NORMALIZED FREE ENERGY PREDICTED BY IDOCK:   -3.06 KCAL/MOL
REMARK 922        TOTAL FREE ENERGY PREDICTED BY IDOCK:   -5.31 KCAL/MOL
REMARK 923 INTER-LIGAND FREE ENERGY PREDICTED BY IDOCK:   -4.88 KCAL/MOL
REMARK 924 INTRA-LIGAND FREE ENERGY PREDICTED BY IDOCK:   -0.43 KCAL/MOL
REMARK 927      BINDING AFFINITY PREDICTED BY RF-SCORE:    0.00 PKD
ROOT
HETATM    1  C   UNL     1      -8.794   2.561  65.838  1.00  0.00    -0.131 C  
HETATM    2  O   UNL     1      -9.263   3.065  64.592  1.00  0.00    -0.133 OA 
ENDROOT
BRANCH   2   3
HETATM    3  C   UNL     1     -10.177   4.145  64.789  1.00  0.00    -0.195 C  
BRANCH   3   4
HETATM    4  C   UNL     1     -10.133   4.587  66.255  1.00  0.00    -0.280 C  
BRANCH   4   5
HETATM    5  C   UNL     1      -9.951   6.077  66.391  1.00  0.00    -0.145 A  
HETATM    6  C   UNL     1     -10.911   6.825  67.078  1.00  0.00    -0.453 A  
HETATM    7  C   UNL     1     -10.779   8.204  67.207  1.00  0.00    -0.263 A  
HETATM    8  C   UNL     1      -9.680   8.874  66.667  1.00  0.00    -0.237 A  
HETATM    9  C   UNL     1      -8.840   6.742  65.856  1.00  0.00    -0.127 A  
HETATM   10  C   UNL     1      -8.708   8.134  65.992  1.00  0.00    -0.182 A  
BRANCH   8  11
HETATM   11  O   UNL     1      -9.474  10.229  66.754  1.00  0.00    -0.157 OA 
BRANCH  11  12
HETATM   12  C   UNL     1      -9.917  10.822  67.989  1.00  0.00    -0.164 C  
BRANCH  12  13
HETATM   13  C   UNL     1     -10.652  12.148  67.751  1.00  0.00    -0.204 C  
HETATM   14  H   UNL     1     -12.496  12.817  67.908  1.00  0.00     0.000 HD 
HETATM   15  O   UNL     1     -12.041  11.996  68.055  1.00  0.00    -0.514 OA 
BRANCH  13  16
HETATM   16  C   UNL     1     -10.070  13.314  68.571  1.00  0.00    -0.206 C  
BRANCH  16  17
HETATM   17  N   UNL     1     -10.968  13.724  69.654  1.00  0.00    -0.459 NA 
HETATM   18  H   UNL     1     -10.772  13.194  70.503  1.00  0.00     0.000 HD 
BRANCH  17  19
HETATM   19  C   UNL     1     -10.946  15.166  69.929  1.00  0.00    -0.274 C  
HETATM   20  C   UNL     1     -11.006  16.018  68.659  1.00  0.00    -0.323 C  
HETATM   21  C   UNL     1     -12.152  15.489  70.816  1.00  0.00    -0.435 C  
ENDBRANCH  17  19
ENDBRANCH  16  17
ENDBRANCH  13  16
ENDBRANCH  12  13
ENDBRANCH  11  12
ENDBRANCH   8  11
ENDBRANCH   4   5
ENDBRANCH   3   4
ENDBRANCH   2   3
TORSDOF 9
ENDMDL
MODEL      237
REMARK 921   NORMALIZED FREE ENERGY PREDICTED BY IDOCK:   -3.06 KCAL/MOL
REMARK 922        TOTAL FREE ENERGY PREDICTED BY IDOCK:   -5.31 KCAL/MOL
REMARK 923 INTER-LIGAND FREE ENERGY PREDICTED BY IDOCK:   -4.88 KCAL/MOL
REMARK 924 INTRA-LIGAND FREE ENERGY PREDICTED BY IDOCK:   -0.43 KCAL/MOL
REMARK 927      BINDING AFFINITY PREDICTED BY RF-SCORE:    0.00 PKD
ROOT
HETATM    1  C   UNL     1      -6.494  15.204  69.869  1.00  0.00    -0.171 C  
HETATM    2  O   UNL     1      -7.143  16.318  69.264  1.00  0.00    -0.207 OA 
ENDROOT
BRANCH   2   3
HETATM    3  C   UNL     1      -8.528  16.045  69.045  1.00  0.00    -0.244 C  
BRANCH   3   4
HETATM    4  C   UNL     1      -8.789  15.911  67.542  1.00  0.00    -0.199 C  
BRANCH   4   5
HETATM    5  C   UNL     1      -9.201  14.512  67.162  1.00  0.00    -0.233 A  
HETATM    6  C   UNL     1     -10.380  14.318  66.438  1.00  0.00    -0.287 A  
HETATM    7  C   UNL     1     -10.796  13.038  66.086  1.00  0.00    -0.296 A  
HETATM    8  C   UNL     1     -10.040  11.917  66.433  1.00  0.00    -0.214 A  
HETATM    9  C   UNL     1      -8.432  13.391  67.505  1.00  0.00    -0.192 A  
HETATM   10  C   UNL     1      -8.853  12.101  67.143  1.00  0.00    -0.191 A  
BRANCH   8  11
HETATM   11  O   UNL     1     -10.378  10.622  66.120  1.00  0.00    -0.245 OA 
BRANCH  11  12
HETATM   12  C   UNL     1     -10.790   9.824  67.246  1.00  0.00    -0.177 C  
BRANCH  12  13
HETATM   13  C   UNL     1     -10.342   8.364  67.100  1.00  0.00    -0.311 C  
HETATM   14  H   UNL     1      -8.941   7.381  66.128  1.00  0.00     0.000 HD 
HETATM   15  O   UNL     1      -9.218   8.284  66.218  1.00  0.00    -0.181 OA 
BRANCH  13  16
HETATM   16  C   UNL     1      -9.986   7.706  68.446  1.00  0.00    -0.176 C  
BRANCH  16  17
HETATM   17  N   UNL     1     -11.065   7.847  69.428  1.00  0.00    -0.439 NA 
HETATM   18  H   UNL     1     -11.839   8.383  69.036  1.00  0.00     0.000 HD 
BRANCH  17  19
HETATM   19  C   UNL     1     -11.544   6.571  69.970  1.00  0.00    -0.390 C  
HETATM   20  C   UNL     1     -10.407   5.633  70.387  1.00  0.00    -0.330 C  
HETATM   21  C   UNL     1     -12.418   6.882  71.188  1.00  0.00    -0.398 C  
ENDBRANCH  17  19
ENDBRANCH  16  17
ENDBRANCH  13  16
ENDBRANCH  12  13
ENDBRANCH  11  12
ENDBRANCH   8  11
ENDBRANCH   4   5
ENDBRANCH   3   4
ENDBRANCH   2   3
TORSDOF 9
ENDMDL
MODEL      238
REMARK 921   NORMALIZED FREE ENERGY PREDICTED BY IDOCK:   -3.03 KCAL/MOL
REMARK 922        TOTAL FREE ENERGY PREDICTED BY IDOCK:   -5.25 KCAL/MOL
REMARK 923 INTER-LIGAND FREE ENERGY PREDICTED BY IDOCK:   -4.45 KCAL/MOL
REMARK 924 INTRA-LIGAND FREE ENERGY PREDICTED BY IDOCK:   -0.80 KCAL/MOL
REMARK 927      BINDING AFFINITY PREDICTED BY RF-SCORE:    0.00 PKD
ROOT
HETATM    1  C   UNL     1     -10.056  17.761  66.087  1.00  0.00    -0.304 C  
HETATM    2  O   UNL     1      -8.721  17.425  65.722  1.00  0.00    -0.522 OA 
ENDROOT
BRANCH   2   3
HETATM    3  C   UNL     1      -7.887  17.315  66.876  1.00  0.00    -0.218 C  
BRANCH   3   4
HETATM    4  C   UNL     1      -8.681  16.677  68.019  1.00  0.00    -0.194 C  
BRANCH   4   5
HETATM    5  C   UNL     1      -8.532  15.176  68.042  1.00  0.00    -0.148 A  
HETATM    6  C   UNL     1      -9.554  14.379  67.522  1.00  0.00    -0.215 A  
HETATM    7  C   UNL     1      -9.454  12.991  67.543  1.00  0.00    -0.198 A  
HETATM    8  C   UNL     1      -8.326  12.361  68.072  1.00  0.00    -0.170 A  
HETATM    9  C   UNL     1      -7.393  14.551  68.565  1.00  0.00    -0.120 A  
HETATM   10  C   UNL     1      -7.293  13.150  68.582  1.00  0.00    -0.102 A  
BRANCH   8  11
HETATM   11  O   UNL     1      -8.148  11.000  68.127  1.00  0.00    -0.112 OA 
BRANCH  11  12
HETATM   12  C   UNL     1      -9.099  10.306  68.956  1.00  0.00    -0.183 C  
BRANCH  12  13
HETATM   13  C   UNL     1      -9.930   9.301  68.147  1.00  0.00    -0.177 C  
HETATM   14  H   UNL     1     -11.663   9.291  67.215  1.00  0.00     0.000 HD 
HETATM   15  O   UNL     1     -11.149   9.913  67.716  1.00  0.00    -0.269 OA 
BRANCH  13  16
HETATM   16  C   UNL     1      -9.177   8.740  66.928  1.00  0.00    -0.156 C  
BRANCH  16  17
HETATM   17  N   UNL     1      -9.910   8.964  65.679  1.00  0.00    -0.453 NA 
HETATM   18  H   UNL     1     -10.885   9.193  65.871  1.00  0.00     0.000 HD 
BRANCH  17  19
HETATM   19  C   UNL     1      -9.303   9.978  64.809  1.00  0.00    -0.271 C  
HETATM   20  C   UNL     1      -8.755   9.396  63.503  1.00  0.00    -0.221 C  
HETATM   21  C   UNL     1     -10.379  11.020  64.489  1.00  0.00    -0.420 C  
ENDBRANCH  17  19
ENDBRANCH  16  17
ENDBRANCH  13  16
ENDBRANCH  12  13
ENDBRANCH  11  12
ENDBRANCH   8  11
ENDBRANCH   4   5
ENDBRANCH   3   4
ENDBRANCH   2   3
TORSDOF 9
ENDMDL
MODEL      239
REMARK 921   NORMALIZED FREE ENERGY PREDICTED BY IDOCK:   -3.02 KCAL/MOL
REMARK 922        TOTAL FREE ENERGY PREDICTED BY IDOCK:   -5.25 KCAL/MOL
REMARK 923 INTER-LIGAND FREE ENERGY PREDICTED BY IDOCK:   -4.51 KCAL/MOL
REMARK 924 INTRA-LIGAND FREE ENERGY PREDICTED BY IDOCK:   -0.74 KCAL/MOL
REMARK 927      BINDING AFFINITY PREDICTED BY RF-SCORE:    0.00 PKD
ROOT
HETATM    1  C   UNL     1      -7.874   3.394  68.453  1.00  0.00    -0.059 C  
HETATM    2  O   UNL     1      -9.031   4.220  68.369  1.00  0.00    -0.102 OA 
ENDROOT
BRANCH   2   3
HETATM    3  C   UNL     1      -9.023   5.215  69.395  1.00  0.00    -0.099 C  
BRANCH   3   4
HETATM    4  C   UNL     1     -10.447   5.734  69.610  1.00  0.00    -0.363 C  
BRANCH   4   5
HETATM    5  C   UNL     1     -10.616   7.146  69.109  1.00  0.00    -0.227 A  
HETATM    6  C   UNL     1     -10.626   7.388  67.734  1.00  0.00    -0.278 A  
HETATM    7  C   UNL     1     -10.764   8.682  67.240  1.00  0.00    -0.209 A  
HETATM    8  C   UNL     1     -10.911   9.768  68.104  1.00  0.00    -0.214 A  
HETATM    9  C   UNL     1     -10.774   8.231  69.982  1.00  0.00    -0.239 A  
HETATM   10  C   UNL     1     -10.917   9.535  69.480  1.00  0.00    -0.217 A  
BRANCH   8  11
HETATM   11  O   UNL     1     -11.057  11.072  67.698  1.00  0.00    -0.260 OA 
BRANCH  11  12
HETATM   12  C   UNL     1     -10.238  11.442  66.573  1.00  0.00    -0.221 C  
BRANCH  12  13
HETATM   13  C   UNL     1      -9.661  12.855  66.733  1.00  0.00    -0.246 C  
HETATM   14  H   UNL     1      -9.933  14.621  65.906  1.00  0.00     0.000 HD 
HETATM   15  O   UNL     1     -10.290  13.746  65.807  1.00  0.00    -0.290 OA 
BRANCH  13  16
HETATM   16  C   UNL     1      -9.810  13.409  68.161  1.00  0.00    -0.234 C  
BRANCH  16  17
HETATM   17  N   UNL     1     -11.170  13.887  68.426  1.00  0.00    -0.250 NA 
HETATM   18  H   UNL     1     -11.859  13.254  68.019  1.00  0.00     0.000 HD 
BRANCH  17  19
HETATM   19  C   UNL     1     -11.454  14.113  69.847  1.00  0.00    -0.226 C  
HETATM   20  C   UNL     1     -12.411  15.284  70.087  1.00  0.00    -0.392 C  
HETATM   21  C   UNL     1     -12.071  12.829  70.409  1.00  0.00    -0.382 C  
ENDBRANCH  17  19
ENDBRANCH  16  17
ENDBRANCH  13  16
ENDBRANCH  12  13
ENDBRANCH  11  12
ENDBRANCH   8  11
ENDBRANCH   4   5
ENDBRANCH   3   4
ENDBRANCH   2   3
TORSDOF 9
ENDMDL
MODEL      240
REMARK 921   NORMALIZED FREE ENERGY PREDICTED BY IDOCK:   -3.02 KCAL/MOL
REMARK 922        TOTAL FREE ENERGY PREDICTED BY IDOCK:   -5.24 KCAL/MOL
REMARK 923 INTER-LIGAND FREE ENERGY PREDICTED BY IDOCK:   -4.61 KCAL/MOL
REMARK 924 INTRA-LIGAND FREE ENERGY PREDICTED BY IDOCK:   -0.63 KCAL/MOL
REMARK 927      BINDING AFFINITY PREDICTED BY RF-SCORE:    0.00 PKD
ROOT
HETATM    1  C   UNL     1     -10.866  14.566  64.842  1.00  0.00    -0.421 C  
HETATM    2  O   UNL     1     -12.162  14.071  65.163  1.00  0.00    -0.393 OA 
ENDROOT
BRANCH   2   3
HETATM    3  C   UNL     1     -12.216  12.651  65.023  1.00  0.00    -0.476 C  
BRANCH   3   4
HETATM    4  C   UNL     1     -10.810  12.069  65.197  1.00  0.00    -0.347 C  
BRANCH   4   5
HETATM    5  C   UNL     1     -10.715  11.168  66.402  1.00  0.00    -0.303 A  
HETATM    6  C   UNL     1     -10.073   9.934  66.284  1.00  0.00    -0.311 A  
HETATM    7  C   UNL     1      -9.983   9.072  67.374  1.00  0.00    -0.266 A  
HETATM    8  C   UNL     1     -10.518   9.426  68.614  1.00  0.00    -0.209 A  
HETATM    9  C   UNL     1     -11.245  11.534  67.646  1.00  0.00    -0.343 A  
HETATM   10  C   UNL     1     -11.148  10.664  68.745  1.00  0.00    -0.316 A  
BRANCH   8  11
HETATM   11  O   UNL     1     -10.467   8.637  69.737  1.00  0.00    -0.212 OA 
BRANCH  11  12
HETATM   12  C   UNL     1     -10.888   7.276  69.531  1.00  0.00    -0.209 C  
BRANCH  12  13
HETATM   13  C   UNL     1      -9.784   6.277  69.903  1.00  0.00    -0.166 C  
HETATM   14  H   UNL     1      -9.655   4.346  70.259  1.00  0.00     0.000 HD 
HETATM   15  O   UNL     1     -10.338   4.964  70.030  1.00  0.00    -0.268 OA 
BRANCH  13  16
HETATM   16  C   UNL     1      -8.629   6.251  68.886  1.00  0.00    -0.125 C  
BRANCH  16  17
HETATM   17  N   UNL     1      -7.340   6.563  69.511  1.00  0.00    -0.089 NA 
HETATM   18  H   UNL     1      -6.573   6.160  68.973  1.00  0.00     0.000 HD 
BRANCH  17  19
HETATM   19  C   UNL     1      -7.119   7.997  69.730  1.00  0.00    -0.060 C  
HETATM   20  C   UNL     1      -6.894   8.349  71.204  1.00  0.00    -0.058 C  
HETATM   21  C   UNL     1      -5.889   8.408  68.916  1.00  0.00    -0.040 C  
ENDBRANCH  17  19
ENDBRANCH  16  17
ENDBRANCH  13  16
ENDBRANCH  12  13
ENDBRANCH  11  12
ENDBRANCH   8  11
ENDBRANCH   4   5
ENDBRANCH   3   4
ENDBRANCH   2   3
TORSDOF 9
ENDMDL
MODEL      241
REMARK 921   NORMALIZED FREE ENERGY PREDICTED BY IDOCK:   -3.01 KCAL/MOL
REMARK 922        TOTAL FREE ENERGY PREDICTED BY IDOCK:   -5.23 KCAL/MOL
REMARK 923 INTER-LIGAND FREE ENERGY PREDICTED BY IDOCK:   -4.79 KCAL/MOL
REMARK 924 INTRA-LIGAND FREE ENERGY PREDICTED BY IDOCK:   -0.43 KCAL/MOL
REMARK 927      BINDING AFFINITY PREDICTED BY RF-SCORE:    0.00 PKD
ROOT
HETATM    1  C   UNL     1     -12.136  15.853  71.750  1.00  0.00    -0.492 C  
HETATM    2  O   UNL     1     -12.609  15.625  70.427  1.00  0.00    -0.426 OA 
ENDROOT
BRANCH   2   3
HETATM    3  C   UNL     1     -11.524  15.369  69.534  1.00  0.00    -0.319 C  
BRANCH   3   4
HETATM    4  C   UNL     1     -12.058  14.697  68.265  1.00  0.00    -0.214 C  
BRANCH   4   5
HETATM    5  C   UNL     1     -11.708  13.231  68.211  1.00  0.00    -0.388 A  
HETATM    6  C   UNL     1     -11.552  12.610  66.970  1.00  0.00    -0.431 A  
HETATM    7  C   UNL     1     -11.246  11.255  66.886  1.00  0.00    -0.300 A  
HETATM    8  C   UNL     1     -11.073  10.486  68.038  1.00  0.00    -0.300 A  
HETATM    9  C   UNL     1     -11.526  12.467  69.371  1.00  0.00    -0.327 A  
HETATM   10  C   UNL     1     -11.212  11.101  69.284  1.00  0.00    -0.331 A  
BRANCH   8  11
HETATM   11  O   UNL     1     -10.766   9.147  68.042  1.00  0.00    -0.218 OA 
BRANCH  11  12
HETATM   12  C   UNL     1     -10.662   8.563  69.354  1.00  0.00    -0.156 C  
BRANCH  12  13
HETATM   13  C   UNL     1     -10.240   7.089  69.287  1.00  0.00    -0.186 C  
HETATM   14  H   UNL     1     -10.863   5.455  68.382  1.00  0.00     0.000 HD 
HETATM   15  O   UNL     1     -11.124   6.367  68.424  1.00  0.00    -0.315 OA 
BRANCH  13  16
HETATM   16  C   UNL     1      -8.788   6.899  68.810  1.00  0.00    -0.132 C  
BRANCH  16  17
HETATM   17  N   UNL     1      -7.818   7.358  69.808  1.00  0.00    -0.113 NA 
HETATM   18  H   UNL     1      -8.281   7.549  70.697  1.00  0.00     0.000 HD 
BRANCH  17  19
HETATM   19  C   UNL     1      -6.687   6.443  70.001  1.00  0.00    -0.053 C  
HETATM   20  C   UNL     1      -6.008   6.610  71.363  1.00  0.00    -0.036 C  
HETATM   21  C   UNL     1      -7.219   5.013  69.869  1.00  0.00    -0.055 C  
ENDBRANCH  17  19
ENDBRANCH  16  17
ENDBRANCH  13  16
ENDBRANCH  12  13
ENDBRANCH  11  12
ENDBRANCH   8  11
ENDBRANCH   4   5
ENDBRANCH   3   4
ENDBRANCH   2   3
TORSDOF 9
ENDMDL
MODEL      242
REMARK 921   NORMALIZED FREE ENERGY PREDICTED BY IDOCK:   -3.01 KCAL/MOL
REMARK 922        TOTAL FREE ENERGY PREDICTED BY IDOCK:   -5.22 KCAL/MOL
REMARK 923 INTER-LIGAND FREE ENERGY PREDICTED BY IDOCK:   -4.85 KCAL/MOL
REMARK 924 INTRA-LIGAND FREE ENERGY PREDICTED BY IDOCK:   -0.38 KCAL/MOL
REMARK 927      BINDING AFFINITY PREDICTED BY RF-SCORE:    0.00 PKD
ROOT
HETATM    1  C   UNL     1      -7.897  14.856  67.578  1.00  0.00    -0.185 C  
HETATM    2  O   UNL     1      -8.744  14.729  66.441  1.00  0.00    -0.197 OA 
ENDROOT
BRANCH   2   3
HETATM    3  C   UNL     1      -9.968  15.440  66.633  1.00  0.00    -0.260 C  
BRANCH   3   4
HETATM    4  C   UNL     1     -11.126  14.628  66.048  1.00  0.00    -0.332 C  
BRANCH   4   5
HETATM    5  C   UNL     1     -11.087  13.187  66.491  1.00  0.00    -0.317 A  
HETATM    6  C   UNL     1     -10.714  12.199  65.577  1.00  0.00    -0.321 A  
HETATM    7  C   UNL     1     -10.684  10.859  65.951  1.00  0.00    -0.193 A  
HETATM    8  C   UNL     1     -11.013  10.469  67.250  1.00  0.00    -0.260 A  
HETATM    9  C   UNL     1     -11.408  12.803  67.800  1.00  0.00    -0.342 A  
HETATM   10  C   UNL     1     -11.373  11.450  68.175  1.00  0.00    -0.374 A  
BRANCH   8  11
HETATM   11  O   UNL     1     -11.004   9.171  67.699  1.00  0.00    -0.173 OA 
BRANCH  11  12
HETATM   12  C   UNL     1      -9.936   8.363  67.170  1.00  0.00    -0.238 C  
BRANCH  12  13
HETATM   13  C   UNL     1      -8.780   8.224  68.170  1.00  0.00    -0.136 C  
HETATM   14  H   UNL     1      -7.167   9.243  68.652  1.00  0.00     0.000 HD 
HETATM   15  O   UNL     1      -7.882   9.329  68.033  1.00  0.00    -0.091 OA 
BRANCH  13  16
HETATM   16  C   UNL     1      -9.256   8.127  69.630  1.00  0.00    -0.155 C  
BRANCH  16  17
HETATM   17  N   UNL     1     -10.687   7.821  69.722  1.00  0.00    -0.245 NA 
HETATM   18  H   UNL     1     -10.873   6.873  69.393  1.00  0.00     0.000 HD 
BRANCH  17  19
HETATM   19  C   UNL     1     -11.252   8.022  71.061  1.00  0.00    -0.266 C  
HETATM   20  C   UNL     1     -11.551   6.709  71.789  1.00  0.00    -0.347 C  
HETATM   21  C   UNL     1     -10.242   8.836  71.875  1.00  0.00    -0.415 C  
ENDBRANCH  17  19
ENDBRANCH  16  17
ENDBRANCH  13  16
ENDBRANCH  12  13
ENDBRANCH  11  12
ENDBRANCH   8  11
ENDBRANCH   4   5
ENDBRANCH   3   4
ENDBRANCH   2   3
TORSDOF 9
ENDMDL
MODEL      243
REMARK 921   NORMALIZED FREE ENERGY PREDICTED BY IDOCK:   -3.00 KCAL/MOL
REMARK 922        TOTAL FREE ENERGY PREDICTED BY IDOCK:   -5.22 KCAL/MOL
REMARK 923 INTER-LIGAND FREE ENERGY PREDICTED BY IDOCK:   -4.75 KCAL/MOL
REMARK 924 INTRA-LIGAND FREE ENERGY PREDICTED BY IDOCK:   -0.47 KCAL/MOL
REMARK 927      BINDING AFFINITY PREDICTED BY RF-SCORE:    0.00 PKD
ROOT
HETATM    1  C   UNL     1     -10.504   3.094  63.383  1.00  0.00    -0.224 C  
HETATM    2  O   UNL     1     -10.723   3.710  64.648  1.00  0.00    -0.119 OA 
ENDROOT
BRANCH   2   3
HETATM    3  C   UNL     1      -9.775   4.752  64.880  1.00  0.00     0.034 C  
BRANCH   3   4
HETATM    4  C   UNL     1      -8.816   4.328  65.997  1.00  0.00    -0.119 C  
BRANCH   4   5
HETATM    5  C   UNL     1      -9.233   4.875  67.339  1.00  0.00    -0.136 A  
HETATM    6  C   UNL     1      -9.598   3.990  68.355  1.00  0.00    -0.186 A  
HETATM    7  C   UNL     1     -10.002   4.464  69.600  1.00  0.00    -0.209 A  
HETATM    8  C   UNL     1     -10.041   5.833  69.868  1.00  0.00    -0.209 A  
HETATM    9  C   UNL     1      -9.259   6.251  67.605  1.00  0.00    -0.111 A  
HETATM   10  C   UNL     1      -9.664   6.726  68.863  1.00  0.00    -0.137 A  
BRANCH   8  11
HETATM   11  O   UNL     1     -10.423   6.381  71.068  1.00  0.00    -0.212 OA 
BRANCH  11  12
HETATM   12  C   UNL     1     -11.793   6.822  71.114  1.00  0.00    -0.360 C  
BRANCH  12  13
HETATM   13  C   UNL     1     -12.087   7.629  72.386  1.00  0.00    -0.214 C  
HETATM   14  H   UNL     1     -11.043   8.488  73.817  1.00  0.00     0.000 HD 
HETATM   15  O   UNL     1     -10.861   7.989  73.030  1.00  0.00    -0.368 OA 
BRANCH  13  16
HETATM   16  C   UNL     1     -12.916   8.898  72.116  1.00  0.00    -0.416 C  
BRANCH  16  17
HETATM   17  N   UNL     1     -12.744   9.384  70.744  1.00  0.00    -0.512 NA 
HETATM   18  H   UNL     1     -13.639   9.403  70.255  1.00  0.00     0.000 HD 
BRANCH  17  19
HETATM   19  C   UNL     1     -12.079  10.689  70.656  1.00  0.00    -0.365 C  
HETATM   20  C   UNL     1     -11.946  11.198  69.218  1.00  0.00    -0.421 C  
HETATM   21  C   UNL     1     -12.904  11.687  71.474  1.00  0.00    -0.469 C  
ENDBRANCH  17  19
ENDBRANCH  16  17
ENDBRANCH  13  16
ENDBRANCH  12  13
ENDBRANCH  11  12
ENDBRANCH   8  11
ENDBRANCH   4   5
ENDBRANCH   3   4
ENDBRANCH   2   3
TORSDOF 9
ENDMDL
MODEL      244
REMARK 921   NORMALIZED FREE ENERGY PREDICTED BY IDOCK:   -3.00 KCAL/MOL
REMARK 922        TOTAL FREE ENERGY PREDICTED BY IDOCK:   -5.21 KCAL/MOL
REMARK 923 INTER-LIGAND FREE ENERGY PREDICTED BY IDOCK:   -4.75 KCAL/MOL
REMARK 924 INTRA-LIGAND FREE ENERGY PREDICTED BY IDOCK:   -0.46 KCAL/MOL
REMARK 927      BINDING AFFINITY PREDICTED BY RF-SCORE:    0.00 PKD
ROOT
HETATM    1  C   UNL     1     -10.312  17.721  66.160  1.00  0.00    -0.340 C  
HETATM    2  O   UNL     1      -8.989  17.453  65.708  1.00  0.00    -0.521 OA 
ENDROOT
BRANCH   2   3
HETATM    3  C   UNL     1      -8.233  16.776  66.713  1.00  0.00    -0.235 C  
BRANCH   3   4
HETATM    4  C   UNL     1      -9.149  15.819  67.481  1.00  0.00    -0.201 C  
BRANCH   4   5
HETATM    5  C   UNL     1      -8.837  14.375  67.182  1.00  0.00    -0.244 A  
HETATM    6  C   UNL     1      -9.755  13.613  66.455  1.00  0.00    -0.298 A  
HETATM    7  C   UNL     1      -9.504  12.272  66.177  1.00  0.00    -0.221 A  
HETATM    8  C   UNL     1      -8.325  11.660  66.603  1.00  0.00    -0.154 A  
HETATM    9  C   UNL     1      -7.647  13.768  67.604  1.00  0.00    -0.189 A  
HETATM   10  C   UNL     1      -7.395  12.417  67.317  1.00  0.00    -0.127 A  
BRANCH   8  11
HETATM   11  O   UNL     1      -8.000  10.346  66.366  1.00  0.00    -0.120 OA 
BRANCH  11  12
HETATM   12  C   UNL     1      -8.347   9.444  67.433  1.00  0.00    -0.125 C  
BRANCH  12  13
HETATM   13  C   UNL     1      -9.686   8.741  67.168  1.00  0.00    -0.191 C  
HETATM   14  H   UNL     1     -10.280   6.986  66.505  1.00  0.00     0.000 HD 
HETATM   15  O   UNL     1      -9.452   7.421  66.668  1.00  0.00    -0.173 OA 
BRANCH  13  16
HETATM   16  C   UNL     1     -10.583   8.666  68.417  1.00  0.00    -0.120 C  
BRANCH  16  17
HETATM   17  N   UNL     1     -11.085   7.309  68.652  1.00  0.00    -0.452 NA 
HETATM   18  H   UNL     1     -10.688   6.657  67.975  1.00  0.00     0.000 HD 
BRANCH  17  19
HETATM   19  C   UNL     1     -10.871   6.826  70.021  1.00  0.00    -0.266 C  
HETATM   20  C   UNL     1     -12.160   6.774  70.845  1.00  0.00    -0.421 C  
HETATM   21  C   UNL     1     -10.268   5.421  69.929  1.00  0.00    -0.351 C  
ENDBRANCH  17  19
ENDBRANCH  16  17
ENDBRANCH  13  16
ENDBRANCH  12  13
ENDBRANCH  11  12
ENDBRANCH   8  11
ENDBRANCH   4   5
ENDBRANCH   3   4
ENDBRANCH   2   3
TORSDOF 9
ENDMDL
MODEL      245
REMARK 921   NORMALIZED FREE ENERGY PREDICTED BY IDOCK:   -2.99 KCAL/MOL
REMARK 922        TOTAL FREE ENERGY PREDICTED BY IDOCK:   -5.21 KCAL/MOL
REMARK 923 INTER-LIGAND FREE ENERGY PREDICTED BY IDOCK:   -4.77 KCAL/MOL
REMARK 924 INTRA-LIGAND FREE ENERGY PREDICTED BY IDOCK:   -0.44 KCAL/MOL
REMARK 927      BINDING AFFINITY PREDICTED BY RF-SCORE:    0.00 PKD
ROOT
HETATM    1  C   UNL     1      -5.738  18.009  69.570  1.00  0.00    -0.228 C  
HETATM    2  O   UNL     1      -6.966  17.395  69.191  1.00  0.00    -0.237 OA 
ENDROOT
BRANCH   2   3
HETATM    3  C   UNL     1      -6.780  16.529  68.071  1.00  0.00    -0.137 C  
BRANCH   3   4
HETATM    4  C   UNL     1      -8.089  16.429  67.282  1.00  0.00    -0.198 C  
BRANCH   4   5
HETATM    5  C   UNL     1      -8.700  15.053  67.372  1.00  0.00    -0.208 A  
HETATM    6  C   UNL     1      -9.679  14.678  66.449  1.00  0.00    -0.315 A  
HETATM    7  C   UNL     1     -10.274  13.421  66.514  1.00  0.00    -0.282 A  
HETATM    8  C   UNL     1      -9.899  12.501  67.494  1.00  0.00    -0.198 A  
HETATM    9  C   UNL     1      -8.311  14.130  68.351  1.00  0.00    -0.161 A  
HETATM   10  C   UNL     1      -8.911  12.861  68.412  1.00  0.00    -0.120 A  
BRANCH   8  11
HETATM   11  O   UNL     1     -10.432  11.242  67.624  1.00  0.00    -0.182 OA 
BRANCH  11  12
HETATM   12  C   UNL     1     -10.184  10.617  68.898  1.00  0.00    -0.201 C  
BRANCH  12  13
HETATM   13  C   UNL     1     -10.819   9.222  68.979  1.00  0.00    -0.111 C  
HETATM   14  H   UNL     1     -10.323   7.386  68.474  1.00  0.00     0.000 HD 
HETATM   15  O   UNL     1      -9.930   8.249  68.423  1.00  0.00    -0.178 OA 
BRANCH  13  16
HETATM   16  C   UNL     1     -11.194   8.815  70.416  1.00  0.00    -0.223 C  
BRANCH  16  17
HETATM   17  N   UNL     1     -11.547   9.974  71.241  1.00  0.00    -0.370 NA 
HETATM   18  H   UNL     1     -11.109  10.820  70.876  1.00  0.00     0.000 HD 
BRANCH  17  19
HETATM   19  C   UNL     1     -12.992  10.170  71.403  1.00  0.00    -0.429 C  
HETATM   20  C   UNL     1     -13.640   9.119  72.309  1.00  0.00    -0.548 C  
HETATM   21  C   UNL     1     -13.208  11.562  72.003  1.00  0.00    -0.443 C  
ENDBRANCH  17  19
ENDBRANCH  16  17
ENDBRANCH  13  16
ENDBRANCH  12  13
ENDBRANCH  11  12
ENDBRANCH   8  11
ENDBRANCH   4   5
ENDBRANCH   3   4
ENDBRANCH   2   3
TORSDOF 9
ENDMDL
MODEL      246
REMARK 921   NORMALIZED FREE ENERGY PREDICTED BY IDOCK:   -2.98 KCAL/MOL
REMARK 922        TOTAL FREE ENERGY PREDICTED BY IDOCK:   -5.19 KCAL/MOL
REMARK 923 INTER-LIGAND FREE ENERGY PREDICTED BY IDOCK:   -4.72 KCAL/MOL
REMARK 924 INTRA-LIGAND FREE ENERGY PREDICTED BY IDOCK:   -0.47 KCAL/MOL
REMARK 927      BINDING AFFINITY PREDICTED BY RF-SCORE:    0.00 PKD
ROOT
HETATM    1  C   UNL     1      -9.597  15.008  68.797  1.00  0.00    -0.220 C  
HETATM    2  O   UNL     1     -10.051  14.282  67.660  1.00  0.00    -0.227 OA 
ENDROOT
BRANCH   2   3
HETATM    3  C   UNL     1     -11.295  14.800  67.186  1.00  0.00    -0.356 C  
BRANCH   3   4
HETATM    4  C   UNL     1     -12.183  13.644  66.718  1.00  0.00    -0.416 C  
BRANCH   4   5
HETATM    5  C   UNL     1     -11.374  12.489  66.183  1.00  0.00    -0.388 A  
HETATM    6  C   UNL     1     -11.124  11.389  67.006  1.00  0.00    -0.364 A  
HETATM    7  C   UNL     1     -10.368  10.315  66.547  1.00  0.00    -0.276 A  
HETATM    8  C   UNL     1      -9.851  10.303  65.251  1.00  0.00    -0.306 A  
HETATM    9  C   UNL     1     -10.867  12.479  64.877  1.00  0.00    -0.327 A  
HETATM   10  C   UNL     1     -10.107  11.392  64.416  1.00  0.00    -0.341 A  
BRANCH   8  11
HETATM   11  O   UNL     1      -9.100   9.282  64.721  1.00  0.00    -0.212 OA 
BRANCH  11  12
HETATM   12  C   UNL     1      -7.687   9.385  64.978  1.00  0.00    -0.110 C  
BRANCH  12  13
HETATM   13  C   UNL     1      -6.977   8.037  64.791  1.00  0.00    -0.070 C  
HETATM   14  H   UNL     1      -5.161   7.322  65.048  1.00  0.00     0.000 HD 
HETATM   15  O   UNL     1      -5.601   8.156  65.163  1.00  0.00    -0.042 OA 
BRANCH  13  16
HETATM   16  C   UNL     1      -7.630   6.897  65.592  1.00  0.00    -0.089 C  
BRANCH  16  17
HETATM   17  N   UNL     1      -8.820   6.366  64.921  1.00  0.00    -0.345 NA 
HETATM   18  H   UNL     1      -8.749   6.492  63.912  1.00  0.00     0.000 HD 
BRANCH  17  19
HETATM   19  C   UNL     1      -9.110   4.965  65.247  1.00  0.00    -0.153 C  
HETATM   20  C   UNL     1     -10.419   4.789  66.021  1.00  0.00    -0.332 C  
HETATM   21  C   UNL     1      -9.189   4.187  63.930  1.00  0.00    -0.145 C  
ENDBRANCH  17  19
ENDBRANCH  16  17
ENDBRANCH  13  16
ENDBRANCH  12  13
ENDBRANCH  11  12
ENDBRANCH   8  11
ENDBRANCH   4   5
ENDBRANCH   3   4
ENDBRANCH   2   3
TORSDOF 9
ENDMDL
MODEL      247
REMARK 921   NORMALIZED FREE ENERGY PREDICTED BY IDOCK:   -2.97 KCAL/MOL
REMARK 922        TOTAL FREE ENERGY PREDICTED BY IDOCK:   -5.18 KCAL/MOL
REMARK 923 INTER-LIGAND FREE ENERGY PREDICTED BY IDOCK:   -4.76 KCAL/MOL
REMARK 924 INTRA-LIGAND FREE ENERGY PREDICTED BY IDOCK:   -0.41 KCAL/MOL
REMARK 927      BINDING AFFINITY PREDICTED BY RF-SCORE:    0.00 PKD
ROOT
HETATM    1  C   UNL     1      -6.775  18.291  67.912  1.00  0.00    -0.208 C  
HETATM    2  O   UNL     1      -8.016  18.172  67.223  1.00  0.00    -0.216 OA 
ENDROOT
BRANCH   2   3
HETATM    3  C   UNL     1      -9.012  17.587  68.062  1.00  0.00    -0.258 C  
BRANCH   3   4
HETATM    4  C   UNL     1     -10.145  17.029  67.195  1.00  0.00    -0.292 C  
BRANCH   4   5
HETATM    5  C   UNL     1     -10.777  15.805  67.808  1.00  0.00    -0.307 A  
HETATM    6  C   UNL     1     -11.287  15.876  69.106  1.00  0.00    -0.366 A  
HETATM    7  C   UNL     1     -11.863  14.760  69.706  1.00  0.00    -0.362 A  
HETATM    8  C   UNL     1     -11.957  13.547  69.023  1.00  0.00    -0.335 A  
HETATM    9  C   UNL     1     -10.878  14.593  67.113  1.00  0.00    -0.303 A  
HETATM   10  C   UNL     1     -11.463  13.470  67.719  1.00  0.00    -0.349 A  
BRANCH   8  11
HETATM   11  O   UNL     1     -12.513  12.402  69.540  1.00  0.00    -0.010 OA 
BRANCH  11  12
HETATM   12  C   UNL     1     -11.925  11.960  70.778  1.00  0.00    -0.088 C  
BRANCH  12  13
HETATM   13  C   UNL     1     -12.540  10.638  71.257  1.00  0.00    -0.427 C  
HETATM   14  H   UNL     1     -14.028   9.467  70.720  1.00  0.00     0.000 HD 
HETATM   15  O   UNL     1     -13.648  10.285  70.424  1.00  0.00     0.006 OA 
BRANCH  13  16
HETATM   16  C   UNL     1     -11.528   9.479  71.286  1.00  0.00    -0.377 C  
BRANCH  16  17
HETATM   17  N   UNL     1     -10.350   9.758  70.459  1.00  0.00    -0.292 NA 
HETATM   18  H   UNL     1      -9.977  10.683  70.668  1.00  0.00     0.000 HD 
BRANCH  17  19
HETATM   19  C   UNL     1      -9.298   8.740  70.563  1.00  0.00    -0.187 C  
HETATM   20  C   UNL     1      -7.913   9.337  70.824  1.00  0.00    -0.187 C  
HETATM   21  C   UNL     1      -9.672   7.800  71.712  1.00  0.00    -0.206 C  
ENDBRANCH  17  19
ENDBRANCH  16  17
ENDBRANCH  13  16
ENDBRANCH  12  13
ENDBRANCH  11  12
ENDBRANCH   8  11
ENDBRANCH   4   5
ENDBRANCH   3   4
ENDBRANCH   2   3
TORSDOF 9
ENDMDL
MODEL      248
REMARK 921   NORMALIZED FREE ENERGY PREDICTED BY IDOCK:   -2.97 KCAL/MOL
REMARK 922        TOTAL FREE ENERGY PREDICTED BY IDOCK:   -5.17 KCAL/MOL
REMARK 923 INTER-LIGAND FREE ENERGY PREDICTED BY IDOCK:   -4.53 KCAL/MOL
REMARK 924 INTRA-LIGAND FREE ENERGY PREDICTED BY IDOCK:   -0.64 KCAL/MOL
REMARK 927      BINDING AFFINITY PREDICTED BY RF-SCORE:    0.00 PKD
ROOT
HETATM    1  C   UNL     1      -9.923   6.477  74.044  1.00  0.00    -0.299 C  
HETATM    2  O   UNL     1     -11.112   6.868  73.366  1.00  0.00    -0.240 OA 
ENDROOT
BRANCH   2   3
HETATM    3  C   UNL     1     -11.542   5.850  72.461  1.00  0.00    -0.277 C  
BRANCH   3   4
HETATM    4  C   UNL     1     -10.321   5.221  71.784  1.00  0.00    -0.277 C  
BRANCH   4   5
HETATM    5  C   UNL     1     -10.055   5.820  70.427  1.00  0.00    -0.271 A  
HETATM    6  C   UNL     1     -11.125   6.057  69.561  1.00  0.00    -0.468 A  
HETATM    7  C   UNL     1     -10.911   6.594  68.295  1.00  0.00    -0.322 A  
HETATM    8  C   UNL     1      -9.625   6.922  67.863  1.00  0.00    -0.118 A  
HETATM    9  C   UNL     1      -8.762   6.158  70.004  1.00  0.00    -0.137 A  
HETATM   10  C   UNL     1      -8.550   6.704  68.727  1.00  0.00    -0.122 A  
BRANCH   8  11
HETATM   11  O   UNL     1      -9.329   7.459  66.634  1.00  0.00    -0.156 OA 
BRANCH  11  12
HETATM   12  C   UNL     1      -7.935   7.757  66.433  1.00  0.00    -0.099 C  
BRANCH  12  13
HETATM   13  C   UNL     1      -7.675   9.270  66.418  1.00  0.00    -0.093 C  
HETATM   14  H   UNL     1      -6.124  10.462  66.631  1.00  0.00     0.000 HD 
HETATM   15  O   UNL     1      -6.285   9.527  66.641  1.00  0.00    -0.063 OA 
BRANCH  13  16
HETATM   16  C   UNL     1      -8.119   9.944  65.108  1.00  0.00    -0.138 C  
BRANCH  16  17
HETATM   17  N   UNL     1      -9.514   9.639  64.779  1.00  0.00    -0.410 NA 
HETATM   18  H   UNL     1     -10.023   9.344  65.612  1.00  0.00     0.000 HD 
BRANCH  17  19
HETATM   19  C   UNL     1     -10.218  10.735  64.104  1.00  0.00    -0.344 C  
HETATM   20  C   UNL     1     -10.387  11.973  64.990  1.00  0.00    -0.318 C  
HETATM   21  C   UNL     1      -9.412  11.108  62.857  1.00  0.00    -0.382 C  
ENDBRANCH  17  19
ENDBRANCH  16  17
ENDBRANCH  13  16
ENDBRANCH  12  13
ENDBRANCH  11  12
ENDBRANCH   8  11
ENDBRANCH   4   5
ENDBRANCH   3   4
ENDBRANCH   2   3
TORSDOF 9
ENDMDL
MODEL      249
REMARK 921   NORMALIZED FREE ENERGY PREDICTED BY IDOCK:   -2.96 KCAL/MOL
REMARK 922        TOTAL FREE ENERGY PREDICTED BY IDOCK:   -5.16 KCAL/MOL
REMARK 923 INTER-LIGAND FREE ENERGY PREDICTED BY IDOCK:   -4.69 KCAL/MOL
REMARK 924 INTRA-LIGAND FREE ENERGY PREDICTED BY IDOCK:   -0.47 KCAL/MOL
REMARK 927      BINDING AFFINITY PREDICTED BY RF-SCORE:    0.00 PKD
ROOT
HETATM    1  C   UNL     1      -7.149  15.323  69.342  1.00  0.00    -0.191 C  
HETATM    2  O   UNL     1      -8.266  16.181  69.551  1.00  0.00    -0.168 OA 
ENDROOT
BRANCH   2   3
HETATM    3  C   UNL     1      -8.498  17.005  68.407  1.00  0.00    -0.239 C  
BRANCH   3   4
HETATM    4  C   UNL     1      -9.986  16.973  68.050  1.00  0.00    -0.283 C  
BRANCH   4   5
HETATM    5  C   UNL     1     -10.375  15.692  67.357  1.00  0.00    -0.275 A  
HETATM    6  C   UNL     1     -11.091  14.722  68.061  1.00  0.00    -0.294 A  
HETATM    7  C   UNL     1     -11.450  13.522  67.454  1.00  0.00    -0.366 A  
HETATM    8  C   UNL     1     -11.117  13.263  66.124  1.00  0.00    -0.285 A  
HETATM    9  C   UNL     1     -10.046  15.443  66.017  1.00  0.00    -0.346 A  
HETATM   10  C   UNL     1     -10.414  14.233  65.406  1.00  0.00    -0.382 A  
BRANCH   8  11
HETATM   11  O   UNL     1     -11.437  12.109  65.451  1.00  0.00    -0.336 OA 
BRANCH  11  12
HETATM   12  C   UNL     1     -10.613  10.977  65.782  1.00  0.00    -0.195 C  
BRANCH  12  13
HETATM   13  C   UNL     1     -10.098  10.262  64.525  1.00  0.00    -0.216 C  
HETATM   14  H   UNL     1      -9.350  10.784  62.781  1.00  0.00     0.000 HD 
HETATM   15  O   UNL     1      -9.670  11.226  63.558  1.00  0.00    -0.271 OA 
BRANCH  13  16
HETATM   16  C   UNL     1      -8.947   9.283  64.819  1.00  0.00    -0.168 C  
BRANCH  16  17
HETATM   17  N   UNL     1      -8.558   8.521  63.629  1.00  0.00    -0.416 NA 
HETATM   18  H   UNL     1      -8.055   9.116  62.971  1.00  0.00     0.000 HD 
BRANCH  17  19
HETATM   19  C   UNL     1      -7.783   7.311  63.927  1.00  0.00    -0.120 C  
HETATM   20  C   UNL     1      -7.718   6.337  62.747  1.00  0.00    -0.088 C  
HETATM   21  C   UNL     1      -6.364   7.748  64.304  1.00  0.00    -0.053 C  
ENDBRANCH  17  19
ENDBRANCH  16  17
ENDBRANCH  13  16
ENDBRANCH  12  13
ENDBRANCH  11  12
ENDBRANCH   8  11
ENDBRANCH   4   5
ENDBRANCH   3   4
ENDBRANCH   2   3
TORSDOF 9
ENDMDL
MODEL      250
REMARK 921   NORMALIZED FREE ENERGY PREDICTED BY IDOCK:   -2.96 KCAL/MOL
REMARK 922        TOTAL FREE ENERGY PREDICTED BY IDOCK:   -5.16 KCAL/MOL
REMARK 923 INTER-LIGAND FREE ENERGY PREDICTED BY IDOCK:   -4.63 KCAL/MOL
REMARK 924 INTRA-LIGAND FREE ENERGY PREDICTED BY IDOCK:   -0.53 KCAL/MOL
REMARK 927      BINDING AFFINITY PREDICTED BY RF-SCORE:    0.00 PKD
ROOT
HETATM    1  C   UNL     1      -7.776   2.518  64.801  1.00  0.00    -0.073 C  
HETATM    2  O   UNL     1      -8.595   2.999  63.739  1.00  0.00    -0.089 OA 
ENDROOT
BRANCH   2   3
HETATM    3  C   UNL     1      -9.749   3.670  64.248  1.00  0.00    -0.175 C  
BRANCH   3   4
HETATM    4  C   UNL     1      -9.547   3.974  65.735  1.00  0.00    -0.191 C  
BRANCH   4   5
HETATM    5  C   UNL     1      -9.530   5.456  66.013  1.00  0.00    -0.161 A  
HETATM    6  C   UNL     1     -10.638   6.051  66.620  1.00  0.00    -0.312 A  
HETATM    7  C   UNL     1     -10.661   7.419  66.875  1.00  0.00    -0.375 A  
HETATM    8  C   UNL     1      -9.573   8.228  66.544  1.00  0.00    -0.244 A  
HETATM    9  C   UNL     1      -8.431   6.261  65.687  1.00  0.00    -0.148 A  
HETATM   10  C   UNL     1      -8.454   7.640  65.950  1.00  0.00    -0.150 A  
BRANCH   8  11
HETATM   11  O   UNL     1      -9.513   9.582  66.766  1.00  0.00    -0.152 OA 
BRANCH  11  12
HETATM   12  C   UNL     1     -10.354  10.049  67.838  1.00  0.00    -0.207 C  
BRANCH  12  13
HETATM   13  C   UNL     1     -11.051  11.368  67.479  1.00  0.00    -0.281 C  
HETATM   14  H   UNL     1     -10.710  13.289  67.733  1.00  0.00     0.000 HD 
HETATM   15  O   UNL     1     -10.278  12.473  67.956  1.00  0.00    -0.211 OA 
BRANCH  13  16
HETATM   16  C   UNL     1     -11.297  11.527  65.967  1.00  0.00    -0.116 C  
BRANCH  16  17
HETATM   17  N   UNL     1     -10.547  12.654  65.405  1.00  0.00    -0.276 NA 
HETATM   18  H   UNL     1      -9.576  12.628  65.713  1.00  0.00     0.000 HD 
BRANCH  17  19
HETATM   19  C   UNL     1     -10.624  12.746  63.942  1.00  0.00    -0.395 C  
HETATM   20  C   UNL     1      -9.881  11.610  63.232  1.00  0.00    -0.428 C  
HETATM   21  C   UNL     1     -12.103  12.709  63.550  1.00  0.00    -0.648 C  
ENDBRANCH  17  19
ENDBRANCH  16  17
ENDBRANCH  13  16
ENDBRANCH  12  13
ENDBRANCH  11  12
ENDBRANCH   8  11
ENDBRANCH   4   5
ENDBRANCH   3   4
ENDBRANCH   2   3
TORSDOF 9
ENDMDL
MODEL      251
REMARK 921   NORMALIZED FREE ENERGY PREDICTED BY IDOCK:   -2.96 KCAL/MOL
REMARK 922        TOTAL FREE ENERGY PREDICTED BY IDOCK:   -5.15 KCAL/MOL
REMARK 923 INTER-LIGAND FREE ENERGY PREDICTED BY IDOCK:   -4.69 KCAL/MOL
REMARK 924 INTRA-LIGAND FREE ENERGY PREDICTED BY IDOCK:   -0.47 KCAL/MOL
REMARK 927      BINDING AFFINITY PREDICTED BY RF-SCORE:    0.00 PKD
ROOT
HETATM    1  C   UNL     1      -6.281  14.148  70.176  1.00  0.00    -0.151 C  
HETATM    2  O   UNL     1      -7.022  13.310  69.295  1.00  0.00    -0.079 OA 
ENDROOT
BRANCH   2   3
HETATM    3  C   UNL     1      -6.174  12.343  68.675  1.00  0.00    -0.069 C  
BRANCH   3   4
HETATM    4  C   UNL     1      -6.928  11.016  68.542  1.00  0.00    -0.070 C  
BRANCH   4   5
HETATM    5  C   UNL     1      -8.301  11.203  67.948  1.00  0.00    -0.129 A  
HETATM    6  C   UNL     1      -8.425  11.508  66.591  1.00  0.00    -0.172 A  
HETATM    7  C   UNL     1      -9.678  11.702  66.017  1.00  0.00    -0.257 A  
HETATM    8  C   UNL     1     -10.842  11.584  66.778  1.00  0.00    -0.282 A  
HETATM    9  C   UNL     1      -9.466  11.073  68.715  1.00  0.00    -0.190 A  
HETATM   10  C   UNL     1     -10.729  11.265  68.132  1.00  0.00    -0.244 A  
BRANCH   8  11
HETATM   11  O   UNL     1     -12.114  11.756  66.288  1.00  0.00    -0.446 OA 
BRANCH  11  12
HETATM   12  C   UNL     1     -12.185  12.510  65.063  1.00  0.00    -0.456 C  
BRANCH  12  13
HETATM   13  C   UNL     1     -12.331  14.014  65.331  1.00  0.00    -0.478 C  
HETATM   14  H   UNL     1     -12.849  15.160  66.845  1.00  0.00     0.000 HD 
HETATM   15  O   UNL     1     -12.759  14.229  66.679  1.00  0.00    -0.197 OA 
BRANCH  13  16
HETATM   16  C   UNL     1     -11.033  14.800  65.072  1.00  0.00    -0.414 C  
BRANCH  16  17
HETATM   17  N   UNL     1     -10.932  15.989  65.923  1.00  0.00    -0.185 NA 
HETATM   18  H   UNL     1     -11.815  16.163  66.403  1.00  0.00     0.000 HD 
BRANCH  17  19
HETATM   19  C   UNL     1      -9.824  15.939  66.883  1.00  0.00    -0.243 C  
HETATM   20  C   UNL     1      -8.448  15.975  66.212  1.00  0.00    -0.337 C  
HETATM   21  C   UNL     1      -9.965  17.143  67.819  1.00  0.00    -0.290 C  
ENDBRANCH  17  19
ENDBRANCH  16  17
ENDBRANCH  13  16
ENDBRANCH  12  13
ENDBRANCH  11  12
ENDBRANCH   8  11
ENDBRANCH   4   5
ENDBRANCH   3   4
ENDBRANCH   2   3
TORSDOF 9
ENDMDL
MODEL      252
REMARK 921   NORMALIZED FREE ENERGY PREDICTED BY IDOCK:   -2.96 KCAL/MOL
REMARK 922        TOTAL FREE ENERGY PREDICTED BY IDOCK:   -5.15 KCAL/MOL
REMARK 923 INTER-LIGAND FREE ENERGY PREDICTED BY IDOCK:   -4.52 KCAL/MOL
REMARK 924 INTRA-LIGAND FREE ENERGY PREDICTED BY IDOCK:   -0.63 KCAL/MOL
REMARK 927      BINDING AFFINITY PREDICTED BY RF-SCORE:    0.00 PKD
ROOT
HETATM    1  C   UNL     1     -10.567   3.534  62.713  1.00  0.00    -0.203 C  
HETATM    2  O   UNL     1     -10.803   3.802  64.091  1.00  0.00    -0.285 OA 
ENDROOT
BRANCH   2   3
HETATM    3  C   UNL     1      -9.637   4.342  64.713  1.00  0.00    -0.139 C  
BRANCH   3   4
HETATM    4  C   UNL     1      -9.267   3.487  65.929  1.00  0.00    -0.162 C  
BRANCH   4   5
HETATM    5  C   UNL     1      -9.682   4.136  67.225  1.00  0.00    -0.214 A  
HETATM    6  C   UNL     1      -9.379   3.506  68.434  1.00  0.00    -0.228 A  
HETATM    7  C   UNL     1      -9.763   4.071  69.647  1.00  0.00    -0.245 A  
HETATM    8  C   UNL     1     -10.448   5.286  69.687  1.00  0.00    -0.250 A  
HETATM    9  C   UNL     1     -10.361   5.361  67.259  1.00  0.00    -0.273 A  
HETATM   10  C   UNL     1     -10.743   5.931  68.484  1.00  0.00    -0.327 A  
BRANCH   8  11
HETATM   11  O   UNL     1     -10.858   5.912  70.839  1.00  0.00    -0.265 OA 
BRANCH  11  12
HETATM   12  C   UNL     1     -11.692   7.066  70.627  1.00  0.00    -0.338 C  
BRANCH  12  13
HETATM   13  C   UNL     1     -11.154   8.298  71.367  1.00  0.00    -0.251 C  
HETATM   14  H   UNL     1     -11.636   9.338  72.967  1.00  0.00     0.000 HD 
HETATM   15  O   UNL     1     -11.969   8.575  72.510  1.00  0.00    -0.389 OA 
BRANCH  13  16
HETATM   16  C   UNL     1      -9.687   8.143  71.807  1.00  0.00    -0.191 C  
BRANCH  16  17
HETATM   17  N   UNL     1      -9.506   8.450  73.229  1.00  0.00    -0.138 NA 
HETATM   18  H   UNL     1     -10.332   8.916  73.604  1.00  0.00     0.000 HD 
BRANCH  17  19
HETATM   19  C   UNL     1      -9.154   7.284  74.048  1.00  0.00    -0.242 C  
HETATM   20  C   UNL     1     -10.370   6.443  74.445  1.00  0.00    -0.268 C  
HETATM   21  C   UNL     1      -8.182   6.422  73.236  1.00  0.00    -0.114 C  
ENDBRANCH  17  19
ENDBRANCH  16  17
ENDBRANCH  13  16
ENDBRANCH  12  13
ENDBRANCH  11  12
ENDBRANCH   8  11
ENDBRANCH   4   5
ENDBRANCH   3   4
ENDBRANCH   2   3
TORSDOF 9
ENDMDL
MODEL      253
REMARK 921   NORMALIZED FREE ENERGY PREDICTED BY IDOCK:   -2.92 KCAL/MOL
REMARK 922        TOTAL FREE ENERGY PREDICTED BY IDOCK:   -5.10 KCAL/MOL
REMARK 923 INTER-LIGAND FREE ENERGY PREDICTED BY IDOCK:   -4.20 KCAL/MOL
REMARK 924 INTRA-LIGAND FREE ENERGY PREDICTED BY IDOCK:   -0.89 KCAL/MOL
REMARK 927      BINDING AFFINITY PREDICTED BY RF-SCORE:    0.00 PKD
ROOT
HETATM    1  C   UNL     1     -12.875  11.202  71.334  1.00  0.00    -0.439 C  
HETATM    2  O   UNL     1     -13.400  10.358  72.354  1.00  0.00    -0.304 OA 
ENDROOT
BRANCH   2   3
HETATM    3  C   UNL     1     -13.543   9.017  71.884  1.00  0.00    -0.431 C  
BRANCH   3   4
HETATM    4  C   UNL     1     -12.623   8.095  72.690  1.00  0.00    -0.119 C  
BRANCH   4   5
HETATM    5  C   UNL     1     -11.905   7.102  71.811  1.00  0.00    -0.338 A  
HETATM    6  C   UNL     1     -11.163   6.077  72.402  1.00  0.00    -0.338 A  
HETATM    7  C   UNL     1     -10.475   5.155  71.618  1.00  0.00    -0.255 A  
HETATM    8  C   UNL     1     -10.521   5.222  70.225  1.00  0.00    -0.261 A  
HETATM    9  C   UNL     1     -11.964   7.169  70.413  1.00  0.00    -0.190 A  
HETATM   10  C   UNL     1     -11.273   6.234  69.625  1.00  0.00    -0.506 A  
BRANCH   8  11
HETATM   11  O   UNL     1      -9.877   4.350  69.381  1.00  0.00    -0.203 OA 
BRANCH  11  12
HETATM   12  C   UNL     1      -9.289   4.967  68.221  1.00  0.00    -0.130 C  
BRANCH  12  13
HETATM   13  C   UNL     1      -7.764   4.790  68.196  1.00  0.00    -0.082 C  
HETATM   14  H   UNL     1      -6.410   4.178  66.905  1.00  0.00     0.000 HD 
HETATM   15  O   UNL     1      -7.353   4.287  66.921  1.00  0.00    -0.074 OA 
BRANCH  13  16
HETATM   16  C   UNL     1      -7.002   6.092  68.504  1.00  0.00    -0.076 C  
BRANCH  16  17
HETATM   17  N   UNL     1      -7.760   6.972  69.399  1.00  0.00    -0.106 NA 
HETATM   18  H   UNL     1      -7.337   6.989  70.327  1.00  0.00     0.000 HD 
BRANCH  17  19
HETATM   19  C   UNL     1      -7.931   8.335  68.884  1.00  0.00    -0.113 C  
HETATM   20  C   UNL     1      -8.624   9.268  69.882  1.00  0.00    -0.178 C  
HETATM   21  C   UNL     1      -6.541   8.886  68.554  1.00  0.00    -0.059 C  
ENDBRANCH  17  19
ENDBRANCH  16  17
ENDBRANCH  13  16
ENDBRANCH  12  13
ENDBRANCH  11  12
ENDBRANCH   8  11
ENDBRANCH   4   5
ENDBRANCH   3   4
ENDBRANCH   2   3
TORSDOF 9
ENDMDL
MODEL      254
REMARK 921   NORMALIZED FREE ENERGY PREDICTED BY IDOCK:   -2.91 KCAL/MOL
REMARK 922        TOTAL FREE ENERGY PREDICTED BY IDOCK:   -5.09 KCAL/MOL
REMARK 923 INTER-LIGAND FREE ENERGY PREDICTED BY IDOCK:   -4.57 KCAL/MOL
REMARK 924 INTRA-LIGAND FREE ENERGY PREDICTED BY IDOCK:   -0.52 KCAL/MOL
REMARK 927      BINDING AFFINITY PREDICTED BY RF-SCORE:    0.00 PKD
ROOT
HETATM    1  C   UNL     1     -10.872  11.676  63.859  1.00  0.00    -0.405 C  
HETATM    2  O   UNL     1      -9.673  11.647  64.628  1.00  0.00    -0.239 OA 
ENDROOT
BRANCH   2   3
HETATM    3  C   UNL     1      -8.879  10.508  64.293  1.00  0.00    -0.197 C  
BRANCH   3   4
HETATM    4  C   UNL     1      -8.083  10.063  65.523  1.00  0.00    -0.137 C  
BRANCH   4   5
HETATM    5  C   UNL     1      -8.983   9.691  66.675  1.00  0.00    -0.166 A  
HETATM    6  C   UNL     1      -9.721   8.507  66.613  1.00  0.00    -0.318 A  
HETATM    7  C   UNL     1     -10.572   8.144  67.652  1.00  0.00    -0.258 A  
HETATM    8  C   UNL     1     -10.699   8.945  68.788  1.00  0.00    -0.090 A  
HETATM    9  C   UNL     1      -9.098  10.495  67.817  1.00  0.00    -0.140 A  
HETATM   10  C   UNL     1      -9.954  10.123  68.867  1.00  0.00    -0.207 A  
BRANCH   8  11
HETATM   11  O   UNL     1     -11.512   8.656  69.858  1.00  0.00    -0.046 OA 
BRANCH  11  12
HETATM   12  C   UNL     1     -10.960   7.704  70.786  1.00  0.00    -0.252 C  
BRANCH  12  13
HETATM   13  C   UNL     1     -11.104   8.178  72.238  1.00  0.00    -0.344 C  
HETATM   14  H   UNL     1     -12.537   8.899  73.379  1.00  0.00     0.000 HD 
HETATM   15  O   UNL     1     -12.448   8.605  72.480  1.00  0.00    -0.391 OA 
BRANCH  13  16
HETATM   16  C   UNL     1     -10.715   7.099  73.265  1.00  0.00    -0.361 C  
BRANCH  16  17
HETATM   17  N   UNL     1     -11.377   5.820  72.994  1.00  0.00    -0.459 NA 
HETATM   18  H   UNL     1     -11.797   5.823  72.065  1.00  0.00     0.000 HD 
BRANCH  17  19
HETATM   19  C   UNL     1     -10.503   4.653  73.162  1.00  0.00    -0.193 C  
HETATM   20  C   UNL     1      -9.657   4.355  71.921  1.00  0.00    -0.212 C  
HETATM   21  C   UNL     1      -9.580   4.931  74.352  1.00  0.00    -0.150 C  
ENDBRANCH  17  19
ENDBRANCH  16  17
ENDBRANCH  13  16
ENDBRANCH  12  13
ENDBRANCH  11  12
ENDBRANCH   8  11
ENDBRANCH   4   5
ENDBRANCH   3   4
ENDBRANCH   2   3
TORSDOF 9
ENDMDL
MODEL      255
REMARK 921   NORMALIZED FREE ENERGY PREDICTED BY IDOCK:   -2.91 KCAL/MOL
REMARK 922        TOTAL FREE ENERGY PREDICTED BY IDOCK:   -5.07 KCAL/MOL
REMARK 923 INTER-LIGAND FREE ENERGY PREDICTED BY IDOCK:   -4.63 KCAL/MOL
REMARK 924 INTRA-LIGAND FREE ENERGY PREDICTED BY IDOCK:   -0.44 KCAL/MOL
REMARK 927      BINDING AFFINITY PREDICTED BY RF-SCORE:    0.00 PKD
ROOT
HETATM    1  C   UNL     1      -7.150  15.322  69.342  1.00  0.00    -0.191 C  
HETATM    2  O   UNL     1      -8.262  16.185  69.554  1.00  0.00    -0.168 OA 
ENDROOT
BRANCH   2   3
HETATM    3  C   UNL     1      -8.499  17.004  68.409  1.00  0.00    -0.239 C  
BRANCH   3   4
HETATM    4  C   UNL     1      -9.992  16.986  68.069  1.00  0.00    -0.283 C  
BRANCH   4   5
HETATM    5  C   UNL     1     -10.495  15.590  67.803  1.00  0.00    -0.273 A  
HETATM    6  C   UNL     1     -11.274  14.948  68.767  1.00  0.00    -0.288 A  
HETATM    7  C   UNL     1     -11.741  13.653  68.558  1.00  0.00    -0.392 A  
HETATM    8  C   UNL     1     -11.454  12.970  67.376  1.00  0.00    -0.332 A  
HETATM    9  C   UNL     1     -10.213  14.914  66.609  1.00  0.00    -0.264 A  
HETATM   10  C   UNL     1     -10.688  13.609  66.399  1.00  0.00    -0.281 A  
BRANCH   8  11
HETATM   11  O   UNL     1     -11.879  11.695  67.090  1.00  0.00    -0.608 OA 
BRANCH  11  12
HETATM   12  C   UNL     1     -11.144  10.656  67.764  1.00  0.00    -0.321 C  
BRANCH  12  13
HETATM   13  C   UNL     1     -10.714   9.546  66.795  1.00  0.00    -0.066 C  
HETATM   14  H   UNL     1      -9.958   9.435  64.981  1.00  0.00     0.000 HD 
HETATM   15  O   UNL     1     -10.225  10.122  65.580  1.00  0.00    -0.275 OA 
BRANCH  13  16
HETATM   16  C   UNL     1      -9.644   8.612  67.388  1.00  0.00    -0.159 C  
BRANCH  16  17
HETATM   17  N   UNL     1      -9.342   7.488  66.497  1.00  0.00    -0.179 NA 
HETATM   18  H   UNL     1      -8.804   7.803  65.691  1.00  0.00     0.000 HD 
BRANCH  17  19
HETATM   19  C   UNL     1      -8.666   6.368  67.163  1.00  0.00    -0.110 C  
HETATM   20  C   UNL     1      -8.706   5.074  66.345  1.00  0.00    -0.114 C  
HETATM   21  C   UNL     1      -7.209   6.777  67.397  1.00  0.00    -0.090 C  
ENDBRANCH  17  19
ENDBRANCH  16  17
ENDBRANCH  13  16
ENDBRANCH  12  13
ENDBRANCH  11  12
ENDBRANCH   8  11
ENDBRANCH   4   5
ENDBRANCH   3   4
ENDBRANCH   2   3
TORSDOF 9
ENDMDL
MODEL      256
REMARK 921   NORMALIZED FREE ENERGY PREDICTED BY IDOCK:   -2.89 KCAL/MOL
REMARK 922        TOTAL FREE ENERGY PREDICTED BY IDOCK:   -5.05 KCAL/MOL
REMARK 923 INTER-LIGAND FREE ENERGY PREDICTED BY IDOCK:   -4.35 KCAL/MOL
REMARK 924 INTRA-LIGAND FREE ENERGY PREDICTED BY IDOCK:   -0.70 KCAL/MOL
REMARK 927      BINDING AFFINITY PREDICTED BY RF-SCORE:    0.00 PKD
ROOT
HETATM    1  C   UNL     1      -9.400   2.060  68.432  1.00  0.00    -0.194 C  
HETATM    2  O   UNL     1      -9.712   2.689  69.670  1.00  0.00    -0.050 OA 
ENDROOT
BRANCH   2   3
HETATM    3  C   UNL     1      -9.775   4.108  69.521  1.00  0.00    -0.183 C  
BRANCH   3   4
HETATM    4  C   UNL     1      -9.126   4.509  68.193  1.00  0.00    -0.155 C  
BRANCH   4   5
HETATM    5  C   UNL     1      -9.336   5.969  67.878  1.00  0.00    -0.110 A  
HETATM    6  C   UNL     1      -9.820   6.821  68.873  1.00  0.00    -0.146 A  
HETATM    7  C   UNL     1     -10.040   8.170  68.609  1.00  0.00    -0.211 A  
HETATM    8  C   UNL     1      -9.771   8.707  67.350  1.00  0.00    -0.175 A  
HETATM    9  C   UNL     1      -9.053   6.504  66.615  1.00  0.00    -0.159 A  
HETATM   10  C   UNL     1      -9.272   7.867  66.353  1.00  0.00    -0.241 A  
BRANCH   8  11
HETATM   11  O   UNL     1      -9.955  10.025  67.010  1.00  0.00    -0.186 OA 
BRANCH  11  12
HETATM   12  C   UNL     1     -10.500  10.231  65.693  1.00  0.00    -0.082 C  
BRANCH  12  13
HETATM   13  C   UNL     1     -10.197  11.641  65.168  1.00  0.00    -0.274 C  
HETATM   14  H   UNL     1     -10.247  12.570  63.433  1.00  0.00     0.000 HD 
HETATM   15  O   UNL     1     -10.435  11.697  63.758  1.00  0.00    -0.321 OA 
BRANCH  13  16
HETATM   16  C   UNL     1     -11.020  12.735  65.871  1.00  0.00    -0.274 C  
BRANCH  16  17
HETATM   17  N   UNL     1     -11.894  12.182  66.910  1.00  0.00    -0.601 NA 
HETATM   18  H   UNL     1     -11.861  11.163  66.901  1.00  0.00     0.000 HD 
BRANCH  17  19
HETATM   19  C   UNL     1     -11.616  12.697  68.256  1.00  0.00    -0.332 C  
HETATM   20  C   UNL     1     -11.853  11.657  69.354  1.00  0.00    -0.408 C  
HETATM   21  C   UNL     1     -10.152  13.146  68.288  1.00  0.00    -0.247 C  
ENDBRANCH  17  19
ENDBRANCH  16  17
ENDBRANCH  13  16
ENDBRANCH  12  13
ENDBRANCH  11  12
ENDBRANCH   8  11
ENDBRANCH   4   5
ENDBRANCH   3   4
ENDBRANCH   2   3
TORSDOF 9
ENDMDL
MODEL      257
REMARK 921   NORMALIZED FREE ENERGY PREDICTED BY IDOCK:   -2.88 KCAL/MOL
REMARK 922        TOTAL FREE ENERGY PREDICTED BY IDOCK:   -5.04 KCAL/MOL
REMARK 923 INTER-LIGAND FREE ENERGY PREDICTED BY IDOCK:   -4.47 KCAL/MOL
REMARK 924 INTRA-LIGAND FREE ENERGY PREDICTED BY IDOCK:   -0.57 KCAL/MOL
REMARK 927      BINDING AFFINITY PREDICTED BY RF-SCORE:    0.00 PKD
ROOT
HETATM    1  C   UNL     1      -8.469   6.822  74.292  1.00  0.00    -0.148 C  
HETATM    2  O   UNL     1      -9.268   7.521  73.343  1.00  0.00    -0.181 OA 
ENDROOT
BRANCH   2   3
HETATM    3  C   UNL     1      -9.889   6.615  72.431  1.00  0.00    -0.158 C  
BRANCH   3   4
HETATM    4  C   UNL     1      -9.232   6.747  71.054  1.00  0.00    -0.156 C  
BRANCH   4   5
HETATM    5  C   UNL     1      -9.604   8.039  70.371  1.00  0.00    -0.174 A  
HETATM    6  C   UNL     1     -10.952   8.353  70.188  1.00  0.00    -0.216 A  
HETATM    7  C   UNL     1     -11.327   9.531  69.547  1.00  0.00    -0.025 A  
HETATM    8  C   UNL     1     -10.368  10.433  69.084  1.00  0.00    -0.222 A  
HETATM    9  C   UNL     1      -8.636   8.946  69.919  1.00  0.00    -0.137 A  
HETATM   10  C   UNL     1      -9.018  10.135  69.276  1.00  0.00    -0.193 A  
BRANCH   8  11
HETATM   11  O   UNL     1     -10.654  11.616  68.448  1.00  0.00    -0.194 OA 
BRANCH  11  12
HETATM   12  C   UNL     1      -9.545  12.528  68.357  1.00  0.00    -0.176 C  
BRANCH  12  13
HETATM   13  C   UNL     1      -9.786  13.612  67.297  1.00  0.00    -0.241 C  
HETATM   14  H   UNL     1      -8.792  15.138  66.550  1.00  0.00     0.000 HD 
HETATM   15  O   UNL     1      -8.643  14.467  67.206  1.00  0.00    -0.190 OA 
BRANCH  13  16
HETATM   16  C   UNL     1     -10.108  13.034  65.907  1.00  0.00    -0.288 C  
BRANCH  16  17
HETATM   17  N   UNL     1     -11.350  12.255  65.911  1.00  0.00    -0.344 NA 
HETATM   18  H   UNL     1     -11.741  12.208  66.852  1.00  0.00     0.000 HD 
BRANCH  17  19
HETATM   19  C   UNL     1     -12.355  12.736  64.956  1.00  0.00    -0.499 C  
HETATM   20  C   UNL     1     -12.058  14.144  64.434  1.00  0.00    -0.486 C  
HETATM   21  C   UNL     1     -12.387  11.754  63.782  1.00  0.00    -0.443 C  
ENDBRANCH  17  19
ENDBRANCH  16  17
ENDBRANCH  13  16
ENDBRANCH  12  13
ENDBRANCH  11  12
ENDBRANCH   8  11
ENDBRANCH   4   5
ENDBRANCH   3   4
ENDBRANCH   2   3
TORSDOF 9
ENDMDL
MODEL      258
REMARK 921   NORMALIZED FREE ENERGY PREDICTED BY IDOCK:   -2.85 KCAL/MOL
REMARK 922        TOTAL FREE ENERGY PREDICTED BY IDOCK:   -4.98 KCAL/MOL
REMARK 923 INTER-LIGAND FREE ENERGY PREDICTED BY IDOCK:   -4.65 KCAL/MOL
REMARK 924 INTRA-LIGAND FREE ENERGY PREDICTED BY IDOCK:   -0.34 KCAL/MOL
REMARK 927      BINDING AFFINITY PREDICTED BY RF-SCORE:    0.00 PKD
ROOT
HETATM    1  C   UNL     1     -10.438   6.032  66.654  1.00  0.00    -0.228 C  
HETATM    2  O   UNL     1     -11.085   7.221  67.094  1.00  0.00    -0.295 OA 
ENDROOT
BRANCH   2   3
HETATM    3  C   UNL     1     -10.301   8.374  66.784  1.00  0.00    -0.287 C  
BRANCH   3   4
HETATM    4  C   UNL     1     -10.044   9.174  68.064  1.00  0.00    -0.238 C  
BRANCH   4   5
HETATM    5  C   UNL     1     -10.171  10.660  67.838  1.00  0.00    -0.206 A  
HETATM    6  C   UNL     1     -11.406  11.192  67.465  1.00  0.00    -0.351 A  
HETATM    7  C   UNL     1     -11.552  12.557  67.233  1.00  0.00    -0.434 A  
HETATM    8  C   UNL     1     -10.473  13.429  67.381  1.00  0.00    -0.243 A  
HETATM    9  C   UNL     1      -9.085  11.531  67.999  1.00  0.00    -0.174 A  
HETATM   10  C   UNL     1      -9.237  12.909  67.769  1.00  0.00    -0.200 A  
BRANCH   8  11
HETATM   11  O   UNL     1     -10.534  14.786  67.177  1.00  0.00    -0.260 OA 
BRANCH  11  12
HETATM   12  C   UNL     1     -10.870  15.552  68.349  1.00  0.00    -0.273 C  
BRANCH  12  13
HETATM   13  C   UNL     1      -9.662  16.335  68.881  1.00  0.00    -0.248 C  
HETATM   14  H   UNL     1      -8.186  16.016  70.143  1.00  0.00     0.000 HD 
HETATM   15  O   UNL     1      -8.933  15.531  69.814  1.00  0.00    -0.240 OA 
BRANCH  13  16
HETATM   16  C   UNL     1      -8.716  16.813  67.765  1.00  0.00    -0.210 C  
BRANCH  16  17
HETATM   17  N   UNL     1      -7.634  17.654  68.285  1.00  0.00    -0.247 NA 
HETATM   18  H   UNL     1      -7.820  17.920  69.253  1.00  0.00     0.000 HD 
BRANCH  17  19
HETATM   19  C   UNL     1      -6.302  17.052  68.162  1.00  0.00    -0.142 C  
HETATM   20  C   UNL     1      -5.491  17.122  69.458  1.00  0.00    -0.182 C  
HETATM   21  C   UNL     1      -6.489  15.587  67.757  1.00  0.00    -0.186 C  
ENDBRANCH  17  19
ENDBRANCH  16  17
ENDBRANCH  13  16
ENDBRANCH  12  13
ENDBRANCH  11  12
ENDBRANCH   8  11
ENDBRANCH   4   5
ENDBRANCH   3   4
ENDBRANCH   2   3
TORSDOF 9
ENDMDL
MODEL      259
REMARK 921   NORMALIZED FREE ENERGY PREDICTED BY IDOCK:   -2.85 KCAL/MOL
REMARK 922        TOTAL FREE ENERGY PREDICTED BY IDOCK:   -4.98 KCAL/MOL
REMARK 923 INTER-LIGAND FREE ENERGY PREDICTED BY IDOCK:   -4.33 KCAL/MOL
REMARK 924 INTRA-LIGAND FREE ENERGY PREDICTED BY IDOCK:   -0.65 KCAL/MOL
REMARK 927      BINDING AFFINITY PREDICTED BY RF-SCORE:    0.00 PKD
ROOT
HETATM    1  C   UNL     1     -11.256   1.901  73.739  1.00  0.00    -0.192 C  
HETATM    2  O   UNL     1      -9.976   1.683  73.156  1.00  0.00    -0.087 OA 
ENDROOT
BRANCH   2   3
HETATM    3  C   UNL     1      -9.908   2.248  71.846  1.00  0.00    -0.155 C  
BRANCH   3   4
HETATM    4  C   UNL     1      -8.760   3.259  71.786  1.00  0.00    -0.119 C  
BRANCH   4   5
HETATM    5  C   UNL     1      -9.192   4.570  71.178  1.00  0.00    -0.198 A  
HETATM    6  C   UNL     1      -8.296   5.280  70.375  1.00  0.00    -0.111 A  
HETATM    7  C   UNL     1      -8.658   6.500  69.813  1.00  0.00    -0.136 A  
HETATM    8  C   UNL     1      -9.928   7.039  70.025  1.00  0.00    -0.181 A  
HETATM    9  C   UNL     1     -10.472   5.100  71.386  1.00  0.00    -0.249 A  
HETATM   10  C   UNL     1     -10.836   6.330  70.813  1.00  0.00    -0.339 A  
BRANCH   8  11
HETATM   11  O   UNL     1     -10.365   8.233  69.503  1.00  0.00    -0.210 OA 
BRANCH  11  12
HETATM   12  C   UNL     1     -10.490   8.247  68.069  1.00  0.00    -0.181 C  
BRANCH  12  13
HETATM   13  C   UNL     1     -10.081   9.603  67.478  1.00  0.00    -0.197 C  
HETATM   14  H   UNL     1      -9.840  10.374  65.683  1.00  0.00     0.000 HD 
HETATM   15  O   UNL     1     -10.093   9.535  66.049  1.00  0.00    -0.295 OA 
BRANCH  13  16
HETATM   16  C   UNL     1     -10.981  10.760  67.945  1.00  0.00    -0.289 C  
BRANCH  16  17
HETATM   17  N   UNL     1     -10.927  10.946  69.398  1.00  0.00    -0.237 NA 
HETATM   18  H   UNL     1     -10.150  11.556  69.653  1.00  0.00     0.000 HD 
BRANCH  17  19
HETATM   19  C   UNL     1     -12.181  11.436  69.981  1.00  0.00    -0.301 C  
HETATM   20  C   UNL     1     -12.492  10.809  71.343  1.00  0.00    -0.478 C  
HETATM   21  C   UNL     1     -12.060  12.955  70.136  1.00  0.00    -0.373 C  
ENDBRANCH  17  19
ENDBRANCH  16  17
ENDBRANCH  13  16
ENDBRANCH  12  13
ENDBRANCH  11  12
ENDBRANCH   8  11
ENDBRANCH   4   5
ENDBRANCH   3   4
ENDBRANCH   2   3
TORSDOF 9
ENDMDL
MODEL      260
REMARK 921   NORMALIZED FREE ENERGY PREDICTED BY IDOCK:   -2.84 KCAL/MOL
REMARK 922        TOTAL FREE ENERGY PREDICTED BY IDOCK:   -4.98 KCAL/MOL
REMARK 923 INTER-LIGAND FREE ENERGY PREDICTED BY IDOCK:   -4.26 KCAL/MOL
REMARK 924 INTRA-LIGAND FREE ENERGY PREDICTED BY IDOCK:   -0.72 KCAL/MOL
REMARK 927      BINDING AFFINITY PREDICTED BY RF-SCORE:    0.00 PKD
ROOT
HETATM    1  C   UNL     1      -7.910   3.518  68.497  1.00  0.00    -0.055 C  
HETATM    2  O   UNL     1      -9.010   4.417  68.410  1.00  0.00    -0.104 OA 
ENDROOT
BRANCH   2   3
HETATM    3  C   UNL     1      -8.954   5.396  69.449  1.00  0.00    -0.104 C  
BRANCH   3   4
HETATM    4  C   UNL     1     -10.353   5.973  69.681  1.00  0.00    -0.294 C  
BRANCH   4   5
HETATM    5  C   UNL     1     -10.450   7.414  69.246  1.00  0.00    -0.222 A  
HETATM    6  C   UNL     1     -10.359   7.727  67.888  1.00  0.00    -0.276 A  
HETATM    7  C   UNL     1     -10.429   9.049  67.456  1.00  0.00    -0.338 A  
HETATM    8  C   UNL     1     -10.604  10.092  68.367  1.00  0.00    -0.217 A  
HETATM    9  C   UNL     1     -10.636   8.456  70.164  1.00  0.00    -0.235 A  
HETATM   10  C   UNL     1     -10.710   9.788  69.725  1.00  0.00    -0.283 A  
BRANCH   8  11
HETATM   11  O   UNL     1     -10.687  11.420  68.023  1.00  0.00    -0.182 OA 
BRANCH  11  12
HETATM   12  C   UNL     1     -11.858  11.767  67.261  1.00  0.00    -0.108 C  
BRANCH  12  13
HETATM   13  C   UNL     1     -11.558  12.860  66.227  1.00  0.00    -0.372 C  
HETATM   14  H   UNL     1     -12.134  14.711  65.886  1.00  0.00     0.000 HD 
HETATM   15  O   UNL     1     -12.319  14.035  66.525  1.00  0.00    -0.457 OA 
BRANCH  13  16
HETATM   16  C   UNL     1     -10.064  13.222  66.149  1.00  0.00    -0.293 C  
BRANCH  16  17
HETATM   17  N   UNL     1      -9.664  14.136  67.223  1.00  0.00    -0.231 NA 
HETATM   18  H   UNL     1     -10.051  13.831  68.116  1.00  0.00     0.000 HD 
BRANCH  17  19
HETATM   19  C   UNL     1      -8.213  14.328  67.328  1.00  0.00    -0.192 C  
HETATM   20  C   UNL     1      -7.829  15.723  67.829  1.00  0.00    -0.155 C  
HETATM   21  C   UNL     1      -7.672  13.273  68.297  1.00  0.00    -0.141 C  
ENDBRANCH  17  19
ENDBRANCH  16  17
ENDBRANCH  13  16
ENDBRANCH  12  13
ENDBRANCH  11  12
ENDBRANCH   8  11
ENDBRANCH   4   5
ENDBRANCH   3   4
ENDBRANCH   2   3
TORSDOF 9
ENDMDL
MODEL      261
REMARK 921   NORMALIZED FREE ENERGY PREDICTED BY IDOCK:   -2.82 KCAL/MOL
REMARK 922        TOTAL FREE ENERGY PREDICTED BY IDOCK:   -4.95 KCAL/MOL
REMARK 923 INTER-LIGAND FREE ENERGY PREDICTED BY IDOCK:   -4.30 KCAL/MOL
REMARK 924 INTRA-LIGAND FREE ENERGY PREDICTED BY IDOCK:   -0.65 KCAL/MOL
REMARK 927      BINDING AFFINITY PREDICTED BY RF-SCORE:    0.00 PKD
ROOT
HETATM    1  C   UNL     1     -11.207   2.374  73.427  1.00  0.00    -0.180 C  
HETATM    2  O   UNL     1      -9.883   2.666  72.992  1.00  0.00    -0.103 OA 
ENDROOT
BRANCH   2   3
HETATM    3  C   UNL     1      -9.896   3.368  71.749  1.00  0.00    -0.159 C  
BRANCH   3   4
HETATM    4  C   UNL     1      -9.069   4.651  71.880  1.00  0.00    -0.162 C  
BRANCH   4   5
HETATM    5  C   UNL     1      -9.518   5.715  70.911  1.00  0.00    -0.202 A  
HETATM    6  C   UNL     1      -8.561   6.496  70.259  1.00  0.00    -0.136 A  
HETATM    7  C   UNL     1      -8.943   7.497  69.372  1.00  0.00    -0.139 A  
HETATM    8  C   UNL     1     -10.290   7.738  69.099  1.00  0.00    -0.215 A  
HETATM    9  C   UNL     1     -10.872   5.945  70.634  1.00  0.00    -0.363 A  
HETATM   10  C   UNL     1     -11.255   6.953  69.734  1.00  0.00    -0.315 A  
BRANCH   8  11
HETATM   11  O   UNL     1     -10.750   8.701  68.235  1.00  0.00    -0.164 OA 
BRANCH  11  12
HETATM   12  C   UNL     1     -10.414   8.473  66.854  1.00  0.00    -0.275 C  
BRANCH  12  13
HETATM   13  C   UNL     1      -9.470   9.555  66.313  1.00  0.00    -0.210 C  
HETATM   14  H   UNL     1      -9.256  10.571  64.641  1.00  0.00     0.000 HD 
HETATM   15  O   UNL     1      -9.841   9.902  64.975  1.00  0.00    -0.317 OA 
BRANCH  13  16
HETATM   16  C   UNL     1      -9.447  10.824  67.185  1.00  0.00    -0.160 C  
BRANCH  16  17
HETATM   17  N   UNL     1     -10.738  11.517  67.179  1.00  0.00    -0.240 NA 
HETATM   18  H   UNL     1     -11.214  11.397  68.073  1.00  0.00     0.000 HD 
BRANCH  17  19
HETATM   19  C   UNL     1     -10.646  12.940  66.830  1.00  0.00    -0.253 C  
HETATM   20  C   UNL     1     -12.014  13.594  66.618  1.00  0.00    -0.458 C  
HETATM   21  C   UNL     1      -9.913  13.652  67.971  1.00  0.00    -0.247 C  
ENDBRANCH  17  19
ENDBRANCH  16  17
ENDBRANCH  13  16
ENDBRANCH  12  13
ENDBRANCH  11  12
ENDBRANCH   8  11
ENDBRANCH   4   5
ENDBRANCH   3   4
ENDBRANCH   2   3
TORSDOF 9
ENDMDL
MODEL      262
REMARK 921   NORMALIZED FREE ENERGY PREDICTED BY IDOCK:   -2.80 KCAL/MOL
REMARK 922        TOTAL FREE ENERGY PREDICTED BY IDOCK:   -4.91 KCAL/MOL
REMARK 923 INTER-LIGAND FREE ENERGY PREDICTED BY IDOCK:   -4.37 KCAL/MOL
REMARK 924 INTRA-LIGAND FREE ENERGY PREDICTED BY IDOCK:   -0.54 KCAL/MOL
REMARK 927      BINDING AFFINITY PREDICTED BY RF-SCORE:    0.00 PKD
ROOT
HETATM    1  C   UNL     1      -6.537  20.019  65.319  1.00  0.00    -0.294 C  
HETATM    2  O   UNL     1      -7.787  19.365  65.508  1.00  0.00    -0.401 OA 
ENDROOT
BRANCH   2   3
HETATM    3  C   UNL     1      -8.634  20.123  66.374  1.00  0.00    -0.233 C  
BRANCH   3   4
HETATM    4  C   UNL     1      -8.086  20.062  67.802  1.00  0.00    -0.320 C  
BRANCH   4   5
HETATM    5  C   UNL     1      -7.978  18.646  68.308  1.00  0.00    -0.337 A  
HETATM    6  C   UNL     1      -6.729  18.146  68.684  1.00  0.00    -0.240 A  
HETATM    7  C   UNL     1      -6.594  16.838  69.139  1.00  0.00    -0.214 A  
HETATM    8  C   UNL     1      -7.703  15.998  69.246  1.00  0.00    -0.223 A  
HETATM    9  C   UNL     1      -9.097  17.811  68.423  1.00  0.00    -0.278 A  
HETATM   10  C   UNL     1      -8.958  16.492  68.887  1.00  0.00    -0.245 A  
BRANCH   8  11
HETATM   11  O   UNL     1      -7.656  14.698  69.690  1.00  0.00    -0.103 OA 
BRANCH  11  12
HETATM   12  C   UNL     1      -6.704  13.867  69.001  1.00  0.00    -0.110 C  
BRANCH  12  13
HETATM   13  C   UNL     1      -7.277  13.317  67.687  1.00  0.00    -0.162 C  
HETATM   14  H   UNL     1      -6.811  11.906  66.397  1.00  0.00     0.000 HD 
HETATM   15  O   UNL     1      -6.457  12.246  67.209  1.00  0.00    -0.144 OA 
BRANCH  13  16
HETATM   16  C   UNL     1      -8.731  12.830  67.822  1.00  0.00    -0.184 C  
BRANCH  16  17
HETATM   17  N   UNL     1      -8.964  11.586  67.083  1.00  0.00    -0.162 NA 
HETATM   18  H   UNL     1      -8.086  11.212  66.724  1.00  0.00     0.000 HD 
BRANCH  17  19
HETATM   19  C   UNL     1      -9.683  10.564  67.853  1.00  0.00    -0.153 C  
HETATM   20  C   UNL     1     -10.988  11.083  68.462  1.00  0.00    -0.276 C  
HETATM   21  C   UNL     1      -9.991   9.400  66.907  1.00  0.00    -0.293 C  
ENDBRANCH  17  19
ENDBRANCH  16  17
ENDBRANCH  13  16
ENDBRANCH  12  13
ENDBRANCH  11  12
ENDBRANCH   8  11
ENDBRANCH   4   5
ENDBRANCH   3   4
ENDBRANCH   2   3
TORSDOF 9
ENDMDL
MODEL      263
REMARK 921   NORMALIZED FREE ENERGY PREDICTED BY IDOCK:   -2.79 KCAL/MOL
REMARK 922        TOTAL FREE ENERGY PREDICTED BY IDOCK:   -4.90 KCAL/MOL
REMARK 923 INTER-LIGAND FREE ENERGY PREDICTED BY IDOCK:   -4.44 KCAL/MOL
REMARK 924 INTRA-LIGAND FREE ENERGY PREDICTED BY IDOCK:   -0.46 KCAL/MOL
REMARK 927      BINDING AFFINITY PREDICTED BY RF-SCORE:    0.00 PKD
ROOT
HETATM    1  C   UNL     1     -12.276  13.448  63.525  1.00  0.00    -0.400 C  
HETATM    2  O   UNL     1     -11.414  12.941  64.538  1.00  0.00    -0.316 OA 
ENDROOT
BRANCH   2   3
HETATM    3  C   UNL     1     -12.162  12.491  65.668  1.00  0.00    -0.335 C  
BRANCH   3   4
HETATM    4  C   UNL     1     -11.609  13.144  66.937  1.00  0.00    -0.417 C  
BRANCH   4   5
HETATM    5  C   UNL     1     -10.594  12.268  67.628  1.00  0.00    -0.238 A  
HETATM    6  C   UNL     1     -11.029  11.301  68.537  1.00  0.00    -0.266 A  
HETATM    7  C   UNL     1     -10.117  10.488  69.203  1.00  0.00    -0.240 A  
HETATM    8  C   UNL     1      -8.746  10.609  68.970  1.00  0.00    -0.146 A  
HETATM    9  C   UNL     1      -9.220  12.387  67.382  1.00  0.00    -0.184 A  
HETATM   10  C   UNL     1      -8.301  11.562  68.053  1.00  0.00    -0.146 A  
BRANCH   8  11
HETATM   11  O   UNL     1      -7.782   9.844  69.581  1.00  0.00    -0.113 OA 
BRANCH  11  12
HETATM   12  C   UNL     1      -7.889   8.432  69.324  1.00  0.00    -0.104 C  
BRANCH  12  13
HETATM   13  C   UNL     1      -7.909   8.128  67.820  1.00  0.00    -0.118 C  
HETATM   14  H   UNL     1      -6.604   8.077  66.347  1.00  0.00     0.000 HD 
HETATM   15  O   UNL     1      -6.592   8.265  67.278  1.00  0.00    -0.056 OA 
BRANCH  13  16
HETATM   16  C   UNL     1      -8.455   6.726  67.495  1.00  0.00    -0.121 C  
BRANCH  16  17
HETATM   17  N   UNL     1      -9.113   6.112  68.652  1.00  0.00    -0.125 NA 
HETATM   18  H   UNL     1      -8.943   6.661  69.495  1.00  0.00     0.000 HD 
BRANCH  17  19
HETATM   19  C   UNL     1     -10.551   5.886  68.465  1.00  0.00    -0.252 C  
HETATM   20  C   UNL     1     -11.369   6.162  69.730  1.00  0.00    -0.452 C  
HETATM   21  C   UNL     1     -11.025   6.811  67.341  1.00  0.00    -0.407 C  
ENDBRANCH  17  19
ENDBRANCH  16  17
ENDBRANCH  13  16
ENDBRANCH  12  13
ENDBRANCH  11  12
ENDBRANCH   8  11
ENDBRANCH   4   5
ENDBRANCH   3   4
ENDBRANCH   2   3
TORSDOF 9
ENDMDL
MODEL      264
REMARK 921   NORMALIZED FREE ENERGY PREDICTED BY IDOCK:   -2.79 KCAL/MOL
REMARK 922        TOTAL FREE ENERGY PREDICTED BY IDOCK:   -4.90 KCAL/MOL
REMARK 923 INTER-LIGAND FREE ENERGY PREDICTED BY IDOCK:   -4.50 KCAL/MOL
REMARK 924 INTRA-LIGAND FREE ENERGY PREDICTED BY IDOCK:   -0.40 KCAL/MOL
REMARK 927      BINDING AFFINITY PREDICTED BY RF-SCORE:    0.00 PKD
ROOT
HETATM    1  C   UNL     1      -9.546   3.262  65.148  1.00  0.00    -0.107 C  
HETATM    2  O   UNL     1     -10.224   4.514  65.175  1.00  0.00    -0.183 OA 
ENDROOT
BRANCH   2   3
HETATM    3  C   UNL     1     -10.157   5.103  66.475  1.00  0.00    -0.239 C  
BRANCH   3   4
HETATM    4  C   UNL     1      -8.947   6.038  66.548  1.00  0.00    -0.137 C  
BRANCH   4   5
HETATM    5  C   UNL     1      -9.355   7.489  66.592  1.00  0.00    -0.222 A  
HETATM    6  C   UNL     1      -8.716   8.405  65.753  1.00  0.00    -0.199 A  
HETATM    7  C   UNL     1      -9.059   9.754  65.781  1.00  0.00    -0.221 A  
HETATM    8  C   UNL     1     -10.057  10.223  66.637  1.00  0.00    -0.223 A  
HETATM    9  C   UNL     1     -10.365   7.952  67.445  1.00  0.00    -0.349 A  
HETATM   10  C   UNL     1     -10.711   9.313  67.468  1.00  0.00    -0.272 A  
BRANCH   8  11
HETATM   11  O   UNL     1     -10.457  11.534  66.722  1.00  0.00    -0.222 OA 
BRANCH  11  12
HETATM   12  C   UNL     1     -10.657  12.181  65.451  1.00  0.00    -0.272 C  
BRANCH  12  13
HETATM   13  C   UNL     1     -10.327  13.679  65.519  1.00  0.00    -0.309 C  
HETATM   14  H   UNL     1     -11.330  15.372  65.506  1.00  0.00     0.000 HD 
HETATM   15  O   UNL     1     -11.534  14.446  65.465  1.00  0.00    -0.327 OA 
BRANCH  13  16
HETATM   16  C   UNL     1      -9.529  14.063  66.777  1.00  0.00    -0.282 C  
BRANCH  16  17
HETATM   17  N   UNL     1      -8.522  15.091  66.496  1.00  0.00    -0.427 NA 
HETATM   18  H   UNL     1      -8.965  15.998  66.353  1.00  0.00     0.000 HD 
BRANCH  17  19
HETATM   19  C   UNL     1      -7.470  15.184  67.515  1.00  0.00    -0.198 C  
HETATM   20  C   UNL     1      -6.925  16.606  67.683  1.00  0.00    -0.160 C  
HETATM   21  C   UNL     1      -8.065  14.707  68.843  1.00  0.00    -0.147 C  
ENDBRANCH  17  19
ENDBRANCH  16  17
ENDBRANCH  13  16
ENDBRANCH  12  13
ENDBRANCH  11  12
ENDBRANCH   8  11
ENDBRANCH   4   5
ENDBRANCH   3   4
ENDBRANCH   2   3
TORSDOF 9
ENDMDL
MODEL      265
REMARK 921   NORMALIZED FREE ENERGY PREDICTED BY IDOCK:   -2.74 KCAL/MOL
REMARK 922        TOTAL FREE ENERGY PREDICTED BY IDOCK:   -4.82 KCAL/MOL
REMARK 923 INTER-LIGAND FREE ENERGY PREDICTED BY IDOCK:   -4.52 KCAL/MOL
REMARK 924 INTRA-LIGAND FREE ENERGY PREDICTED BY IDOCK:   -0.31 KCAL/MOL
REMARK 927      BINDING AFFINITY PREDICTED BY RF-SCORE:    0.00 PKD
ROOT
HETATM    1  C   UNL     1     -10.985  19.532  67.019  1.00  0.00    -0.330 C  
HETATM    2  O   UNL     1     -10.100  18.944  66.072  1.00  0.00    -0.447 OA 
ENDROOT
BRANCH   2   3
HETATM    3  C   UNL     1      -9.000  18.310  66.726  1.00  0.00    -0.284 C  
BRANCH   3   4
HETATM    4  C   UNL     1      -8.500  17.144  65.868  1.00  0.00    -0.014 C  
BRANCH   4   5
HETATM    5  C   UNL     1      -9.219  15.857  66.188  1.00  0.00    -0.384 A  
HETATM    6  C   UNL     1     -10.500  15.643  65.675  1.00  0.00    -0.402 A  
HETATM    7  C   UNL     1     -11.196  14.473  65.965  1.00  0.00    -0.337 A  
HETATM    8  C   UNL     1     -10.627  13.479  66.763  1.00  0.00    -0.272 A  
HETATM    9  C   UNL     1      -8.637  14.859  66.981  1.00  0.00    -0.265 A  
HETATM   10  C   UNL     1      -9.341  13.678  67.268  1.00  0.00    -0.233 A  
BRANCH   8  11
HETATM   11  O   UNL     1     -11.243  12.297  67.092  1.00  0.00    -0.271 OA 
BRANCH  11  12
HETATM   12  C   UNL     1     -11.032  11.231  66.147  1.00  0.00    -0.191 C  
BRANCH  12  13
HETATM   13  C   UNL     1     -10.020  10.202  66.669  1.00  0.00    -0.216 C  
HETATM   14  H   UNL     1     -10.033   8.679  67.916  1.00  0.00     0.000 HD 
HETATM   15  O   UNL     1     -10.659   9.316  67.594  1.00  0.00    -0.263 OA 
BRANCH  13  16
HETATM   16  C   UNL     1      -9.361   9.382  65.544  1.00  0.00    -0.251 C  
BRANCH  16  17
HETATM   17  N   UNL     1      -8.227   8.593  66.033  1.00  0.00    -0.121 NA 
HETATM   18  H   UNL     1      -8.553   7.740  66.488  1.00  0.00     0.000 HD 
BRANCH  17  19
HETATM   19  C   UNL     1      -7.233   8.280  64.999  1.00  0.00    -0.080 C  
HETATM   20  C   UNL     1      -5.982   7.599  65.560  1.00  0.00    -0.038 C  
HETATM   21  C   UNL     1      -7.901   7.356  63.977  1.00  0.00    -0.120 C  
ENDBRANCH  17  19
ENDBRANCH  16  17
ENDBRANCH  13  16
ENDBRANCH  12  13
ENDBRANCH  11  12
ENDBRANCH   8  11
ENDBRANCH   4   5
ENDBRANCH   3   4
ENDBRANCH   2   3
TORSDOF 9
ENDMDL
MODEL      266
REMARK 921   NORMALIZED FREE ENERGY PREDICTED BY IDOCK:   -2.71 KCAL/MOL
REMARK 922        TOTAL FREE ENERGY PREDICTED BY IDOCK:   -4.77 KCAL/MOL
REMARK 923 INTER-LIGAND FREE ENERGY PREDICTED BY IDOCK:   -4.37 KCAL/MOL
REMARK 924 INTRA-LIGAND FREE ENERGY PREDICTED BY IDOCK:   -0.40 KCAL/MOL
REMARK 927      BINDING AFFINITY PREDICTED BY RF-SCORE:    0.00 PKD
ROOT
HETATM    1  C   UNL     1      -9.148   6.191  67.010  1.00  0.00    -0.118 C  
HETATM    2  O   UNL     1      -8.808   7.235  67.915  1.00  0.00    -0.129 OA 
ENDROOT
BRANCH   2   3
HETATM    3  C   UNL     1      -7.687   7.981  67.436  1.00  0.00    -0.102 C  
BRANCH   3   4
HETATM    4  C   UNL     1      -7.401   9.140  68.395  1.00  0.00    -0.078 C  
BRANCH   4   5
HETATM    5  C   UNL     1      -8.122  10.401  67.990  1.00  0.00    -0.110 A  
HETATM    6  C   UNL     1      -9.516  10.396  67.908  1.00  0.00    -0.150 A  
HETATM    7  C   UNL     1     -10.210  11.539  67.521  1.00  0.00    -0.207 A  
HETATM    8  C   UNL     1      -9.533  12.721  67.220  1.00  0.00    -0.204 A  
HETATM    9  C   UNL     1      -7.437  11.588  67.698  1.00  0.00    -0.110 A  
HETATM   10  C   UNL     1      -8.141  12.741  67.313  1.00  0.00    -0.172 A  
BRANCH   8  11
HETATM   11  O   UNL     1     -10.142  13.891  66.836  1.00  0.00    -0.252 OA 
BRANCH  11  12
HETATM   12  C   UNL     1     -10.663  14.678  67.924  1.00  0.00    -0.250 C  
BRANCH  12  13
HETATM   13  C   UNL     1     -10.067  16.092  67.937  1.00  0.00    -0.244 C  
HETATM   14  H   UNL     1      -8.825  17.117  69.069  1.00  0.00     0.000 HD 
HETATM   15  O   UNL     1      -9.194  16.242  69.061  1.00  0.00    -0.240 OA 
BRANCH  13  16
HETATM   16  C   UNL     1      -9.305  16.436  66.645  1.00  0.00    -0.259 C  
BRANCH  16  17
HETATM   17  N   UNL     1      -9.739  17.716  66.076  1.00  0.00    -0.528 NA 
HETATM   18  H   UNL     1     -10.754  17.745  65.992  1.00  0.00     0.000 HD 
BRANCH  17  19
HETATM   19  C   UNL     1      -9.247  18.888  66.809  1.00  0.00    -0.319 C  
HETATM   20  C   UNL     1      -8.294  19.755  65.982  1.00  0.00    -0.314 C  
HETATM   21  C   UNL     1     -10.463  19.721  67.223  1.00  0.00    -0.579 C  
ENDBRANCH  17  19
ENDBRANCH  16  17
ENDBRANCH  13  16
ENDBRANCH  12  13
ENDBRANCH  11  12
ENDBRANCH   8  11
ENDBRANCH   4   5
ENDBRANCH   3   4
ENDBRANCH   2   3
TORSDOF 9
ENDMDL
MODEL      267
REMARK 921   NORMALIZED FREE ENERGY PREDICTED BY IDOCK:   -2.65 KCAL/MOL
REMARK 922        TOTAL FREE ENERGY PREDICTED BY IDOCK:   -4.69 KCAL/MOL
REMARK 923 INTER-LIGAND FREE ENERGY PREDICTED BY IDOCK:   -4.23 KCAL/MOL
REMARK 924 INTRA-LIGAND FREE ENERGY PREDICTED BY IDOCK:   -0.46 KCAL/MOL
REMARK 927      BINDING AFFINITY PREDICTED BY RF-SCORE:    0.00 PKD
ROOT
HETATM    1  C   UNL     1     -10.437  11.986  65.662  1.00  0.00    -0.256 C  
HETATM    2  O   UNL     1     -10.271  12.245  67.052  1.00  0.00    -0.214 OA 
ENDROOT
BRANCH   2   3
HETATM    3  C   UNL     1     -10.689  11.125  67.834  1.00  0.00    -0.216 C  
BRANCH   3   4
HETATM    4  C   UNL     1      -9.481  10.541  68.573  1.00  0.00    -0.164 C  
BRANCH   4   5
HETATM    5  C   UNL     1      -9.887   9.793  69.817  1.00  0.00    -0.262 A  
HETATM    6  C   UNL     1      -8.899   9.277  70.659  1.00  0.00    -0.287 A  
HETATM    7  C   UNL     1      -9.240   8.568  71.806  1.00  0.00    -0.316 A  
HETATM    8  C   UNL     1     -10.577   8.366  72.153  1.00  0.00    -0.329 A  
HETATM    9  C   UNL     1     -11.231   9.602  70.165  1.00  0.00    -0.302 A  
HETATM   10  C   UNL     1     -11.572   8.890  71.327  1.00  0.00    -0.371 A  
BRANCH   8  11
HETATM   11  O   UNL     1     -10.998   7.683  73.268  1.00  0.00    -0.400 OA 
BRANCH  11  12
HETATM   12  C   UNL     1     -11.404   6.325  73.019  1.00  0.00    -0.082 C  
BRANCH  12  13
HETATM   13  C   UNL     1     -10.264   5.333  73.289  1.00  0.00    -0.189 C  
HETATM   14  H   UNL     1      -9.979   3.745  74.417  1.00  0.00     0.000 HD 
HETATM   15  O   UNL     1     -10.684   4.359  74.250  1.00  0.00    -0.262 OA 
BRANCH  13  16
HETATM   16  C   UNL     1      -9.771   4.620  72.017  1.00  0.00    -0.168 C  
BRANCH  16  17
HETATM   17  N   UNL     1      -9.062   3.375  72.325  1.00  0.00    -0.098 NA 
HETATM   18  H   UNL     1      -9.652   2.753  72.877  1.00  0.00     0.000 HD 
BRANCH  17  19
HETATM   19  C   UNL     1      -8.543   2.679  71.141  1.00  0.00    -0.064 C  
HETATM   20  C   UNL     1      -9.520   1.641  70.581  1.00  0.00    -0.173 C  
HETATM   21  C   UNL     1      -8.255   3.736  70.071  1.00  0.00    -0.072 C  
ENDBRANCH  17  19
ENDBRANCH  16  17
ENDBRANCH  13  16
ENDBRANCH  12  13
ENDBRANCH  11  12
ENDBRANCH   8  11
ENDBRANCH   4   5
ENDBRANCH   3   4
ENDBRANCH   2   3
TORSDOF 9
ENDMDL
MODEL      268
REMARK 921   NORMALIZED FREE ENERGY PREDICTED BY IDOCK:   -2.65 KCAL/MOL
REMARK 922        TOTAL FREE ENERGY PREDICTED BY IDOCK:   -4.69 KCAL/MOL
REMARK 923 INTER-LIGAND FREE ENERGY PREDICTED BY IDOCK:   -4.14 KCAL/MOL
REMARK 924 INTRA-LIGAND FREE ENERGY PREDICTED BY IDOCK:   -0.55 KCAL/MOL
REMARK 927      BINDING AFFINITY PREDICTED BY RF-SCORE:    0.00 PKD
ROOT
HETATM    1  C   UNL     1      -7.751   5.535  72.359  1.00  0.00    -0.102 C  
HETATM    2  O   UNL     1      -8.993   4.991  71.923  1.00  0.00    -0.131 OA 
ENDROOT
BRANCH   2   3
HETATM    3  C   UNL     1      -8.787   3.845  71.096  1.00  0.00    -0.088 C  
BRANCH   3   4
HETATM    4  C   UNL     1      -9.768   3.882  69.921  1.00  0.00    -0.235 C  
BRANCH   4   5
HETATM    5  C   UNL     1      -9.631   5.146  69.109  1.00  0.00    -0.207 A  
HETATM    6  C   UNL     1      -8.402   5.452  68.521  1.00  0.00    -0.097 A  
HETATM    7  C   UNL     1      -8.240   6.618  67.779  1.00  0.00    -0.119 A  
HETATM    8  C   UNL     1      -9.302   7.504  67.592  1.00  0.00    -0.137 A  
HETATM    9  C   UNL     1     -10.705   6.025  68.917  1.00  0.00    -0.384 A  
HETATM   10  C   UNL     1     -10.539   7.199  68.164  1.00  0.00    -0.241 A  
BRANCH   8  11
HETATM   11  O   UNL     1      -9.226   8.671  66.872  1.00  0.00    -0.146 OA 
BRANCH  11  12
HETATM   12  C   UNL     1     -10.501   9.222  66.493  1.00  0.00    -0.134 C  
BRANCH  12  13
HETATM   13  C   UNL     1     -10.532  10.748  66.662  1.00  0.00    -0.246 C  
HETATM   14  H   UNL     1      -9.592  12.093  67.748  1.00  0.00     0.000 HD 
HETATM   15  O   UNL     1      -9.572  11.149  67.644  1.00  0.00    -0.167 OA 
BRANCH  13  16
HETATM   16  C   UNL     1     -10.269  11.504  65.347  1.00  0.00    -0.264 C  
BRANCH  16  17
HETATM   17  N   UNL     1     -10.387  12.955  65.516  1.00  0.00    -0.287 NA 
HETATM   18  H   UNL     1      -9.849  13.444  64.800  1.00  0.00     0.000 HD 
BRANCH  17  19
HETATM   19  C   UNL     1     -11.772  13.439  65.541  1.00  0.00    -0.340 C  
HETATM   20  C   UNL     1     -12.016  14.498  66.619  1.00  0.00    -0.358 C  
HETATM   21  C   UNL     1     -12.082  14.034  64.164  1.00  0.00    -0.456 C  
ENDBRANCH  17  19
ENDBRANCH  16  17
ENDBRANCH  13  16
ENDBRANCH  12  13
ENDBRANCH  11  12
ENDBRANCH   8  11
ENDBRANCH   4   5
ENDBRANCH   3   4
ENDBRANCH   2   3
TORSDOF 9
ENDMDL
MODEL      269
REMARK 921   NORMALIZED FREE ENERGY PREDICTED BY IDOCK:   -2.65 KCAL/MOL
REMARK 922        TOTAL FREE ENERGY PREDICTED BY IDOCK:   -4.68 KCAL/MOL
REMARK 923 INTER-LIGAND FREE ENERGY PREDICTED BY IDOCK:   -4.33 KCAL/MOL
REMARK 924 INTRA-LIGAND FREE ENERGY PREDICTED BY IDOCK:   -0.34 KCAL/MOL
REMARK 927      BINDING AFFINITY PREDICTED BY RF-SCORE:    0.00 PKD
ROOT
HETATM    1  C   UNL     1      -9.271   3.047  64.880  1.00  0.00    -0.148 C  
HETATM    2  O   UNL     1      -9.886   4.305  65.135  1.00  0.00    -0.182 OA 
ENDROOT
BRANCH   2   3
HETATM    3  C   UNL     1      -9.270   4.960  66.245  1.00  0.00    -0.142 C  
BRANCH   3   4
HETATM    4  C   UNL     1     -10.287   5.101  67.381  1.00  0.00    -0.209 C  
BRANCH   4   5
HETATM    5  C   UNL     1     -10.435   6.532  67.834  1.00  0.00    -0.273 A  
HETATM    6  C   UNL     1     -10.744   6.798  69.170  1.00  0.00    -0.287 A  
HETATM    7  C   UNL     1     -10.903   8.107  69.616  1.00  0.00    -0.162 A  
HETATM    8  C   UNL     1     -10.744   9.186  68.744  1.00  0.00    -0.131 A  
HETATM    9  C   UNL     1     -10.264   7.610  66.957  1.00  0.00    -0.371 A  
HETATM   10  C   UNL     1     -10.420   8.930  67.411  1.00  0.00    -0.347 A  
BRANCH   8  11
HETATM   11  O   UNL     1     -10.879  10.504  69.105  1.00  0.00    -0.205 OA 
BRANCH  11  12
HETATM   12  C   UNL     1     -11.995  11.179  68.495  1.00  0.00    -0.180 C  
BRANCH  12  13
HETATM   13  C   UNL     1     -11.784  12.698  68.449  1.00  0.00    -0.333 C  
HETATM   14  H   UNL     1     -11.767  14.186  69.738  1.00  0.00     0.000 HD 
HETATM   15  O   UNL     1     -11.898  13.246  69.766  1.00  0.00    -0.308 OA 
BRANCH  13  16
HETATM   16  C   UNL     1     -10.428  13.099  67.841  1.00  0.00    -0.240 C  
BRANCH  16  17
HETATM   17  N   UNL     1     -10.240  14.553  67.830  1.00  0.00    -0.229 NA 
HETATM   18  H   UNL     1     -11.135  15.031  67.932  1.00  0.00     0.000 HD 
BRANCH  17  19
HETATM   19  C   UNL     1      -9.280  15.035  68.830  1.00  0.00    -0.200 C  
HETATM   20  C   UNL     1      -7.841  14.599  68.536  1.00  0.00    -0.133 C  
HETATM   21  C   UNL     1      -9.355  16.564  68.847  1.00  0.00    -0.256 C  
ENDBRANCH  17  19
ENDBRANCH  16  17
ENDBRANCH  13  16
ENDBRANCH  12  13
ENDBRANCH  11  12
ENDBRANCH   8  11
ENDBRANCH   4   5
ENDBRANCH   3   4
ENDBRANCH   2   3
TORSDOF 9
ENDMDL
MODEL      270
REMARK 921   NORMALIZED FREE ENERGY PREDICTED BY IDOCK:   -2.57 KCAL/MOL
REMARK 922        TOTAL FREE ENERGY PREDICTED BY IDOCK:   -4.57 KCAL/MOL
REMARK 923 INTER-LIGAND FREE ENERGY PREDICTED BY IDOCK:   -4.12 KCAL/MOL
REMARK 924 INTRA-LIGAND FREE ENERGY PREDICTED BY IDOCK:   -0.45 KCAL/MOL
REMARK 927      BINDING AFFINITY PREDICTED BY RF-SCORE:    0.00 PKD
ROOT
HETATM    1  C   UNL     1      -6.408  18.568  68.674  1.00  0.00    -0.219 C  
HETATM    2  O   UNL     1      -7.711  18.575  68.101  1.00  0.00    -0.267 OA 
ENDROOT
BRANCH   2   3
HETATM    3  C   UNL     1      -7.814  17.611  67.052  1.00  0.00    -0.215 C  
BRANCH   3   4
HETATM    4  C   UNL     1      -9.201  16.964  67.089  1.00  0.00    -0.238 C  
BRANCH   4   5
HETATM    5  C   UNL     1      -9.136  15.505  67.465  1.00  0.00    -0.198 A  
HETATM    6  C   UNL     1      -7.909  14.841  67.419  1.00  0.00    -0.224 A  
HETATM    7  C   UNL     1      -7.818  13.490  67.745  1.00  0.00    -0.167 A  
HETATM    8  C   UNL     1      -8.947  12.770  68.138  1.00  0.00    -0.199 A  
HETATM    9  C   UNL     1     -10.272  14.791  67.869  1.00  0.00    -0.229 A  
HETATM   10  C   UNL     1     -10.176  13.429  68.201  1.00  0.00    -0.246 A  
BRANCH   8  11
HETATM   11  O   UNL     1      -8.942  11.439  68.479  1.00  0.00    -0.164 OA 
BRANCH  11  12
HETATM   12  C   UNL     1     -10.169  10.744  68.187  1.00  0.00    -0.172 C  
BRANCH  12  13
HETATM   13  C   UNL     1     -10.011   9.226  68.343  1.00  0.00    -0.176 C  
HETATM   14  H   UNL     1     -10.609   7.842  69.609  1.00  0.00     0.000 HD 
HETATM   15  O   UNL     1     -10.706   8.782  69.513  1.00  0.00    -0.228 OA 
BRANCH  13  16
HETATM   16  C   UNL     1     -10.512   8.439  67.118  1.00  0.00    -0.310 C  
BRANCH  16  17
HETATM   17  N   UNL     1     -10.251   9.152  65.865  1.00  0.00    -0.315 NA 
HETATM   18  H   UNL     1     -10.537  10.128  65.940  1.00  0.00     0.000 HD 
BRANCH  17  19
HETATM   19  C   UNL     1      -8.861   9.055  65.405  1.00  0.00    -0.197 C  
HETATM   20  C   UNL     1      -8.367   7.610  65.294  1.00  0.00    -0.121 C  
HETATM   21  C   UNL     1      -8.777   9.729  64.032  1.00  0.00    -0.235 C  
ENDBRANCH  17  19
ENDBRANCH  16  17
ENDBRANCH  13  16
ENDBRANCH  12  13
ENDBRANCH  11  12
ENDBRANCH   8  11
ENDBRANCH   4   5
ENDBRANCH   3   4
ENDBRANCH   2   3
TORSDOF 9
ENDMDL
MODEL      271
REMARK 921   NORMALIZED FREE ENERGY PREDICTED BY IDOCK:   -2.56 KCAL/MOL
REMARK 922        TOTAL FREE ENERGY PREDICTED BY IDOCK:   -4.55 KCAL/MOL
REMARK 923 INTER-LIGAND FREE ENERGY PREDICTED BY IDOCK:   -3.97 KCAL/MOL
REMARK 924 INTRA-LIGAND FREE ENERGY PREDICTED BY IDOCK:   -0.58 KCAL/MOL
REMARK 927      BINDING AFFINITY PREDICTED BY RF-SCORE:    0.00 PKD
ROOT
HETATM    1  C   UNL     1     -12.966  11.745  63.664  1.00  0.00    -0.094 C  
HETATM    2  O   UNL     1     -13.170  12.740  64.662  1.00  0.00    -0.776 OA 
ENDROOT
BRANCH   2   3
HETATM    3  C   UNL     1     -11.941  13.076  65.308  1.00  0.00    -0.407 C  
BRANCH   3   4
HETATM    4  C   UNL     1     -12.066  12.804  66.810  1.00  0.00    -0.290 C  
BRANCH   4   5
HETATM    5  C   UNL     1     -11.100  11.744  67.276  1.00  0.00    -0.342 A  
HETATM    6  C   UNL     1     -10.381  11.945  68.456  1.00  0.00    -0.228 A  
HETATM    7  C   UNL     1      -9.470  10.993  68.905  1.00  0.00    -0.166 A  
HETATM    8  C   UNL     1      -9.262   9.809  68.195  1.00  0.00    -0.128 A  
HETATM    9  C   UNL     1     -10.904  10.554  66.564  1.00  0.00    -0.128 A  
HETATM   10  C   UNL     1      -9.987   9.593  67.022  1.00  0.00    -0.263 A  
BRANCH   8  11
HETATM   11  O   UNL     1      -8.387   8.819  68.571  1.00  0.00    -0.126 OA 
BRANCH  11  12
HETATM   12  C   UNL     1      -8.588   8.320  69.906  1.00  0.00    -0.125 C  
BRANCH  12  13
HETATM   13  C   UNL     1      -9.708   7.272  69.958  1.00  0.00    -0.175 C  
HETATM   14  H   UNL     1     -10.172   5.618  68.997  1.00  0.00     0.000 HD 
HETATM   15  O   UNL     1      -9.480   6.267  68.965  1.00  0.00    -0.129 OA 
BRANCH  13  16
HETATM   16  C   UNL     1      -9.847   6.607  71.339  1.00  0.00    -0.179 C  
BRANCH  16  17
HETATM   17  N   UNL     1      -8.704   5.743  71.650  1.00  0.00    -0.135 NA 
HETATM   18  H   UNL     1      -7.992   5.814  70.923  1.00  0.00     0.000 HD 
BRANCH  17  19
HETATM   19  C   UNL     1      -8.118   5.988  72.973  1.00  0.00    -0.113 C  
HETATM   20  C   UNL     1      -7.836   4.699  73.750  1.00  0.00    -0.098 C  
HETATM   21  C   UNL     1      -6.808   6.754  72.767  1.00  0.00    -0.067 C  
ENDBRANCH  17  19
ENDBRANCH  16  17
ENDBRANCH  13  16
ENDBRANCH  12  13
ENDBRANCH  11  12
ENDBRANCH   8  11
ENDBRANCH   4   5
ENDBRANCH   3   4
ENDBRANCH   2   3
TORSDOF 9
ENDMDL
MODEL      272
REMARK 921   NORMALIZED FREE ENERGY PREDICTED BY IDOCK:   -2.55 KCAL/MOL
REMARK 922        TOTAL FREE ENERGY PREDICTED BY IDOCK:   -4.53 KCAL/MOL
REMARK 923 INTER-LIGAND FREE ENERGY PREDICTED BY IDOCK:   -3.49 KCAL/MOL
REMARK 924 INTRA-LIGAND FREE ENERGY PREDICTED BY IDOCK:   -1.05 KCAL/MOL
REMARK 927      BINDING AFFINITY PREDICTED BY RF-SCORE:    0.00 PKD
ROOT
HETATM    1  C   UNL     1     -10.534   3.923  64.478  1.00  0.00    -0.207 C  
HETATM    2  O   UNL     1     -11.025   4.604  65.627  1.00  0.00    -0.253 OA 
ENDROOT
BRANCH   2   3
HETATM    3  C   UNL     1      -9.950   5.051  66.455  1.00  0.00    -0.226 C  
BRANCH   3   4
HETATM    4  C   UNL     1      -9.749   4.061  67.606  1.00  0.00    -0.164 C  
BRANCH   4   5
HETATM    5  C   UNL     1      -8.986   4.674  68.753  1.00  0.00    -0.143 A  
HETATM    6  C   UNL     1      -9.254   4.251  70.057  1.00  0.00    -0.207 A  
HETATM    7  C   UNL     1      -8.578   4.809  71.138  1.00  0.00    -0.126 A  
HETATM    8  C   UNL     1      -7.608   5.793  70.947  1.00  0.00    -0.092 A  
HETATM    9  C   UNL     1      -8.005   5.655  68.553  1.00  0.00    -0.100 A  
HETATM   10  C   UNL     1      -7.322   6.212  69.646  1.00  0.00    -0.079 A  
BRANCH   8  11
HETATM   11  O   UNL     1      -6.894   6.390  71.958  1.00  0.00    -0.066 OA 
BRANCH  11  12
HETATM   12  C   UNL     1      -7.659   6.669  73.145  1.00  0.00    -0.088 C  
BRANCH  12  13
HETATM   13  C   UNL     1      -7.985   8.163  73.272  1.00  0.00    -0.178 C  
HETATM   14  H   UNL     1      -7.327   9.848  72.495  1.00  0.00     0.000 HD 
HETATM   15  O   UNL     1      -7.125   8.924  72.417  1.00  0.00    -0.318 OA 
BRANCH  13  16
HETATM   16  C   UNL     1      -9.453   8.489  72.945  1.00  0.00    -0.124 C  
BRANCH  16  17
HETATM   17  N   UNL     1     -10.372   7.481  73.482  1.00  0.00    -0.344 NA 
HETATM   18  H   UNL     1     -10.696   7.750  74.410  1.00  0.00     0.000 HD 
BRANCH  17  19
HETATM   19  C   UNL     1     -11.509   7.186  72.602  1.00  0.00    -0.235 C  
HETATM   20  C   UNL     1     -11.270   7.614  71.152  1.00  0.00    -0.280 C  
HETATM   21  C   UNL     1     -11.756   5.675  72.653  1.00  0.00    -0.256 C  
ENDBRANCH  17  19
ENDBRANCH  16  17
ENDBRANCH  13  16
ENDBRANCH  12  13
ENDBRANCH  11  12
ENDBRANCH   8  11
ENDBRANCH   4   5
ENDBRANCH   3   4
ENDBRANCH   2   3
TORSDOF 9
ENDMDL
MODEL      273
REMARK 921   NORMALIZED FREE ENERGY PREDICTED BY IDOCK:   -2.54 KCAL/MOL
REMARK 922        TOTAL FREE ENERGY PREDICTED BY IDOCK:   -4.52 KCAL/MOL
REMARK 923 INTER-LIGAND FREE ENERGY PREDICTED BY IDOCK:   -4.20 KCAL/MOL
REMARK 924 INTRA-LIGAND FREE ENERGY PREDICTED BY IDOCK:   -0.32 KCAL/MOL
REMARK 927      BINDING AFFINITY PREDICTED BY RF-SCORE:    0.00 PKD
ROOT
HETATM    1  C   UNL     1      -5.462  14.341  70.471  1.00  0.00    -0.129 C  
HETATM    2  O   UNL     1      -6.330  14.035  69.384  1.00  0.00    -0.103 OA 
ENDROOT
BRANCH   2   3
HETATM    3  C   UNL     1      -5.587  13.805  68.186  1.00  0.00    -0.117 C  
BRANCH   3   4
HETATM    4  C   UNL     1      -5.879  12.394  67.669  1.00  0.00    -0.127 C  
BRANCH   4   5
HETATM    5  C   UNL     1      -7.299  11.970  67.952  1.00  0.00    -0.104 A  
HETATM    6  C   UNL     1      -8.353  12.774  67.515  1.00  0.00    -0.179 A  
HETATM    7  C   UNL     1      -9.674  12.418  67.774  1.00  0.00    -0.201 A  
HETATM    8  C   UNL     1      -9.978  11.244  68.464  1.00  0.00    -0.202 A  
HETATM    9  C   UNL     1      -7.597  10.784  68.636  1.00  0.00    -0.106 A  
HETATM   10  C   UNL     1      -8.931  10.426  68.893  1.00  0.00    -0.170 A  
BRANCH   8  11
HETATM   11  O   UNL     1     -11.252  10.820  68.756  1.00  0.00    -0.233 OA 
BRANCH  11  12
HETATM   12  C   UNL     1     -12.091  11.823  69.359  1.00  0.00    -0.238 C  
BRANCH  12  13
HETATM   13  C   UNL     1     -12.744  11.314  70.652  1.00  0.00    -0.227 C  
HETATM   14  H   UNL     1     -12.211  10.211  72.193  1.00  0.00     0.000 HD 
HETATM   15  O   UNL     1     -11.807  10.526  71.393  1.00  0.00    -0.298 OA 
BRANCH  13  16
HETATM   16  C   UNL     1     -13.279  12.449  71.543  1.00  0.00    -0.190 C  
BRANCH  16  17
HETATM   17  N   UNL     1     -12.245  13.441  71.849  1.00  0.00     0.061 NA 
HETATM   18  H   UNL     1     -11.564  13.495  71.092  1.00  0.00     0.000 HD 
BRANCH  17  19
HETATM   19  C   UNL     1     -12.774  14.773  72.164  1.00  0.00    -0.326 C  
HETATM   20  C   UNL     1     -14.291  14.872  71.981  1.00  0.00    -0.651 C  
HETATM   21  C   UNL     1     -12.416  15.084  73.620  1.00  0.00    -0.660 C  
ENDBRANCH  17  19
ENDBRANCH  16  17
ENDBRANCH  13  16
ENDBRANCH  12  13
ENDBRANCH  11  12
ENDBRANCH   8  11
ENDBRANCH   4   5
ENDBRANCH   3   4
ENDBRANCH   2   3
TORSDOF 9
ENDMDL
MODEL      274
REMARK 921   NORMALIZED FREE ENERGY PREDICTED BY IDOCK:   -2.53 KCAL/MOL
REMARK 922        TOTAL FREE ENERGY PREDICTED BY IDOCK:   -4.50 KCAL/MOL
REMARK 923 INTER-LIGAND FREE ENERGY PREDICTED BY IDOCK:   -4.08 KCAL/MOL
REMARK 924 INTRA-LIGAND FREE ENERGY PREDICTED BY IDOCK:   -0.42 KCAL/MOL
REMARK 927      BINDING AFFINITY PREDICTED BY RF-SCORE:    0.00 PKD
ROOT
HETATM    1  C   UNL     1     -10.548   6.365  66.721  1.00  0.00    -0.258 C  
HETATM    2  O   UNL     1     -10.636   4.952  66.869  1.00  0.00    -0.199 OA 
ENDROOT
BRANCH   2   3
HETATM    3  C   UNL     1      -9.337   4.356  66.872  1.00  0.00    -0.153 C  
BRANCH   3   4
HETATM    4  C   UNL     1      -9.135   3.583  68.178  1.00  0.00    -0.200 C  
BRANCH   4   5
HETATM    5  C   UNL     1      -9.138   4.492  69.381  1.00  0.00    -0.167 A  
HETATM    6  C   UNL     1      -8.099   5.410  69.547  1.00  0.00    -0.096 A  
HETATM    7  C   UNL     1      -8.064   6.252  70.655  1.00  0.00    -0.113 A  
HETATM    8  C   UNL     1      -9.072   6.210  71.619  1.00  0.00    -0.145 A  
HETATM    9  C   UNL     1     -10.159   4.452  70.340  1.00  0.00    -0.175 A  
HETATM   10  C   UNL     1     -10.123   5.306  71.454  1.00  0.00    -0.266 A  
BRANCH   8  11
HETATM   11  O   UNL     1      -9.115   7.008  72.737  1.00  0.00    -0.133 OA 
BRANCH  11  12
HETATM   12  C   UNL     1      -9.111   8.421  72.462  1.00  0.00    -0.256 C  
BRANCH  12  13
HETATM   13  C   UNL     1     -10.154   8.795  71.399  1.00  0.00    -0.284 C  
HETATM   14  H   UNL     1     -11.935   9.630  71.365  1.00  0.00     0.000 HD 
HETATM   15  O   UNL     1     -11.291   9.399  72.023  1.00  0.00    -0.313 OA 
BRANCH  13  16
HETATM   16  C   UNL     1      -9.599   9.739  70.317  1.00  0.00    -0.208 C  
BRANCH  16  17
HETATM   17  N   UNL     1     -10.652  10.555  69.707  1.00  0.00    -0.343 NA 
HETATM   18  H   UNL     1     -11.007  11.240  70.374  1.00  0.00     0.000 HD 
BRANCH  17  19
HETATM   19  C   UNL     1     -10.247  11.211  68.459  1.00  0.00    -0.198 C  
HETATM   20  C   UNL     1     -10.991  10.676  67.232  1.00  0.00    -0.348 C  
HETATM   21  C   UNL     1     -10.526  12.709  68.609  1.00  0.00    -0.224 C  
ENDBRANCH  17  19
ENDBRANCH  16  17
ENDBRANCH  13  16
ENDBRANCH  12  13
ENDBRANCH  11  12
ENDBRANCH   8  11
ENDBRANCH   4   5
ENDBRANCH   3   4
ENDBRANCH   2   3
TORSDOF 9
ENDMDL
MODEL      275
REMARK 921   NORMALIZED FREE ENERGY PREDICTED BY IDOCK:   -2.53 KCAL/MOL
REMARK 922        TOTAL FREE ENERGY PREDICTED BY IDOCK:   -4.50 KCAL/MOL
REMARK 923 INTER-LIGAND FREE ENERGY PREDICTED BY IDOCK:   -4.10 KCAL/MOL
REMARK 924 INTRA-LIGAND FREE ENERGY PREDICTED BY IDOCK:   -0.40 KCAL/MOL
REMARK 927      BINDING AFFINITY PREDICTED BY RF-SCORE:    0.00 PKD
ROOT
HETATM    1  C   UNL     1     -11.679  12.221  63.792  1.00  0.00    -0.478 C  
HETATM    2  O   UNL     1     -11.625  12.884  65.051  1.00  0.00    -0.310 OA 
ENDROOT
BRANCH   2   3
HETATM    3  C   UNL     1     -10.390  12.618  65.717  1.00  0.00    -0.279 C  
BRANCH   3   4
HETATM    4  C   UNL     1     -10.596  12.718  67.231  1.00  0.00    -0.245 C  
BRANCH   4   5
HETATM    5  C   UNL     1      -9.907  11.600  67.971  1.00  0.00    -0.193 A  
HETATM    6  C   UNL     1      -8.640  11.818  68.517  1.00  0.00    -0.123 A  
HETATM    7  C   UNL     1      -7.972  10.802  69.192  1.00  0.00    -0.135 A  
HETATM    8  C   UNL     1      -8.554   9.544  69.353  1.00  0.00    -0.159 A  
HETATM    9  C   UNL     1     -10.502  10.343  68.139  1.00  0.00    -0.221 A  
HETATM   10  C   UNL     1      -9.827   9.320  68.825  1.00  0.00    -0.174 A  
BRANCH   8  11
HETATM   11  O   UNL     1      -7.964   8.491  70.009  1.00  0.00    -0.101 OA 
BRANCH  11  12
HETATM   12  C   UNL     1      -8.829   7.802  70.931  1.00  0.00    -0.142 C  
BRANCH  12  13
HETATM   13  C   UNL     1      -8.115   7.487  72.252  1.00  0.00    -0.103 C  
HETATM   14  H   UNL     1      -7.356   8.508  73.754  1.00  0.00     0.000 HD 
HETATM   15  O   UNL     1      -7.798   8.703  72.936  1.00  0.00    -0.367 OA 
BRANCH  13  16
HETATM   16  C   UNL     1      -8.939   6.576  73.180  1.00  0.00    -0.128 C  
BRANCH  16  17
HETATM   17  N   UNL     1      -8.787   5.159  72.834  1.00  0.00    -0.118 NA 
HETATM   18  H   UNL     1      -8.379   4.642  73.612  1.00  0.00     0.000 HD 
BRANCH  17  19
HETATM   19  C   UNL     1     -10.030   4.521  72.386  1.00  0.00    -0.171 C  
HETATM   20  C   UNL     1      -9.902   3.003  72.232  1.00  0.00    -0.234 C  
HETATM   21  C   UNL     1     -11.115   4.838  73.419  1.00  0.00    -0.422 C  
ENDBRANCH  17  19
ENDBRANCH  16  17
ENDBRANCH  13  16
ENDBRANCH  12  13
ENDBRANCH  11  12
ENDBRANCH   8  11
ENDBRANCH   4   5
ENDBRANCH   3   4
ENDBRANCH   2   3
TORSDOF 9
ENDMDL
MODEL      276
REMARK 921   NORMALIZED FREE ENERGY PREDICTED BY IDOCK:   -2.51 KCAL/MOL
REMARK 922        TOTAL FREE ENERGY PREDICTED BY IDOCK:   -4.47 KCAL/MOL
REMARK 923 INTER-LIGAND FREE ENERGY PREDICTED BY IDOCK:   -4.03 KCAL/MOL
REMARK 924 INTRA-LIGAND FREE ENERGY PREDICTED BY IDOCK:   -0.44 KCAL/MOL
REMARK 927      BINDING AFFINITY PREDICTED BY RF-SCORE:    0.00 PKD
ROOT
HETATM    1  C   UNL     1      -9.262   2.142  68.659  1.00  0.00    -0.169 C  
HETATM    2  O   UNL     1      -9.469   2.916  69.836  1.00  0.00    -0.150 OA 
ENDROOT
BRANCH   2   3
HETATM    3  C   UNL     1      -9.446   4.313  69.539  1.00  0.00    -0.187 C  
BRANCH   3   4
HETATM    4  C   UNL     1      -9.318   4.510  68.026  1.00  0.00    -0.182 C  
BRANCH   4   5
HETATM    5  C   UNL     1      -9.325   5.968  67.642  1.00  0.00    -0.112 A  
HETATM    6  C   UNL     1      -9.199   6.939  68.638  1.00  0.00    -0.130 A  
HETATM    7  C   UNL     1      -9.218   8.293  68.318  1.00  0.00    -0.135 A  
HETATM    8  C   UNL     1      -9.349   8.715  66.994  1.00  0.00    -0.159 A  
HETATM    9  C   UNL     1      -9.447   6.385  66.310  1.00  0.00    -0.133 A  
HETATM   10  C   UNL     1      -9.461   7.753  65.990  1.00  0.00    -0.058 A  
BRANCH   8  11
HETATM   11  O   UNL     1      -9.372  10.029  66.595  1.00  0.00    -0.158 OA 
BRANCH  11  12
HETATM   12  C   UNL     1     -10.368  10.334  65.601  1.00  0.00    -0.162 C  
BRANCH  12  13
HETATM   13  C   UNL     1      -9.911  11.461  64.665  1.00  0.00    -0.259 C  
HETATM   14  H   UNL     1     -10.476  12.209  62.935  1.00  0.00     0.000 HD 
HETATM   15  O   UNL     1     -10.759  11.512  63.514  1.00  0.00    -0.381 OA 
BRANCH  13  16
HETATM   16  C   UNL     1      -9.889  12.840  65.349  1.00  0.00    -0.128 C  
BRANCH  16  17
HETATM   17  N   UNL     1     -10.310  13.910  64.440  1.00  0.00    -0.673 NA 
HETATM   18  H   UNL     1     -10.784  13.522  63.625  1.00  0.00     0.000 HD 
BRANCH  17  19
HETATM   19  C   UNL     1     -11.139  14.939  65.079  1.00  0.00    -0.414 C  
HETATM   20  C   UNL     1     -12.223  15.495  64.151  1.00  0.00    -0.019 C  
HETATM   21  C   UNL     1     -11.798  14.307  66.309  1.00  0.00    -0.420 C  
ENDBRANCH  17  19
ENDBRANCH  16  17
ENDBRANCH  13  16
ENDBRANCH  12  13
ENDBRANCH  11  12
ENDBRANCH   8  11
ENDBRANCH   4   5
ENDBRANCH   3   4
ENDBRANCH   2   3
TORSDOF 9
ENDMDL
MODEL      277
REMARK 921   NORMALIZED FREE ENERGY PREDICTED BY IDOCK:   -2.49 KCAL/MOL
REMARK 922        TOTAL FREE ENERGY PREDICTED BY IDOCK:   -4.44 KCAL/MOL
REMARK 923 INTER-LIGAND FREE ENERGY PREDICTED BY IDOCK:   -3.97 KCAL/MOL
REMARK 924 INTRA-LIGAND FREE ENERGY PREDICTED BY IDOCK:   -0.47 KCAL/MOL
REMARK 927      BINDING AFFINITY PREDICTED BY RF-SCORE:    0.00 PKD
ROOT
HETATM    1  C   UNL     1     -12.099  15.766  70.856  1.00  0.00    -0.416 C  
HETATM    2  O   UNL     1     -12.377  15.413  69.504  1.00  0.00    -0.277 OA 
ENDROOT
BRANCH   2   3
HETATM    3  C   UNL     1     -11.187  15.435  68.715  1.00  0.00    -0.301 C  
BRANCH   3   4
HETATM    4  C   UNL     1     -11.444  14.720  67.386  1.00  0.00    -0.376 C  
BRANCH   4   5
HETATM    5  C   UNL     1     -10.722  13.399  67.305  1.00  0.00    -0.265 A  
HETATM    6  C   UNL     1     -11.444  12.213  67.453  1.00  0.00    -0.415 A  
HETATM    7  C   UNL     1     -10.804  10.978  67.399  1.00  0.00    -0.327 A  
HETATM    8  C   UNL     1      -9.428  10.893  67.183  1.00  0.00    -0.160 A  
HETATM    9  C   UNL     1      -9.342  13.320  67.076  1.00  0.00    -0.242 A  
HETATM   10  C   UNL     1      -8.699  12.072  67.018  1.00  0.00    -0.188 A  
BRANCH   8  11
HETATM   11  O   UNL     1      -8.722   9.717  67.111  1.00  0.00    -0.131 OA 
BRANCH  11  12
HETATM   12  C   UNL     1      -8.062   9.492  65.852  1.00  0.00    -0.115 C  
BRANCH  12  13
HETATM   13  C   UNL     1      -8.753   8.389  65.038  1.00  0.00    -0.056 C  
HETATM   14  H   UNL     1      -8.627   7.656  63.216  1.00  0.00     0.000 HD 
HETATM   15  O   UNL     1      -8.199   8.338  63.719  1.00  0.00    -0.152 OA 
BRANCH  13  16
HETATM   16  C   UNL     1      -8.648   7.001  65.694  1.00  0.00    -0.111 C  
BRANCH  16  17
HETATM   17  N   UNL     1      -8.190   7.084  67.084  1.00  0.00    -0.117 NA 
HETATM   18  H   UNL     1      -8.855   7.613  67.649  1.00  0.00     0.000 HD 
BRANCH  17  19
HETATM   19  C   UNL     1      -7.914   5.780  67.697  1.00  0.00    -0.102 C  
HETATM   20  C   UNL     1      -7.790   5.850  69.221  1.00  0.00    -0.095 C  
HETATM   21  C   UNL     1      -9.061   4.838  67.323  1.00  0.00    -0.127 C  
ENDBRANCH  17  19
ENDBRANCH  16  17
ENDBRANCH  13  16
ENDBRANCH  12  13
ENDBRANCH  11  12
ENDBRANCH   8  11
ENDBRANCH   4   5
ENDBRANCH   3   4
ENDBRANCH   2   3
TORSDOF 9
ENDMDL
MODEL      278
REMARK 921   NORMALIZED FREE ENERGY PREDICTED BY IDOCK:   -2.48 KCAL/MOL
REMARK 922        TOTAL FREE ENERGY PREDICTED BY IDOCK:   -4.43 KCAL/MOL
REMARK 923 INTER-LIGAND FREE ENERGY PREDICTED BY IDOCK:   -3.97 KCAL/MOL
REMARK 924 INTRA-LIGAND FREE ENERGY PREDICTED BY IDOCK:   -0.46 KCAL/MOL
REMARK 927      BINDING AFFINITY PREDICTED BY RF-SCORE:    0.00 PKD
ROOT
HETATM    1  C   UNL     1      -9.362   1.480  67.938  1.00  0.00    -0.150 C  
HETATM    2  O   UNL     1      -8.007   1.651  68.341  1.00  0.00    -0.052 OA 
ENDROOT
BRANCH   2   3
HETATM    3  C   UNL     1      -7.792   2.961  68.869  1.00  0.00    -0.046 C  
BRANCH   3   4
HETATM    4  C   UNL     1      -7.336   3.894  67.744  1.00  0.00    -0.067 C  
BRANCH   4   5
HETATM    5  C   UNL     1      -8.248   5.086  67.592  1.00  0.00    -0.105 A  
HETATM    6  C   UNL     1      -7.767   6.241  66.972  1.00  0.00    -0.100 A  
HETATM    7  C   UNL     1      -8.578   7.363  66.831  1.00  0.00    -0.120 A  
HETATM    8  C   UNL     1      -9.895   7.358  67.293  1.00  0.00    -0.175 A  
HETATM    9  C   UNL     1      -9.572   5.071  68.049  1.00  0.00    -0.181 A  
HETATM   10  C   UNL     1     -10.390   6.204  67.902  1.00  0.00    -0.250 A  
BRANCH   8  11
HETATM   11  O   UNL     1     -10.761   8.420  67.190  1.00  0.00    -0.291 OA 
BRANCH  11  12
HETATM   12  C   UNL     1     -10.422   9.550  68.015  1.00  0.00    -0.230 C  
BRANCH  12  13
HETATM   13  C   UNL     1     -10.368  10.851  67.203  1.00  0.00    -0.220 C  
HETATM   14  H   UNL     1     -10.280  11.356  65.303  1.00  0.00     0.000 HD 
HETATM   15  O   UNL     1     -10.313  10.550  65.805  1.00  0.00    -0.249 OA 
BRANCH  13  16
HETATM   16  C   UNL     1     -11.560  11.784  67.482  1.00  0.00    -0.291 C  
BRANCH  16  17
HETATM   17  N   UNL     1     -11.155  13.191  67.537  1.00  0.00    -0.262 NA 
HETATM   18  H   UNL     1     -10.236  13.283  67.969  1.00  0.00     0.000 HD 
BRANCH  17  19
HETATM   19  C   UNL     1     -11.183  13.868  66.235  1.00  0.00    -0.309 C  
HETATM   20  C   UNL     1     -12.571  13.864  65.589  1.00  0.00    -0.553 C  
HETATM   21  C   UNL     1     -10.727  15.313  66.452  1.00  0.00    -0.318 C  
ENDBRANCH  17  19
ENDBRANCH  16  17
ENDBRANCH  13  16
ENDBRANCH  12  13
ENDBRANCH  11  12
ENDBRANCH   8  11
ENDBRANCH   4   5
ENDBRANCH   3   4
ENDBRANCH   2   3
TORSDOF 9
ENDMDL
MODEL      279
REMARK 921   NORMALIZED FREE ENERGY PREDICTED BY IDOCK:   -2.48 KCAL/MOL
REMARK 922        TOTAL FREE ENERGY PREDICTED BY IDOCK:   -4.42 KCAL/MOL
REMARK 923 INTER-LIGAND FREE ENERGY PREDICTED BY IDOCK:   -4.24 KCAL/MOL
REMARK 924 INTRA-LIGAND FREE ENERGY PREDICTED BY IDOCK:   -0.18 KCAL/MOL
REMARK 927      BINDING AFFINITY PREDICTED BY RF-SCORE:    0.00 PKD
ROOT
HETATM    1  C   UNL     1     -11.768  12.223  63.575  1.00  0.00    -0.499 C  
HETATM    2  O   UNL     1     -10.374  12.063  63.818  1.00  0.00    -0.352 OA 
ENDROOT
BRANCH   2   3
HETATM    3  C   UNL     1      -9.921  10.783  63.373  1.00  0.00    -0.328 C  
BRANCH   3   4
HETATM    4  C   UNL     1      -8.878  10.243  64.354  1.00  0.00    -0.229 C  
BRANCH   4   5
HETATM    5  C   UNL     1      -9.503   9.771  65.643  1.00  0.00    -0.307 A  
HETATM    6  C   UNL     1      -9.258   8.470  66.086  1.00  0.00    -0.269 A  
HETATM    7  C   UNL     1      -9.834   7.999  67.263  1.00  0.00    -0.258 A  
HETATM    8  C   UNL     1     -10.658   8.818  68.036  1.00  0.00    -0.159 A  
HETATM    9  C   UNL     1     -10.321  10.602  66.419  1.00  0.00    -0.291 A  
HETATM   10  C   UNL     1     -10.897  10.126  67.609  1.00  0.00    -0.346 A  
BRANCH   8  11
HETATM   11  O   UNL     1     -11.259   8.433  69.209  1.00  0.00     0.067 OA 
BRANCH  11  12
HETATM   12  C   UNL     1     -10.350   7.943  70.213  1.00  0.00    -0.212 C  
BRANCH  12  13
HETATM   13  C   UNL     1     -10.951   6.769  70.998  1.00  0.00    -0.255 C  
HETATM   14  H   UNL     1     -11.744   5.017  70.579  1.00  0.00     0.000 HD 
HETATM   15  O   UNL     1     -11.372   5.743  70.093  1.00  0.00    -0.274 OA 
BRANCH  13  16
HETATM   16  C   UNL     1      -9.977   6.175  72.031  1.00  0.00    -0.172 C  
BRANCH  16  17
HETATM   17  N   UNL     1      -8.585   6.530  71.742  1.00  0.00    -0.124 NA 
HETATM   18  H   UNL     1      -8.134   6.920  72.569  1.00  0.00     0.000 HD 
BRANCH  17  19
HETATM   19  C   UNL     1      -7.792   5.424  71.194  1.00  0.00    -0.104 C  
HETATM   20  C   UNL     1      -6.303   5.759  71.069  1.00  0.00    -0.039 C  
HETATM   21  C   UNL     1      -7.967   4.221  72.125  1.00  0.00    -0.090 C  
ENDBRANCH  17  19
ENDBRANCH  16  17
ENDBRANCH  13  16
ENDBRANCH  12  13
ENDBRANCH  11  12
ENDBRANCH   8  11
ENDBRANCH   4   5
ENDBRANCH   3   4
ENDBRANCH   2   3
TORSDOF 9
ENDMDL
MODEL      280
REMARK 921   NORMALIZED FREE ENERGY PREDICTED BY IDOCK:   -2.47 KCAL/MOL
REMARK 922        TOTAL FREE ENERGY PREDICTED BY IDOCK:   -4.41 KCAL/MOL
REMARK 923 INTER-LIGAND FREE ENERGY PREDICTED BY IDOCK:   -4.58 KCAL/MOL
REMARK 924 INTRA-LIGAND FREE ENERGY PREDICTED BY IDOCK:    0.17 KCAL/MOL
REMARK 927      BINDING AFFINITY PREDICTED BY RF-SCORE:    0.00 PKD
ROOT
HETATM    1  C   UNL     1     -12.060  13.065  63.210  1.00  0.00    -0.422 C  
HETATM    2  O   UNL     1     -11.418  12.601  64.393  1.00  0.00    -0.315 OA 
ENDROOT
BRANCH   2   3
HETATM    3  C   UNL     1     -12.275  12.743  65.528  1.00  0.00    -0.463 C  
BRANCH   3   4
HETATM    4  C   UNL     1     -11.474  13.314  66.702  1.00  0.00    -0.384 C  
BRANCH   4   5
HETATM    5  C   UNL     1     -11.078  12.245  67.689  1.00  0.00    -0.318 A  
HETATM    6  C   UNL     1     -11.899  11.992  68.790  1.00  0.00    -0.358 A  
HETATM    7  C   UNL     1     -11.553  11.024  69.728  1.00  0.00    -0.401 A  
HETATM    8  C   UNL     1     -10.386  10.272  69.586  1.00  0.00    -0.248 A  
HETATM    9  C   UNL     1      -9.910  11.487  67.535  1.00  0.00    -0.203 A  
HETATM   10  C   UNL     1      -9.566  10.507  68.481  1.00  0.00    -0.164 A  
BRANCH   8  11
HETATM   11  O   UNL     1      -9.976   9.297  70.462  1.00  0.00    -0.211 OA 
BRANCH  11  12
HETATM   12  C   UNL     1     -10.839   8.146  70.520  1.00  0.00    -0.240 C  
BRANCH  12  13
HETATM   13  C   UNL     1     -10.362   7.031  69.580  1.00  0.00    -0.213 C  
HETATM   14  H   UNL     1     -10.260   6.736  67.637  1.00  0.00     0.000 HD 
HETATM   15  O   UNL     1     -10.556   7.426  68.218  1.00  0.00    -0.202 OA 
BRANCH  13  16
HETATM   16  C   UNL     1      -8.887   6.648  69.799  1.00  0.00    -0.144 C  
BRANCH  16  17
HETATM   17  N   UNL     1      -8.044   7.824  70.031  1.00  0.00    -0.116 NA 
HETATM   18  H   UNL     1      -7.628   7.790  70.962  1.00  0.00     0.000 HD 
BRANCH  17  19
HETATM   19  C   UNL     1      -7.008   8.023  69.010  1.00  0.00    -0.058 C  
HETATM   20  C   UNL     1      -5.637   7.494  69.439  1.00  0.00    -0.023 C  
HETATM   21  C   UNL     1      -7.461   7.294  67.742  1.00  0.00    -0.102 C  
ENDBRANCH  17  19
ENDBRANCH  16  17
ENDBRANCH  13  16
ENDBRANCH  12  13
ENDBRANCH  11  12
ENDBRANCH   8  11
ENDBRANCH   4   5
ENDBRANCH   3   4
ENDBRANCH   2   3
TORSDOF 9
ENDMDL
MODEL      281
REMARK 921   NORMALIZED FREE ENERGY PREDICTED BY IDOCK:   -2.47 KCAL/MOL
REMARK 922        TOTAL FREE ENERGY PREDICTED BY IDOCK:   -4.40 KCAL/MOL
REMARK 923 INTER-LIGAND FREE ENERGY PREDICTED BY IDOCK:   -3.85 KCAL/MOL
REMARK 924 INTRA-LIGAND FREE ENERGY PREDICTED BY IDOCK:   -0.55 KCAL/MOL
REMARK 927      BINDING AFFINITY PREDICTED BY RF-SCORE:    0.00 PKD
ROOT
HETATM    1  C   UNL     1      -5.553  13.882  70.524  1.00  0.00    -0.147 C  
HETATM    2  O   UNL     1      -6.478  12.957  69.961  1.00  0.00    -0.046 OA 
ENDROOT
BRANCH   2   3
HETATM    3  C   UNL     1      -6.079  12.572  68.645  1.00  0.00    -0.066 C  
BRANCH   3   4
HETATM    4  C   UNL     1      -6.342  11.076  68.451  1.00  0.00    -0.052 C  
BRANCH   4   5
HETATM    5  C   UNL     1      -7.714  10.675  68.932  1.00  0.00    -0.121 A  
HETATM    6  C   UNL     1      -8.842  11.197  68.295  1.00  0.00    -0.155 A  
HETATM    7  C   UNL     1     -10.122  10.859  68.726  1.00  0.00    -0.205 A  
HETATM    8  C   UNL     1     -10.311   9.981  69.794  1.00  0.00    -0.255 A  
HETATM    9  C   UNL     1      -7.897   9.785  69.998  1.00  0.00    -0.188 A  
HETATM   10  C   UNL     1      -9.190   9.443  70.428  1.00  0.00    -0.305 A  
BRANCH   8  11
HETATM   11  O   UNL     1     -11.537   9.594  70.277  1.00  0.00    -0.252 OA 
BRANCH  11  12
HETATM   12  C   UNL     1     -11.552   9.270  71.679  1.00  0.00    -0.393 C  
BRANCH  12  13
HETATM   13  C   UNL     1     -12.039   7.836  71.926  1.00  0.00    -0.304 C  
HETATM   14  H   UNL     1     -12.445   6.249  70.835  1.00  0.00     0.000 HD 
HETATM   15  O   UNL     1     -12.144   7.137  70.682  1.00  0.00    -0.308 OA 
BRANCH  13  16
HETATM   16  C   UNL     1     -11.127   7.047  72.884  1.00  0.00    -0.278 C  
BRANCH  16  17
HETATM   17  N   UNL     1     -11.184   5.604  72.632  1.00  0.00    -0.285 NA 
HETATM   18  H   UNL     1     -11.448   5.419  71.665  1.00  0.00     0.000 HD 
BRANCH  17  19
HETATM   19  C   UNL     1      -9.948   4.893  72.976  1.00  0.00    -0.151 C  
HETATM   20  C   UNL     1      -8.696   5.548  72.386  1.00  0.00    -0.128 C  
HETATM   21  C   UNL     1      -9.836   4.866  74.503  1.00  0.00    -0.213 C  
ENDBRANCH  17  19
ENDBRANCH  16  17
ENDBRANCH  13  16
ENDBRANCH  12  13
ENDBRANCH  11  12
ENDBRANCH   8  11
ENDBRANCH   4   5
ENDBRANCH   3   4
ENDBRANCH   2   3
TORSDOF 9
ENDMDL
MODEL      282
REMARK 921   NORMALIZED FREE ENERGY PREDICTED BY IDOCK:   -2.43 KCAL/MOL
REMARK 922        TOTAL FREE ENERGY PREDICTED BY IDOCK:   -4.35 KCAL/MOL
REMARK 923 INTER-LIGAND FREE ENERGY PREDICTED BY IDOCK:   -3.84 KCAL/MOL
REMARK 924 INTRA-LIGAND FREE ENERGY PREDICTED BY IDOCK:   -0.50 KCAL/MOL
REMARK 927      BINDING AFFINITY PREDICTED BY RF-SCORE:    0.00 PKD
ROOT
HETATM    1  C   UNL     1     -11.699  11.800  69.081  1.00  0.00    -0.325 C  
HETATM    2  O   UNL     1     -12.038  11.449  67.744  1.00  0.00    -0.637 OA 
ENDROOT
BRANCH   2   3
HETATM    3  C   UNL     1     -11.615  12.459  66.827  1.00  0.00    -0.379 C  
BRANCH   3   4
HETATM    4  C   UNL     1     -10.092  12.605  66.898  1.00  0.00    -0.234 C  
BRANCH   4   5
HETATM    5  C   UNL     1      -9.386  11.611  66.010  1.00  0.00    -0.241 A  
HETATM    6  C   UNL     1      -8.093  11.198  66.339  1.00  0.00    -0.159 A  
HETATM    7  C   UNL     1      -7.408  10.294  65.531  1.00  0.00    -0.149 A  
HETATM    8  C   UNL     1      -8.000   9.768  64.382  1.00  0.00    -0.145 A  
HETATM    9  C   UNL     1      -9.990  11.078  64.864  1.00  0.00    -0.343 A  
HETATM   10  C   UNL     1      -9.298  10.163  64.053  1.00  0.00    -0.339 A  
BRANCH   8  11
HETATM   11  O   UNL     1      -7.396   8.870  63.536  1.00  0.00    -0.096 OA 
BRANCH  11  12
HETATM   12  C   UNL     1      -8.129   7.646  63.343  1.00  0.00    -0.044 C  
BRANCH  12  13
HETATM   13  C   UNL     1      -7.377   6.438  63.917  1.00  0.00    -0.070 C  
HETATM   14  H   UNL     1      -5.800   6.135  65.055  1.00  0.00     0.000 HD 
HETATM   15  O   UNL     1      -6.265   6.883  64.700  1.00  0.00    -0.035 OA 
BRANCH  13  16
HETATM   16  C   UNL     1      -8.272   5.522  64.771  1.00  0.00    -0.133 C  
BRANCH  16  17
HETATM   17  N   UNL     1      -8.140   4.113  64.388  1.00  0.00    -0.089 NA 
HETATM   18  H   UNL     1      -8.204   3.510  65.208  1.00  0.00     0.000 HD 
BRANCH  17  19
HETATM   19  C   UNL     1      -9.093   3.686  63.357  1.00  0.00    -0.100 C  
HETATM   20  C   UNL     1      -8.682   2.383  62.665  1.00  0.00    -0.074 C  
HETATM   21  C   UNL     1     -10.454   3.497  64.032  1.00  0.00    -0.250 C  
ENDBRANCH  17  19
ENDBRANCH  16  17
ENDBRANCH  13  16
ENDBRANCH  12  13
ENDBRANCH  11  12
ENDBRANCH   8  11
ENDBRANCH   4   5
ENDBRANCH   3   4
ENDBRANCH   2   3
TORSDOF 9
ENDMDL
MODEL      283
REMARK 921   NORMALIZED FREE ENERGY PREDICTED BY IDOCK:   -2.40 KCAL/MOL
REMARK 922        TOTAL FREE ENERGY PREDICTED BY IDOCK:   -4.30 KCAL/MOL
REMARK 923 INTER-LIGAND FREE ENERGY PREDICTED BY IDOCK:   -3.82 KCAL/MOL
REMARK 924 INTRA-LIGAND FREE ENERGY PREDICTED BY IDOCK:   -0.49 KCAL/MOL
REMARK 927      BINDING AFFINITY PREDICTED BY RF-SCORE:    0.00 PKD
ROOT
HETATM    1  C   UNL     1     -11.729   1.670  73.536  1.00  0.00    -0.202 C  
HETATM    2  O   UNL     1     -10.533   2.253  74.043  1.00  0.00    -0.118 OA 
ENDROOT
BRANCH   2   3
HETATM    3  C   UNL     1      -9.913   3.083  73.060  1.00  0.00    -0.125 C  
BRANCH   3   4
HETATM    4  C   UNL     1     -10.722   4.373  72.900  1.00  0.00    -0.263 C  
BRANCH   4   5
HETATM    5  C   UNL     1     -10.093   5.316  71.904  1.00  0.00    -0.252 A  
HETATM    6  C   UNL     1      -8.886   5.942  72.222  1.00  0.00    -0.138 A  
HETATM    7  C   UNL     1      -8.289   6.829  71.331  1.00  0.00    -0.119 A  
HETATM    8  C   UNL     1      -8.873   7.105  70.094  1.00  0.00    -0.145 A  
HETATM    9  C   UNL     1     -10.680   5.581  70.660  1.00  0.00    -0.303 A  
HETATM   10  C   UNL     1     -10.073   6.473  69.761  1.00  0.00    -0.207 A  
BRANCH   8  11
HETATM   11  O   UNL     1      -8.347   7.963  69.159  1.00  0.00    -0.129 OA 
BRANCH  11  12
HETATM   12  C   UNL     1      -7.327   8.844  69.664  1.00  0.00    -0.056 C  
BRANCH  12  13
HETATM   13  C   UNL     1      -7.841  10.282  69.814  1.00  0.00    -0.139 C  
HETATM   14  H   UNL     1      -7.107  12.019  70.378  1.00  0.00     0.000 HD 
HETATM   15  O   UNL     1      -6.789  11.129  70.285  1.00  0.00    -0.187 OA 
BRANCH  13  16
HETATM   16  C   UNL     1      -8.417  10.855  68.507  1.00  0.00    -0.147 C  
BRANCH  16  17
HETATM   17  N   UNL     1      -9.297  12.002  68.751  1.00  0.00    -0.398 NA 
HETATM   18  H   UNL     1      -8.936  12.836  68.288  1.00  0.00     0.000 HD 
BRANCH  17  19
HETATM   19  C   UNL     1     -10.696  11.767  68.375  1.00  0.00    -0.219 C  
HETATM   20  C   UNL     1     -11.062  10.281  68.330  1.00  0.00    -0.302 C  
HETATM   21  C   UNL     1     -11.579  12.477  69.404  1.00  0.00    -0.368 C  
ENDBRANCH  17  19
ENDBRANCH  16  17
ENDBRANCH  13  16
ENDBRANCH  12  13
ENDBRANCH  11  12
ENDBRANCH   8  11
ENDBRANCH   4   5
ENDBRANCH   3   4
ENDBRANCH   2   3
TORSDOF 9
ENDMDL
MODEL      284
REMARK 921   NORMALIZED FREE ENERGY PREDICTED BY IDOCK:   -2.36 KCAL/MOL
REMARK 922        TOTAL FREE ENERGY PREDICTED BY IDOCK:   -4.24 KCAL/MOL
REMARK 923 INTER-LIGAND FREE ENERGY PREDICTED BY IDOCK:   -3.36 KCAL/MOL
REMARK 924 INTRA-LIGAND FREE ENERGY PREDICTED BY IDOCK:   -0.88 KCAL/MOL
REMARK 927      BINDING AFFINITY PREDICTED BY RF-SCORE:    0.00 PKD
ROOT
HETATM    1  C   UNL     1     -11.441  11.718  64.526  1.00  0.00    -0.250 C  
HETATM    2  O   UNL     1     -10.021  11.726  64.631  1.00  0.00    -0.249 OA 
ENDROOT
BRANCH   2   3
HETATM    3  C   UNL     1      -9.579  10.829  65.651  1.00  0.00    -0.216 C  
BRANCH   3   4
HETATM    4  C   UNL     1      -8.829   9.658  65.010  1.00  0.00    -0.221 C  
BRANCH   4   5
HETATM    5  C   UNL     1      -8.585   8.538  65.989  1.00  0.00    -0.162 A  
HETATM    6  C   UNL     1      -9.271   7.331  65.833  1.00  0.00    -0.004 A  
HETATM    7  C   UNL     1      -9.080   6.283  66.729  1.00  0.00    -0.141 A  
HETATM    8  C   UNL     1      -8.189   6.406  67.796  1.00  0.00    -0.118 A  
HETATM    9  C   UNL     1      -7.682   8.664  67.052  1.00  0.00    -0.095 A  
HETATM   10  C   UNL     1      -7.488   7.603  67.952  1.00  0.00    -0.108 A  
BRANCH   8  11
HETATM   11  O   UNL     1      -7.940   5.420  68.720  1.00  0.00    -0.086 OA 
BRANCH  11  12
HETATM   12  C   UNL     1      -8.262   5.779  70.077  1.00  0.00    -0.115 C  
BRANCH  12  13
HETATM   13  C   UNL     1      -9.775   5.941  70.277  1.00  0.00    -0.169 C  
HETATM   14  H   UNL     1     -11.252   4.862  71.005  1.00  0.00     0.000 HD 
HETATM   15  O   UNL     1     -10.316   4.762  70.881  1.00  0.00    -0.202 OA 
BRANCH  13  16
HETATM   16  C   UNL     1     -10.141   7.169  71.130  1.00  0.00    -0.187 C  
BRANCH  16  17
HETATM   17  N   UNL     1     -10.960   8.130  70.386  1.00  0.00    -0.248 NA 
HETATM   18  H   UNL     1     -11.923   8.116  70.721  1.00  0.00     0.000 HD 
BRANCH  17  19
HETATM   19  C   UNL     1     -10.428   9.498  70.399  1.00  0.00    -0.278 C  
HETATM   20  C   UNL     1      -8.900   9.545  70.483  1.00  0.00    -0.253 C  
HETATM   21  C   UNL     1     -10.889  10.188  69.112  1.00  0.00    -0.260 C  
ENDBRANCH  17  19
ENDBRANCH  16  17
ENDBRANCH  13  16
ENDBRANCH  12  13
ENDBRANCH  11  12
ENDBRANCH   8  11
ENDBRANCH   4   5
ENDBRANCH   3   4
ENDBRANCH   2   3
TORSDOF 9
ENDMDL
MODEL      285
REMARK 921   NORMALIZED FREE ENERGY PREDICTED BY IDOCK:   -2.33 KCAL/MOL
REMARK 922        TOTAL FREE ENERGY PREDICTED BY IDOCK:   -4.19 KCAL/MOL
REMARK 923 INTER-LIGAND FREE ENERGY PREDICTED BY IDOCK:   -4.14 KCAL/MOL
REMARK 924 INTRA-LIGAND FREE ENERGY PREDICTED BY IDOCK:   -0.05 KCAL/MOL
REMARK 927      BINDING AFFINITY PREDICTED BY RF-SCORE:    0.00 PKD
ROOT
HETATM    1  C   UNL     1      -8.741  15.331  68.066  1.00  0.00    -0.160 C  
HETATM    2  O   UNL     1      -9.165  14.992  66.750  1.00  0.00    -0.225 OA 
ENDROOT
BRANCH   2   3
HETATM    3  C   UNL     1     -10.225  15.847  66.319  1.00  0.00    -0.311 C  
BRANCH   3   4
HETATM    4  C   UNL     1     -11.491  15.015  66.094  1.00  0.00    -0.222 C  
BRANCH   4   5
HETATM    5  C   UNL     1     -11.264  13.551  66.378  1.00  0.00    -0.322 A  
HETATM    6  C   UNL     1     -11.752  13.001  67.565  1.00  0.00    -0.421 A  
HETATM    7  C   UNL     1     -11.545  11.657  67.864  1.00  0.00    -0.369 A  
HETATM    8  C   UNL     1     -10.858  10.824  66.981  1.00  0.00    -0.252 A  
HETATM    9  C   UNL     1     -10.582  12.717  65.482  1.00  0.00    -0.303 A  
HETATM   10  C   UNL     1     -10.378  11.361  65.785  1.00  0.00    -0.304 A  
BRANCH   8  11
HETATM   11  O   UNL     1     -10.616   9.489  67.199  1.00  0.00    -0.257 OA 
BRANCH  11  12
HETATM   12  C   UNL     1      -9.273   9.068  66.893  1.00  0.00    -0.142 C  
BRANCH  12  13
HETATM   13  C   UNL     1      -8.785   7.981  67.859  1.00  0.00    -0.128 C  
HETATM   14  H   UNL     1      -8.426   7.829  69.788  1.00  0.00     0.000 HD 
HETATM   15  O   UNL     1      -8.728   8.502  69.190  1.00  0.00    -0.132 OA 
BRANCH  13  16
HETATM   16  C   UNL     1      -9.666   6.718  67.839  1.00  0.00    -0.127 C  
BRANCH  16  17
HETATM   17  N   UNL     1      -8.866   5.490  67.842  1.00  0.00    -0.106 NA 
HETATM   18  H   UNL     1      -9.147   4.881  68.610  1.00  0.00     0.000 HD 
BRANCH  17  19
HETATM   19  C   UNL     1      -8.891   4.762  66.569  1.00  0.00    -0.111 C  
HETATM   20  C   UNL     1      -7.498   4.566  65.964  1.00  0.00    -0.085 C  
HETATM   21  C   UNL     1      -9.530   3.395  66.827  1.00  0.00    -0.163 C  
ENDBRANCH  17  19
ENDBRANCH  16  17
ENDBRANCH  13  16
ENDBRANCH  12  13
ENDBRANCH  11  12
ENDBRANCH   8  11
ENDBRANCH   4   5
ENDBRANCH   3   4
ENDBRANCH   2   3
TORSDOF 9
ENDMDL
MODEL      286
REMARK 921   NORMALIZED FREE ENERGY PREDICTED BY IDOCK:   -2.31 KCAL/MOL
REMARK 922        TOTAL FREE ENERGY PREDICTED BY IDOCK:   -4.17 KCAL/MOL
REMARK 923 INTER-LIGAND FREE ENERGY PREDICTED BY IDOCK:   -3.66 KCAL/MOL
REMARK 924 INTRA-LIGAND FREE ENERGY PREDICTED BY IDOCK:   -0.50 KCAL/MOL
REMARK 927      BINDING AFFINITY PREDICTED BY RF-SCORE:    0.00 PKD
ROOT
HETATM    1  C   UNL     1     -12.075  12.679  64.431  1.00  0.00    -0.415 C  
HETATM    2  O   UNL     1     -10.664  12.850  64.518  1.00  0.00    -0.327 OA 
ENDROOT
BRANCH   2   3
HETATM    3  C   UNL     1     -10.098  11.946  65.469  1.00  0.00    -0.245 C  
BRANCH   3   4
HETATM    4  C   UNL     1      -9.168  10.967  64.749  1.00  0.00    -0.227 C  
BRANCH   4   5
HETATM    5  C   UNL     1      -8.629   9.909  65.680  1.00  0.00    -0.157 A  
HETATM    6  C   UNL     1      -9.005   8.577  65.493  1.00  0.00    -0.182 A  
HETATM    7  C   UNL     1      -8.538   7.580  66.344  1.00  0.00    -0.145 A  
HETATM    8  C   UNL     1      -7.673   7.883  67.397  1.00  0.00    -0.109 A  
HETATM    9  C   UNL     1      -7.753  10.219  66.728  1.00  0.00    -0.111 A  
HETATM   10  C   UNL     1      -7.280   9.210  67.583  1.00  0.00    -0.083 A  
BRANCH   8  11
HETATM   11  O   UNL     1      -7.164   6.960  68.277  1.00  0.00    -0.085 OA 
BRANCH  11  12
HETATM   12  C   UNL     1      -7.561   7.159  69.647  1.00  0.00    -0.104 C  
BRANCH  12  13
HETATM   13  C   UNL     1      -9.008   6.708  69.890  1.00  0.00    -0.144 C  
HETATM   14  H   UNL     1      -9.922   5.065  70.471  1.00  0.00     0.000 HD 
HETATM   15  O   UNL     1      -9.027   5.344  70.320  1.00  0.00    -0.130 OA 
BRANCH  13  16
HETATM   16  C   UNL     1      -9.745   7.582  70.921  1.00  0.00    -0.173 C  
BRANCH  16  17
HETATM   17  N   UNL     1      -9.716   6.992  72.262  1.00  0.00    -0.153 NA 
HETATM   18  H   UNL     1      -9.146   7.558  72.890  1.00  0.00     0.000 HD 
BRANCH  17  19
HETATM   19  C   UNL     1     -11.046   6.763  72.838  1.00  0.00    -0.243 C  
HETATM   20  C   UNL     1     -12.143   6.629  71.778  1.00  0.00    -0.400 C  
HETATM   21  C   UNL     1     -10.979   5.475  73.665  1.00  0.00    -0.229 C  
ENDBRANCH  17  19
ENDBRANCH  16  17
ENDBRANCH  13  16
ENDBRANCH  12  13
ENDBRANCH  11  12
ENDBRANCH   8  11
ENDBRANCH   4   5
ENDBRANCH   3   4
ENDBRANCH   2   3
TORSDOF 9
ENDMDL
MODEL      287
REMARK 921   NORMALIZED FREE ENERGY PREDICTED BY IDOCK:   -2.29 KCAL/MOL
REMARK 922        TOTAL FREE ENERGY PREDICTED BY IDOCK:   -4.14 KCAL/MOL
REMARK 923 INTER-LIGAND FREE ENERGY PREDICTED BY IDOCK:   -3.03 KCAL/MOL
REMARK 924 INTRA-LIGAND FREE ENERGY PREDICTED BY IDOCK:   -1.11 KCAL/MOL
REMARK 927      BINDING AFFINITY PREDICTED BY RF-SCORE:    0.00 PKD
ROOT
HETATM    1  C   UNL     1     -12.940  10.687  71.071  1.00  0.00    -0.363 C  
HETATM    2  O   UNL     1     -12.077   9.831  71.813  1.00  0.00    -0.390 OA 
ENDROOT
BRANCH   2   3
HETATM    3  C   UNL     1     -11.539   8.802  70.982  1.00  0.00    -0.288 C  
BRANCH   3   4
HETATM    4  C   UNL     1     -10.038   8.665  71.250  1.00  0.00    -0.312 C  
BRANCH   4   5
HETATM    5  C   UNL     1      -9.243   8.544  69.974  1.00  0.00    -0.155 A  
HETATM    6  C   UNL     1      -9.694   9.194  68.823  1.00  0.00    -0.167 A  
HETATM    7  C   UNL     1      -8.992   9.089  67.626  1.00  0.00    -0.130 A  
HETATM    8  C   UNL     1      -7.814   8.344  67.548  1.00  0.00    -0.099 A  
HETATM    9  C   UNL     1      -8.055   7.804  69.905  1.00  0.00    -0.120 A  
HETATM   10  C   UNL     1      -7.347   7.703  68.697  1.00  0.00    -0.091 A  
BRANCH   8  11
HETATM   11  O   UNL     1      -7.061   8.195  66.409  1.00  0.00    -0.072 OA 
BRANCH  11  12
HETATM   12  C   UNL     1      -6.358   6.941  66.319  1.00  0.00    -0.050 C  
BRANCH  12  13
HETATM   13  C   UNL     1      -7.152   5.902  65.515  1.00  0.00    -0.069 C  
HETATM   14  H   UNL     1      -6.889   4.850  63.872  1.00  0.00     0.000 HD 
HETATM   15  O   UNL     1      -6.398   5.494  64.369  1.00  0.00    -0.025 OA 
BRANCH  13  16
HETATM   16  C   UNL     1      -7.536   4.664  66.346  1.00  0.00    -0.082 C  
BRANCH  16  17
HETATM   17  N   UNL     1      -8.988   4.530  66.492  1.00  0.00    -0.112 NA 
HETATM   18  H   UNL     1      -9.287   3.586  66.248  1.00  0.00     0.000 HD 
BRANCH  17  19
HETATM   19  C   UNL     1      -9.488   4.904  67.820  1.00  0.00    -0.138 C  
HETATM   20  C   UNL     1     -10.781   5.723  67.763  1.00  0.00    -0.306 C  
HETATM   21  C   UNL     1      -9.738   3.612  68.603  1.00  0.00    -0.061 C  
ENDBRANCH  17  19
ENDBRANCH  16  17
ENDBRANCH  13  16
ENDBRANCH  12  13
ENDBRANCH  11  12
ENDBRANCH   8  11
ENDBRANCH   4   5
ENDBRANCH   3   4
ENDBRANCH   2   3
TORSDOF 9
ENDMDL
MODEL      288
REMARK 921   NORMALIZED FREE ENERGY PREDICTED BY IDOCK:   -2.27 KCAL/MOL
REMARK 922        TOTAL FREE ENERGY PREDICTED BY IDOCK:   -4.10 KCAL/MOL
REMARK 923 INTER-LIGAND FREE ENERGY PREDICTED BY IDOCK:   -4.18 KCAL/MOL
REMARK 924 INTRA-LIGAND FREE ENERGY PREDICTED BY IDOCK:    0.08 KCAL/MOL
REMARK 927      BINDING AFFINITY PREDICTED BY RF-SCORE:    0.00 PKD
ROOT
HETATM    1  C   UNL     1     -11.563  15.899  70.804  1.00  0.00    -0.410 C  
HETATM    2  O   UNL     1     -12.254  15.467  69.637  1.00  0.00    -0.343 OA 
ENDROOT
BRANCH   2   3
HETATM    3  C   UNL     1     -11.350  15.278  68.548  1.00  0.00    -0.327 C  
BRANCH   3   4
HETATM    4  C   UNL     1     -12.006  14.387  67.490  1.00  0.00    -0.389 C  
BRANCH   4   5
HETATM    5  C   UNL     1     -11.257  13.093  67.296  1.00  0.00    -0.319 A  
HETATM    6  C   UNL     1     -11.124  12.211  68.371  1.00  0.00    -0.289 A  
HETATM    7  C   UNL     1     -10.425  11.016  68.228  1.00  0.00    -0.212 A  
HETATM    8  C   UNL     1      -9.851  10.662  67.007  1.00  0.00    -0.185 A  
HETATM    9  C   UNL     1     -10.692  12.738  66.064  1.00  0.00    -0.295 A  
HETATM   10  C   UNL     1      -9.991  11.530  65.922  1.00  0.00    -0.267 A  
BRANCH   8  11
HETATM   11  O   UNL     1      -9.151   9.502  66.782  1.00  0.00    -0.141 OA 
BRANCH  11  12
HETATM   12  C   UNL     1      -8.315   9.087  67.879  1.00  0.00    -0.117 C  
BRANCH  12  13
HETATM   13  C   UNL     1      -7.002   9.881  67.923  1.00  0.00    -0.081 C  
HETATM   14  H   UNL     1      -5.091   9.484  68.171  1.00  0.00     0.000 HD 
HETATM   15  O   UNL     1      -5.903   8.993  68.144  1.00  0.00    -0.038 OA 
BRANCH  13  16
HETATM   16  C   UNL     1      -6.752  10.702  66.645  1.00  0.00    -0.106 C  
BRANCH  16  17
HETATM   17  N   UNL     1      -6.451  12.105  66.943  1.00  0.00    -0.342 NA 
HETATM   18  H   UNL     1      -6.545  12.678  66.105  1.00  0.00     0.000 HD 
BRANCH  17  19
HETATM   19  C   UNL     1      -7.250  12.662  68.041  1.00  0.00    -0.112 C  
HETATM   20  C   UNL     1      -6.675  12.339  69.423  1.00  0.00    -0.043 C  
HETATM   21  C   UNL     1      -7.301  14.181  67.854  1.00  0.00    -0.163 C  
ENDBRANCH  17  19
ENDBRANCH  16  17
ENDBRANCH  13  16
ENDBRANCH  12  13
ENDBRANCH  11  12
ENDBRANCH   8  11
ENDBRANCH   4   5
ENDBRANCH   3   4
ENDBRANCH   2   3
TORSDOF 9
ENDMDL
MODEL      289
REMARK 921   NORMALIZED FREE ENERGY PREDICTED BY IDOCK:   -2.26 KCAL/MOL
REMARK 922        TOTAL FREE ENERGY PREDICTED BY IDOCK:   -4.08 KCAL/MOL
REMARK 923 INTER-LIGAND FREE ENERGY PREDICTED BY IDOCK:   -3.54 KCAL/MOL
REMARK 924 INTRA-LIGAND FREE ENERGY PREDICTED BY IDOCK:   -0.54 KCAL/MOL
REMARK 927      BINDING AFFINITY PREDICTED BY RF-SCORE:    0.00 PKD
ROOT
HETATM    1  C   UNL     1     -12.185  11.140  70.241  1.00  0.00    -0.352 C  
HETATM    2  O   UNL     1     -12.498  11.134  68.852  1.00  0.00    -0.460 OA 
ENDROOT
BRANCH   2   3
HETATM    3  C   UNL     1     -11.606  11.979  68.124  1.00  0.00    -0.340 C  
BRANCH   3   4
HETATM    4  C   UNL     1     -10.162  11.653  68.516  1.00  0.00    -0.216 C  
BRANCH   4   5
HETATM    5  C   UNL     1      -9.622  10.469  67.753  1.00  0.00    -0.173 A  
HETATM    6  C   UNL     1      -8.706   9.616  68.373  1.00  0.00    -0.120 A  
HETATM    7  C   UNL     1      -8.177   8.525  67.691  1.00  0.00    -0.118 A  
HETATM    8  C   UNL     1      -8.557   8.247  66.377  1.00  0.00    -0.133 A  
HETATM    9  C   UNL     1     -10.016  10.190  66.438  1.00  0.00    -0.295 A  
HETATM   10  C   UNL     1      -9.483   9.085  65.754  1.00  0.00    -0.305 A  
BRANCH   8  11
HETATM   11  O   UNL     1      -8.086   7.189  65.637  1.00  0.00    -0.118 OA 
BRANCH  11  12
HETATM   12  C   UNL     1      -8.534   5.898  66.090  1.00  0.00    -0.132 C  
BRANCH  12  13
HETATM   13  C   UNL     1      -7.512   4.799  65.770  1.00  0.00    -0.081 C  
HETATM   14  H   UNL     1      -6.057   3.871  66.717  1.00  0.00     0.000 HD 
HETATM   15  O   UNL     1      -6.689   4.551  66.914  1.00  0.00    -0.049 OA 
BRANCH  13  16
HETATM   16  C   UNL     1      -8.167   3.483  65.314  1.00  0.00    -0.097 C  
BRANCH  16  17
HETATM   17  N   UNL     1      -7.996   3.255  63.876  1.00  0.00    -0.081 NA 
HETATM   18  H   UNL     1      -7.669   2.305  63.699  1.00  0.00     0.000 HD 
BRANCH  17  19
HETATM   19  C   UNL     1      -9.196   3.543  63.083  1.00  0.00    -0.097 C  
HETATM   20  C   UNL     1     -10.477   3.568  63.922  1.00  0.00    -0.266 C  
HETATM   21  C   UNL     1      -8.998   4.908  62.418  1.00  0.00    -0.104 C  
ENDBRANCH  17  19
ENDBRANCH  16  17
ENDBRANCH  13  16
ENDBRANCH  12  13
ENDBRANCH  11  12
ENDBRANCH   8  11
ENDBRANCH   4   5
ENDBRANCH   3   4
ENDBRANCH   2   3
TORSDOF 9
ENDMDL
MODEL      290
REMARK 921   NORMALIZED FREE ENERGY PREDICTED BY IDOCK:   -2.25 KCAL/MOL
REMARK 922        TOTAL FREE ENERGY PREDICTED BY IDOCK:   -4.07 KCAL/MOL
REMARK 923 INTER-LIGAND FREE ENERGY PREDICTED BY IDOCK:   -3.31 KCAL/MOL
REMARK 924 INTRA-LIGAND FREE ENERGY PREDICTED BY IDOCK:   -0.76 KCAL/MOL
REMARK 927      BINDING AFFINITY PREDICTED BY RF-SCORE:    0.00 PKD
ROOT
HETATM    1  C   UNL     1     -10.770   3.525  63.502  1.00  0.00    -0.249 C  
HETATM    2  O   UNL     1     -10.288   3.910  64.785  1.00  0.00    -0.213 OA 
ENDROOT
BRANCH   2   3
HETATM    3  C   UNL     1      -8.946   4.392  64.703  1.00  0.00    -0.150 C  
BRANCH   3   4
HETATM    4  C   UNL     1      -8.168   3.945  65.944  1.00  0.00    -0.105 C  
BRANCH   4   5
HETATM    5  C   UNL     1      -8.573   4.716  67.175  1.00  0.00    -0.104 A  
HETATM    6  C   UNL     1      -8.624   4.060  68.407  1.00  0.00    -0.113 A  
HETATM    7  C   UNL     1      -9.010   4.740  69.558  1.00  0.00    -0.135 A  
HETATM    8  C   UNL     1      -9.342   6.095  69.514  1.00  0.00    -0.137 A  
HETATM    9  C   UNL     1      -8.896   6.078  67.125  1.00  0.00    -0.108 A  
HETATM   10  C   UNL     1      -9.281   6.762  68.290  1.00  0.00    -0.122 A  
BRANCH   8  11
HETATM   11  O   UNL     1      -9.728   6.838  70.603  1.00  0.00    -0.172 OA 
BRANCH  11  12
HETATM   12  C   UNL     1     -10.855   7.702  70.367  1.00  0.00    -0.244 C  
BRANCH  12  13
HETATM   13  C   UNL     1     -10.644   9.091  70.985  1.00  0.00    -0.271 C  
HETATM   14  H   UNL     1      -9.452   9.902  72.325  1.00  0.00     0.000 HD 
HETATM   15  O   UNL     1      -9.583   9.042  71.943  1.00  0.00    -0.287 OA 
BRANCH  13  16
HETATM   16  C   UNL     1     -10.340  10.176  69.936  1.00  0.00    -0.261 C  
BRANCH  16  17
HETATM   17  N   UNL     1      -8.947  10.127  69.483  1.00  0.00    -0.253 NA 
HETATM   18  H   UNL     1      -8.535   9.217  69.688  1.00  0.00     0.000 HD 
BRANCH  17  19
HETATM   19  C   UNL     1      -8.772  10.466  68.066  1.00  0.00    -0.123 C  
HETATM   20  C   UNL     1      -8.921  11.964  67.786  1.00  0.00    -0.173 C  
HETATM   21  C   UNL     1      -7.372  10.007  67.648  1.00  0.00    -0.089 C  
ENDBRANCH  17  19
ENDBRANCH  16  17
ENDBRANCH  13  16
ENDBRANCH  12  13
ENDBRANCH  11  12
ENDBRANCH   8  11
ENDBRANCH   4   5
ENDBRANCH   3   4
ENDBRANCH   2   3
TORSDOF 9
ENDMDL
MODEL      291
REMARK 921   NORMALIZED FREE ENERGY PREDICTED BY IDOCK:   -2.15 KCAL/MOL
REMARK 922        TOTAL FREE ENERGY PREDICTED BY IDOCK:   -3.92 KCAL/MOL
REMARK 923 INTER-LIGAND FREE ENERGY PREDICTED BY IDOCK:   -3.51 KCAL/MOL
REMARK 924 INTRA-LIGAND FREE ENERGY PREDICTED BY IDOCK:   -0.41 KCAL/MOL
REMARK 927      BINDING AFFINITY PREDICTED BY RF-SCORE:    0.00 PKD
ROOT
HETATM    1  C   UNL     1      -5.775  13.794  70.664  1.00  0.00    -0.182 C  
HETATM    2  O   UNL     1      -5.876  14.724  69.591  1.00  0.00    -0.095 OA 
ENDROOT
BRANCH   2   3
HETATM    3  C   UNL     1      -7.149  14.630  68.951  1.00  0.00    -0.117 C  
BRANCH   3   4
HETATM    4  C   UNL     1      -7.020  13.783  67.682  1.00  0.00    -0.186 C  
BRANCH   4   5
HETATM    5  C   UNL     1      -7.731  12.459  67.811  1.00  0.00    -0.139 A  
HETATM    6  C   UNL     1      -9.013  12.422  68.363  1.00  0.00    -0.133 A  
HETATM    7  C   UNL     1      -9.690  11.215  68.510  1.00  0.00    -0.196 A  
HETATM    8  C   UNL     1      -9.112  10.014  68.097  1.00  0.00    -0.121 A  
HETATM    9  C   UNL     1      -7.149  11.258  67.384  1.00  0.00    -0.109 A  
HETATM   10  C   UNL     1      -7.836  10.042  67.530  1.00  0.00    -0.095 A  
BRANCH   8  11
HETATM   11  O   UNL     1      -9.713   8.783  68.202  1.00  0.00    -0.150 OA 
BRANCH  11  12
HETATM   12  C   UNL     1      -9.461   8.100  69.445  1.00  0.00    -0.162 C  
BRANCH  12  13
HETATM   13  C   UNL     1      -9.966   6.651  69.408  1.00  0.00    -0.156 C  
HETATM   14  H   UNL     1      -9.467   4.935  70.232  1.00  0.00     0.000 HD 
HETATM   15  O   UNL     1      -9.154   5.831  70.255  1.00  0.00    -0.141 OA 
BRANCH  13  16
HETATM   16  C   UNL     1     -11.442   6.517  69.824  1.00  0.00    -0.379 C  
BRANCH  16  17
HETATM   17  N   UNL     1     -12.050   7.818  70.118  1.00  0.00    -0.267 NA 
HETATM   18  H   UNL     1     -13.026   7.832  69.825  1.00  0.00     0.000 HD 
BRANCH  17  19
HETATM   19  C   UNL     1     -11.924   8.228  71.521  1.00  0.00    -0.296 C  
HETATM   20  C   UNL     1     -11.507   9.693  71.682  1.00  0.00    -0.376 C  
HETATM   21  C   UNL     1     -13.284   8.010  72.192  1.00  0.00    -0.211 C  
ENDBRANCH  17  19
ENDBRANCH  16  17
ENDBRANCH  13  16
ENDBRANCH  12  13
ENDBRANCH  11  12
ENDBRANCH   8  11
ENDBRANCH   4   5
ENDBRANCH   3   4
ENDBRANCH   2   3
TORSDOF 9
ENDMDL
MODEL      292
REMARK 921   NORMALIZED FREE ENERGY PREDICTED BY IDOCK:   -1.92 KCAL/MOL
REMARK 922        TOTAL FREE ENERGY PREDICTED BY IDOCK:   -3.57 KCAL/MOL
REMARK 923 INTER-LIGAND FREE ENERGY PREDICTED BY IDOCK:   -3.07 KCAL/MOL
REMARK 924 INTRA-LIGAND FREE ENERGY PREDICTED BY IDOCK:   -0.50 KCAL/MOL
REMARK 927      BINDING AFFINITY PREDICTED BY RF-SCORE:    0.00 PKD
ROOT
HETATM    1  C   UNL     1      -9.906   6.487  74.046  1.00  0.00    -0.273 C  
HETATM    2  O   UNL     1     -11.103   6.899  73.395  1.00  0.00    -0.240 OA 
ENDROOT
BRANCH   2   3
HETATM    3  C   UNL     1     -11.548   5.909  72.467  1.00  0.00    -0.277 C  
BRANCH   3   4
HETATM    4  C   UNL     1     -10.342   5.335  71.718  1.00  0.00    -0.277 C  
BRANCH   4   5
HETATM    5  C   UNL     1     -10.139   5.998  70.379  1.00  0.00    -0.249 A  
HETATM    6  C   UNL     1     -11.247   6.258  69.569  1.00  0.00    -0.500 A  
HETATM    7  C   UNL     1     -11.091   6.854  68.321  1.00  0.00    -0.152 A  
HETATM    8  C   UNL     1      -9.828   7.219  67.853  1.00  0.00    -0.144 A  
HETATM    9  C   UNL     1      -8.869   6.372  69.920  1.00  0.00    -0.142 A  
HETATM   10  C   UNL     1      -8.716   6.977  68.661  1.00  0.00    -0.123 A  
BRANCH   8  11
HETATM   11  O   UNL     1      -9.590   7.815  66.638  1.00  0.00    -0.196 OA 
BRANCH  11  12
HETATM   12  C   UNL     1      -8.210   8.148  66.398  1.00  0.00    -0.108 C  
BRANCH  12  13
HETATM   13  C   UNL     1      -7.980   9.665  66.424  1.00  0.00    -0.108 C  
HETATM   14  H   UNL     1      -8.984  11.280  65.915  1.00  0.00     0.000 HD 
HETATM   15  O   UNL     1      -9.126  10.341  65.898  1.00  0.00    -0.154 OA 
BRANCH  13  16
HETATM   16  C   UNL     1      -7.667  10.202  67.832  1.00  0.00    -0.089 C  
BRANCH  16  17
HETATM   17  N   UNL     1      -6.260  10.010  68.193  1.00  0.00    -0.053 NA 
HETATM   18  H   UNL     1      -5.693   9.856  67.359  1.00  0.00     0.000 HD 
BRANCH  17  19
HETATM   19  C   UNL     1      -5.701  11.098  69.004  1.00  0.00    -0.040 C  
HETATM   20  C   UNL     1      -5.622  12.427  68.248  1.00  0.00    -0.057 C  
HETATM   21  C   UNL     1      -6.595  11.266  70.236  1.00  0.00     0.109 C  
ENDBRANCH  17  19
ENDBRANCH  16  17
ENDBRANCH  13  16
ENDBRANCH  12  13
ENDBRANCH  11  12
ENDBRANCH   8  11
ENDBRANCH   4   5
ENDBRANCH   3   4
ENDBRANCH   2   3
TORSDOF 9
ENDMDL
