MODEL        1
REMARK 921   NORMALIZED FREE ENERGY PREDICTED BY IDOCK:   -6.10 KCAL/MOL
REMARK 922        TOTAL FREE ENERGY PREDICTED BY IDOCK:   -9.32 KCAL/MOL
REMARK 923 INTER-LIGAND FREE ENERGY PREDICTED BY IDOCK:   -8.60 KCAL/MOL
REMARK 924 INTRA-LIGAND FREE ENERGY PREDICTED BY IDOCK:   -0.71 KCAL/MOL
REMARK 927      BINDING AFFINITY PREDICTED BY RF-SCORE:    0.00 PKD
ROOT
HETATM    1  C   UNL     1     -11.150  15.733  64.776  1.00  0.00    -0.413 C  
HETATM    2  C   UNL     1     -12.293  14.828  64.326  1.00  0.00    -0.320 C  
ENDROOT
BRANCH   2   3
HETATM    3  N   UNL     1     -12.701  13.813  65.315  1.00  0.00    -0.672 NA 
BRANCH   3   4
HETATM    4  C   UNL     1     -12.585  12.425  64.825  1.00  0.00    -0.335 C  
HETATM    5  C   UNL     1     -12.274  12.249  63.340  1.00  0.00    -0.630 C  
ENDBRANCH   3   4
BRANCH   3   6
HETATM    6  C   UNL     1     -11.978  13.974  66.600  1.00  0.00    -0.445 C  
BRANCH   6   7
HETATM    7  C   UNL     1     -11.155  12.755  67.049  1.00  0.00    -0.278 C  
BRANCH   7   8
HETATM    8  N   UNL     1     -11.747  12.065  68.181  1.00  0.00    -0.336 N  
HETATM    9  C   UNL     1     -10.974  11.305  69.036  1.00  0.00    -0.236 C  
HETATM   10  H   UNL     1     -12.750  12.143  68.348  1.00  0.00     0.000 HD 
HETATM   11  O   UNL     1      -9.770  11.145  68.880  1.00  0.00    -0.198 OA 
BRANCH   9  12
HETATM   12  C   UNL     1     -11.649  10.764  70.241  1.00  0.00    -0.427 A  
HETATM   13  C   UNL     1     -11.625   9.367  70.408  1.00  0.00    -0.241 A  
HETATM   14  C   UNL     1     -12.445   8.752  71.354  1.00  0.00    -0.303 A  
HETATM   15  C   UNL     1     -13.336   9.506  72.131  1.00  0.00    -0.461 A  
HETATM   16 CL   UNL     1     -12.417   7.026  71.467  1.00  0.00    -0.407 Cl 
HETATM   17  C   UNL     1     -13.282  10.901  72.025  1.00  0.00    -0.456 A  
HETATM   18  N   UNL     1     -14.136   8.919  73.129  1.00  0.00    -1.225 NA 
HETATM   19  H1  UNL     1     -14.785   9.467  73.693  1.00  0.00     0.000 HD 
HETATM   20  C   UNL     1     -12.462  11.541  71.079  1.00  0.00    -0.356 A  
HETATM   21  H2  UNL     1     -13.518   8.414  73.765  1.00  0.00     0.000 HD 
BRANCH  20  22
HETATM   22  O   UNL     1     -12.656  12.896  71.028  1.00  0.00    -0.366 OA 
HETATM   23  C   UNL     1     -13.472  13.457  72.053  1.00  0.00    -0.494 C  
ENDBRANCH  20  22
ENDBRANCH   9  12
ENDBRANCH   7   8
ENDBRANCH   6   7
ENDBRANCH   3   6
ENDBRANCH   2   3
TORSDOF 7
ENDMDL
MODEL        2
REMARK 921   NORMALIZED FREE ENERGY PREDICTED BY IDOCK:   -5.64 KCAL/MOL
REMARK 922        TOTAL FREE ENERGY PREDICTED BY IDOCK:   -8.66 KCAL/MOL
REMARK 923 INTER-LIGAND FREE ENERGY PREDICTED BY IDOCK:   -7.77 KCAL/MOL
REMARK 924 INTRA-LIGAND FREE ENERGY PREDICTED BY IDOCK:   -0.89 KCAL/MOL
REMARK 927      BINDING AFFINITY PREDICTED BY RF-SCORE:    0.00 PKD
ROOT
HETATM    1  C   UNL     1     -10.048  16.004  66.225  1.00  0.00    -0.329 C  
HETATM    2  C   UNL     1     -10.737  15.478  67.480  1.00  0.00    -0.300 C  
ENDROOT
BRANCH   2   3
HETATM    3  N   UNL     1     -11.065  14.041  67.447  1.00  0.00    -0.296 NA 
BRANCH   3   4
HETATM    4  C   UNL     1     -12.342  13.738  66.769  1.00  0.00    -0.321 C  
HETATM    5  C   UNL     1     -12.246  13.062  65.402  1.00  0.00    -0.520 C  
ENDBRANCH   3   4
BRANCH   3   6
HETATM    6  C   UNL     1      -9.963  13.237  66.865  1.00  0.00    -0.250 C  
BRANCH   6   7
HETATM    7  C   UNL     1      -9.191  12.360  67.865  1.00  0.00    -0.192 C  
BRANCH   7   8
HETATM    8  N   UNL     1     -10.008  11.939  68.989  1.00  0.00    -0.416 N  
HETATM    9  C   UNL     1     -10.814  10.821  68.905  1.00  0.00    -0.227 C  
HETATM   10  H   UNL     1      -9.986  12.477  69.856  1.00  0.00     0.000 HD 
HETATM   11  O   UNL     1     -10.911  10.146  67.888  1.00  0.00    -0.272 OA 
BRANCH   9  12
HETATM   12  C   UNL     1     -11.493  10.395  70.153  1.00  0.00    -0.396 A  
HETATM   13  C   UNL     1     -11.507   9.015  70.428  1.00  0.00    -0.202 A  
HETATM   14  C   UNL     1     -12.336   8.499  71.424  1.00  0.00    -0.297 A  
HETATM   15  C   UNL     1     -13.197   9.336  72.147  1.00  0.00    -0.461 A  
HETATM   16 CL   UNL     1     -12.356   6.787  71.670  1.00  0.00    -0.402 Cl 
HETATM   17  C   UNL     1     -13.104  10.716  71.934  1.00  0.00    -0.563 A  
HETATM   18  N   UNL     1     -14.004   8.851  73.193  1.00  0.00    -1.215 NA 
HETATM   19  H1  UNL     1     -14.631   9.460  73.718  1.00  0.00     0.000 HD 
HETATM   20  C   UNL     1     -12.276  11.258  70.935  1.00  0.00    -0.356 A  
HETATM   21  H2  UNL     1     -13.395   8.380  73.862  1.00  0.00     0.000 HD 
BRANCH  20  22
HETATM   22  O   UNL     1     -12.431  12.610  70.781  1.00  0.00    -0.348 OA 
HETATM   23  C   UNL     1     -13.277  13.261  71.725  1.00  0.00    -0.405 C  
ENDBRANCH  20  22
ENDBRANCH   9  12
ENDBRANCH   7   8
ENDBRANCH   6   7
ENDBRANCH   3   6
ENDBRANCH   2   3
TORSDOF 7
ENDMDL
MODEL        3
REMARK 921   NORMALIZED FREE ENERGY PREDICTED BY IDOCK:   -5.57 KCAL/MOL
REMARK 922        TOTAL FREE ENERGY PREDICTED BY IDOCK:   -8.56 KCAL/MOL
REMARK 923 INTER-LIGAND FREE ENERGY PREDICTED BY IDOCK:   -7.88 KCAL/MOL
REMARK 924 INTRA-LIGAND FREE ENERGY PREDICTED BY IDOCK:   -0.69 KCAL/MOL
REMARK 927      BINDING AFFINITY PREDICTED BY RF-SCORE:    0.00 PKD
ROOT
HETATM    1  C   UNL     1     -11.526  11.996  63.608  1.00  0.00    -0.556 C  
HETATM    2  C   UNL     1     -12.268  12.844  64.637  1.00  0.00    -0.435 C  
ENDROOT
BRANCH   2   3
HETATM    3  N   UNL     1     -11.397  13.624  65.535  1.00  0.00    -0.296 NA 
BRANCH   3   4
HETATM    4  C   UNL     1     -10.569  14.627  64.836  1.00  0.00    -0.422 C  
HETATM    5  C   UNL     1     -11.147  16.038  64.733  1.00  0.00    -0.378 C  
ENDBRANCH   3   4
BRANCH   3   6
HETATM    6  C   UNL     1     -12.166  14.258  66.634  1.00  0.00    -0.381 C  
BRANCH   6   7
HETATM    7  C   UNL     1     -11.436  14.338  67.985  1.00  0.00    -0.314 C  
BRANCH   7   8
HETATM    8  N   UNL     1     -11.977  13.419  68.971  1.00  0.00    -0.327 N  
HETATM    9  C   UNL     1     -11.311  12.256  69.302  1.00  0.00    -0.256 C  
HETATM   10  H   UNL     1     -12.863  13.637  69.427  1.00  0.00     0.000 HD 
HETATM   11  O   UNL     1     -10.259  11.918  68.775  1.00  0.00    -0.207 OA 
BRANCH   9  12
HETATM   12  C   UNL     1     -11.873  11.463  70.422  1.00  0.00    -0.428 A  
HETATM   13  C   UNL     1     -11.575  10.088  70.439  1.00  0.00    -0.379 A  
HETATM   14  C   UNL     1     -12.264   9.224  71.290  1.00  0.00    -0.334 A  
HETATM   15  C   UNL     1     -13.290   9.698  72.119  1.00  0.00    -0.454 A  
HETATM   16 CL   UNL     1     -11.897   7.535  71.217  1.00  0.00    -0.307 Cl 
HETATM   17  C   UNL     1     -13.511  11.079  72.166  1.00  0.00    -0.200 A  
HETATM   18  N   UNL     1     -13.964   8.859  73.026  1.00  0.00    -1.134 NA 
HETATM   19  H1  UNL     1     -14.711   9.204  73.628  1.00  0.00     0.000 HD 
HETATM   20  C   UNL     1     -12.828  11.968  71.317  1.00  0.00    -0.265 A  
HETATM   21  H2  UNL     1     -13.262   8.417  73.620  1.00  0.00     0.000 HD 
BRANCH  20  22
HETATM   22  O   UNL     1     -13.285  13.257  71.408  1.00  0.00    -0.310 OA 
HETATM   23  C   UNL     1     -13.251  13.851  72.702  1.00  0.00    -0.494 C  
ENDBRANCH  20  22
ENDBRANCH   9  12
ENDBRANCH   7   8
ENDBRANCH   6   7
ENDBRANCH   3   6
ENDBRANCH   2   3
TORSDOF 7
ENDMDL
MODEL        4
REMARK 921   NORMALIZED FREE ENERGY PREDICTED BY IDOCK:   -5.55 KCAL/MOL
REMARK 922        TOTAL FREE ENERGY PREDICTED BY IDOCK:   -8.53 KCAL/MOL
REMARK 923 INTER-LIGAND FREE ENERGY PREDICTED BY IDOCK:   -7.85 KCAL/MOL
REMARK 924 INTRA-LIGAND FREE ENERGY PREDICTED BY IDOCK:   -0.68 KCAL/MOL
REMARK 927      BINDING AFFINITY PREDICTED BY RF-SCORE:    0.00 PKD
ROOT
HETATM    1  C   UNL     1     -14.383   7.238  71.615  1.00  0.00    -0.583 C  
HETATM    2  C   UNL     1     -12.881   7.414  71.413  1.00  0.00    -0.365 C  
ENDROOT
BRANCH   2   3
HETATM    3  N   UNL     1     -12.276   8.499  72.206  1.00  0.00    -0.379 NA 
BRANCH   3   4
HETATM    4  C   UNL     1     -10.861   8.260  72.556  1.00  0.00    -0.351 C  
HETATM    5  C   UNL     1     -10.575   7.070  73.471  1.00  0.00    -0.405 C  
ENDBRANCH   3   4
BRANCH   3   6
HETATM    6  C   UNL     1     -12.435   9.818  71.547  1.00  0.00    -0.403 C  
BRANCH   6   7
HETATM    7  C   UNL     1     -11.507  10.068  70.347  1.00  0.00    -0.314 C  
BRANCH   7   8
HETATM    8  N   UNL     1     -11.404  11.476  70.001  1.00  0.00    -0.492 N  
HETATM    9  C   UNL     1     -11.741  11.926  68.741  1.00  0.00    -0.321 C  
HETATM   10  H   UNL     1     -11.077  12.141  70.701  1.00  0.00     0.000 HD 
HETATM   11  O   UNL     1     -12.113  11.180  67.844  1.00  0.00    -0.627 OA 
BRANCH   9  12
HETATM   12  C   UNL     1     -11.740  13.396  68.537  1.00  0.00    -0.392 A  
HETATM   13  C   UNL     1     -11.187  13.869  67.333  1.00  0.00    -0.330 A  
HETATM   14  C   UNL     1     -10.905  15.225  67.168  1.00  0.00    -0.322 A  
HETATM   15  C   UNL     1     -11.130  16.138  68.207  1.00  0.00    -0.348 A  
HETATM   16 CL   UNL     1     -10.166  15.735  65.689  1.00  0.00    -0.378 Cl 
HETATM   17  C   UNL     1     -11.770  15.673  69.362  1.00  0.00    -0.395 A  
HETATM   18  N   UNL     1     -10.905  17.518  68.049  1.00  0.00    -0.336 NA 
HETATM   19  H1  UNL     1     -11.068  18.182  68.806  1.00  0.00     0.000 HD 
HETATM   20  C   UNL     1     -12.063  14.311  69.550  1.00  0.00    -0.330 A  
HETATM   21  H2  UNL     1     -11.441  17.830  67.240  1.00  0.00     0.000 HD 
BRANCH  20  22
HETATM   22  O   UNL     1     -12.553  14.033  70.799  1.00  0.00    -0.329 OA 
HETATM   23  C   UNL     1     -13.467  14.978  71.345  1.00  0.00    -0.446 C  
ENDBRANCH  20  22
ENDBRANCH   9  12
ENDBRANCH   7   8
ENDBRANCH   6   7
ENDBRANCH   3   6
ENDBRANCH   2   3
TORSDOF 7
ENDMDL
MODEL        5
REMARK 921   NORMALIZED FREE ENERGY PREDICTED BY IDOCK:   -5.52 KCAL/MOL
REMARK 922        TOTAL FREE ENERGY PREDICTED BY IDOCK:   -8.49 KCAL/MOL
REMARK 923 INTER-LIGAND FREE ENERGY PREDICTED BY IDOCK:   -7.75 KCAL/MOL
REMARK 924 INTRA-LIGAND FREE ENERGY PREDICTED BY IDOCK:   -0.74 KCAL/MOL
REMARK 927      BINDING AFFINITY PREDICTED BY RF-SCORE:    0.00 PKD
ROOT
HETATM    1  C   UNL     1     -13.681  13.208  72.085  1.00  0.00    -0.588 C  
HETATM    2  C   UNL     1     -14.183  14.625  71.828  1.00  0.00    -0.530 C  
ENDROOT
BRANCH   2   3
HETATM    3  N   UNL     1     -13.168  15.552  71.294  1.00  0.00    -0.506 NA 
BRANCH   3   4
HETATM    4  C   UNL     1     -11.940  15.622  72.110  1.00  0.00    -0.460 C  
HETATM    5  C   UNL     1     -12.064  16.301  73.474  1.00  0.00    -0.557 C  
ENDBRANCH   3   4
BRANCH   3   6
HETATM    6  C   UNL     1     -12.838  15.251  69.879  1.00  0.00    -0.001 C  
BRANCH   6   7
HETATM    7  C   UNL     1     -11.372  14.871  69.614  1.00  0.00    -0.282 C  
BRANCH   7   8
HETATM    8  N   UNL     1     -11.197  14.143  68.369  1.00  0.00    -0.253 N  
HETATM    9  C   UNL     1     -11.538  12.809  68.270  1.00  0.00    -0.334 C  
HETATM   10  H   UNL     1     -10.816  14.626  67.555  1.00  0.00     0.000 HD 
HETATM   11  O   UNL     1     -11.973  12.162  69.214  1.00  0.00    -0.300 OA 
BRANCH   9  12
HETATM   12  C   UNL     1     -11.458  12.200  66.920  1.00  0.00    -0.414 A  
HETATM   13  C   UNL     1     -10.627  11.074  66.780  1.00  0.00    -0.317 A  
HETATM   14  C   UNL     1     -10.286  10.598  65.514  1.00  0.00    -0.262 A  
HETATM   15  C   UNL     1     -10.731  11.252  64.356  1.00  0.00    -0.339 A  
HETATM   16 CL   UNL     1      -9.208   9.249  65.407  1.00  0.00    -0.282 Cl 
HETATM   17  C   UNL     1     -11.635  12.310  64.506  1.00  0.00    -0.418 A  
HETATM   18  N   UNL     1     -10.446  10.763  63.068  1.00  0.00    -0.727 NA 
HETATM   19  H1  UNL     1     -10.769  11.239  62.226  1.00  0.00     0.000 HD 
HETATM   20  C   UNL     1     -11.993  12.805  65.772  1.00  0.00    -0.449 A  
HETATM   21  H2  UNL     1     -10.770   9.797  63.024  1.00  0.00     0.000 HD 
BRANCH  20  22
HETATM   22  O   UNL     1     -12.769  13.933  65.710  1.00  0.00    -0.504 OA 
HETATM   23  C   UNL     1     -12.351  14.939  64.792  1.00  0.00    -0.233 C  
ENDBRANCH  20  22
ENDBRANCH   9  12
ENDBRANCH   7   8
ENDBRANCH   6   7
ENDBRANCH   3   6
ENDBRANCH   2   3
TORSDOF 7
ENDMDL
MODEL        6
REMARK 921   NORMALIZED FREE ENERGY PREDICTED BY IDOCK:   -5.41 KCAL/MOL
REMARK 922        TOTAL FREE ENERGY PREDICTED BY IDOCK:   -8.34 KCAL/MOL
REMARK 923 INTER-LIGAND FREE ENERGY PREDICTED BY IDOCK:   -7.41 KCAL/MOL
REMARK 924 INTRA-LIGAND FREE ENERGY PREDICTED BY IDOCK:   -0.92 KCAL/MOL
REMARK 927      BINDING AFFINITY PREDICTED BY RF-SCORE:    0.00 PKD
ROOT
HETATM    1  C   UNL     1      -8.978   9.866  62.883  1.00  0.00    -0.271 C  
HETATM    2  C   UNL     1      -9.884  11.088  62.993  1.00  0.00    -0.337 C  
ENDROOT
BRANCH   2   3
HETATM    3  N   UNL     1     -10.581  11.224  64.285  1.00  0.00    -0.342 NA 
BRANCH   3   4
HETATM    4  C   UNL     1      -9.921  10.508  65.395  1.00  0.00    -0.289 C  
HETATM    5  C   UNL     1      -8.977  11.329  66.272  1.00  0.00    -0.204 C  
ENDBRANCH   3   4
BRANCH   3   6
HETATM    6  C   UNL     1     -10.807  12.645  64.642  1.00  0.00    -0.319 C  
BRANCH   6   7
HETATM    7  C   UNL     1     -12.191  12.963  65.231  1.00  0.00    -0.476 C  
BRANCH   7   8
HETATM    8  N   UNL     1     -12.114  13.697  66.482  1.00  0.00    -0.421 N  
HETATM    9  C   UNL     1     -12.049  13.036  67.693  1.00  0.00    -0.209 C  
HETATM   10  H   UNL     1     -12.109  14.717  66.466  1.00  0.00     0.000 HD 
HETATM   11  O   UNL     1     -12.080  11.816  67.787  1.00  0.00    -0.595 OA 
BRANCH   9  12
HETATM   12  C   UNL     1     -11.826  13.873  68.897  1.00  0.00    -0.393 A  
HETATM   13  C   UNL     1     -12.457  13.459  70.084  1.00  0.00    -0.243 A  
HETATM   14  C   UNL     1     -12.521  14.311  71.187  1.00  0.00    -0.362 A  
HETATM   15  C   UNL     1     -11.994  15.608  71.124  1.00  0.00    -0.409 A  
HETATM   16 CL   UNL     1     -13.368  13.768  72.594  1.00  0.00    -0.639 Cl 
HETATM   17  C   UNL     1     -11.283  15.974  69.975  1.00  0.00    -0.362 A  
HETATM   18  N   UNL     1     -11.998  16.468  72.238  1.00  0.00    -0.620 NA 
HETATM   19  H1  UNL     1     -11.614  17.412  72.193  1.00  0.00     0.000 HD 
HETATM   20  C   UNL     1     -11.206  15.131  68.853  1.00  0.00    -0.283 A  
HETATM   21  H2  UNL     1     -11.539  15.982  73.008  1.00  0.00     0.000 HD 
BRANCH  20  22
HETATM   22  O   UNL     1     -10.596  15.722  67.777  1.00  0.00    -0.277 OA 
HETATM   23  C   UNL     1     -10.502  17.143  67.805  1.00  0.00    -0.362 C  
ENDBRANCH  20  22
ENDBRANCH   9  12
ENDBRANCH   7   8
ENDBRANCH   6   7
ENDBRANCH   3   6
ENDBRANCH   2   3
TORSDOF 7
ENDMDL
MODEL        7
REMARK 921   NORMALIZED FREE ENERGY PREDICTED BY IDOCK:   -5.38 KCAL/MOL
REMARK 922        TOTAL FREE ENERGY PREDICTED BY IDOCK:   -8.30 KCAL/MOL
REMARK 923 INTER-LIGAND FREE ENERGY PREDICTED BY IDOCK:   -7.59 KCAL/MOL
REMARK 924 INTRA-LIGAND FREE ENERGY PREDICTED BY IDOCK:   -0.71 KCAL/MOL
REMARK 927      BINDING AFFINITY PREDICTED BY RF-SCORE:    0.00 PKD
ROOT
HETATM    1  C   UNL     1     -11.430   8.660  72.050  1.00  0.00    -0.437 C  
HETATM    2  C   UNL     1     -12.773   9.057  71.445  1.00  0.00    -0.304 C  
ENDROOT
BRANCH   2   3
HETATM    3  N   UNL     1     -12.832  10.434  70.923  1.00  0.00    -0.377 NA 
BRANCH   3   4
HETATM    4  C   UNL     1     -13.256  11.433  71.925  1.00  0.00    -0.380 C  
HETATM    5  C   UNL     1     -13.007  12.899  71.576  1.00  0.00    -0.388 C  
ENDBRANCH   3   4
BRANCH   3   6
HETATM    6  C   UNL     1     -11.551  10.839  70.293  1.00  0.00    -0.338 C  
BRANCH   6   7
HETATM    7  C   UNL     1     -11.384  10.427  68.821  1.00  0.00    -0.214 C  
BRANCH   7   8
HETATM    8  N   UNL     1     -11.401  11.561  67.915  1.00  0.00    -0.283 N  
HETATM    9  C   UNL     1     -10.232  12.196  67.546  1.00  0.00    -0.199 C  
HETATM   10  H   UNL     1     -12.291  11.894  67.545  1.00  0.00     0.000 HD 
HETATM   11  O   UNL     1      -9.133  11.868  67.973  1.00  0.00    -0.175 OA 
BRANCH   9  12
HETATM   12  C   UNL     1     -10.346  13.247  66.504  1.00  0.00    -0.285 A  
HETATM   13  C   UNL     1      -9.979  14.553  66.878  1.00  0.00    -0.259 A  
HETATM   14  C   UNL     1     -10.296  15.639  66.062  1.00  0.00    -0.335 A  
HETATM   15  C   UNL     1     -11.017  15.458  64.874  1.00  0.00    -0.437 A  
HETATM   16 CL   UNL     1      -9.876  17.226  66.608  1.00  0.00    -0.283 Cl 
HETATM   17  C   UNL     1     -11.291  14.148  64.463  1.00  0.00    -0.355 A  
HETATM   18  N   UNL     1     -11.304  16.528  64.006  1.00  0.00    -1.559 NA 
HETATM   19  H1  UNL     1     -11.829  16.397  63.141  1.00  0.00     0.000 HD 
HETATM   20  C   UNL     1     -10.980  13.039  65.270  1.00  0.00    -0.284 A  
HETATM   21  H2  UNL     1     -10.421  16.980  63.768  1.00  0.00     0.000 HD 
BRANCH  20  22
HETATM   22  O   UNL     1     -11.455  11.857  64.767  1.00  0.00    -0.313 OA 
HETATM   23  C   UNL     1     -10.696  11.266  63.716  1.00  0.00    -0.379 C  
ENDBRANCH  20  22
ENDBRANCH   9  12
ENDBRANCH   7   8
ENDBRANCH   6   7
ENDBRANCH   3   6
ENDBRANCH   2   3
TORSDOF 7
ENDMDL
MODEL        8
REMARK 921   NORMALIZED FREE ENERGY PREDICTED BY IDOCK:   -5.37 KCAL/MOL
REMARK 922        TOTAL FREE ENERGY PREDICTED BY IDOCK:   -8.29 KCAL/MOL
REMARK 923 INTER-LIGAND FREE ENERGY PREDICTED BY IDOCK:   -8.12 KCAL/MOL
REMARK 924 INTRA-LIGAND FREE ENERGY PREDICTED BY IDOCK:   -0.17 KCAL/MOL
REMARK 927      BINDING AFFINITY PREDICTED BY RF-SCORE:    0.00 PKD
ROOT
HETATM    1  C   UNL     1     -13.551   9.264  72.505  1.00  0.00    -0.478 C  
HETATM    2  C   UNL     1     -12.809   9.167  71.176  1.00  0.00    -0.195 C  
ENDROOT
BRANCH   2   3
HETATM    3  N   UNL     1     -11.375   9.499  71.244  1.00  0.00    -0.348 NA 
BRANCH   3   4
HETATM    4  C   UNL     1     -10.486   8.332  71.071  1.00  0.00    -0.202 C  
HETATM    5  C   UNL     1     -10.999   7.211  70.168  1.00  0.00    -0.293 C  
ENDBRANCH   3   4
BRANCH   3   6
HETATM    6  C   UNL     1     -11.012  10.577  70.292  1.00  0.00    -0.235 C  
BRANCH   6   7
HETATM    7  C   UNL     1     -12.130  11.587  69.987  1.00  0.00    -0.331 C  
BRANCH   7   8
HETATM    8  N   UNL     1     -11.772  12.519  68.932  1.00  0.00    -0.308 N  
HETATM    9  C   UNL     1     -11.690  12.110  67.617  1.00  0.00    -0.316 C  
HETATM   10  H   UNL     1     -11.578  13.493  69.168  1.00  0.00     0.000 HD 
HETATM   11  O   UNL     1     -11.883  10.953  67.267  1.00  0.00    -0.389 OA 
BRANCH   9  12
HETATM   12  C   UNL     1     -11.462  13.168  66.603  1.00  0.00    -0.389 A  
HETATM   13  C   UNL     1     -10.716  14.289  67.013  1.00  0.00    -0.290 A  
HETATM   14  C   UNL     1     -10.673  15.438  66.224  1.00  0.00    -0.312 A  
HETATM   15  C   UNL     1     -11.400  15.517  65.028  1.00  0.00    -0.299 A  
HETATM   16 CL   UNL     1      -9.792  16.805  66.814  1.00  0.00    -0.267 Cl 
HETATM   17  C   UNL     1     -12.058  14.365  64.582  1.00  0.00    -0.485 A  
HETATM   18  N   UNL     1     -11.332  16.643  64.188  1.00  0.00    -1.437 NA 
HETATM   19  H1  UNL     1     -11.862  16.701  63.318  1.00  0.00     0.000 HD 
HETATM   20  C   UNL     1     -12.114  13.195  65.361  1.00  0.00    -0.433 A  
HETATM   21  H2  UNL     1     -10.350  16.807  63.966  1.00  0.00     0.000 HD 
BRANCH  20  22
HETATM   22  O   UNL     1     -12.924  12.229  64.824  1.00  0.00    -0.713 OA 
HETATM   23  C   UNL     1     -12.778  11.986  63.428  1.00  0.00    -0.398 C  
ENDBRANCH  20  22
ENDBRANCH   9  12
ENDBRANCH   7   8
ENDBRANCH   6   7
ENDBRANCH   3   6
ENDBRANCH   2   3
TORSDOF 7
ENDMDL
MODEL        9
REMARK 921   NORMALIZED FREE ENERGY PREDICTED BY IDOCK:   -5.37 KCAL/MOL
REMARK 922        TOTAL FREE ENERGY PREDICTED BY IDOCK:   -8.28 KCAL/MOL
REMARK 923 INTER-LIGAND FREE ENERGY PREDICTED BY IDOCK:   -7.73 KCAL/MOL
REMARK 924 INTRA-LIGAND FREE ENERGY PREDICTED BY IDOCK:   -0.56 KCAL/MOL
REMARK 927      BINDING AFFINITY PREDICTED BY RF-SCORE:    0.00 PKD
ROOT
HETATM    1  C   UNL     1     -14.211   7.773  71.668  1.00  0.00    -0.572 C  
HETATM    2  C   UNL     1     -12.710   7.543  71.523  1.00  0.00    -0.359 C  
ENDROOT
BRANCH   2   3
HETATM    3  N   UNL     1     -11.865   8.604  72.100  1.00  0.00    -0.367 NA 
BRANCH   3   4
HETATM    4  C   UNL     1     -10.476   8.179  72.366  1.00  0.00    -0.319 C  
HETATM    5  C   UNL     1     -10.188   6.683  72.261  1.00  0.00    -0.206 C  
ENDBRANCH   3   4
BRANCH   3   6
HETATM    6  C   UNL     1     -11.885   9.835  71.272  1.00  0.00    -0.399 C  
BRANCH   6   7
HETATM    7  C   UNL     1     -11.224   9.707  69.889  1.00  0.00    -0.207 C  
BRANCH   7   8
HETATM    8  N   UNL     1     -11.755  10.653  68.923  1.00  0.00    -0.474 N  
HETATM    9  C   UNL     1     -10.952  11.625  68.362  1.00  0.00    -0.220 C  
HETATM   10  H   UNL     1     -12.738  10.597  68.656  1.00  0.00     0.000 HD 
HETATM   11  O   UNL     1      -9.773  11.766  68.658  1.00  0.00    -0.191 OA 
BRANCH   9  12
HETATM   12  C   UNL     1     -11.555  12.443  67.281  1.00  0.00    -0.435 A  
HETATM   13  C   UNL     1     -11.634  11.852  66.007  1.00  0.00    -0.296 A  
HETATM   14  C   UNL     1     -11.937  12.624  64.885  1.00  0.00    -0.406 A  
HETATM   15  C   UNL     1     -12.132  14.008  64.997  1.00  0.00    -0.415 A  
HETATM   16 CL   UNL     1     -11.955  11.851  63.338  1.00  0.00    -0.573 Cl 
HETATM   17  C   UNL     1     -12.148  14.568  66.280  1.00  0.00    -0.311 A  
HETATM   18  N   UNL     1     -12.491  14.801  63.892  1.00  0.00    -1.049 NA 
HETATM   19  H1  UNL     1     -12.633  15.808  63.973  1.00  0.00     0.000 HD 
HETATM   20  C   UNL     1     -11.846  13.808  67.423  1.00  0.00    -0.396 A  
HETATM   21  H2  UNL     1     -13.335  14.400  63.482  1.00  0.00     0.000 HD 
BRANCH  20  22
HETATM   22  O   UNL     1     -11.769  14.562  68.565  1.00  0.00    -0.294 OA 
HETATM   23  C   UNL     1     -10.546  15.261  68.780  1.00  0.00    -0.240 C  
ENDBRANCH  20  22
ENDBRANCH   9  12
ENDBRANCH   7   8
ENDBRANCH   6   7
ENDBRANCH   3   6
ENDBRANCH   2   3
TORSDOF 7
ENDMDL
MODEL       10
REMARK 921   NORMALIZED FREE ENERGY PREDICTED BY IDOCK:   -5.36 KCAL/MOL
REMARK 922        TOTAL FREE ENERGY PREDICTED BY IDOCK:   -8.26 KCAL/MOL
REMARK 923 INTER-LIGAND FREE ENERGY PREDICTED BY IDOCK:   -7.67 KCAL/MOL
REMARK 924 INTRA-LIGAND FREE ENERGY PREDICTED BY IDOCK:   -0.59 KCAL/MOL
REMARK 927      BINDING AFFINITY PREDICTED BY RF-SCORE:    0.00 PKD
ROOT
HETATM    1  C   UNL     1     -11.329   6.394  72.152  1.00  0.00    -0.332 C  
HETATM    2  C   UNL     1     -11.519   7.845  72.583  1.00  0.00    -0.395 C  
ENDROOT
BRANCH   2   3
HETATM    3  N   UNL     1     -12.086   8.727  71.546  1.00  0.00    -0.312 NA 
BRANCH   3   4
HETATM    4  C   UNL     1     -13.249   9.513  72.005  1.00  0.00    -0.452 C  
HETATM    5  C   UNL     1     -13.174  11.026  71.802  1.00  0.00    -0.505 C  
ENDBRANCH   3   4
BRANCH   3   6
HETATM    6  C   UNL     1     -11.056   9.616  70.956  1.00  0.00    -0.368 C  
BRANCH   6   7
HETATM    7  C   UNL     1     -10.669   9.298  69.502  1.00  0.00    -0.222 C  
BRANCH   7   8
HETATM    8  N   UNL     1     -11.287  10.200  68.546  1.00  0.00    -0.491 N  
HETATM    9  C   UNL     1     -10.619  11.317  68.086  1.00  0.00    -0.192 C  
HETATM   10  H   UNL     1     -12.230  10.005  68.210  1.00  0.00     0.000 HD 
HETATM   11  O   UNL     1      -9.498  11.627  68.468  1.00  0.00    -0.195 OA 
BRANCH   9  12
HETATM   12  C   UNL     1     -11.280  12.089  67.005  1.00  0.00    -0.377 A  
HETATM   13  C   UNL     1     -11.003  11.694  65.683  1.00  0.00    -0.322 A  
HETATM   14  C   UNL     1     -11.361  12.510  64.610  1.00  0.00    -0.318 A  
HETATM   15  C   UNL     1     -11.969  13.755  64.826  1.00  0.00    -0.404 A  
HETATM   16 CL   UNL     1     -10.935  12.000  63.013  1.00  0.00    -0.219 Cl 
HETATM   17  C   UNL     1     -12.328  14.093  66.136  1.00  0.00    -0.463 A  
HETATM   18  N   UNL     1     -12.389  14.573  63.761  1.00  0.00    -1.087 NA 
HETATM   19  H1  UNL     1     -12.831  15.479  63.918  1.00  0.00     0.000 HD 
HETATM   20  C   UNL     1     -11.977  13.285  67.232  1.00  0.00    -0.343 A  
HETATM   21  H2  UNL     1     -13.011  14.021  63.171  1.00  0.00     0.000 HD 
BRANCH  20  22
HETATM   22  O   UNL     1     -12.285  13.853  68.440  1.00  0.00    -0.339 OA 
HETATM   23  C   UNL     1     -11.557  15.026  68.791  1.00  0.00    -0.335 C  
ENDBRANCH  20  22
ENDBRANCH   9  12
ENDBRANCH   7   8
ENDBRANCH   6   7
ENDBRANCH   3   6
ENDBRANCH   2   3
TORSDOF 7
ENDMDL
MODEL       11
REMARK 921   NORMALIZED FREE ENERGY PREDICTED BY IDOCK:   -5.32 KCAL/MOL
REMARK 922        TOTAL FREE ENERGY PREDICTED BY IDOCK:   -8.21 KCAL/MOL
REMARK 923 INTER-LIGAND FREE ENERGY PREDICTED BY IDOCK:   -7.52 KCAL/MOL
REMARK 924 INTRA-LIGAND FREE ENERGY PREDICTED BY IDOCK:   -0.68 KCAL/MOL
REMARK 927      BINDING AFFINITY PREDICTED BY RF-SCORE:    0.00 PKD
ROOT
HETATM    1  C   UNL     1     -10.460  19.448  65.973  1.00  0.00    -0.596 C  
HETATM    2  C   UNL     1     -10.503  18.012  66.488  1.00  0.00    -0.334 C  
ENDROOT
BRANCH   2   3
HETATM    3  N   UNL     1      -9.777  17.037  65.654  1.00  0.00    -0.548 NA 
BRANCH   3   4
HETATM    4  C   UNL     1      -8.550  16.511  66.286  1.00  0.00    -0.332 C  
HETATM    5  C   UNL     1      -7.330  17.431  66.277  1.00  0.00    -0.347 C  
ENDBRANCH   3   4
BRANCH   3   6
HETATM    6  C   UNL     1     -10.656  15.924  65.218  1.00  0.00    -0.419 C  
BRANCH   6   7
HETATM    7  C   UNL     1     -10.262  14.532  65.738  1.00  0.00    -0.335 C  
BRANCH   7   8
HETATM    8  N   UNL     1     -11.125  14.068  66.810  1.00  0.00    -0.301 N  
HETATM    9  C   UNL     1     -10.599  13.610  68.001  1.00  0.00    -0.249 C  
HETATM   10  H   UNL     1     -12.137  14.082  66.681  1.00  0.00     0.000 HD 
HETATM   11  O   UNL     1      -9.395  13.539  68.213  1.00  0.00    -0.204 OA 
BRANCH   9  12
HETATM   12  C   UNL     1     -11.567  13.299  69.081  1.00  0.00    -0.370 A  
HETATM   13  C   UNL     1     -12.118  14.392  69.773  1.00  0.00    -0.386 A  
HETATM   14  C   UNL     1     -12.825  14.196  70.960  1.00  0.00    -0.351 A  
HETATM   15  C   UNL     1     -12.969  12.914  71.507  1.00  0.00    -0.294 A  
HETATM   16 CL   UNL     1     -13.421  15.587  71.799  1.00  0.00    -0.554 Cl 
HETATM   17  C   UNL     1     -12.503  11.825  70.761  1.00  0.00    -0.405 A  
HETATM   18  N   UNL     1     -13.722  12.682  72.673  1.00  0.00    -0.670 NA 
HETATM   19  H1  UNL     1     -13.827  11.748  73.071  1.00  0.00     0.000 HD 
HETATM   20  C   UNL     1     -11.789  12.000  69.563  1.00  0.00    -0.326 A  
HETATM   21  H2  UNL     1     -14.656  13.062  72.521  1.00  0.00     0.000 HD 
BRANCH  20  22
HETATM   22  O   UNL     1     -11.290  10.827  69.057  1.00  0.00    -0.243 OA 
HETATM   23  C   UNL     1     -10.345  10.140  69.871  1.00  0.00    -0.261 C  
ENDBRANCH  20  22
ENDBRANCH   9  12
ENDBRANCH   7   8
ENDBRANCH   6   7
ENDBRANCH   3   6
ENDBRANCH   2   3
TORSDOF 7
ENDMDL
MODEL       12
REMARK 921   NORMALIZED FREE ENERGY PREDICTED BY IDOCK:   -5.29 KCAL/MOL
REMARK 922        TOTAL FREE ENERGY PREDICTED BY IDOCK:   -8.17 KCAL/MOL
REMARK 923 INTER-LIGAND FREE ENERGY PREDICTED BY IDOCK:   -7.45 KCAL/MOL
REMARK 924 INTRA-LIGAND FREE ENERGY PREDICTED BY IDOCK:   -0.72 KCAL/MOL
REMARK 927      BINDING AFFINITY PREDICTED BY RF-SCORE:    0.00 PKD
ROOT
HETATM    1  C   UNL     1     -10.900  19.549  67.185  1.00  0.00    -0.555 C  
HETATM    2  C   UNL     1      -9.599  19.226  67.914  1.00  0.00    -0.333 C  
ENDROOT
BRANCH   2   3
HETATM    3  N   UNL     1      -8.377  19.452  67.121  1.00  0.00    -0.280 NA 
BRANCH   3   4
HETATM    4  C   UNL     1      -7.630  20.665  67.513  1.00  0.00    -0.297 C  
HETATM    5  C   UNL     1      -6.498  21.100  66.583  1.00  0.00    -0.349 C  
ENDBRANCH   3   4
BRANCH   3   6
HETATM    6  C   UNL     1      -7.487  18.265  67.132  1.00  0.00    -0.214 C  
BRANCH   6   7
HETATM    7  C   UNL     1      -7.760  17.230  66.028  1.00  0.00    -0.188 C  
BRANCH   7   8
HETATM    8  N   UNL     1      -8.638  16.160  66.468  1.00  0.00    -0.275 N  
HETATM    9  C   UNL     1      -9.889  15.990  65.911  1.00  0.00    -0.348 C  
HETATM   10  H   UNL     1      -8.324  15.523  67.201  1.00  0.00     0.000 HD 
HETATM   11  O   UNL     1     -10.340  16.733  65.049  1.00  0.00    -0.631 OA 
BRANCH   9  12
HETATM   12  C   UNL     1     -10.645  14.783  66.326  1.00  0.00    -0.306 A  
HETATM   13  C   UNL     1     -11.089  14.739  67.660  1.00  0.00    -0.311 A  
HETATM   14  C   UNL     1     -11.569  13.550  68.209  1.00  0.00    -0.346 A  
HETATM   15  C   UNL     1     -11.587  12.368  67.457  1.00  0.00    -0.365 A  
HETATM   16 CL   UNL     1     -12.039  13.546  69.874  1.00  0.00    -0.407 Cl 
HETATM   17  C   UNL     1     -11.236  12.444  66.104  1.00  0.00    -0.364 A  
HETATM   18  N   UNL     1     -12.116  11.168  67.968  1.00  0.00    -0.711 NA 
HETATM   19  H1  UNL     1     -12.128  10.307  67.421  1.00  0.00     0.000 HD 
HETATM   20  C   UNL     1     -10.749  13.631  65.531  1.00  0.00    -0.296 A  
HETATM   21  H2  UNL     1     -13.070  11.355  68.276  1.00  0.00     0.000 HD 
BRANCH  20  22
HETATM   22  O   UNL     1     -10.322  13.470  64.239  1.00  0.00    -0.406 OA 
HETATM   23  C   UNL     1     -10.711  12.263  63.591  1.00  0.00    -0.467 C  
ENDBRANCH  20  22
ENDBRANCH   9  12
ENDBRANCH   7   8
ENDBRANCH   6   7
ENDBRANCH   3   6
ENDBRANCH   2   3
TORSDOF 7
ENDMDL
MODEL       13
REMARK 921   NORMALIZED FREE ENERGY PREDICTED BY IDOCK:   -5.28 KCAL/MOL
REMARK 922        TOTAL FREE ENERGY PREDICTED BY IDOCK:   -8.15 KCAL/MOL
REMARK 923 INTER-LIGAND FREE ENERGY PREDICTED BY IDOCK:   -7.43 KCAL/MOL
REMARK 924 INTRA-LIGAND FREE ENERGY PREDICTED BY IDOCK:   -0.72 KCAL/MOL
REMARK 927      BINDING AFFINITY PREDICTED BY RF-SCORE:    0.00 PKD
ROOT
HETATM    1  C   UNL     1     -10.548  10.688  67.171  1.00  0.00    -0.312 C  
HETATM    2  C   UNL     1     -11.368  11.794  66.515  1.00  0.00    -0.305 C  
ENDROOT
BRANCH   2   3
HETATM    3  N   UNL     1     -11.040  12.049  65.101  1.00  0.00    -0.311 NA 
BRANCH   3   4
HETATM    4  C   UNL     1     -10.476  10.877  64.401  1.00  0.00    -0.333 C  
HETATM    5  C   UNL     1      -9.784  11.147  63.066  1.00  0.00    -0.384 C  
ENDBRANCH   3   4
BRANCH   3   6
HETATM    6  C   UNL     1     -12.202  12.592  64.355  1.00  0.00    -0.449 C  
BRANCH   6   7
HETATM    7  C   UNL     1     -12.193  14.115  64.144  1.00  0.00    -0.390 C  
BRANCH   7   8
HETATM    8  N   UNL     1     -11.315  14.805  65.073  1.00  0.00    -0.374 N  
HETATM    9  C   UNL     1     -11.053  16.153  64.937  1.00  0.00    -0.325 C  
HETATM   10  H   UNL     1     -10.885  14.284  65.837  1.00  0.00     0.000 HD 
HETATM   11  O   UNL     1     -11.512  16.832  64.027  1.00  0.00    -1.198 OA 
BRANCH   9  12
HETATM   12  C   UNL     1     -10.263  16.790  66.019  1.00  0.00    -0.361 A  
HETATM   13  C   UNL     1     -10.400  18.182  66.170  1.00  0.00    -0.394 A  
HETATM   14  C   UNL     1      -9.514  18.898  66.974  1.00  0.00    -0.310 A  
HETATM   15  C   UNL     1      -8.448  18.255  67.618  1.00  0.00    -0.255 A  
HETATM   16 CL   UNL     1      -9.695  20.616  67.066  1.00  0.00    -0.556 Cl 
HETATM   17  C   UNL     1      -8.379  16.859  67.541  1.00  0.00    -0.201 A  
HETATM   18  N   UNL     1      -7.571  18.944  68.477  1.00  0.00    -0.312 NA 
HETATM   19  H1  UNL     1      -6.795  18.476  68.945  1.00  0.00     0.000 HD 
HETATM   20  C   UNL     1      -9.262  16.118  66.737  1.00  0.00    -0.231 A  
HETATM   21  H2  UNL     1      -8.135  19.404  69.192  1.00  0.00     0.000 HD 
BRANCH  20  22
HETATM   22  O   UNL     1      -8.946  14.786  66.676  1.00  0.00    -0.256 OA 
HETATM   23  C   UNL     1      -8.319  14.232  67.828  1.00  0.00    -0.171 C  
ENDBRANCH  20  22
ENDBRANCH   9  12
ENDBRANCH   7   8
ENDBRANCH   6   7
ENDBRANCH   3   6
ENDBRANCH   2   3
TORSDOF 7
ENDMDL
MODEL       14
REMARK 921   NORMALIZED FREE ENERGY PREDICTED BY IDOCK:   -5.28 KCAL/MOL
REMARK 922        TOTAL FREE ENERGY PREDICTED BY IDOCK:   -8.15 KCAL/MOL
REMARK 923 INTER-LIGAND FREE ENERGY PREDICTED BY IDOCK:   -7.44 KCAL/MOL
REMARK 924 INTRA-LIGAND FREE ENERGY PREDICTED BY IDOCK:   -0.71 KCAL/MOL
REMARK 927      BINDING AFFINITY PREDICTED BY RF-SCORE:    0.00 PKD
ROOT
HETATM    1  C   UNL     1      -8.388  16.730  66.299  1.00  0.00    -0.353 C  
HETATM    2  C   UNL     1      -9.726  17.333  66.715  1.00  0.00    -0.281 C  
ENDROOT
BRANCH   2   3
HETATM    3  N   UNL     1      -9.732  17.959  68.050  1.00  0.00    -0.290 NA 
BRANCH   3   4
HETATM    4  C   UNL     1     -10.286  19.328  68.063  1.00  0.00    -0.408 C  
HETATM    5  C   UNL     1      -9.965  20.205  66.854  1.00  0.00    -0.600 C  
ENDBRANCH   3   4
BRANCH   3   6
HETATM    6  C   UNL     1     -10.419  17.109  69.054  1.00  0.00    -0.321 C  
BRANCH   6   7
HETATM    7  C   UNL     1     -11.366  16.045  68.475  1.00  0.00    -0.382 C  
BRANCH   7   8
HETATM    8  N   UNL     1     -11.699  15.008  69.436  1.00  0.00    -0.307 N  
HETATM    9  C   UNL     1     -11.949  13.713  69.029  1.00  0.00    -0.353 C  
HETATM   10  H   UNL     1     -11.749  15.241  70.428  1.00  0.00     0.000 HD 
HETATM   11  O   UNL     1     -11.934  13.370  67.855  1.00  0.00    -0.351 OA 
BRANCH   9  12
HETATM   12  C   UNL     1     -12.135  12.703  70.100  1.00  0.00    -0.368 A  
HETATM   13  C   UNL     1     -11.585  11.428  69.873  1.00  0.00    -0.402 A  
HETATM   14  C   UNL     1     -11.928  10.352  70.691  1.00  0.00    -0.351 A  
HETATM   15  C   UNL     1     -12.855  10.507  71.731  1.00  0.00    -0.454 A  
HETATM   16 CL   UNL     1     -11.269   8.796  70.319  1.00  0.00    -0.243 Cl 
HETATM   17  C   UNL     1     -13.320  11.797  72.010  1.00  0.00    -0.417 A  
HETATM   18  N   UNL     1     -13.179   9.452  72.604  1.00  0.00    -0.549 NA 
HETATM   19  H1  UNL     1     -13.853   9.565  73.360  1.00  0.00     0.000 HD 
HETATM   20  C   UNL     1     -12.986  12.896  71.199  1.00  0.00    -0.174 A  
HETATM   21  H2  UNL     1     -12.309   9.107  73.010  1.00  0.00     0.000 HD 
BRANCH  20  22
HETATM   22  O   UNL     1     -13.653  14.043  71.544  1.00  0.00    -0.342 OA 
HETATM   23  C   UNL     1     -13.221  14.691  72.736  1.00  0.00    -0.497 C  
ENDBRANCH  20  22
ENDBRANCH   9  12
ENDBRANCH   7   8
ENDBRANCH   6   7
ENDBRANCH   3   6
ENDBRANCH   2   3
TORSDOF 7
ENDMDL
MODEL       15
REMARK 921   NORMALIZED FREE ENERGY PREDICTED BY IDOCK:   -5.28 KCAL/MOL
REMARK 922        TOTAL FREE ENERGY PREDICTED BY IDOCK:   -8.15 KCAL/MOL
REMARK 923 INTER-LIGAND FREE ENERGY PREDICTED BY IDOCK:   -7.45 KCAL/MOL
REMARK 924 INTRA-LIGAND FREE ENERGY PREDICTED BY IDOCK:   -0.70 KCAL/MOL
REMARK 927      BINDING AFFINITY PREDICTED BY RF-SCORE:    0.00 PKD
ROOT
HETATM    1  C   UNL     1      -9.597   8.478  72.210  1.00  0.00    -0.377 C  
HETATM    2  C   UNL     1     -10.369   7.886  71.034  1.00  0.00    -0.201 C  
ENDROOT
BRANCH   2   3
HETATM    3  N   UNL     1     -11.435   8.752  70.498  1.00  0.00    -0.238 NA 
BRANCH   3   4
HETATM    4  C   UNL     1     -12.188   9.481  71.539  1.00  0.00    -0.386 C  
HETATM    5  C   UNL     1     -13.503   8.852  71.996  1.00  0.00    -0.482 C  
ENDBRANCH   3   4
BRANCH   3   6
HETATM    6  C   UNL     1     -10.918   9.692  69.474  1.00  0.00    -0.208 C  
BRANCH   6   7
HETATM    7  C   UNL     1     -11.328  11.162  69.665  1.00  0.00    -0.294 C  
BRANCH   7   8
HETATM    8  N   UNL     1     -11.282  11.923  68.428  1.00  0.00    -0.235 N  
HETATM    9  C   UNL     1     -11.708  13.235  68.383  1.00  0.00    -0.354 C  
HETATM   10  H   UNL     1     -10.930  11.479  67.580  1.00  0.00     0.000 HD 
HETATM   11  O   UNL     1     -12.167  13.820  69.355  1.00  0.00    -0.334 OA 
BRANCH   9  12
HETATM   12  C   UNL     1     -11.483  13.964  67.110  1.00  0.00    -0.370 A  
HETATM   13  C   UNL     1     -10.964  15.268  67.209  1.00  0.00    -0.327 A  
HETATM   14  C   UNL     1     -10.966  16.117  66.102  1.00  0.00    -0.036 A  
HETATM   15  C   UNL     1     -11.517  15.704  64.881  1.00  0.00    -0.245 A  
HETATM   16 CL   UNL     1     -10.375  17.730  66.305  1.00  0.00    -0.374 Cl 
HETATM   17  C   UNL     1     -11.940  14.375  64.767  1.00  0.00    -0.455 A  
HETATM   18  N   UNL     1     -11.484  16.520  63.735  1.00  0.00    -1.411 NA 
HETATM   19  H1  UNL     1     -11.885  16.220  62.847  1.00  0.00     0.000 HD 
HETATM   20  C   UNL     1     -11.946  13.502  65.869  1.00  0.00    -0.406 A  
HETATM   21  H2  UNL     1     -10.512  16.780  63.567  1.00  0.00     0.000 HD 
BRANCH  20  22
HETATM   22  O   UNL     1     -12.531  12.293  65.595  1.00  0.00    -0.591 OA 
HETATM   23  C   UNL     1     -12.245  11.727  64.320  1.00  0.00    -0.128 C  
ENDBRANCH  20  22
ENDBRANCH   9  12
ENDBRANCH   7   8
ENDBRANCH   6   7
ENDBRANCH   3   6
ENDBRANCH   2   3
TORSDOF 7
ENDMDL
MODEL       16
REMARK 921   NORMALIZED FREE ENERGY PREDICTED BY IDOCK:   -5.27 KCAL/MOL
REMARK 922        TOTAL FREE ENERGY PREDICTED BY IDOCK:   -8.14 KCAL/MOL
REMARK 923 INTER-LIGAND FREE ENERGY PREDICTED BY IDOCK:   -7.49 KCAL/MOL
REMARK 924 INTRA-LIGAND FREE ENERGY PREDICTED BY IDOCK:   -0.65 KCAL/MOL
REMARK 927      BINDING AFFINITY PREDICTED BY RF-SCORE:    0.00 PKD
ROOT
HETATM    1  C   UNL     1     -13.050  10.654  71.810  1.00  0.00    -0.571 C  
HETATM    2  C   UNL     1     -12.342   9.305  71.732  1.00  0.00    -0.379 C  
ENDROOT
BRANCH   2   3
HETATM    3  N   UNL     1     -11.184   9.267  70.821  1.00  0.00    -0.268 NA 
BRANCH   3   4
HETATM    4  C   UNL     1     -10.782   7.902  70.427  1.00  0.00    -0.233 C  
HETATM    5  C   UNL     1     -11.715   6.767  70.846  1.00  0.00    -0.424 C  
ENDBRANCH   3   4
BRANCH   3   6
HETATM    6  C   UNL     1     -11.397  10.115  69.623  1.00  0.00    -0.235 C  
BRANCH   6   7
HETATM    7  C   UNL     1     -10.168  10.909  69.153  1.00  0.00    -0.195 C  
BRANCH   7   8
HETATM    8  N   UNL     1     -10.489  11.886  68.126  1.00  0.00    -0.200 N  
HETATM    9  C   UNL     1      -9.633  12.931  67.844  1.00  0.00    -0.215 C  
HETATM   10  H   UNL     1     -11.362  11.797  67.606  1.00  0.00     0.000 HD 
HETATM   11  O   UNL     1      -8.584  13.113  68.447  1.00  0.00    -0.172 OA 
BRANCH   9  12
HETATM   12  C   UNL     1      -9.984  13.783  66.682  1.00  0.00    -0.279 A  
HETATM   13  C   UNL     1      -9.848  15.173  66.850  1.00  0.00    -0.243 A  
HETATM   14  C   UNL     1     -10.396  16.057  65.920  1.00  0.00    -0.368 A  
HETATM   15  C   UNL     1     -11.124  15.583  64.821  1.00  0.00    -0.407 A  
HETATM   16 CL   UNL     1     -10.250  17.755  66.218  1.00  0.00    -0.366 Cl 
HETATM   17  C   UNL     1     -11.170  14.200  64.610  1.00  0.00    -0.371 A  
HETATM   18  N   UNL     1     -11.641  16.449  63.840  1.00  0.00    -1.602 NA 
HETATM   19  H1  UNL     1     -12.171  16.104  63.040  1.00  0.00     0.000 HD 
HETATM   20  C   UNL     1     -10.624  13.291  65.534  1.00  0.00    -0.287 A  
HETATM   21  H2  UNL     1     -10.868  17.010  63.482  1.00  0.00     0.000 HD 
BRANCH  20  22
HETATM   22  O   UNL     1     -10.897  11.983  65.228  1.00  0.00    -0.277 OA 
HETATM   23  C   UNL     1     -11.183  11.700  63.862  1.00  0.00    -0.397 C  
ENDBRANCH  20  22
ENDBRANCH   9  12
ENDBRANCH   7   8
ENDBRANCH   6   7
ENDBRANCH   3   6
ENDBRANCH   2   3
TORSDOF 7
ENDMDL
MODEL       17
REMARK 921   NORMALIZED FREE ENERGY PREDICTED BY IDOCK:   -5.26 KCAL/MOL
REMARK 922        TOTAL FREE ENERGY PREDICTED BY IDOCK:   -8.13 KCAL/MOL
REMARK 923 INTER-LIGAND FREE ENERGY PREDICTED BY IDOCK:   -7.45 KCAL/MOL
REMARK 924 INTRA-LIGAND FREE ENERGY PREDICTED BY IDOCK:   -0.68 KCAL/MOL
REMARK 927      BINDING AFFINITY PREDICTED BY RF-SCORE:    0.00 PKD
ROOT
HETATM    1  C   UNL     1      -8.737   8.489  72.039  1.00  0.00    -0.265 C  
HETATM    2  C   UNL     1      -9.999   8.561  71.185  1.00  0.00    -0.207 C  
ENDROOT
BRANCH   2   3
HETATM    3  N   UNL     1      -9.758   8.624  69.732  1.00  0.00    -0.174 NA 
BRANCH   3   4
HETATM    4  C   UNL     1     -10.458   7.572  68.967  1.00  0.00    -0.208 C  
HETATM    5  C   UNL     1     -11.017   6.400  69.772  1.00  0.00    -0.417 C  
ENDBRANCH   3   4
BRANCH   3   6
HETATM    6  C   UNL     1     -10.069   9.965  69.179  1.00  0.00    -0.200 C  
BRANCH   6   7
HETATM    7  C   UNL     1     -11.384  10.061  68.389  1.00  0.00    -0.051 C  
BRANCH   7   8
HETATM    8  N   UNL     1     -11.346  11.084  67.358  1.00  0.00    -0.288 N  
HETATM    9  C   UNL     1     -11.707  12.387  67.634  1.00  0.00    -0.346 C  
HETATM   10  H   UNL     1     -11.047  10.835  66.415  1.00  0.00     0.000 HD 
HETATM   11  O   UNL     1     -12.102  12.749  68.735  1.00  0.00    -0.276 OA 
BRANCH   9  12
HETATM   12  C   UNL     1     -11.493  13.380  66.553  1.00  0.00    -0.372 A  
HETATM   13  C   UNL     1     -10.798  14.554  66.898  1.00  0.00    -0.305 A  
HETATM   14  C   UNL     1     -10.778  15.646  66.031  1.00  0.00    -0.317 A  
HETATM   15  C   UNL     1     -11.479  15.613  64.818  1.00  0.00    -0.283 A  
HETATM   16 CL   UNL     1      -9.962  17.084  66.542  1.00  0.00    -0.300 Cl 
HETATM   17  C   UNL     1     -12.083  14.409  64.440  1.00  0.00    -0.491 A  
HETATM   18  N   UNL     1     -11.431  16.680  63.901  1.00  0.00    -1.469 NA 
HETATM   19  H1  UNL     1     -11.941  16.656  63.018  1.00  0.00     0.000 HD 
HETATM   20  C   UNL     1     -12.115  13.295  65.298  1.00  0.00    -0.418 A  
HETATM   21  H2  UNL     1     -10.451  16.865  63.690  1.00  0.00     0.000 HD 
BRANCH  20  22
HETATM   22  O   UNL     1     -12.876  12.264  64.814  1.00  0.00    -0.661 OA 
HETATM   23  C   UNL     1     -12.752  11.985  63.423  1.00  0.00    -0.398 C  
ENDBRANCH  20  22
ENDBRANCH   9  12
ENDBRANCH   7   8
ENDBRANCH   6   7
ENDBRANCH   3   6
ENDBRANCH   2   3
TORSDOF 7
ENDMDL
MODEL       18
REMARK 921   NORMALIZED FREE ENERGY PREDICTED BY IDOCK:   -5.25 KCAL/MOL
REMARK 922        TOTAL FREE ENERGY PREDICTED BY IDOCK:   -8.11 KCAL/MOL
REMARK 923 INTER-LIGAND FREE ENERGY PREDICTED BY IDOCK:   -7.26 KCAL/MOL
REMARK 924 INTRA-LIGAND FREE ENERGY PREDICTED BY IDOCK:   -0.85 KCAL/MOL
REMARK 927      BINDING AFFINITY PREDICTED BY RF-SCORE:    0.00 PKD
ROOT
HETATM    1  C   UNL     1     -10.558   5.840  70.662  1.00  0.00    -0.346 C  
HETATM    2  C   UNL     1     -10.604   7.360  70.542  1.00  0.00    -0.224 C  
ENDROOT
BRANCH   2   3
HETATM    3  N   UNL     1     -11.917   7.962  70.837  1.00  0.00    -0.246 NA 
BRANCH   3   4
HETATM    4  C   UNL     1     -12.790   7.108  71.667  1.00  0.00    -0.379 C  
HETATM    5  C   UNL     1     -14.292   7.375  71.577  1.00  0.00    -0.594 C  
ENDBRANCH   3   4
BRANCH   3   6
HETATM    6  C   UNL     1     -11.782   9.311  71.439  1.00  0.00    -0.361 C  
BRANCH   6   7
HETATM    7  C   UNL     1     -12.474  10.447  70.667  1.00  0.00    -0.348 C  
BRANCH   7   8
HETATM    8  N   UNL     1     -12.089  10.491  69.267  1.00  0.00    -0.544 N  
HETATM    9  C   UNL     1     -11.750  11.682  68.658  1.00  0.00    -0.325 C  
HETATM   10  H   UNL     1     -12.069   9.626  68.726  1.00  0.00     0.000 HD 
HETATM   11  O   UNL     1     -11.780  12.759  69.240  1.00  0.00    -0.289 OA 
BRANCH   9  12
HETATM   12  C   UNL     1     -11.232  11.596  67.271  1.00  0.00    -0.365 A  
HETATM   13  C   UNL     1     -11.705  12.556  66.356  1.00  0.00    -0.458 A  
HETATM   14  C   UNL     1     -11.484  12.400  64.988  1.00  0.00    -0.332 A  
HETATM   15  C   UNL     1     -10.821  11.269  64.492  1.00  0.00    -0.284 A  
HETATM   16 CL   UNL     1     -12.146  13.580  63.910  1.00  0.00    -0.513 Cl 
HETATM   17  C   UNL     1     -10.270  10.372  65.414  1.00  0.00    -0.329 A  
HETATM   18  N   UNL     1     -10.538  11.113  63.122  1.00  0.00    -0.779 NA 
HETATM   19  H1  UNL     1     -10.056  10.290  62.761  1.00  0.00     0.000 HD 
HETATM   20  C   UNL     1     -10.480  10.510  66.797  1.00  0.00    -0.242 A  
HETATM   21  H2  UNL     1     -10.020  11.936  62.816  1.00  0.00     0.000 HD 
BRANCH  20  22
HETATM   22  O   UNL     1      -9.989   9.458  67.524  1.00  0.00    -0.176 OA 
HETATM   23  C   UNL     1      -8.700   9.636  68.104  1.00  0.00    -0.119 C  
ENDBRANCH  20  22
ENDBRANCH   9  12
ENDBRANCH   7   8
ENDBRANCH   6   7
ENDBRANCH   3   6
ENDBRANCH   2   3
TORSDOF 7
ENDMDL
MODEL       19
REMARK 921   NORMALIZED FREE ENERGY PREDICTED BY IDOCK:   -5.23 KCAL/MOL
REMARK 922        TOTAL FREE ENERGY PREDICTED BY IDOCK:   -8.09 KCAL/MOL
REMARK 923 INTER-LIGAND FREE ENERGY PREDICTED BY IDOCK:   -7.66 KCAL/MOL
REMARK 924 INTRA-LIGAND FREE ENERGY PREDICTED BY IDOCK:   -0.43 KCAL/MOL
REMARK 927      BINDING AFFINITY PREDICTED BY RF-SCORE:    0.00 PKD
ROOT
HETATM    1  C   UNL     1     -13.360   9.601  71.966  1.00  0.00    -0.547 C  
HETATM    2  C   UNL     1     -12.091   8.765  72.099  1.00  0.00    -0.371 C  
ENDROOT
BRANCH   2   3
HETATM    3  N   UNL     1     -11.054   9.053  71.090  1.00  0.00    -0.275 NA 
BRANCH   3   4
HETATM    4  C   UNL     1     -10.873   7.973  70.099  1.00  0.00    -0.242 C  
HETATM    5  C   UNL     1     -11.691   6.701  70.318  1.00  0.00    -0.432 C  
ENDBRANCH   3   4
BRANCH   3   6
HETATM    6  C   UNL     1     -11.292  10.350  70.411  1.00  0.00    -0.337 C  
BRANCH   6   7
HETATM    7  C   UNL     1     -10.393  10.629  69.195  1.00  0.00    -0.221 C  
BRANCH   7   8
HETATM    8  N   UNL     1     -10.864  11.745  68.393  1.00  0.00    -0.211 N  
HETATM    9  C   UNL     1      -9.999  12.734  67.971  1.00  0.00    -0.225 C  
HETATM   10  H   UNL     1     -11.850  11.798  68.138  1.00  0.00     0.000 HD 
HETATM   11  O   UNL     1      -8.810  12.748  68.264  1.00  0.00    -0.186 OA 
BRANCH   9  12
HETATM   12  C   UNL     1     -10.550  13.746  67.037  1.00  0.00    -0.278 A  
HETATM   13  C   UNL     1     -11.172  13.263  65.872  1.00  0.00    -0.309 A  
HETATM   14  C   UNL     1     -11.481  14.128  64.822  1.00  0.00    -0.383 A  
HETATM   15  C   UNL     1     -11.147  15.488  64.890  1.00  0.00    -0.416 A  
HETATM   16 CL   UNL     1     -12.185  13.462  63.389  1.00  0.00    -0.530 Cl 
HETATM   17  C   UNL     1     -10.620  15.976  66.091  1.00  0.00    -0.302 A  
HETATM   18  N   UNL     1     -11.496  16.392  63.870  1.00  0.00    -1.618 NA 
HETATM   19  H1  UNL     1     -11.253  17.382  63.919  1.00  0.00     0.000 HD 
HETATM   20  C   UNL     1     -10.301  15.122  67.161  1.00  0.00    -0.263 A  
HETATM   21  H2  UNL     1     -12.503  16.326  63.726  1.00  0.00     0.000 HD 
BRANCH  20  22
HETATM   22  O   UNL     1      -9.660  15.762  68.190  1.00  0.00    -0.198 OA 
HETATM   23  C   UNL     1     -10.487  16.489  69.094  1.00  0.00    -0.317 C  
ENDBRANCH  20  22
ENDBRANCH   9  12
ENDBRANCH   7   8
ENDBRANCH   6   7
ENDBRANCH   3   6
ENDBRANCH   2   3
TORSDOF 7
ENDMDL
MODEL       20
REMARK 921   NORMALIZED FREE ENERGY PREDICTED BY IDOCK:   -5.23 KCAL/MOL
REMARK 922        TOTAL FREE ENERGY PREDICTED BY IDOCK:   -8.08 KCAL/MOL
REMARK 923 INTER-LIGAND FREE ENERGY PREDICTED BY IDOCK:   -7.54 KCAL/MOL
REMARK 924 INTRA-LIGAND FREE ENERGY PREDICTED BY IDOCK:   -0.54 KCAL/MOL
REMARK 927      BINDING AFFINITY PREDICTED BY RF-SCORE:    0.00 PKD
ROOT
HETATM    1  C   UNL     1     -13.770  13.274  72.213  1.00  0.00    -0.686 C  
HETATM    2  C   UNL     1     -13.953  14.788  72.219  1.00  0.00    -0.496 C  
ENDROOT
BRANCH   2   3
HETATM    3  N   UNL     1     -12.778  15.553  71.761  1.00  0.00    -0.392 NA 
BRANCH   3   4
HETATM    4  C   UNL     1     -12.036  16.214  72.854  1.00  0.00    -0.541 C  
HETATM    5  C   UNL     1     -12.425  15.820  74.278  1.00  0.00    -0.800 C  
ENDBRANCH   3   4
BRANCH   3   6
HETATM    6  C   UNL     1     -11.865  14.721  70.940  1.00  0.00    -0.322 C  
BRANCH   6   7
HETATM    7  C   UNL     1     -12.207  14.651  69.443  1.00  0.00    -0.235 C  
BRANCH   7   8
HETATM    8  N   UNL     1     -11.577  13.526  68.774  1.00  0.00    -0.300 N  
HETATM    9  C   UNL     1     -11.715  13.337  67.414  1.00  0.00    -0.373 C  
HETATM   10  H   UNL     1     -11.024  12.865  69.320  1.00  0.00     0.000 HD 
HETATM   11  O   UNL     1     -12.387  14.074  66.705  1.00  0.00    -0.451 OA 
BRANCH   9  12
HETATM   12  C   UNL     1     -10.914  12.245  66.809  1.00  0.00    -0.321 A  
HETATM   13  C   UNL     1     -10.580  12.381  65.450  1.00  0.00    -0.316 A  
HETATM   14  C   UNL     1     -10.063  11.300  64.735  1.00  0.00    -0.285 A  
HETATM   15  C   UNL     1      -9.901  10.048  65.344  1.00  0.00    -0.314 A  
HETATM   16 CL   UNL     1      -9.734  11.513  63.050  1.00  0.00    -0.406 Cl 
HETATM   17  C   UNL     1     -10.144   9.949  66.719  1.00  0.00    -0.292 A  
HETATM   18  N   UNL     1      -9.333   8.956  64.662  1.00  0.00    -0.333 NA 
HETATM   19  H1  UNL     1      -9.216   8.045  65.105  1.00  0.00     0.000 HD 
HETATM   20  C   UNL     1     -10.664  11.026  67.458  1.00  0.00    -0.244 A  
HETATM   21  H2  UNL     1      -8.423   9.250  64.308  1.00  0.00     0.000 HD 
BRANCH  20  22
HETATM   22  O   UNL     1     -10.971  10.693  68.752  1.00  0.00    -0.213 OA 
HETATM   23  C   UNL     1      -9.992   9.937  69.459  1.00  0.00    -0.222 C  
ENDBRANCH  20  22
ENDBRANCH   9  12
ENDBRANCH   7   8
ENDBRANCH   6   7
ENDBRANCH   3   6
ENDBRANCH   2   3
TORSDOF 7
ENDMDL
MODEL       21
REMARK 921   NORMALIZED FREE ENERGY PREDICTED BY IDOCK:   -5.22 KCAL/MOL
REMARK 922        TOTAL FREE ENERGY PREDICTED BY IDOCK:   -8.07 KCAL/MOL
REMARK 923 INTER-LIGAND FREE ENERGY PREDICTED BY IDOCK:   -7.53 KCAL/MOL
REMARK 924 INTRA-LIGAND FREE ENERGY PREDICTED BY IDOCK:   -0.54 KCAL/MOL
REMARK 927      BINDING AFFINITY PREDICTED BY RF-SCORE:    0.00 PKD
ROOT
HETATM    1  C   UNL     1     -10.789   7.591  73.099  1.00  0.00    -0.448 C  
HETATM    2  C   UNL     1     -11.019   7.781  71.603  1.00  0.00    -0.235 C  
ENDROOT
BRANCH   2   3
HETATM    3  N   UNL     1     -12.014   8.813  71.258  1.00  0.00    -0.294 NA 
BRANCH   3   4
HETATM    4  C   UNL     1     -13.194   8.822  72.146  1.00  0.00    -0.414 C  
HETATM    5  C   UNL     1     -14.402   8.009  71.683  1.00  0.00    -0.581 C  
ENDBRANCH   3   4
BRANCH   3   6
HETATM    6  C   UNL     1     -11.404  10.164  71.188  1.00  0.00    -0.249 C  
BRANCH   6   7
HETATM    7  C   UNL     1     -12.180  11.192  70.350  1.00  0.00    -0.369 C  
BRANCH   7   8
HETATM    8  N   UNL     1     -12.061  10.957  68.922  1.00  0.00    -0.476 N  
HETATM    9  C   UNL     1     -11.487  11.897  68.090  1.00  0.00    -0.320 C  
HETATM   10  H   UNL     1     -12.408  10.082  68.527  1.00  0.00     0.000 HD 
HETATM   11  O   UNL     1     -11.076  12.978  68.491  1.00  0.00    -0.240 OA 
BRANCH   9  12
HETATM   12  C   UNL     1     -11.282  11.498  66.676  1.00  0.00    -0.336 A  
HETATM   13  C   UNL     1     -10.389  10.437  66.439  1.00  0.00    -0.278 A  
HETATM   14  C   UNL     1      -9.935  10.167  65.148  1.00  0.00    -0.309 A  
HETATM   15  C   UNL     1     -10.329  10.967  64.066  1.00  0.00    -0.349 A  
HETATM   16 CL   UNL     1      -8.787   8.891  64.932  1.00  0.00    -0.198 Cl 
HETATM   17  C   UNL     1     -11.293  11.956  64.297  1.00  0.00    -0.425 A  
HETATM   18  N   UNL     1      -9.930  10.685  62.747  1.00  0.00    -0.716 NA 
HETATM   19  H1  UNL     1     -10.216  11.267  61.960  1.00  0.00     0.000 HD 
HETATM   20  C   UNL     1     -11.763  12.244  65.590  1.00  0.00    -0.382 A  
HETATM   21  H2  UNL     1     -10.201   9.724  62.539  1.00  0.00     0.000 HD 
BRANCH  20  22
HETATM   22  O   UNL     1     -12.588  13.338  65.631  1.00  0.00    -0.464 OA 
HETATM   23  C   UNL     1     -12.213  14.444  64.815  1.00  0.00    -0.446 C  
ENDBRANCH  20  22
ENDBRANCH   9  12
ENDBRANCH   7   8
ENDBRANCH   6   7
ENDBRANCH   3   6
ENDBRANCH   2   3
TORSDOF 7
ENDMDL
MODEL       22
REMARK 921   NORMALIZED FREE ENERGY PREDICTED BY IDOCK:   -5.21 KCAL/MOL
REMARK 922        TOTAL FREE ENERGY PREDICTED BY IDOCK:   -8.05 KCAL/MOL
REMARK 923 INTER-LIGAND FREE ENERGY PREDICTED BY IDOCK:   -7.31 KCAL/MOL
REMARK 924 INTRA-LIGAND FREE ENERGY PREDICTED BY IDOCK:   -0.74 KCAL/MOL
REMARK 927      BINDING AFFINITY PREDICTED BY RF-SCORE:    0.00 PKD
ROOT
HETATM    1  C   UNL     1     -14.369   8.278  71.823  1.00  0.00    -0.574 C  
HETATM    2  C   UNL     1     -12.956   7.744  71.611  1.00  0.00    -0.345 C  
ENDROOT
BRANCH   2   3
HETATM    3  N   UNL     1     -11.897   8.512  72.291  1.00  0.00    -0.379 NA 
BRANCH   3   4
HETATM    4  C   UNL     1     -10.952   7.675  73.057  1.00  0.00    -0.400 C  
HETATM    5  C   UNL     1     -10.996   6.172  72.783  1.00  0.00    -0.294 C  
ENDBRANCH   3   4
BRANCH   3   6
HETATM    6  C   UNL     1     -11.167   9.396  71.350  1.00  0.00    -0.381 C  
BRANCH   6   7
HETATM    7  C   UNL     1     -10.761   8.743  70.018  1.00  0.00    -0.228 C  
BRANCH   7   8
HETATM    8  N   UNL     1     -11.168   9.524  68.863  1.00  0.00    -0.457 N  
HETATM    9  C   UNL     1     -10.233  10.088  68.019  1.00  0.00    -0.181 C  
HETATM   10  H   UNL     1     -12.162   9.658  68.673  1.00  0.00     0.000 HD 
HETATM   11  O   UNL     1      -9.027   9.992  68.202  1.00  0.00    -0.121 OA 
BRANCH   9  12
HETATM   12  C   UNL     1     -10.753  10.740  66.791  1.00  0.00    -0.291 A  
HETATM   13  C   UNL     1     -10.206  10.316  65.567  1.00  0.00    -0.308 A  
HETATM   14  C   UNL     1     -10.434  11.042  64.398  1.00  0.00    -0.354 A  
HETATM   15  C   UNL     1     -11.181  12.228  64.424  1.00  0.00    -0.334 A  
HETATM   16 CL   UNL     1      -9.680  10.505  62.937  1.00  0.00    -0.342 Cl 
HETATM   17  C   UNL     1     -11.801  12.588  65.626  1.00  0.00    -0.493 A  
HETATM   18  N   UNL     1     -11.472  12.951  63.253  1.00  0.00    -0.778 NA 
HETATM   19  H1  UNL     1     -12.015  13.815  63.272  1.00  0.00     0.000 HD 
HETATM   20  C   UNL     1     -11.585  11.870  66.815  1.00  0.00    -0.268 A  
HETATM   21  H2  UNL     1     -11.923  12.313  62.598  1.00  0.00     0.000 HD 
BRANCH  20  22
HETATM   22  O   UNL     1     -12.158  12.459  67.912  1.00  0.00    -0.428 OA 
HETATM   23  C   UNL     1     -11.686  13.760  68.249  1.00  0.00    -0.359 C  
ENDBRANCH  20  22
ENDBRANCH   9  12
ENDBRANCH   7   8
ENDBRANCH   6   7
ENDBRANCH   3   6
ENDBRANCH   2   3
TORSDOF 7
ENDMDL
MODEL       23
REMARK 921   NORMALIZED FREE ENERGY PREDICTED BY IDOCK:   -5.20 KCAL/MOL
REMARK 922        TOTAL FREE ENERGY PREDICTED BY IDOCK:   -8.04 KCAL/MOL
REMARK 923 INTER-LIGAND FREE ENERGY PREDICTED BY IDOCK:   -6.97 KCAL/MOL
REMARK 924 INTRA-LIGAND FREE ENERGY PREDICTED BY IDOCK:   -1.07 KCAL/MOL
REMARK 927      BINDING AFFINITY PREDICTED BY RF-SCORE:    0.00 PKD
ROOT
HETATM    1  C   UNL     1      -9.609  11.250  65.590  1.00  0.00    -0.260 C  
HETATM    2  C   UNL     1     -10.417  12.432  65.063  1.00  0.00    -0.294 C  
ENDROOT
BRANCH   2   3
HETATM    3  N   UNL     1     -10.216  13.694  65.799  1.00  0.00    -0.301 NA 
BRANCH   3   4
HETATM    4  C   UNL     1     -11.452  14.480  65.980  1.00  0.00    -0.348 C  
HETATM    5  C   UNL     1     -12.711  13.938  65.305  1.00  0.00    -0.485 C  
ENDBRANCH   3   4
BRANCH   3   6
HETATM    6  C   UNL     1      -9.545  13.469  67.104  1.00  0.00    -0.241 C  
BRANCH   6   7
HETATM    7  C   UNL     1     -10.392  13.802  68.343  1.00  0.00    -0.247 C  
BRANCH   7   8
HETATM    8  N   UNL     1     -10.538  12.672  69.244  1.00  0.00    -0.436 N  
HETATM    9  C   UNL     1     -11.488  11.697  69.015  1.00  0.00    -0.294 C  
HETATM   10  H   UNL     1      -9.928  12.598  70.058  1.00  0.00     0.000 HD 
HETATM   11  O   UNL     1     -12.270  11.737  68.075  1.00  0.00    -0.518 OA 
BRANCH   9  12
HETATM   12  C   UNL     1     -11.455  10.514  69.910  1.00  0.00    -0.384 A  
HETATM   13  C   UNL     1     -12.642  10.208  70.600  1.00  0.00    -0.353 A  
HETATM   14  C   UNL     1     -12.635   9.288  71.649  1.00  0.00    -0.365 A  
HETATM   15  C   UNL     1     -11.442   8.677  72.061  1.00  0.00    -0.367 A  
HETATM   16 CL   UNL     1     -14.113   9.003  72.501  1.00  0.00    -0.508 Cl 
HETATM   17  C   UNL     1     -10.288   8.914  71.306  1.00  0.00    -0.355 A  
HETATM   18  N   UNL     1     -11.415   7.707  73.079  1.00  0.00    -0.609 NA 
HETATM   19  H1  UNL     1     -10.547   7.263  73.379  1.00  0.00     0.000 HD 
HETATM   20  C   UNL     1     -10.273   9.837  70.245  1.00  0.00    -0.289 A  
HETATM   21  H2  UNL     1     -12.070   6.968  72.822  1.00  0.00     0.000 HD 
BRANCH  20  22
HETATM   22  O   UNL     1      -9.021  10.039  69.725  1.00  0.00    -0.207 OA 
HETATM   23  C   UNL     1      -8.303   8.873  69.333  1.00  0.00    -0.112 C  
ENDBRANCH  20  22
ENDBRANCH   9  12
ENDBRANCH   7   8
ENDBRANCH   6   7
ENDBRANCH   3   6
ENDBRANCH   2   3
TORSDOF 7
ENDMDL
MODEL       24
REMARK 921   NORMALIZED FREE ENERGY PREDICTED BY IDOCK:   -5.18 KCAL/MOL
REMARK 922        TOTAL FREE ENERGY PREDICTED BY IDOCK:   -8.01 KCAL/MOL
REMARK 923 INTER-LIGAND FREE ENERGY PREDICTED BY IDOCK:   -7.01 KCAL/MOL
REMARK 924 INTRA-LIGAND FREE ENERGY PREDICTED BY IDOCK:   -1.00 KCAL/MOL
REMARK 927      BINDING AFFINITY PREDICTED BY RF-SCORE:    0.00 PKD
ROOT
HETATM    1  C   UNL     1      -9.462  10.813  62.756  1.00  0.00    -0.358 C  
HETATM    2  C   UNL     1     -10.123  12.061  63.334  1.00  0.00    -0.408 C  
ENDROOT
BRANCH   2   3
HETATM    3  N   UNL     1     -10.594  11.921  64.724  1.00  0.00    -0.285 NA 
BRANCH   3   4
HETATM    4  C   UNL     1     -11.971  12.408  64.937  1.00  0.00    -0.398 C  
HETATM    5  C   UNL     1     -12.120  13.719  65.708  1.00  0.00    -0.458 C  
ENDBRANCH   3   4
BRANCH   3   6
HETATM    6  C   UNL     1     -10.451  10.529  65.217  1.00  0.00    -0.162 C  
BRANCH   6   7
HETATM    7  C   UNL     1      -9.789  10.385  66.597  1.00  0.00    -0.202 C  
BRANCH   7   8
HETATM    8  N   UNL     1     -10.693  10.704  67.689  1.00  0.00    -0.246 N  
HETATM    9  C   UNL     1     -10.518  11.842  68.449  1.00  0.00    -0.217 C  
HETATM   10  H   UNL     1     -11.469  10.075  67.897  1.00  0.00     0.000 HD 
HETATM   11  O   UNL     1      -9.593  12.625  68.273  1.00  0.00    -0.214 OA 
BRANCH   9  12
HETATM   12  C   UNL     1     -11.577  12.149  69.441  1.00  0.00    -0.381 A  
HETATM   13  C   UNL     1     -11.920  13.504  69.604  1.00  0.00    -0.397 A  
HETATM   14  C   UNL     1     -12.705  13.911  70.684  1.00  0.00    -0.281 A  
HETATM   15  C   UNL     1     -13.136  12.989  71.647  1.00  0.00    -0.347 A  
HETATM   16 CL   UNL     1     -13.037  15.599  70.865  1.00  0.00    -0.515 Cl 
HETATM   17  C   UNL     1     -12.873  11.632  71.422  1.00  0.00    -0.461 A  
HETATM   18  N   UNL     1     -13.972  13.363  72.715  1.00  0.00    -0.663 NA 
HETATM   19  H1  UNL     1     -14.286  12.692  73.416  1.00  0.00     0.000 HD 
HETATM   20  C   UNL     1     -12.085  11.200  70.341  1.00  0.00    -0.385 A  
HETATM   21  H2  UNL     1     -14.799  13.811  72.320  1.00  0.00     0.000 HD 
BRANCH  20  22
HETATM   22  O   UNL     1     -11.818   9.856  70.373  1.00  0.00    -0.267 OA 
HETATM   23  C   UNL     1     -12.133   9.178  71.584  1.00  0.00    -0.362 C  
ENDBRANCH  20  22
ENDBRANCH   9  12
ENDBRANCH   7   8
ENDBRANCH   6   7
ENDBRANCH   3   6
ENDBRANCH   2   3
TORSDOF 7
ENDMDL
MODEL       25
REMARK 921   NORMALIZED FREE ENERGY PREDICTED BY IDOCK:   -5.17 KCAL/MOL
REMARK 922        TOTAL FREE ENERGY PREDICTED BY IDOCK:   -8.01 KCAL/MOL
REMARK 923 INTER-LIGAND FREE ENERGY PREDICTED BY IDOCK:   -7.34 KCAL/MOL
REMARK 924 INTRA-LIGAND FREE ENERGY PREDICTED BY IDOCK:   -0.67 KCAL/MOL
REMARK 927      BINDING AFFINITY PREDICTED BY RF-SCORE:    0.00 PKD
ROOT
HETATM    1  C   UNL     1      -9.547  10.553  63.391  1.00  0.00    -0.376 C  
HETATM    2  C   UNL     1     -10.256  11.316  64.506  1.00  0.00    -0.314 C  
ENDROOT
BRANCH   2   3
HETATM    3  N   UNL     1     -10.082  10.743  65.853  1.00  0.00    -0.247 NA 
BRANCH   3   4
HETATM    4  C   UNL     1      -9.903   9.277  65.857  1.00  0.00    -0.265 C  
HETATM    5  C   UNL     1      -9.092   8.691  67.011  1.00  0.00    -0.165 C  
ENDBRANCH   3   4
BRANCH   3   6
HETATM    6  C   UNL     1      -8.981  11.404  66.595  1.00  0.00    -0.181 C  
BRANCH   6   7
HETATM    7  C   UNL     1      -9.416  12.522  67.558  1.00  0.00    -0.185 C  
BRANCH   7   8
HETATM    8  N   UNL     1     -10.021  12.010  68.775  1.00  0.00    -0.395 N  
HETATM    9  C   UNL     1     -11.384  11.815  68.867  1.00  0.00    -0.267 C  
HETATM   10  H   UNL     1      -9.427  11.791  69.576  1.00  0.00     0.000 HD 
HETATM   11  O   UNL     1     -12.157  12.083  67.956  1.00  0.00    -0.514 OA 
BRANCH   9  12
HETATM   12  C   UNL     1     -11.880  11.153  70.098  1.00  0.00    -0.449 A  
HETATM   13  C   UNL     1     -11.716   9.758  70.178  1.00  0.00    -0.190 A  
HETATM   14  C   UNL     1     -12.376   9.022  71.162  1.00  0.00    -0.251 A  
HETATM   15  C   UNL     1     -13.245   9.649  72.066  1.00  0.00    -0.453 A  
HETATM   16 CL   UNL     1     -12.184   7.303  71.168  1.00  0.00    -0.371 Cl 
HETATM   17  C   UNL     1     -13.325  11.046  72.040  1.00  0.00    -0.393 A  
HETATM   18  N   UNL     1     -13.882   8.939  73.101  1.00  0.00    -1.176 NA 
HETATM   19  H1  UNL     1     -14.515   9.395  73.759  1.00  0.00     0.000 HD 
HETATM   20  C   UNL     1     -12.668  11.807  71.057  1.00  0.00    -0.275 A  
HETATM   21  H2  UNL     1     -13.160   8.463  73.642  1.00  0.00     0.000 HD 
BRANCH  20  22
HETATM   22  O   UNL     1     -12.985  13.139  71.107  1.00  0.00    -0.288 OA 
HETATM   23  C   UNL     1     -13.459  13.630  72.357  1.00  0.00    -0.584 C  
ENDBRANCH  20  22
ENDBRANCH   9  12
ENDBRANCH   7   8
ENDBRANCH   6   7
ENDBRANCH   3   6
ENDBRANCH   2   3
TORSDOF 7
ENDMDL
MODEL       26
REMARK 921   NORMALIZED FREE ENERGY PREDICTED BY IDOCK:   -5.17 KCAL/MOL
REMARK 922        TOTAL FREE ENERGY PREDICTED BY IDOCK:   -8.01 KCAL/MOL
REMARK 923 INTER-LIGAND FREE ENERGY PREDICTED BY IDOCK:   -7.03 KCAL/MOL
REMARK 924 INTRA-LIGAND FREE ENERGY PREDICTED BY IDOCK:   -0.97 KCAL/MOL
REMARK 927      BINDING AFFINITY PREDICTED BY RF-SCORE:    0.00 PKD
ROOT
HETATM    1  C   UNL     1      -7.301  15.743  67.097  1.00  0.00    -0.257 C  
HETATM    2  C   UNL     1      -7.178  17.135  66.486  1.00  0.00    -0.273 C  
ENDROOT
BRANCH   2   3
HETATM    3  N   UNL     1      -7.858  18.203  67.243  1.00  0.00    -0.219 NA 
BRANCH   3   4
HETATM    4  C   UNL     1      -6.946  19.249  67.745  1.00  0.00    -0.227 C  
HETATM    5  C   UNL     1      -6.840  19.392  69.263  1.00  0.00    -0.367 C  
ENDBRANCH   3   4
BRANCH   3   6
HETATM    6  C   UNL     1      -8.968  18.807  66.465  1.00  0.00    -0.319 C  
BRANCH   6   7
HETATM    7  C   UNL     1     -10.376  18.564  67.033  1.00  0.00    -0.399 C  
BRANCH   7   8
HETATM    8  N   UNL     1     -10.744  17.159  67.037  1.00  0.00    -0.215 N  
HETATM    9  C   UNL     1     -10.827  16.448  68.217  1.00  0.00    -0.347 C  
HETATM   10  H   UNL     1     -10.945  16.690  66.154  1.00  0.00     0.000 HD 
HETATM   11  O   UNL     1     -10.573  16.939  69.310  1.00  0.00    -0.336 OA 
BRANCH   9  12
HETATM   12  C   UNL     1     -11.352  15.063  68.125  1.00  0.00    -0.343 A  
HETATM   13  C   UNL     1     -11.716  14.441  69.333  1.00  0.00    -0.362 A  
HETATM   14  C   UNL     1     -11.967  13.069  69.375  1.00  0.00    -0.281 A  
HETATM   15  C   UNL     1     -11.826  12.277  68.228  1.00  0.00    -0.310 A  
HETATM   16 CL   UNL     1     -12.347  12.352  70.903  1.00  0.00    -0.438 Cl 
HETATM   17  C   UNL     1     -11.560  12.920  67.014  1.00  0.00    -0.419 A  
HETATM   18  N   UNL     1     -12.125  10.902  68.231  1.00  0.00    -0.810 NA 
HETATM   19  H1  UNL     1     -12.022  10.325  67.396  1.00  0.00     0.000 HD 
HETATM   20  C   UNL     1     -11.304  14.301  66.948  1.00  0.00    -0.343 A  
HETATM   21  H2  UNL     1     -13.081  10.792  68.569  1.00  0.00     0.000 HD 
BRANCH  20  22
HETATM   22  O   UNL     1     -10.920  14.719  65.700  1.00  0.00    -0.319 OA 
HETATM   23  C   UNL     1     -11.829  14.451  64.637  1.00  0.00    -0.451 C  
ENDBRANCH  20  22
ENDBRANCH   9  12
ENDBRANCH   7   8
ENDBRANCH   6   7
ENDBRANCH   3   6
ENDBRANCH   2   3
TORSDOF 7
ENDMDL
MODEL       27
REMARK 921   NORMALIZED FREE ENERGY PREDICTED BY IDOCK:   -5.17 KCAL/MOL
REMARK 922        TOTAL FREE ENERGY PREDICTED BY IDOCK:   -8.00 KCAL/MOL
REMARK 923 INTER-LIGAND FREE ENERGY PREDICTED BY IDOCK:   -7.34 KCAL/MOL
REMARK 924 INTRA-LIGAND FREE ENERGY PREDICTED BY IDOCK:   -0.66 KCAL/MOL
REMARK 927      BINDING AFFINITY PREDICTED BY RF-SCORE:    0.00 PKD
ROOT
HETATM    1  C   UNL     1     -10.491  19.924  65.919  1.00  0.00    -0.567 C  
HETATM    2  C   UNL     1      -9.950  19.877  67.344  1.00  0.00    -0.423 C  
ENDROOT
BRANCH   2   3
HETATM    3  N   UNL     1      -8.985  18.793  67.602  1.00  0.00    -0.278 NA 
BRANCH   3   4
HETATM    4  C   UNL     1      -7.627  19.271  67.930  1.00  0.00    -0.276 C  
HETATM    5  C   UNL     1      -7.275  20.688  67.480  1.00  0.00    -0.382 C  
ENDBRANCH   3   4
BRANCH   3   6
HETATM    6  C   UNL     1      -9.474  17.856  68.643  1.00  0.00    -0.298 C  
BRANCH   6   7
HETATM    7  C   UNL     1     -10.901  17.326  68.432  1.00  0.00    -0.273 C  
BRANCH   7   8
HETATM    8  N   UNL     1     -10.953  15.878  68.332  1.00  0.00    -0.314 N  
HETATM    9  C   UNL     1     -11.772  15.135  69.159  1.00  0.00    -0.325 C  
HETATM   10  H   UNL     1     -10.375  15.402  67.639  1.00  0.00     0.000 HD 
HETATM   11  O   UNL     1     -12.469  15.638  70.030  1.00  0.00    -0.360 OA 
BRANCH   9  12
HETATM   12  C   UNL     1     -11.860  13.682  68.877  1.00  0.00    -0.402 A  
HETATM   13  C   UNL     1     -12.078  12.834  69.978  1.00  0.00    -0.355 A  
HETATM   14  C   UNL     1     -11.915  11.454  69.854  1.00  0.00    -0.359 A  
HETATM   15  C   UNL     1     -11.496  10.887  68.643  1.00  0.00    -0.311 A  
HETATM   16 CL   UNL     1     -12.134  10.472  71.261  1.00  0.00    -0.449 Cl 
HETATM   17  C   UNL     1     -11.378  11.727  67.530  1.00  0.00    -0.377 A  
HETATM   18  N   UNL     1     -11.375   9.495  68.474  1.00  0.00    -0.458 NA 
HETATM   19  H1  UNL     1     -11.070   9.082  67.593  1.00  0.00     0.000 HD 
HETATM   20  C   UNL     1     -11.537  13.120  67.633  1.00  0.00    -0.349 A  
HETATM   21  H2  UNL     1     -12.270   9.073  68.722  1.00  0.00     0.000 HD 
BRANCH  20  22
HETATM   22  O   UNL     1     -11.239  13.784  66.472  1.00  0.00    -0.303 OA 
HETATM   23  C   UNL     1     -12.300  13.923  65.532  1.00  0.00    -0.480 C  
ENDBRANCH  20  22
ENDBRANCH   9  12
ENDBRANCH   7   8
ENDBRANCH   6   7
ENDBRANCH   3   6
ENDBRANCH   2   3
TORSDOF 7
ENDMDL
MODEL       28
REMARK 921   NORMALIZED FREE ENERGY PREDICTED BY IDOCK:   -5.16 KCAL/MOL
REMARK 922        TOTAL FREE ENERGY PREDICTED BY IDOCK:   -7.99 KCAL/MOL
REMARK 923 INTER-LIGAND FREE ENERGY PREDICTED BY IDOCK:   -7.29 KCAL/MOL
REMARK 924 INTRA-LIGAND FREE ENERGY PREDICTED BY IDOCK:   -0.70 KCAL/MOL
REMARK 927      BINDING AFFINITY PREDICTED BY RF-SCORE:    0.00 PKD
ROOT
HETATM    1  C   UNL     1      -6.320  19.109  65.200  1.00  0.00    -0.309 C  
HETATM    2  C   UNL     1      -7.526  19.835  65.789  1.00  0.00    -0.311 C  
ENDROOT
BRANCH   2   3
HETATM    3  N   UNL     1      -7.814  19.509  67.198  1.00  0.00    -0.252 NA 
BRANCH   3   4
HETATM    4  C   UNL     1      -7.046  20.321  68.164  1.00  0.00    -0.260 C  
HETATM    5  C   UNL     1      -6.579  19.611  69.433  1.00  0.00    -0.383 C  
ENDBRANCH   3   4
BRANCH   3   6
HETATM    6  C   UNL     1      -9.265  19.580  67.494  1.00  0.00    -0.315 C  
BRANCH   6   7
HETATM    7  C   UNL     1     -10.173  18.817  66.515  1.00  0.00    -0.413 C  
BRANCH   7   8
HETATM    8  N   UNL     1     -10.500  17.480  66.978  1.00  0.00    -0.319 N  
HETATM    9  C   UNL     1     -10.645  16.434  66.090  1.00  0.00    -0.255 C  
HETATM   10  H   UNL     1     -10.623  17.311  67.977  1.00  0.00     0.000 HD 
HETATM   11  O   UNL     1     -10.539  16.570  64.878  1.00  0.00    -0.689 OA 
BRANCH   9  12
HETATM   12  C   UNL     1     -10.833  15.084  66.676  1.00  0.00    -0.318 A  
HETATM   13  C   UNL     1     -10.580  13.986  65.834  1.00  0.00    -0.302 A  
HETATM   14  C   UNL     1     -10.976  12.701  66.206  1.00  0.00    -0.283 A  
HETATM   15  C   UNL     1     -11.666  12.482  67.406  1.00  0.00    -0.366 A  
HETATM   16 CL   UNL     1     -10.695  11.402  65.098  1.00  0.00    -0.345 Cl 
HETATM   17  C   UNL     1     -11.824  13.563  68.280  1.00  0.00    -0.401 A  
HETATM   18  N   UNL     1     -12.029  11.190  67.831  1.00  0.00    -0.680 NA 
HETATM   19  H1  UNL     1     -12.531  11.030  68.705  1.00  0.00     0.000 HD 
HETATM   20  C   UNL     1     -11.433  14.866  67.925  1.00  0.00    -0.340 A  
HETATM   21  H2  UNL     1     -11.184  10.619  67.849  1.00  0.00     0.000 HD 
BRANCH  20  22
HETATM   22  O   UNL     1     -11.803  15.810  68.847  1.00  0.00    -0.393 OA 
HETATM   23  C   UNL     1     -12.053  15.339  70.168  1.00  0.00    -0.358 C  
ENDBRANCH  20  22
ENDBRANCH   9  12
ENDBRANCH   7   8
ENDBRANCH   6   7
ENDBRANCH   3   6
ENDBRANCH   2   3
TORSDOF 7
ENDMDL
MODEL       29
REMARK 921   NORMALIZED FREE ENERGY PREDICTED BY IDOCK:   -5.16 KCAL/MOL
REMARK 922        TOTAL FREE ENERGY PREDICTED BY IDOCK:   -7.98 KCAL/MOL
REMARK 923 INTER-LIGAND FREE ENERGY PREDICTED BY IDOCK:   -7.49 KCAL/MOL
REMARK 924 INTRA-LIGAND FREE ENERGY PREDICTED BY IDOCK:   -0.49 KCAL/MOL
REMARK 927      BINDING AFFINITY PREDICTED BY RF-SCORE:    0.00 PKD
ROOT
HETATM    1  C   UNL     1     -13.531  12.982  72.211  1.00  0.00    -0.645 C  
HETATM    2  C   UNL     1     -14.153  14.374  72.176  1.00  0.00    -0.535 C  
ENDROOT
BRANCH   2   3
HETATM    3  N   UNL     1     -13.188  15.478  72.017  1.00  0.00    -0.428 NA 
BRANCH   3   4
HETATM    4  C   UNL     1     -12.110  15.475  73.026  1.00  0.00    -0.464 C  
HETATM    5  C   UNL     1     -12.520  15.787  74.464  1.00  0.00    -0.755 C  
ENDBRANCH   3   4
BRANCH   3   6
HETATM    6  C   UNL     1     -12.620  15.519  70.647  1.00  0.00    -0.443 C  
BRANCH   6   7
HETATM    7  C   UNL     1     -11.092  15.371  70.565  1.00  0.00    -0.335 C  
BRANCH   7   8
HETATM    8  N   UNL     1     -10.451  16.508  69.926  1.00  0.00    -0.226 N  
HETATM    9  C   UNL     1      -9.394  16.333  69.056  1.00  0.00    -0.254 C  
HETATM   10  H   UNL     1     -10.788  17.450  70.124  1.00  0.00     0.000 HD 
HETATM   11  O   UNL     1      -8.921  15.235  68.795  1.00  0.00    -0.178 OA 
BRANCH   9  12
HETATM   12  C   UNL     1      -8.910  17.543  68.347  1.00  0.00    -0.276 A  
HETATM   13  C   UNL     1      -9.837  18.214  67.529  1.00  0.00    -0.317 A  
HETATM   14  C   UNL     1      -9.412  19.192  66.630  1.00  0.00    -0.344 A  
HETATM   15  C   UNL     1      -8.052  19.501  66.495  1.00  0.00    -0.310 A  
HETATM   16 CL   UNL     1     -10.593  19.933  65.606  1.00  0.00    -0.539 Cl 
HETATM   17  C   UNL     1      -7.150  18.900  67.381  1.00  0.00    -0.216 A  
HETATM   18  N   UNL     1      -7.601  20.520  65.635  1.00  0.00    -0.526 NA 
HETATM   19  H1  UNL     1      -6.611  20.744  65.536  1.00  0.00     0.000 HD 
HETATM   20  C   UNL     1      -7.557  17.912  68.295  1.00  0.00    -0.266 A  
HETATM   21  H2  UNL     1      -8.092  21.378  65.886  1.00  0.00     0.000 HD 
BRANCH  20  22
HETATM   22  O   UNL     1      -6.511  17.340  68.970  1.00  0.00    -0.196 OA 
HETATM   23  C   UNL     1      -5.788  18.190  69.855  1.00  0.00    -0.238 C  
ENDBRANCH  20  22
ENDBRANCH   9  12
ENDBRANCH   7   8
ENDBRANCH   6   7
ENDBRANCH   3   6
ENDBRANCH   2   3
TORSDOF 7
ENDMDL
MODEL       30
REMARK 921   NORMALIZED FREE ENERGY PREDICTED BY IDOCK:   -5.15 KCAL/MOL
REMARK 922        TOTAL FREE ENERGY PREDICTED BY IDOCK:   -7.98 KCAL/MOL
REMARK 923 INTER-LIGAND FREE ENERGY PREDICTED BY IDOCK:   -7.26 KCAL/MOL
REMARK 924 INTRA-LIGAND FREE ENERGY PREDICTED BY IDOCK:   -0.71 KCAL/MOL
REMARK 927      BINDING AFFINITY PREDICTED BY RF-SCORE:    0.00 PKD
ROOT
HETATM    1  C   UNL     1     -11.428   6.460  69.817  1.00  0.00    -0.468 C  
HETATM    2  C   UNL     1     -10.784   7.835  69.676  1.00  0.00    -0.223 C  
ENDROOT
BRANCH   2   3
HETATM    3  N   UNL     1     -11.511   8.928  70.348  1.00  0.00    -0.210 NA 
BRANCH   3   4
HETATM    4  C   UNL     1     -11.116   9.125  71.758  1.00  0.00    -0.367 C  
HETATM    5  C   UNL     1      -9.705   8.683  72.140  1.00  0.00    -0.383 C  
ENDBRANCH   3   4
BRANCH   3   6
HETATM    6  C   UNL     1     -11.409  10.202  69.595  1.00  0.00    -0.235 C  
BRANCH   6   7
HETATM    7  C   UNL     1     -10.561  10.142  68.315  1.00  0.00    -0.226 C  
BRANCH   7   8
HETATM    8  N   UNL     1     -10.804  11.266  67.427  1.00  0.00    -0.245 N  
HETATM    9  C   UNL     1      -9.996  12.385  67.455  1.00  0.00    -0.196 C  
HETATM   10  H   UNL     1     -11.586  11.227  66.772  1.00  0.00     0.000 HD 
HETATM   11  O   UNL     1      -9.060  12.510  68.234  1.00  0.00    -0.199 OA 
BRANCH   9  12
HETATM   12  C   UNL     1     -10.241  13.409  66.411  1.00  0.00    -0.293 A  
HETATM   13  C   UNL     1     -10.047  14.752  66.781  1.00  0.00    -0.258 A  
HETATM   14  C   UNL     1     -10.500  15.786  65.961  1.00  0.00    -0.338 A  
HETATM   15  C   UNL     1     -11.188  15.510  64.771  1.00  0.00    -0.390 A  
HETATM   16 CL   UNL     1     -10.290  17.415  66.503  1.00  0.00    -0.328 Cl 
HETATM   17  C   UNL     1     -11.288  14.175  64.364  1.00  0.00    -0.310 A  
HETATM   18  N   UNL     1     -11.607  16.532  63.899  1.00  0.00    -1.578 NA 
HETATM   19  H1  UNL     1     -12.109  16.332  63.034  1.00  0.00     0.000 HD 
HETATM   20  C   UNL     1     -10.839  13.118  65.175  1.00  0.00    -0.304 A  
HETATM   21  H2  UNL     1     -10.790  17.094  63.663  1.00  0.00     0.000 HD 
BRANCH  20  22
HETATM   22  O   UNL     1     -11.157  11.883  64.674  1.00  0.00    -0.303 OA 
HETATM   23  C   UNL     1     -10.335  11.400  63.615  1.00  0.00    -0.410 C  
ENDBRANCH  20  22
ENDBRANCH   9  12
ENDBRANCH   7   8
ENDBRANCH   6   7
ENDBRANCH   3   6
ENDBRANCH   2   3
TORSDOF 7
ENDMDL
MODEL       31
REMARK 921   NORMALIZED FREE ENERGY PREDICTED BY IDOCK:   -5.15 KCAL/MOL
REMARK 922        TOTAL FREE ENERGY PREDICTED BY IDOCK:   -7.97 KCAL/MOL
REMARK 923 INTER-LIGAND FREE ENERGY PREDICTED BY IDOCK:   -7.49 KCAL/MOL
REMARK 924 INTRA-LIGAND FREE ENERGY PREDICTED BY IDOCK:   -0.48 KCAL/MOL
REMARK 927      BINDING AFFINITY PREDICTED BY RF-SCORE:    0.00 PKD
ROOT
HETATM    1  C   UNL     1     -13.644  12.989  72.207  1.00  0.00    -0.643 C  
HETATM    2  C   UNL     1     -14.194  14.405  72.070  1.00  0.00    -0.552 C  
ENDROOT
BRANCH   2   3
HETATM    3  N   UNL     1     -13.169  15.449  71.883  1.00  0.00    -0.411 NA 
BRANCH   3   4
HETATM    4  C   UNL     1     -12.086  15.405  72.886  1.00  0.00    -0.437 C  
HETATM    5  C   UNL     1     -12.458  15.816  74.310  1.00  0.00    -0.800 C  
ENDBRANCH   3   4
BRANCH   3   6
HETATM    6  C   UNL     1     -12.609  15.430  70.509  1.00  0.00    -0.423 C  
BRANCH   6   7
HETATM    7  C   UNL     1     -11.098  15.160  70.420  1.00  0.00    -0.260 C  
BRANCH   7   8
HETATM    8  N   UNL     1     -10.368  16.254  69.804  1.00  0.00    -0.251 N  
HETATM    9  C   UNL     1      -9.601  16.052  68.674  1.00  0.00    -0.222 C  
HETATM   10  H   UNL     1     -10.422  17.187  70.213  1.00  0.00     0.000 HD 
HETATM   11  O   UNL     1      -9.469  14.956  68.147  1.00  0.00    -0.194 OA 
BRANCH   9  12
HETATM   12  C   UNL     1      -9.017  17.260  68.042  1.00  0.00    -0.242 A  
HETATM   13  C   UNL     1      -7.980  17.904  68.742  1.00  0.00    -0.246 A  
HETATM   14  C   UNL     1      -7.553  19.177  68.363  1.00  0.00    -0.312 A  
HETATM   15  C   UNL     1      -8.171  19.857  67.304  1.00  0.00    -0.313 A  
HETATM   16 CL   UNL     1      -6.320  19.943  69.304  1.00  0.00    -0.347 Cl 
HETATM   17  C   UNL     1      -9.132  19.169  66.554  1.00  0.00    -0.365 A  
HETATM   18  N   UNL     1      -7.726  21.118  66.867  1.00  0.00    -0.681 NA 
HETATM   19  H1  UNL     1      -8.175  21.612  66.096  1.00  0.00     0.000 HD 
HETATM   20  C   UNL     1      -9.577  17.886  66.917  1.00  0.00    -0.300 A  
HETATM   21  H2  UNL     1      -6.732  21.038  66.649  1.00  0.00     0.000 HD 
BRANCH  20  22
HETATM   22  O   UNL     1     -10.622  17.441  66.151  1.00  0.00    -0.309 OA 
HETATM   23  C   UNL     1     -10.326  16.403  65.221  1.00  0.00    -0.181 C  
ENDBRANCH  20  22
ENDBRANCH   9  12
ENDBRANCH   7   8
ENDBRANCH   6   7
ENDBRANCH   3   6
ENDBRANCH   2   3
TORSDOF 7
ENDMDL
MODEL       32
REMARK 921   NORMALIZED FREE ENERGY PREDICTED BY IDOCK:   -5.13 KCAL/MOL
REMARK 922        TOTAL FREE ENERGY PREDICTED BY IDOCK:   -7.95 KCAL/MOL
REMARK 923 INTER-LIGAND FREE ENERGY PREDICTED BY IDOCK:   -7.14 KCAL/MOL
REMARK 924 INTRA-LIGAND FREE ENERGY PREDICTED BY IDOCK:   -0.80 KCAL/MOL
REMARK 927      BINDING AFFINITY PREDICTED BY RF-SCORE:    0.00 PKD
ROOT
HETATM    1  C   UNL     1     -12.629  11.734  63.452  1.00  0.00    -0.458 C  
HETATM    2  C   UNL     1     -11.656  12.404  64.417  1.00  0.00    -0.354 C  
ENDROOT
BRANCH   2   3
HETATM    3  N   UNL     1     -12.220  12.715  65.743  1.00  0.00    -0.598 NA 
BRANCH   3   4
HETATM    4  C   UNL     1     -11.478  12.103  66.864  1.00  0.00    -0.351 C  
HETATM    5  C   UNL     1     -11.821  12.605  68.265  1.00  0.00    -0.354 C  
ENDBRANCH   3   4
BRANCH   3   6
HETATM    6  C   UNL     1     -12.365  14.177  65.951  1.00  0.00    -0.463 C  
BRANCH   6   7
HETATM    7  C   UNL     1     -11.397  15.055  65.141  1.00  0.00    -0.372 C  
BRANCH   7   8
HETATM    8  N   UNL     1     -10.581  15.914  65.981  1.00  0.00    -0.326 N  
HETATM    9  C   UNL     1     -10.481  17.268  65.732  1.00  0.00    -0.229 C  
HETATM   10  H   UNL     1     -10.074  15.510  66.768  1.00  0.00     0.000 HD 
HETATM   11  O   UNL     1     -11.040  17.814  64.789  1.00  0.00    -0.852 OA 
BRANCH   9  12
HETATM   12  C   UNL     1      -9.743  18.076  66.733  1.00  0.00    -0.323 A  
HETATM   13  C   UNL     1      -8.754  18.947  66.241  1.00  0.00    -0.260 A  
HETATM   14  C   UNL     1      -7.840  19.544  67.109  1.00  0.00    -0.258 A  
HETATM   15  C   UNL     1      -7.863  19.262  68.481  1.00  0.00    -0.348 A  
HETATM   16 CL   UNL     1      -6.607  20.553  66.434  1.00  0.00    -0.277 Cl 
HETATM   17  C   UNL     1      -8.909  18.473  68.973  1.00  0.00    -0.081 A  
HETATM   18  N   UNL     1      -6.987  19.890  69.386  1.00  0.00    -0.304 NA 
HETATM   19  H1  UNL     1      -7.004  19.685  70.385  1.00  0.00     0.000 HD 
HETATM   20  C   UNL     1      -9.842  17.862  68.116  1.00  0.00    -0.334 A  
HETATM   21  H2  UNL     1      -7.096  20.898  69.274  1.00  0.00     0.000 HD 
BRANCH  20  22
HETATM   22  O   UNL     1     -10.698  17.014  68.769  1.00  0.00    -0.337 OA 
HETATM   23  C   UNL     1     -10.096  16.000  69.568  1.00  0.00    -0.266 C  
ENDBRANCH  20  22
ENDBRANCH   9  12
ENDBRANCH   7   8
ENDBRANCH   6   7
ENDBRANCH   3   6
ENDBRANCH   2   3
TORSDOF 7
ENDMDL
MODEL       33
REMARK 921   NORMALIZED FREE ENERGY PREDICTED BY IDOCK:   -5.13 KCAL/MOL
REMARK 922        TOTAL FREE ENERGY PREDICTED BY IDOCK:   -7.94 KCAL/MOL
REMARK 923 INTER-LIGAND FREE ENERGY PREDICTED BY IDOCK:   -7.11 KCAL/MOL
REMARK 924 INTRA-LIGAND FREE ENERGY PREDICTED BY IDOCK:   -0.84 KCAL/MOL
REMARK 927      BINDING AFFINITY PREDICTED BY RF-SCORE:    0.00 PKD
ROOT
HETATM    1  C   UNL     1      -9.967   8.053  67.107  1.00  0.00    -0.303 C  
HETATM    2  C   UNL     1      -9.805   8.918  68.353  1.00  0.00    -0.174 C  
ENDROOT
BRANCH   2   3
HETATM    3  N   UNL     1     -10.683   8.549  69.479  1.00  0.00    -0.209 NA 
BRANCH   3   4
HETATM    4  C   UNL     1     -10.457   7.180  69.985  1.00  0.00    -0.221 C  
HETATM    5  C   UNL     1     -11.631   6.513  70.699  1.00  0.00    -0.442 C  
ENDBRANCH   3   4
BRANCH   3   6
HETATM    6  C   UNL     1     -10.604   9.533  70.585  1.00  0.00    -0.308 C  
BRANCH   6   7
HETATM    7  C   UNL     1     -11.847  10.418  70.767  1.00  0.00    -0.368 C  
BRANCH   7   8
HETATM    8  N   UNL     1     -11.641  11.779  70.302  1.00  0.00    -0.517 N  
HETATM    9  C   UNL     1     -11.897  12.131  68.992  1.00  0.00    -0.306 C  
HETATM   10  H   UNL     1     -11.301  12.486  70.955  1.00  0.00     0.000 HD 
HETATM   11  O   UNL     1     -12.280  11.329  68.150  1.00  0.00    -0.622 OA 
BRANCH   9  12
HETATM   12  C   UNL     1     -11.794  13.573  68.659  1.00  0.00    -0.404 A  
HETATM   13  C   UNL     1     -11.435  13.894  67.337  1.00  0.00    -0.374 A  
HETATM   14  C   UNL     1     -11.060  15.195  67.001  1.00  0.00    -0.328 A  
HETATM   15  C   UNL     1     -10.998  16.200  67.976  1.00  0.00    -0.338 A  
HETATM   16 CL   UNL     1     -10.566  15.512  65.373  1.00  0.00    -0.397 Cl 
HETATM   17  C   UNL     1     -11.451  15.894  69.265  1.00  0.00    -0.374 A  
HETATM   18  N   UNL     1     -10.676  17.531  67.655  1.00  0.00    -0.345 NA 
HETATM   19  H1  UNL     1     -10.630  18.262  68.365  1.00  0.00     0.000 HD 
HETATM   20  C   UNL     1     -11.833  14.590  69.625  1.00  0.00    -0.318 A  
HETATM   21  H2  UNL     1     -11.322  17.841  66.930  1.00  0.00     0.000 HD 
BRANCH  20  22
HETATM   22  O   UNL     1     -12.104  14.458  70.962  1.00  0.00    -0.321 OA 
HETATM   23  C   UNL     1     -13.295  15.084  71.430  1.00  0.00    -0.436 C  
ENDBRANCH  20  22
ENDBRANCH   9  12
ENDBRANCH   7   8
ENDBRANCH   6   7
ENDBRANCH   3   6
ENDBRANCH   2   3
TORSDOF 7
ENDMDL
MODEL       34
REMARK 921   NORMALIZED FREE ENERGY PREDICTED BY IDOCK:   -5.11 KCAL/MOL
REMARK 922        TOTAL FREE ENERGY PREDICTED BY IDOCK:   -7.92 KCAL/MOL
REMARK 923 INTER-LIGAND FREE ENERGY PREDICTED BY IDOCK:   -7.15 KCAL/MOL
REMARK 924 INTRA-LIGAND FREE ENERGY PREDICTED BY IDOCK:   -0.77 KCAL/MOL
REMARK 927      BINDING AFFINITY PREDICTED BY RF-SCORE:    0.00 PKD
ROOT
HETATM    1  C   UNL     1     -13.668   9.436  72.079  1.00  0.00    -0.466 C  
HETATM    2  C   UNL     1     -13.035   8.057  71.917  1.00  0.00    -0.312 C  
ENDROOT
BRANCH   2   3
HETATM    3  N   UNL     1     -11.575   8.068  71.715  1.00  0.00    -0.271 NA 
BRANCH   3   4
HETATM    4  C   UNL     1     -10.823   7.367  72.774  1.00  0.00    -0.326 C  
HETATM    5  C   UNL     1      -9.461   7.951  73.146  1.00  0.00    -0.344 C  
ENDBRANCH   3   4
BRANCH   3   6
HETATM    6  C   UNL     1     -11.200   7.549  70.377  1.00  0.00    -0.253 C  
BRANCH   6   7
HETATM    7  C   UNL     1     -10.340   8.494  69.522  1.00  0.00    -0.218 C  
BRANCH   7   8
HETATM    8  N   UNL     1     -10.564   9.895  69.836  1.00  0.00    -0.252 N  
HETATM    9  C   UNL     1     -11.232  10.724  68.958  1.00  0.00    -0.262 C  
HETATM   10  H   UNL     1     -10.223  10.271  70.721  1.00  0.00     0.000 HD 
HETATM   11  O   UNL     1     -11.644  10.346  67.869  1.00  0.00    -0.406 OA 
BRANCH   9  12
HETATM   12  C   UNL     1     -11.536  12.094  69.437  1.00  0.00    -0.381 A  
HETATM   13  C   UNL     1     -12.222  12.201  70.660  1.00  0.00    -0.392 A  
HETATM   14  C   UNL     1     -12.777  13.418  71.058  1.00  0.00    -0.307 A  
HETATM   15  C   UNL     1     -12.696  14.548  70.232  1.00  0.00    -0.272 A  
HETATM   16 CL   UNL     1     -13.665  13.469  72.542  1.00  0.00    -0.689 Cl 
HETATM   17  C   UNL     1     -11.929  14.456  69.066  1.00  0.00    -0.342 A  
HETATM   18  N   UNL     1     -13.200  15.800  70.632  1.00  0.00    -0.759 NA 
HETATM   19  H1  UNL     1     -13.142  16.622  70.031  1.00  0.00     0.000 HD 
HETATM   20  C   UNL     1     -11.361  13.241  68.647  1.00  0.00    -0.288 A  
HETATM   21  H2  UNL     1     -12.771  16.036  71.526  1.00  0.00     0.000 HD 
BRANCH  20  22
HETATM   22  O   UNL     1     -10.774  13.318  67.411  1.00  0.00    -0.254 OA 
HETATM   23  C   UNL     1     -11.580  13.841  66.360  1.00  0.00    -0.360 C  
ENDBRANCH  20  22
ENDBRANCH   9  12
ENDBRANCH   7   8
ENDBRANCH   6   7
ENDBRANCH   3   6
ENDBRANCH   2   3
TORSDOF 7
ENDMDL
MODEL       35
REMARK 921   NORMALIZED FREE ENERGY PREDICTED BY IDOCK:   -5.11 KCAL/MOL
REMARK 922        TOTAL FREE ENERGY PREDICTED BY IDOCK:   -7.92 KCAL/MOL
REMARK 923 INTER-LIGAND FREE ENERGY PREDICTED BY IDOCK:   -7.57 KCAL/MOL
REMARK 924 INTRA-LIGAND FREE ENERGY PREDICTED BY IDOCK:   -0.35 KCAL/MOL
REMARK 927      BINDING AFFINITY PREDICTED BY RF-SCORE:    0.00 PKD
ROOT
HETATM    1  C   UNL     1     -10.269   7.390  68.227  1.00  0.00    -0.213 C  
HETATM    2  C   UNL     1     -10.083   7.860  69.666  1.00  0.00    -0.197 C  
ENDROOT
BRANCH   2   3
HETATM    3  N   UNL     1     -11.155   8.737  70.172  1.00  0.00    -0.236 NA 
BRANCH   3   4
HETATM    4  C   UNL     1     -11.724   8.297  71.462  1.00  0.00    -0.292 C  
HETATM    5  C   UNL     1     -13.033   7.511  71.399  1.00  0.00    -0.379 C  
ENDBRANCH   3   4
BRANCH   3   6
HETATM    6  C   UNL     1     -10.718  10.152  70.250  1.00  0.00    -0.293 C  
BRANCH   6   7
HETATM    7  C   UNL     1     -11.852  11.184  70.368  1.00  0.00    -0.369 C  
BRANCH   7   8
HETATM    8  N   UNL     1     -11.763  12.233  69.367  1.00  0.00    -0.316 N  
HETATM    9  C   UNL     1     -11.724  11.931  68.021  1.00  0.00    -0.312 C  
HETATM   10  H   UNL     1     -11.730  13.208  69.664  1.00  0.00     0.000 HD 
HETATM   11  O   UNL     1     -11.732  10.783  67.596  1.00  0.00    -0.538 OA 
BRANCH   9  12
HETATM   12  C   UNL     1     -11.781  13.077  67.080  1.00  0.00    -0.439 A  
HETATM   13  C   UNL     1     -12.138  12.788  65.750  1.00  0.00    -0.505 A  
HETATM   14  C   UNL     1     -11.965  13.743  64.747  1.00  0.00    -0.404 A  
HETATM   15  C   UNL     1     -11.400  14.993  65.035  1.00  0.00    -0.394 A  
HETATM   16 CL   UNL     1     -12.360  13.304  63.121  1.00  0.00    -0.395 Cl 
HETATM   17  C   UNL     1     -11.142  15.304  66.375  1.00  0.00    -0.273 A  
HETATM   18  N   UNL     1     -11.264  15.992  64.054  1.00  0.00    -1.099 NA 
HETATM   19  H1  UNL     1     -10.853  16.902  64.263  1.00  0.00     0.000 HD 
HETATM   20  C   UNL     1     -11.308  14.358  67.401  1.00  0.00    -0.337 A  
HETATM   21  H2  UNL     1     -12.185  16.153  63.644  1.00  0.00     0.000 HD 
BRANCH  20  22
HETATM   22  O   UNL     1     -10.865  14.801  68.619  1.00  0.00    -0.238 OA 
HETATM   23  C   UNL     1     -11.210  16.138  68.970  1.00  0.00    -0.347 C  
ENDBRANCH  20  22
ENDBRANCH   9  12
ENDBRANCH   7   8
ENDBRANCH   6   7
ENDBRANCH   3   6
ENDBRANCH   2   3
TORSDOF 7
ENDMDL
MODEL       36
REMARK 921   NORMALIZED FREE ENERGY PREDICTED BY IDOCK:   -5.11 KCAL/MOL
REMARK 922        TOTAL FREE ENERGY PREDICTED BY IDOCK:   -7.91 KCAL/MOL
REMARK 923 INTER-LIGAND FREE ENERGY PREDICTED BY IDOCK:   -7.18 KCAL/MOL
REMARK 924 INTRA-LIGAND FREE ENERGY PREDICTED BY IDOCK:   -0.74 KCAL/MOL
REMARK 927      BINDING AFFINITY PREDICTED BY RF-SCORE:    0.00 PKD
ROOT
HETATM    1  C   UNL     1     -13.463  12.282  72.056  1.00  0.00    -0.418 C  
HETATM    2  C   UNL     1     -12.959  13.572  72.696  1.00  0.00    -0.193 C  
ENDROOT
BRANCH   2   3
HETATM    3  N   UNL     1     -13.797  14.757  72.437  1.00  0.00    -0.454 NA 
BRANCH   3   4
HETATM    4  C   UNL     1     -13.416  15.940  73.235  1.00  0.00    -0.509 C  
HETATM    5  C   UNL     1     -12.373  15.718  74.329  1.00  0.00    -0.790 C  
ENDBRANCH   3   4
BRANCH   3   6
HETATM    6  C   UNL     1     -13.842  15.094  70.993  1.00  0.00    -0.349 C  
BRANCH   6   7
HETATM    7  C   UNL     1     -12.493  15.483  70.367  1.00  0.00    -0.402 C  
BRANCH   7   8
HETATM    8  N   UNL     1     -12.171  14.693  69.191  1.00  0.00    -0.549 N  
HETATM    9  C   UNL     1     -11.455  15.234  68.143  1.00  0.00    -0.346 C  
HETATM   10  H   UNL     1     -12.481  13.722  69.139  1.00  0.00     0.000 HD 
HETATM   11  O   UNL     1     -11.077  16.398  68.126  1.00  0.00    -0.352 OA 
BRANCH   9  12
HETATM   12  C   UNL     1     -11.055  14.303  67.059  1.00  0.00    -0.317 A  
HETATM   13  C   UNL     1     -11.730  14.431  65.831  1.00  0.00    -0.371 A  
HETATM   14  C   UNL     1     -11.612  13.445  64.852  1.00  0.00    -0.330 A  
HETATM   15  C   UNL     1     -10.851  12.291  65.082  1.00  0.00    -0.301 A  
HETATM   16 CL   UNL     1     -12.519  13.629  63.390  1.00  0.00    -0.270 Cl 
HETATM   17  C   UNL     1     -10.106  12.220  66.265  1.00  0.00    -0.253 A  
HETATM   18  N   UNL     1     -10.672  11.307  64.092  1.00  0.00    -0.366 NA 
HETATM   19  H1  UNL     1     -10.118  10.467  64.260  1.00  0.00     0.000 HD 
HETATM   20  C   UNL     1     -10.210  13.202  67.266  1.00  0.00    -0.243 A  
HETATM   21  H2  UNL     1     -10.298  11.766  63.262  1.00  0.00     0.000 HD 
BRANCH  20  22
HETATM   22  O   UNL     1      -9.520  12.884  68.406  1.00  0.00    -0.215 OA 
HETATM   23  C   UNL     1      -8.099  12.920  68.317  1.00  0.00    -0.151 C  
ENDBRANCH  20  22
ENDBRANCH   9  12
ENDBRANCH   7   8
ENDBRANCH   6   7
ENDBRANCH   3   6
ENDBRANCH   2   3
TORSDOF 7
ENDMDL
MODEL       37
REMARK 921   NORMALIZED FREE ENERGY PREDICTED BY IDOCK:   -5.11 KCAL/MOL
REMARK 922        TOTAL FREE ENERGY PREDICTED BY IDOCK:   -7.91 KCAL/MOL
REMARK 923 INTER-LIGAND FREE ENERGY PREDICTED BY IDOCK:   -7.28 KCAL/MOL
REMARK 924 INTRA-LIGAND FREE ENERGY PREDICTED BY IDOCK:   -0.64 KCAL/MOL
REMARK 927      BINDING AFFINITY PREDICTED BY RF-SCORE:    0.00 PKD
ROOT
HETATM    1  C   UNL     1     -10.429   6.903  73.378  1.00  0.00    -0.360 C  
HETATM    2  C   UNL     1     -10.712   8.234  72.689  1.00  0.00    -0.314 C  
ENDROOT
BRANCH   2   3
HETATM    3  N   UNL     1     -11.854   8.215  71.757  1.00  0.00    -0.284 NA 
BRANCH   3   4
HETATM    4  C   UNL     1     -13.079   8.832  72.304  1.00  0.00    -0.409 C  
HETATM    5  C   UNL     1     -14.402   8.392  71.680  1.00  0.00    -0.536 C  
ENDBRANCH   3   4
BRANCH   3   6
HETATM    6  C   UNL     1     -11.506   8.819  70.447  1.00  0.00    -0.144 C  
BRANCH   6   7
HETATM    7  C   UNL     1     -11.010  10.274  70.506  1.00  0.00    -0.270 C  
BRANCH   7   8
HETATM    8  N   UNL     1     -11.491  11.076  69.394  1.00  0.00    -0.266 N  
HETATM    9  C   UNL     1     -10.619  11.584  68.453  1.00  0.00    -0.201 C  
HETATM   10  H   UNL     1     -12.489  11.267  69.308  1.00  0.00     0.000 HD 
HETATM   11  O   UNL     1      -9.407  11.417  68.510  1.00  0.00    -0.182 OA 
BRANCH   9  12
HETATM   12  C   UNL     1     -11.225  12.263  67.282  1.00  0.00    -0.358 A  
HETATM   13  C   UNL     1     -10.901  11.751  66.012  1.00  0.00    -0.343 A  
HETATM   14  C   UNL     1     -11.205  12.472  64.858  1.00  0.00    -0.305 A  
HETATM   15  C   UNL     1     -11.805  13.736  64.938  1.00  0.00    -0.375 A  
HETATM   16 CL   UNL     1     -10.721  11.819  63.331  1.00  0.00    -0.462 Cl 
HETATM   17  C   UNL     1     -12.212  14.192  66.197  1.00  0.00    -0.465 A  
HETATM   18  N   UNL     1     -12.171  14.461  63.789  1.00  0.00    -1.040 NA 
HETATM   19  H1  UNL     1     -12.608  15.381  63.847  1.00  0.00     0.000 HD 
HETATM   20  C   UNL     1     -11.916  13.481  67.373  1.00  0.00    -0.357 A  
HETATM   21  H2  UNL     1     -12.776  13.864  63.224  1.00  0.00     0.000 HD 
BRANCH  20  22
HETATM   22  O   UNL     1     -12.266  14.156  68.513  1.00  0.00    -0.311 OA 
HETATM   23  C   UNL     1     -11.350  15.149  68.966  1.00  0.00    -0.294 C  
ENDBRANCH  20  22
ENDBRANCH   9  12
ENDBRANCH   7   8
ENDBRANCH   6   7
ENDBRANCH   3   6
ENDBRANCH   2   3
TORSDOF 7
ENDMDL
MODEL       38
REMARK 921   NORMALIZED FREE ENERGY PREDICTED BY IDOCK:   -5.10 KCAL/MOL
REMARK 922        TOTAL FREE ENERGY PREDICTED BY IDOCK:   -7.90 KCAL/MOL
REMARK 923 INTER-LIGAND FREE ENERGY PREDICTED BY IDOCK:   -7.43 KCAL/MOL
REMARK 924 INTRA-LIGAND FREE ENERGY PREDICTED BY IDOCK:   -0.47 KCAL/MOL
REMARK 927      BINDING AFFINITY PREDICTED BY RF-SCORE:    0.00 PKD
ROOT
HETATM    1  C   UNL     1      -9.523   4.612  67.866  1.00  0.00    -0.194 C  
HETATM    2  C   UNL     1      -9.409   6.024  67.300  1.00  0.00    -0.113 C  
ENDROOT
BRANCH   2   3
HETATM    3  N   UNL     1     -10.453   6.958  67.760  1.00  0.00    -0.201 NA 
BRANCH   3   4
HETATM    4  C   UNL     1     -10.315   7.353  69.176  1.00  0.00    -0.208 C  
HETATM    5  C   UNL     1     -11.460   6.962  70.109  1.00  0.00    -0.354 C  
ENDBRANCH   3   4
BRANCH   3   6
HETATM    6  C   UNL     1     -10.541   8.157  66.890  1.00  0.00    -0.241 C  
BRANCH   6   7
HETATM    7  C   UNL     1     -10.715   9.493  67.630  1.00  0.00    -0.250 C  
BRANCH   7   8
HETATM    8  N   UNL     1     -10.707  10.636  66.733  1.00  0.00    -0.238 N  
HETATM    9  C   UNL     1     -11.493  11.743  66.983  1.00  0.00    -0.298 C  
HETATM   10  H   UNL     1     -10.111  10.620  65.906  1.00  0.00     0.000 HD 
HETATM   11  O   UNL     1     -12.251  11.819  67.941  1.00  0.00    -0.538 OA 
BRANCH   9  12
HETATM   12  C   UNL     1     -11.300  12.911  66.089  1.00  0.00    -0.356 A  
HETATM   13  C   UNL     1     -10.354  13.870  66.492  1.00  0.00    -0.286 A  
HETATM   14  C   UNL     1     -10.292  15.114  65.863  1.00  0.00    -0.327 A  
HETATM   15  C   UNL     1     -11.194  15.448  64.843  1.00  0.00    -0.403 A  
HETATM   16 CL   UNL     1      -9.150  16.274  66.448  1.00  0.00    -0.306 Cl 
HETATM   17  C   UNL     1     -12.066  14.454  64.384  1.00  0.00    -0.491 A  
HETATM   18  N   UNL     1     -11.121  16.674  64.156  1.00  0.00    -1.305 NA 
HETATM   19  H1  UNL     1     -11.777  16.918  63.415  1.00  0.00     0.000 HD 
HETATM   20  C   UNL     1     -12.144  13.194  65.003  1.00  0.00    -0.415 A  
HETATM   21  H2  UNL     1     -10.178  16.762  63.778  1.00  0.00     0.000 HD 
BRANCH  20  22
HETATM   22  O   UNL     1     -13.154  12.412  64.508  1.00  0.00    -0.823 OA 
HETATM   23  C   UNL     1     -12.882  11.722  63.292  1.00  0.00    -0.085 C  
ENDBRANCH  20  22
ENDBRANCH   9  12
ENDBRANCH   7   8
ENDBRANCH   6   7
ENDBRANCH   3   6
ENDBRANCH   2   3
TORSDOF 7
ENDMDL
MODEL       39
REMARK 921   NORMALIZED FREE ENERGY PREDICTED BY IDOCK:   -5.10 KCAL/MOL
REMARK 922        TOTAL FREE ENERGY PREDICTED BY IDOCK:   -7.90 KCAL/MOL
REMARK 923 INTER-LIGAND FREE ENERGY PREDICTED BY IDOCK:   -7.43 KCAL/MOL
REMARK 924 INTRA-LIGAND FREE ENERGY PREDICTED BY IDOCK:   -0.47 KCAL/MOL
REMARK 927      BINDING AFFINITY PREDICTED BY RF-SCORE:    0.00 PKD
ROOT
HETATM    1  C   UNL     1     -11.265   9.170  71.666  1.00  0.00    -0.447 C  
HETATM    2  C   UNL     1     -10.550   8.491  70.502  1.00  0.00    -0.213 C  
ENDROOT
BRANCH   2   3
HETATM    3  N   UNL     1      -9.275   9.119  70.111  1.00  0.00    -0.189 NA 
BRANCH   3   4
HETATM    4  C   UNL     1      -8.264   8.158  69.625  1.00  0.00    -0.120 C  
HETATM    5  C   UNL     1      -6.959   8.750  69.095  1.00  0.00    -0.059 C  
ENDBRANCH   3   4
BRANCH   3   6
HETATM    6  C   UNL     1      -9.477  10.207  69.124  1.00  0.00    -0.206 C  
BRANCH   6   7
HETATM    7  C   UNL     1     -10.401   9.861  67.944  1.00  0.00    -0.212 C  
BRANCH   7   8
HETATM    8  N   UNL     1     -10.492  10.933  66.969  1.00  0.00    -0.232 N  
HETATM    9  C   UNL     1     -11.401  11.961  67.122  1.00  0.00    -0.331 C  
HETATM   10  H   UNL     1      -9.874  10.926  66.157  1.00  0.00     0.000 HD 
HETATM   11  O   UNL     1     -12.190  12.018  68.056  1.00  0.00    -0.454 OA 
BRANCH   9  12
HETATM   12  C   UNL     1     -11.311  13.079  66.151  1.00  0.00    -0.349 A  
HETATM   13  C   UNL     1     -10.422  14.123  66.464  1.00  0.00    -0.280 A  
HETATM   14  C   UNL     1     -10.461  15.324  65.757  1.00  0.00    -0.349 A  
HETATM   15  C   UNL     1     -11.410  15.532  64.746  1.00  0.00    -0.357 A  
HETATM   16 CL   UNL     1      -9.386  16.593  66.234  1.00  0.00    -0.310 Cl 
HETATM   17  C   UNL     1     -12.223  14.454  64.377  1.00  0.00    -0.481 A  
HETATM   18  N   UNL     1     -11.437  16.713  63.981  1.00  0.00    -1.551 NA 
HETATM   19  H1  UNL     1     -12.128  16.864  63.246  1.00  0.00     0.000 HD 
HETATM   20  C   UNL     1     -12.199  13.235  65.076  1.00  0.00    -0.432 A  
HETATM   21  H2  UNL     1     -10.512  16.839  63.571  1.00  0.00     0.000 HD 
BRANCH  20  22
HETATM   22  O   UNL     1     -13.166  12.357  64.661  1.00  0.00    -0.822 OA 
HETATM   23  C   UNL     1     -12.996  11.795  63.363  1.00  0.00    -0.037 C  
ENDBRANCH  20  22
ENDBRANCH   9  12
ENDBRANCH   7   8
ENDBRANCH   6   7
ENDBRANCH   3   6
ENDBRANCH   2   3
TORSDOF 7
ENDMDL
MODEL       40
REMARK 921   NORMALIZED FREE ENERGY PREDICTED BY IDOCK:   -5.10 KCAL/MOL
REMARK 922        TOTAL FREE ENERGY PREDICTED BY IDOCK:   -7.90 KCAL/MOL
REMARK 923 INTER-LIGAND FREE ENERGY PREDICTED BY IDOCK:   -7.02 KCAL/MOL
REMARK 924 INTRA-LIGAND FREE ENERGY PREDICTED BY IDOCK:   -0.88 KCAL/MOL
REMARK 927      BINDING AFFINITY PREDICTED BY RF-SCORE:    0.00 PKD
ROOT
HETATM    1  C   UNL     1     -11.033   6.228  66.878  1.00  0.00    -0.404 C  
HETATM    2  C   UNL     1     -10.261   7.449  67.367  1.00  0.00    -0.246 C  
ENDROOT
BRANCH   2   3
HETATM    3  N   UNL     1     -10.175   7.578  68.833  1.00  0.00    -0.203 NA 
BRANCH   3   4
HETATM    4  C   UNL     1     -10.415   6.313  69.556  1.00  0.00    -0.237 C  
HETATM    5  C   UNL     1     -11.485   6.342  70.647  1.00  0.00    -0.426 C  
ENDBRANCH   3   4
BRANCH   3   6
HETATM    6  C   UNL     1      -8.891   8.187  69.259  1.00  0.00    -0.144 C  
BRANCH   6   7
HETATM    7  C   UNL     1      -8.753   9.692  68.976  1.00  0.00    -0.142 C  
BRANCH   7   8
HETATM    8  N   UNL     1      -9.726  10.491  69.701  1.00  0.00    -0.419 N  
HETATM    9  C   UNL     1     -10.828  11.024  69.062  1.00  0.00    -0.229 C  
HETATM   10  H   UNL     1      -9.592  10.661  70.698  1.00  0.00     0.000 HD 
HETATM   11  O   UNL     1     -11.035  10.883  67.864  1.00  0.00    -0.227 OA 
BRANCH   9  12
HETATM   12  C   UNL     1     -11.833  11.698  69.921  1.00  0.00    -0.434 A  
HETATM   13  C   UNL     1     -11.918  13.098  69.818  1.00  0.00    -0.382 A  
HETATM   14  C   UNL     1     -12.636  13.835  70.760  1.00  0.00    -0.340 A  
HETATM   15  C   UNL     1     -13.255  13.203  71.847  1.00  0.00    -0.431 A  
HETATM   16 CL   UNL     1     -12.648  15.560  70.616  1.00  0.00    -0.481 Cl 
HETATM   17  C   UNL     1     -13.247  11.804  71.885  1.00  0.00    -0.468 A  
HETATM   18  N   UNL     1     -14.030  13.916  72.781  1.00  0.00    -0.658 NA 
HETATM   19  H1  UNL     1     -14.480  13.456  73.572  1.00  0.00     0.000 HD 
HETATM   20  C   UNL     1     -12.530  11.042  70.946  1.00  0.00    -0.410 A  
HETATM   21  H2  UNL     1     -14.748  14.424  72.265  1.00  0.00     0.000 HD 
BRANCH  20  22
HETATM   22  O   UNL     1     -12.522   9.702  71.234  1.00  0.00    -0.316 OA 
HETATM   23  C   UNL     1     -13.187   9.308  72.431  1.00  0.00    -0.426 C  
ENDBRANCH  20  22
ENDBRANCH   9  12
ENDBRANCH   7   8
ENDBRANCH   6   7
ENDBRANCH   3   6
ENDBRANCH   2   3
TORSDOF 7
ENDMDL
MODEL       41
REMARK 921   NORMALIZED FREE ENERGY PREDICTED BY IDOCK:   -5.10 KCAL/MOL
REMARK 922        TOTAL FREE ENERGY PREDICTED BY IDOCK:   -7.90 KCAL/MOL
REMARK 923 INTER-LIGAND FREE ENERGY PREDICTED BY IDOCK:   -6.83 KCAL/MOL
REMARK 924 INTRA-LIGAND FREE ENERGY PREDICTED BY IDOCK:   -1.07 KCAL/MOL
REMARK 927      BINDING AFFINITY PREDICTED BY RF-SCORE:    0.00 PKD
ROOT
HETATM    1  C   UNL     1      -9.724   8.727  71.892  1.00  0.00    -0.386 C  
HETATM    2  C   UNL     1     -10.831   7.738  72.241  1.00  0.00    -0.283 C  
ENDROOT
BRANCH   2   3
HETATM    3  N   UNL     1     -11.709   7.372  71.114  1.00  0.00    -0.285 NA 
BRANCH   3   4
HETATM    4  C   UNL     1     -11.281   6.153  70.399  1.00  0.00    -0.353 C  
HETATM    5  C   UNL     1     -11.029   6.296  68.898  1.00  0.00    -0.435 C  
ENDBRANCH   3   4
BRANCH   3   6
HETATM    6  C   UNL     1     -13.127   7.258  71.535  1.00  0.00    -0.384 C  
BRANCH   6   7
HETATM    7  C   UNL     1     -13.911   8.581  71.566  1.00  0.00    -0.328 C  
BRANCH   7   8
HETATM    8  N   UNL     1     -13.305   9.612  70.742  1.00  0.00    -0.603 N  
HETATM    9  C   UNL     1     -12.973  10.843  71.270  1.00  0.00    -0.392 C  
HETATM   10  H   UNL     1     -13.121   9.423  69.756  1.00  0.00     0.000 HD 
HETATM   11  O   UNL     1     -13.190  11.148  72.436  1.00  0.00    -0.249 OA 
BRANCH   9  12
HETATM   12  C   UNL     1     -12.227  11.769  70.383  1.00  0.00    -0.416 A  
HETATM   13  C   UNL     1     -12.408  13.146  70.606  1.00  0.00    -0.405 A  
HETATM   14  C   UNL     1     -11.964  14.081  69.671  1.00  0.00    -0.339 A  
HETATM   15  C   UNL     1     -11.364  13.668  68.473  1.00  0.00    -0.290 A  
HETATM   16 CL   UNL     1     -12.275  15.755  69.973  1.00  0.00    -0.359 Cl 
HETATM   17  C   UNL     1     -11.100  12.304  68.306  1.00  0.00    -0.282 A  
HETATM   18  N   UNL     1     -10.859  14.590  67.537  1.00  0.00    -0.283 NA 
HETATM   19  H1  UNL     1     -10.422  14.290  66.666  1.00  0.00     0.000 HD 
HETATM   20  C   UNL     1     -11.538  11.345  69.236  1.00  0.00    -0.317 A  
HETATM   21  H2  UNL     1     -10.199  15.197  68.023  1.00  0.00     0.000 HD 
BRANCH  20  22
HETATM   22  O   UNL     1     -11.316  10.057  68.826  1.00  0.00    -0.172 OA 
HETATM   23  C   UNL     1     -10.624   9.896  67.592  1.00  0.00    -0.270 C  
ENDBRANCH  20  22
ENDBRANCH   9  12
ENDBRANCH   7   8
ENDBRANCH   6   7
ENDBRANCH   3   6
ENDBRANCH   2   3
TORSDOF 7
ENDMDL
MODEL       42
REMARK 921   NORMALIZED FREE ENERGY PREDICTED BY IDOCK:   -5.07 KCAL/MOL
REMARK 922        TOTAL FREE ENERGY PREDICTED BY IDOCK:   -7.85 KCAL/MOL
REMARK 923 INTER-LIGAND FREE ENERGY PREDICTED BY IDOCK:   -7.33 KCAL/MOL
REMARK 924 INTRA-LIGAND FREE ENERGY PREDICTED BY IDOCK:   -0.52 KCAL/MOL
REMARK 927      BINDING AFFINITY PREDICTED BY RF-SCORE:    0.00 PKD
ROOT
HETATM    1  C   UNL     1     -10.422  11.703  63.350  1.00  0.00    -0.482 C  
HETATM    2  C   UNL     1     -11.887  12.075  63.556  1.00  0.00    -0.492 C  
ENDROOT
BRANCH   2   3
HETATM    3  N   UNL     1     -12.326  12.097  64.963  1.00  0.00    -0.451 NA 
BRANCH   3   4
HETATM    4  C   UNL     1     -11.273  11.702  65.920  1.00  0.00    -0.238 C  
HETATM    5  C   UNL     1     -11.423  12.216  67.351  1.00  0.00    -0.415 C  
ENDBRANCH   3   4
BRANCH   3   6
HETATM    6  C   UNL     1     -12.906  13.410  65.338  1.00  0.00    -0.326 C  
BRANCH   6   7
HETATM    7  C   UNL     1     -12.263  14.630  64.659  1.00  0.00    -0.434 C  
BRANCH   7   8
HETATM    8  N   UNL     1     -11.113  15.137  65.388  1.00  0.00    -0.358 N  
HETATM    9  C   UNL     1     -10.670  16.432  65.209  1.00  0.00    -0.295 C  
HETATM   10  H   UNL     1     -10.625  14.526  66.043  1.00  0.00     0.000 HD 
HETATM   11  O   UNL     1     -11.190  17.210  64.420  1.00  0.00    -1.143 OA 
BRANCH   9  12
HETATM   12  C   UNL     1      -9.583  16.894  66.106  1.00  0.00    -0.280 A  
HETATM   13  C   UNL     1      -8.507  16.009  66.308  1.00  0.00    -0.337 A  
HETATM   14  C   UNL     1      -7.581  16.240  67.325  1.00  0.00    -0.171 A  
HETATM   15  C   UNL     1      -7.721  17.334  68.190  1.00  0.00    -0.217 A  
HETATM   16 CL   UNL     1      -6.319  15.080  67.563  1.00  0.00    -0.150 Cl 
HETATM   17  C   UNL     1      -8.736  18.259  67.920  1.00  0.00    -0.274 A  
HETATM   18  N   UNL     1      -6.772  17.619  69.189  1.00  0.00    -0.249 NA 
HETATM   19  H1  UNL     1      -6.875  18.415  69.819  1.00  0.00     0.000 HD 
HETATM   20  C   UNL     1      -9.680  18.047  66.900  1.00  0.00    -0.314 A  
HETATM   21  H2  UNL     1      -5.860  17.693  68.740  1.00  0.00     0.000 HD 
BRANCH  20  22
HETATM   22  O   UNL     1     -10.678  18.985  66.886  1.00  0.00    -0.429 OA 
HETATM   23  C   UNL     1     -10.394  20.220  67.537  1.00  0.00    -0.274 C  
ENDBRANCH  20  22
ENDBRANCH   9  12
ENDBRANCH   7   8
ENDBRANCH   6   7
ENDBRANCH   3   6
ENDBRANCH   2   3
TORSDOF 7
ENDMDL
MODEL       43
REMARK 921   NORMALIZED FREE ENERGY PREDICTED BY IDOCK:   -5.04 KCAL/MOL
REMARK 922        TOTAL FREE ENERGY PREDICTED BY IDOCK:   -7.82 KCAL/MOL
REMARK 923 INTER-LIGAND FREE ENERGY PREDICTED BY IDOCK:   -7.12 KCAL/MOL
REMARK 924 INTRA-LIGAND FREE ENERGY PREDICTED BY IDOCK:   -0.70 KCAL/MOL
REMARK 927      BINDING AFFINITY PREDICTED BY RF-SCORE:    0.00 PKD
ROOT
HETATM    1  C   UNL     1      -9.665   8.236  72.508  1.00  0.00    -0.368 C  
HETATM    2  C   UNL     1     -11.142   7.897  72.687  1.00  0.00    -0.385 C  
ENDROOT
BRANCH   2   3
HETATM    3  N   UNL     1     -12.034   8.467  71.661  1.00  0.00    -0.297 NA 
BRANCH   3   4
HETATM    4  C   UNL     1     -13.449   8.540  72.078  1.00  0.00    -0.381 C  
HETATM    5  C   UNL     1     -14.391   7.497  71.480  1.00  0.00    -0.603 C  
ENDBRANCH   3   4
BRANCH   3   6
HETATM    6  C   UNL     1     -11.560   9.793  71.194  1.00  0.00    -0.392 C  
BRANCH   6   7
HETATM    7  C   UNL     1     -12.655  10.857  71.017  1.00  0.00    -0.417 C  
BRANCH   7   8
HETATM    8  N   UNL     1     -12.121  12.153  70.636  1.00  0.00    -0.473 N  
HETATM    9  C   UNL     1     -11.914  12.477  69.310  1.00  0.00    -0.250 C  
HETATM   10  H   UNL     1     -11.896  12.835  71.360  1.00  0.00     0.000 HD 
HETATM   11  O   UNL     1     -12.136  11.698  68.392  1.00  0.00    -0.522 OA 
BRANCH   9  12
HETATM   12  C   UNL     1     -11.506  13.874  69.022  1.00  0.00    -0.341 A  
HETATM   13  C   UNL     1     -10.410  14.050  68.158  1.00  0.00    -0.241 A  
HETATM   14  C   UNL     1      -9.795  15.296  68.037  1.00  0.00    -0.216 A  
HETATM   15  C   UNL     1     -10.230  16.388  68.800  1.00  0.00    -0.258 A  
HETATM   16 CL   UNL     1      -8.411  15.431  67.008  1.00  0.00    -0.247 Cl 
HETATM   17  C   UNL     1     -11.380  16.228  69.581  1.00  0.00    -0.266 A  
HETATM   18  N   UNL     1      -9.663  17.669  68.659  1.00  0.00    -0.321 NA 
HETATM   19  H1  UNL     1      -9.979  18.464  69.214  1.00  0.00     0.000 HD 
HETATM   20  C   UNL     1     -12.016  14.982  69.717  1.00  0.00    -0.328 A  
HETATM   21  H2  UNL     1      -9.727  17.930  67.675  1.00  0.00     0.000 HD 
BRANCH  20  22
HETATM   22  O   UNL     1     -13.033  14.993  70.635  1.00  0.00    -0.364 OA 
HETATM   23  C   UNL     1     -12.789  15.713  71.839  1.00  0.00    -0.449 C  
ENDBRANCH  20  22
ENDBRANCH   9  12
ENDBRANCH   7   8
ENDBRANCH   6   7
ENDBRANCH   3   6
ENDBRANCH   2   3
TORSDOF 7
ENDMDL
MODEL       44
REMARK 921   NORMALIZED FREE ENERGY PREDICTED BY IDOCK:   -5.04 KCAL/MOL
REMARK 922        TOTAL FREE ENERGY PREDICTED BY IDOCK:   -7.81 KCAL/MOL
REMARK 923 INTER-LIGAND FREE ENERGY PREDICTED BY IDOCK:   -7.24 KCAL/MOL
REMARK 924 INTRA-LIGAND FREE ENERGY PREDICTED BY IDOCK:   -0.57 KCAL/MOL
REMARK 927      BINDING AFFINITY PREDICTED BY RF-SCORE:    0.00 PKD
ROOT
HETATM    1  C   UNL     1     -11.573  13.231  67.202  1.00  0.00    -0.402 C  
HETATM    2  C   UNL     1     -12.056  12.641  65.880  1.00  0.00    -0.396 C  
ENDROOT
BRANCH   2   3
HETATM    3  N   UNL     1     -11.116  11.699  65.245  1.00  0.00    -0.271 NA 
BRANCH   3   4
HETATM    4  C   UNL     1     -11.044  11.831  63.776  1.00  0.00    -0.436 C  
HETATM    5  C   UNL     1      -9.684  11.563  63.133  1.00  0.00    -0.412 C  
ENDBRANCH   3   4
BRANCH   3   6
HETATM    6  C   UNL     1      -9.762  11.783  65.844  1.00  0.00    -0.237 C  
BRANCH   6   7
HETATM    7  C   UNL     1      -9.315  10.543  66.635  1.00  0.00    -0.161 C  
BRANCH   7   8
HETATM    8  N   UNL     1     -10.302  10.114  67.612  1.00  0.00    -0.203 N  
HETATM    9  C   UNL     1     -10.011  10.104  68.961  1.00  0.00    -0.208 C  
HETATM   10  H   UNL     1     -11.224   9.815  67.294  1.00  0.00     0.000 HD 
HETATM   11  O   UNL     1      -8.917  10.422  69.409  1.00  0.00    -0.194 OA 
BRANCH   9  12
HETATM   12  C   UNL     1     -11.132   9.790  69.880  1.00  0.00    -0.293 A  
HETATM   13  C   UNL     1     -11.832  10.883  70.424  1.00  0.00    -0.449 A  
HETATM   14  C   UNL     1     -12.717  10.700  71.487  1.00  0.00    -0.444 A  
HETATM   15  C   UNL     1     -12.900   9.434  72.059  1.00  0.00    -0.414 A  
HETATM   16 CL   UNL     1     -13.497  12.093  72.154  1.00  0.00    -0.531 Cl 
HETATM   17  C   UNL     1     -12.275   8.340  71.449  1.00  0.00    -0.328 A  
HETATM   18  N   UNL     1     -13.825   9.211  73.096  1.00  0.00    -1.136 NA 
HETATM   19  H1  UNL     1     -13.958   8.290  73.513  1.00  0.00     0.000 HD 
HETATM   20  C   UNL     1     -11.380   8.501  70.377  1.00  0.00    -0.182 A  
HETATM   21  H2  UNL     1     -14.735   9.543  72.777  1.00  0.00     0.000 HD 
BRANCH  20  22
HETATM   22  O   UNL     1     -10.760   7.335  70.013  1.00  0.00    -0.234 OA 
HETATM   23  C   UNL     1     -11.064   6.186  70.797  1.00  0.00    -0.309 C  
ENDBRANCH  20  22
ENDBRANCH   9  12
ENDBRANCH   7   8
ENDBRANCH   6   7
ENDBRANCH   3   6
ENDBRANCH   2   3
TORSDOF 7
ENDMDL
MODEL       45
REMARK 921   NORMALIZED FREE ENERGY PREDICTED BY IDOCK:   -5.02 KCAL/MOL
REMARK 922        TOTAL FREE ENERGY PREDICTED BY IDOCK:   -7.79 KCAL/MOL
REMARK 923 INTER-LIGAND FREE ENERGY PREDICTED BY IDOCK:   -6.66 KCAL/MOL
REMARK 924 INTRA-LIGAND FREE ENERGY PREDICTED BY IDOCK:   -1.13 KCAL/MOL
REMARK 927      BINDING AFFINITY PREDICTED BY RF-SCORE:    0.00 PKD
ROOT
HETATM    1  C   UNL     1      -8.381  15.729  68.965  1.00  0.00    -0.236 C  
HETATM    2  C   UNL     1      -8.480  16.636  67.742  1.00  0.00    -0.187 C  
ENDROOT
BRANCH   2   3
HETATM    3  N   UNL     1      -9.856  16.965  67.328  1.00  0.00    -0.259 NA 
BRANCH   3   4
HETATM    4  C   UNL     1     -10.207  18.388  67.510  1.00  0.00    -0.374 C  
HETATM    5  C   UNL     1     -10.426  19.205  66.238  1.00  0.00    -0.551 C  
ENDBRANCH   3   4
BRANCH   3   6
HETATM    6  C   UNL     1     -10.130  16.534  65.935  1.00  0.00    -0.337 C  
BRANCH   6   7
HETATM    7  C   UNL     1     -10.964  15.250  65.797  1.00  0.00    -0.338 C  
BRANCH   7   8
HETATM    8  N   UNL     1     -11.445  14.753  67.075  1.00  0.00    -0.359 N  
HETATM    9  C   UNL     1     -11.001  13.549  67.583  1.00  0.00    -0.263 C  
HETATM   10  H   UNL     1     -12.122  15.302  67.604  1.00  0.00     0.000 HD 
HETATM   11  O   UNL     1     -10.212  12.826  66.989  1.00  0.00    -0.238 OA 
BRANCH   9  12
HETATM   12  C   UNL     1     -11.440  13.204  68.958  1.00  0.00    -0.345 A  
HETATM   13  C   UNL     1     -11.481  11.837  69.287  1.00  0.00    -0.369 A  
HETATM   14  C   UNL     1     -12.122  11.407  70.449  1.00  0.00    -0.384 A  
HETATM   15  C   UNL     1     -12.770  12.320  71.292  1.00  0.00    -0.251 A  
HETATM   16 CL   UNL     1     -12.195   9.707  70.764  1.00  0.00    -0.333 Cl 
HETATM   17  C   UNL     1     -12.640  13.684  71.007  1.00  0.00    -0.441 A  
HETATM   18  N   UNL     1     -13.378  11.920  72.496  1.00  0.00    -0.456 NA 
HETATM   19  H1  UNL     1     -13.850  12.584  73.109  1.00  0.00     0.000 HD 
HETATM   20  C   UNL     1     -11.998  14.140  69.843  1.00  0.00    -0.338 A  
HETATM   21  H2  UNL     1     -12.677  11.429  73.050  1.00  0.00     0.000 HD 
BRANCH  20  22
HETATM   22  O   UNL     1     -12.100  15.495  69.666  1.00  0.00    -0.351 OA 
HETATM   23  C   UNL     1     -11.632  16.309  70.737  1.00  0.00    -0.252 C  
ENDBRANCH  20  22
ENDBRANCH   9  12
ENDBRANCH   7   8
ENDBRANCH   6   7
ENDBRANCH   3   6
ENDBRANCH   2   3
TORSDOF 7
ENDMDL
MODEL       46
REMARK 921   NORMALIZED FREE ENERGY PREDICTED BY IDOCK:   -5.02 KCAL/MOL
REMARK 922        TOTAL FREE ENERGY PREDICTED BY IDOCK:   -7.79 KCAL/MOL
REMARK 923 INTER-LIGAND FREE ENERGY PREDICTED BY IDOCK:   -6.98 KCAL/MOL
REMARK 924 INTRA-LIGAND FREE ENERGY PREDICTED BY IDOCK:   -0.81 KCAL/MOL
REMARK 927      BINDING AFFINITY PREDICTED BY RF-SCORE:    0.00 PKD
ROOT
HETATM    1  C   UNL     1     -11.123   6.380  68.592  1.00  0.00    -0.393 C  
HETATM    2  C   UNL     1     -10.448   6.286  69.957  1.00  0.00    -0.218 C  
ENDROOT
BRANCH   2   3
HETATM    3  N   UNL     1     -11.356   5.968  71.074  1.00  0.00    -0.273 NA 
BRANCH   3   4
HETATM    4  C   UNL     1     -10.659   5.564  72.311  1.00  0.00    -0.224 C  
HETATM    5  C   UNL     1     -11.418   4.627  73.248  1.00  0.00    -0.346 C  
ENDBRANCH   3   4
BRANCH   3   6
HETATM    6  C   UNL     1     -12.302   7.077  71.347  1.00  0.00    -0.377 C  
BRANCH   6   7
HETATM    7  C   UNL     1     -11.687   8.315  72.021  1.00  0.00    -0.346 C  
BRANCH   7   8
HETATM    8  N   UNL     1     -11.559   9.443  71.115  1.00  0.00    -0.316 N  
HETATM    9  C   UNL     1     -12.394  10.537  71.218  1.00  0.00    -0.397 C  
HETATM   10  H   UNL     1     -10.840   9.425  70.391  1.00  0.00     0.000 HD 
HETATM   11  O   UNL     1     -13.294  10.613  72.043  1.00  0.00    -0.440 OA 
BRANCH   9  12
HETATM   12  C   UNL     1     -12.084  11.694  70.342  1.00  0.00    -0.462 A  
HETATM   13  C   UNL     1     -12.353  12.973  70.862  1.00  0.00    -0.376 A  
HETATM   14  C   UNL     1     -12.344  14.093  70.029  1.00  0.00    -0.344 A  
HETATM   15  C   UNL     1     -12.105  13.964  68.654  1.00  0.00    -0.302 A  
HETATM   16 CL   UNL     1     -12.747  15.629  70.716  1.00  0.00    -0.502 Cl 
HETATM   17  C   UNL     1     -11.743  12.703  68.166  1.00  0.00    -0.396 A  
HETATM   18  N   UNL     1     -12.037  15.081  67.802  1.00  0.00    -0.474 NA 
HETATM   19  H1  UNL     1     -11.864  14.987  66.801  1.00  0.00     0.000 HD 
HETATM   20  C   UNL     1     -11.745  11.562  68.987  1.00  0.00    -0.335 A  
HETATM   21  H2  UNL     1     -11.338  15.719  68.181  1.00  0.00     0.000 HD 
BRANCH  20  22
HETATM   22  O   UNL     1     -11.507  10.402  68.297  1.00  0.00    -0.273 OA 
HETATM   23  C   UNL     1     -10.195  10.240  67.765  1.00  0.00    -0.187 C  
ENDBRANCH  20  22
ENDBRANCH   9  12
ENDBRANCH   7   8
ENDBRANCH   6   7
ENDBRANCH   3   6
ENDBRANCH   2   3
TORSDOF 7
ENDMDL
MODEL       47
REMARK 921   NORMALIZED FREE ENERGY PREDICTED BY IDOCK:   -5.02 KCAL/MOL
REMARK 922        TOTAL FREE ENERGY PREDICTED BY IDOCK:   -7.78 KCAL/MOL
REMARK 923 INTER-LIGAND FREE ENERGY PREDICTED BY IDOCK:   -6.96 KCAL/MOL
REMARK 924 INTRA-LIGAND FREE ENERGY PREDICTED BY IDOCK:   -0.82 KCAL/MOL
REMARK 927      BINDING AFFINITY PREDICTED BY RF-SCORE:    0.00 PKD
ROOT
HETATM    1  C   UNL     1     -11.173   6.166  71.095  1.00  0.00    -0.355 C  
HETATM    2  C   UNL     1     -11.278   6.346  69.584  1.00  0.00    -0.418 C  
ENDROOT
BRANCH   2   3
HETATM    3  N   UNL     1     -10.155   7.080  68.972  1.00  0.00    -0.175 NA 
BRANCH   3   4
HETATM    4  C   UNL     1      -8.881   6.333  68.983  1.00  0.00    -0.124 C  
HETATM    5  C   UNL     1      -8.088   6.317  67.677  1.00  0.00    -0.117 C  
ENDBRANCH   3   4
BRANCH   3   6
HETATM    6  C   UNL     1     -10.480   7.537  67.598  1.00  0.00    -0.250 C  
BRANCH   6   7
HETATM    7  C   UNL     1     -10.493   9.061  67.399  1.00  0.00    -0.269 C  
BRANCH   7   8
HETATM    8  N   UNL     1     -11.312   9.749  68.382  1.00  0.00    -0.517 N  
HETATM    9  C   UNL     1     -10.839  10.857  69.054  1.00  0.00    -0.230 C  
HETATM   10  H   UNL     1     -12.253   9.406  68.578  1.00  0.00     0.000 HD 
HETATM   11  O   UNL     1      -9.712  11.305  68.889  1.00  0.00    -0.196 OA 
BRANCH   9  12
HETATM   12  C   UNL     1     -11.805  11.570  69.925  1.00  0.00    -0.430 A  
HETATM   13  C   UNL     1     -11.874  12.968  69.786  1.00  0.00    -0.381 A  
HETATM   14  C   UNL     1     -12.550  13.742  70.730  1.00  0.00    -0.340 A  
HETATM   15  C   UNL     1     -13.141  13.149  71.854  1.00  0.00    -0.385 A  
HETATM   16 CL   UNL     1     -12.543  15.461  70.538  1.00  0.00    -0.457 Cl 
HETATM   17  C   UNL     1     -13.152  11.752  71.931  1.00  0.00    -0.482 A  
HETATM   18  N   UNL     1     -13.874  13.899  72.792  1.00  0.00    -0.688 NA 
HETATM   19  H1  UNL     1     -14.304  13.468  73.611  1.00  0.00     0.000 HD 
HETATM   20  C   UNL     1     -12.477  10.953  70.992  1.00  0.00    -0.411 A  
HETATM   21  H2  UNL     1     -14.602  14.404  72.287  1.00  0.00     0.000 HD 
BRANCH  20  22
HETATM   22  O   UNL     1     -12.478   9.622  71.317  1.00  0.00    -0.316 OA 
HETATM   23  C   UNL     1     -13.729   9.069  71.714  1.00  0.00    -0.419 C  
ENDBRANCH  20  22
ENDBRANCH   9  12
ENDBRANCH   7   8
ENDBRANCH   6   7
ENDBRANCH   3   6
ENDBRANCH   2   3
TORSDOF 7
ENDMDL
MODEL       48
REMARK 921   NORMALIZED FREE ENERGY PREDICTED BY IDOCK:   -5.01 KCAL/MOL
REMARK 922        TOTAL FREE ENERGY PREDICTED BY IDOCK:   -7.77 KCAL/MOL
REMARK 923 INTER-LIGAND FREE ENERGY PREDICTED BY IDOCK:   -6.95 KCAL/MOL
REMARK 924 INTRA-LIGAND FREE ENERGY PREDICTED BY IDOCK:   -0.82 KCAL/MOL
REMARK 927      BINDING AFFINITY PREDICTED BY RF-SCORE:    0.00 PKD
ROOT
HETATM    1  C   UNL     1      -8.141  16.589  66.439  1.00  0.00    -0.362 C  
HETATM    2  C   UNL     1      -9.050  15.367  66.353  1.00  0.00    -0.314 C  
ENDROOT
BRANCH   2   3
HETATM    3  N   UNL     1      -9.749  15.029  67.606  1.00  0.00    -0.215 NA 
BRANCH   3   4
HETATM    4  C   UNL     1      -9.428  15.933  68.729  1.00  0.00    -0.221 C  
HETATM    5  C   UNL     1     -10.610  16.618  69.413  1.00  0.00    -0.333 C  
ENDBRANCH   3   4
BRANCH   3   6
HETATM    6  C   UNL     1     -11.217  14.939  67.412  1.00  0.00    -0.338 C  
BRANCH   6   7
HETATM    7  C   UNL     1     -11.743  13.551  67.012  1.00  0.00    -0.383 C  
BRANCH   7   8
HETATM    8  N   UNL     1     -12.148  12.753  68.156  1.00  0.00    -0.218 N  
HETATM    9  C   UNL     1     -11.269  11.879  68.762  1.00  0.00    -0.259 C  
HETATM   10  H   UNL     1     -13.098  12.841  68.517  1.00  0.00     0.000 HD 
HETATM   11  O   UNL     1     -10.125  11.703  68.364  1.00  0.00    -0.195 OA 
BRANCH   9  12
HETATM   12  C   UNL     1     -11.735  11.224  70.008  1.00  0.00    -0.428 A  
HETATM   13  C   UNL     1     -11.461   9.850  70.144  1.00  0.00    -0.309 A  
HETATM   14  C   UNL     1     -12.080   9.100  71.143  1.00  0.00    -0.299 A  
HETATM   15  C   UNL     1     -13.014   9.686  72.009  1.00  0.00    -0.428 A  
HETATM   16 CL   UNL     1     -11.753   7.402  71.217  1.00  0.00    -0.303 Cl 
HETATM   17  C   UNL     1     -13.204  11.071  71.929  1.00  0.00    -0.503 A  
HETATM   18  N   UNL     1     -13.612   8.966  73.059  1.00  0.00    -0.981 NA 
HETATM   19  H1  UNL     1     -14.292   9.393  73.688  1.00  0.00     0.000 HD 
HETATM   20  C   UNL     1     -12.591  11.846  70.930  1.00  0.00    -0.266 A  
HETATM   21  H2  UNL     1     -12.865   8.569  73.629  1.00  0.00     0.000 HD 
BRANCH  20  22
HETATM   22  O   UNL     1     -13.013  13.150  70.924  1.00  0.00    -0.192 OA 
HETATM   23  C   UNL     1     -13.095  13.793  72.192  1.00  0.00    -0.406 C  
ENDBRANCH  20  22
ENDBRANCH   9  12
ENDBRANCH   7   8
ENDBRANCH   6   7
ENDBRANCH   3   6
ENDBRANCH   2   3
TORSDOF 7
ENDMDL
MODEL       49
REMARK 921   NORMALIZED FREE ENERGY PREDICTED BY IDOCK:   -4.99 KCAL/MOL
REMARK 922        TOTAL FREE ENERGY PREDICTED BY IDOCK:   -7.74 KCAL/MOL
REMARK 923 INTER-LIGAND FREE ENERGY PREDICTED BY IDOCK:   -6.85 KCAL/MOL
REMARK 924 INTRA-LIGAND FREE ENERGY PREDICTED BY IDOCK:   -0.89 KCAL/MOL
REMARK 927      BINDING AFFINITY PREDICTED BY RF-SCORE:    0.00 PKD
ROOT
HETATM    1  C   UNL     1      -8.674  12.376  67.488  1.00  0.00    -0.179 C  
HETATM    2  C   UNL     1      -8.913  11.825  66.085  1.00  0.00    -0.145 C  
ENDROOT
BRANCH   2   3
HETATM    3  N   UNL     1     -10.169  11.070  65.926  1.00  0.00    -0.247 NA 
BRANCH   3   4
HETATM    4  C   UNL     1     -10.991  11.517  64.783  1.00  0.00    -0.273 C  
HETATM    5  C   UNL     1     -10.238  12.084  63.581  1.00  0.00    -0.470 C  
ENDBRANCH   3   4
BRANCH   3   6
HETATM    6  C   UNL     1      -9.928   9.608  65.854  1.00  0.00    -0.281 C  
BRANCH   6   7
HETATM    7  C   UNL     1     -10.193   8.834  67.156  1.00  0.00    -0.276 C  
BRANCH   7   8
HETATM    8  N   UNL     1     -11.153   9.499  68.019  1.00  0.00    -0.514 N  
HETATM    9  C   UNL     1     -10.795   9.941  69.277  1.00  0.00    -0.227 C  
HETATM   10  H   UNL     1     -12.108   9.642  67.690  1.00  0.00     0.000 HD 
HETATM   11  O   UNL     1      -9.676   9.777  69.745  1.00  0.00    -0.202 OA 
BRANCH   9  12
HETATM   12  C   UNL     1     -11.806  10.735  70.016  1.00  0.00    -0.424 A  
HETATM   13  C   UNL     1     -11.754  12.132  69.859  1.00  0.00    -0.361 A  
HETATM   14  C   UNL     1     -12.482  12.968  70.706  1.00  0.00    -0.302 A  
HETATM   15  C   UNL     1     -13.249  12.438  71.753  1.00  0.00    -0.334 A  
HETATM   16 CL   UNL     1     -12.325  14.679  70.503  1.00  0.00    -0.376 Cl 
HETATM   17  C   UNL     1     -13.371  11.047  71.839  1.00  0.00    -0.423 A  
HETATM   18  N   UNL     1     -14.035  13.255  72.588  1.00  0.00    -0.734 NA 
HETATM   19  H1  UNL     1     -14.593  12.869  73.350  1.00  0.00     0.000 HD 
HETATM   20  C   UNL     1     -12.647  10.186  70.996  1.00  0.00    -0.381 A  
HETATM   21  H2  UNL     1     -14.656  13.802  71.992  1.00  0.00     0.000 HD 
BRANCH  20  22
HETATM   22  O   UNL     1     -12.786   8.864  71.329  1.00  0.00    -0.313 OA 
HETATM   23  C   UNL     1     -11.890   8.363  72.316  1.00  0.00    -0.389 C  
ENDBRANCH  20  22
ENDBRANCH   9  12
ENDBRANCH   7   8
ENDBRANCH   6   7
ENDBRANCH   3   6
ENDBRANCH   2   3
TORSDOF 7
ENDMDL
MODEL       50
REMARK 921   NORMALIZED FREE ENERGY PREDICTED BY IDOCK:   -4.98 KCAL/MOL
REMARK 922        TOTAL FREE ENERGY PREDICTED BY IDOCK:   -7.73 KCAL/MOL
REMARK 923 INTER-LIGAND FREE ENERGY PREDICTED BY IDOCK:   -6.96 KCAL/MOL
REMARK 924 INTRA-LIGAND FREE ENERGY PREDICTED BY IDOCK:   -0.77 KCAL/MOL
REMARK 927      BINDING AFFINITY PREDICTED BY RF-SCORE:    0.00 PKD
ROOT
HETATM    1  C   UNL     1     -12.393  12.028  63.573  1.00  0.00    -0.661 C  
HETATM    2  C   UNL     1     -12.618  12.875  64.822  1.00  0.00    -0.425 C  
ENDROOT
BRANCH   2   3
HETATM    3  N   UNL     1     -11.407  13.125  65.624  1.00  0.00    -0.298 NA 
BRANCH   3   4
HETATM    4  C   UNL     1     -10.518  14.157  65.052  1.00  0.00    -0.425 C  
HETATM    5  C   UNL     1     -11.146  15.523  64.779  1.00  0.00    -0.421 C  
ENDBRANCH   3   4
BRANCH   3   6
HETATM    6  C   UNL     1     -11.736  13.443  67.035  1.00  0.00    -0.381 C  
BRANCH   6   7
HETATM    7  C   UNL     1     -10.570  13.307  68.028  1.00  0.00    -0.240 C  
BRANCH   7   8
HETATM    8  N   UNL     1     -10.857  12.377  69.106  1.00  0.00    -0.423 N  
HETATM    9  C   UNL     1     -10.468  11.055  69.028  1.00  0.00    -0.216 C  
HETATM   10  H   UNL     1     -11.354  12.706  69.934  1.00  0.00     0.000 HD 
HETATM   11  O   UNL     1      -9.894  10.586  68.054  1.00  0.00    -0.145 OA 
BRANCH   9  12
HETATM   12  C   UNL     1     -10.678  10.227  70.241  1.00  0.00    -0.310 A  
HETATM   13  C   UNL     1      -9.714   9.238  70.509  1.00  0.00    -0.316 A  
HETATM   14  C   UNL     1      -9.959   8.250  71.464  1.00  0.00    -0.199 A  
HETATM   15  C   UNL     1     -11.181   8.199  72.148  1.00  0.00    -0.329 A  
HETATM   16 CL   UNL     1      -8.761   7.024  71.701  1.00  0.00    -0.117 Cl 
HETATM   17  C   UNL     1     -12.092   9.243  71.945  1.00  0.00    -0.440 A  
HETATM   18  N   UNL     1     -11.433   7.247  73.153  1.00  0.00    -0.580 NA 
HETATM   19  H1  UNL     1     -12.323   7.210  73.650  1.00  0.00     0.000 HD 
HETATM   20  C   UNL     1     -11.866  10.248  70.989  1.00  0.00    -0.377 A  
HETATM   21  H2  UNL     1     -10.691   7.325  73.848  1.00  0.00     0.000 HD 
BRANCH  20  22
HETATM   22  O   UNL     1     -12.933  11.093  70.833  1.00  0.00    -0.297 OA 
HETATM   23  C   UNL     1     -13.194  11.987  71.911  1.00  0.00    -0.364 C  
ENDBRANCH  20  22
ENDBRANCH   9  12
ENDBRANCH   7   8
ENDBRANCH   6   7
ENDBRANCH   3   6
ENDBRANCH   2   3
TORSDOF 7
ENDMDL
MODEL       51
REMARK 921   NORMALIZED FREE ENERGY PREDICTED BY IDOCK:   -4.96 KCAL/MOL
REMARK 922        TOTAL FREE ENERGY PREDICTED BY IDOCK:   -7.70 KCAL/MOL
REMARK 923 INTER-LIGAND FREE ENERGY PREDICTED BY IDOCK:   -6.91 KCAL/MOL
REMARK 924 INTRA-LIGAND FREE ENERGY PREDICTED BY IDOCK:   -0.79 KCAL/MOL
REMARK 927      BINDING AFFINITY PREDICTED BY RF-SCORE:    0.00 PKD
ROOT
HETATM    1  C   UNL     1     -11.177   6.449  69.251  1.00  0.00    -0.440 C  
HETATM    2  C   UNL     1     -10.850   5.851  70.615  1.00  0.00    -0.292 C  
ENDROOT
BRANCH   2   3
HETATM    3  N   UNL     1     -11.773   6.241  71.697  1.00  0.00    -0.304 NA 
BRANCH   3   4
HETATM    4  C   UNL     1     -11.099   6.837  72.868  1.00  0.00    -0.243 C  
HETATM    5  C   UNL     1      -9.573   6.886  72.825  1.00  0.00    -0.166 C  
ENDBRANCH   3   4
BRANCH   3   6
HETATM    6  C   UNL     1     -12.851   7.133  71.205  1.00  0.00    -0.349 C  
BRANCH   6   7
HETATM    7  C   UNL     1     -13.129   8.369  72.077  1.00  0.00    -0.352 C  
BRANCH   7   8
HETATM    8  N   UNL     1     -13.163   9.601  71.308  1.00  0.00    -0.449 N  
HETATM    9  C   UNL     1     -11.998  10.245  70.941  1.00  0.00    -0.375 C  
HETATM   10  H   UNL     1     -14.063   9.997  71.035  1.00  0.00     0.000 HD 
HETATM   11  O   UNL     1     -10.887   9.842  71.259  1.00  0.00    -0.334 OA 
BRANCH   9  12
HETATM   12  C   UNL     1     -12.139  11.411  70.036  1.00  0.00    -0.417 A  
HETATM   13  C   UNL     1     -11.867  11.193  68.673  1.00  0.00    -0.357 A  
HETATM   14  C   UNL     1     -11.717  12.270  67.799  1.00  0.00    -0.337 A  
HETATM   15  C   UNL     1     -11.798  13.590  68.265  1.00  0.00    -0.366 A  
HETATM   16 CL   UNL     1     -11.318  11.938  66.149  1.00  0.00    -0.391 Cl 
HETATM   17  C   UNL     1     -12.166  13.795  69.599  1.00  0.00    -0.359 A  
HETATM   18  N   UNL     1     -11.704  14.693  67.396  1.00  0.00    -0.392 NA 
HETATM   19  H1  UNL     1     -11.763  15.654  67.735  1.00  0.00     0.000 HD 
HETATM   20  C   UNL     1     -12.322  12.724  70.497  1.00  0.00    -0.275 A  
HETATM   21  H2  UNL     1     -12.409  14.577  66.668  1.00  0.00     0.000 HD 
BRANCH  20  22
HETATM   22  O   UNL     1     -12.538  13.131  71.788  1.00  0.00    -0.203 OA 
HETATM   23  C   UNL     1     -13.881  13.457  72.132  1.00  0.00    -0.511 C  
ENDBRANCH  20  22
ENDBRANCH   9  12
ENDBRANCH   7   8
ENDBRANCH   6   7
ENDBRANCH   3   6
ENDBRANCH   2   3
TORSDOF 7
ENDMDL
MODEL       52
REMARK 921   NORMALIZED FREE ENERGY PREDICTED BY IDOCK:   -4.96 KCAL/MOL
REMARK 922        TOTAL FREE ENERGY PREDICTED BY IDOCK:   -7.70 KCAL/MOL
REMARK 923 INTER-LIGAND FREE ENERGY PREDICTED BY IDOCK:   -7.22 KCAL/MOL
REMARK 924 INTRA-LIGAND FREE ENERGY PREDICTED BY IDOCK:   -0.48 KCAL/MOL
REMARK 927      BINDING AFFINITY PREDICTED BY RF-SCORE:    0.00 PKD
ROOT
HETATM    1  C   UNL     1      -9.733  20.557  67.098  1.00  0.00    -0.581 C  
HETATM    2  C   UNL     1     -10.303  19.506  66.150  1.00  0.00    -0.520 C  
ENDROOT
BRANCH   2   3
HETATM    3  N   UNL     1      -9.462  18.307  65.981  1.00  0.00    -0.513 NA 
BRANCH   3   4
HETATM    4  C   UNL     1      -8.148  18.404  66.648  1.00  0.00    -0.264 C  
HETATM    5  C   UNL     1      -6.937  18.618  65.742  1.00  0.00    -0.290 C  
ENDBRANCH   3   4
BRANCH   3   6
HETATM    6  C   UNL     1     -10.171  17.073  66.401  1.00  0.00    -0.326 C  
BRANCH   6   7
HETATM    7  C   UNL     1     -10.744  17.099  67.828  1.00  0.00    -0.329 C  
BRANCH   7   8
HETATM    8  N   UNL     1     -11.361  15.840  68.207  1.00  0.00    -0.358 N  
HETATM    9  C   UNL     1     -10.641  14.861  68.861  1.00  0.00    -0.247 C  
HETATM   10  H   UNL     1     -12.344  15.676  67.986  1.00  0.00     0.000 HD 
HETATM   11  O   UNL     1      -9.453  14.978  69.132  1.00  0.00    -0.208 OA 
BRANCH   9  12
HETATM   12  C   UNL     1     -11.401  13.678  69.332  1.00  0.00    -0.303 A  
HETATM   13  C   UNL     1     -12.235  13.863  70.450  1.00  0.00    -0.438 A  
HETATM   14  C   UNL     1     -12.778  12.765  71.119  1.00  0.00    -0.263 A  
HETATM   15  C   UNL     1     -12.477  11.457  70.716  1.00  0.00    -0.365 A  
HETATM   16 CL   UNL     1     -13.742  13.057  72.525  1.00  0.00    -0.624 Cl 
HETATM   17  C   UNL     1     -11.728  11.286  69.546  1.00  0.00    -0.415 A  
HETATM   18  N   UNL     1     -13.053  10.334  71.338  1.00  0.00    -0.401 NA 
HETATM   19  H1  UNL     1     -12.834   9.383  71.045  1.00  0.00     0.000 HD 
HETATM   20  C   UNL     1     -11.171  12.378  68.856  1.00  0.00    -0.280 A  
HETATM   21  H2  UNL     1     -14.067  10.445  71.302  1.00  0.00     0.000 HD 
BRANCH  20  22
HETATM   22  O   UNL     1     -10.352  12.002  67.824  1.00  0.00    -0.191 OA 
HETATM   23  C   UNL     1     -10.994  11.646  66.604  1.00  0.00    -0.299 C  
ENDBRANCH  20  22
ENDBRANCH   9  12
ENDBRANCH   7   8
ENDBRANCH   6   7
ENDBRANCH   3   6
ENDBRANCH   2   3
TORSDOF 7
ENDMDL
MODEL       53
REMARK 921   NORMALIZED FREE ENERGY PREDICTED BY IDOCK:   -4.95 KCAL/MOL
REMARK 922        TOTAL FREE ENERGY PREDICTED BY IDOCK:   -7.69 KCAL/MOL
REMARK 923 INTER-LIGAND FREE ENERGY PREDICTED BY IDOCK:   -6.95 KCAL/MOL
REMARK 924 INTRA-LIGAND FREE ENERGY PREDICTED BY IDOCK:   -0.75 KCAL/MOL
REMARK 927      BINDING AFFINITY PREDICTED BY RF-SCORE:    0.00 PKD
ROOT
HETATM    1  C   UNL     1      -6.015  17.842  65.859  1.00  0.00    -0.243 C  
HETATM    2  C   UNL     1      -6.904  19.067  66.052  1.00  0.00    -0.248 C  
ENDROOT
BRANCH   2   3
HETATM    3  N   UNL     1      -8.097  18.836  66.887  1.00  0.00    -0.251 NA 
BRANCH   3   4
HETATM    4  C   UNL     1      -7.917  19.222  68.301  1.00  0.00    -0.326 C  
HETATM    5  C   UNL     1      -6.538  19.750  68.695  1.00  0.00    -0.332 C  
ENDBRANCH   3   4
BRANCH   3   6
HETATM    6  C   UNL     1      -9.301  19.489  66.318  1.00  0.00    -0.372 C  
BRANCH   6   7
HETATM    7  C   UNL     1     -10.629  18.760  66.581  1.00  0.00    -0.383 C  
BRANCH   7   8
HETATM    8  N   UNL     1     -10.492  17.314  66.548  1.00  0.00    -0.297 N  
HETATM    9  C   UNL     1     -10.766  16.599  65.401  1.00  0.00    -0.215 C  
HETATM   10  H   UNL     1     -10.189  16.820  67.388  1.00  0.00     0.000 HD 
HETATM   11  O   UNL     1     -11.161  17.123  64.367  1.00  0.00    -1.143 OA 
BRANCH   9  12
HETATM   12  C   UNL     1     -10.454  15.149  65.430  1.00  0.00    -0.416 A  
HETATM   13  C   UNL     1     -11.191  14.323  64.561  1.00  0.00    -0.331 A  
HETATM   14  C   UNL     1     -11.156  12.936  64.702  1.00  0.00    -0.324 A  
HETATM   15  C   UNL     1     -10.419  12.337  65.733  1.00  0.00    -0.255 A  
HETATM   16 CL   UNL     1     -12.135  11.979  63.644  1.00  0.00    -0.613 Cl 
HETATM   17  C   UNL     1      -9.614  13.159  66.529  1.00  0.00    -0.268 A  
HETATM   18  N   UNL     1     -10.324  10.939  65.866  1.00  0.00    -0.257 NA 
HETATM   19  H1  UNL     1      -9.788  10.503  66.616  1.00  0.00     0.000 HD 
HETATM   20  C   UNL     1      -9.633  14.560  66.404  1.00  0.00    -0.303 A  
HETATM   21  H2  UNL     1      -9.982  10.565  64.980  1.00  0.00     0.000 HD 
BRANCH  20  22
HETATM   22  O   UNL     1      -8.893  15.197  67.365  1.00  0.00    -0.171 OA 
HETATM   23  C   UNL     1      -7.530  14.799  67.479  1.00  0.00    -0.198 C  
ENDBRANCH  20  22
ENDBRANCH   9  12
ENDBRANCH   7   8
ENDBRANCH   6   7
ENDBRANCH   3   6
ENDBRANCH   2   3
TORSDOF 7
ENDMDL
MODEL       54
REMARK 921   NORMALIZED FREE ENERGY PREDICTED BY IDOCK:   -4.91 KCAL/MOL
REMARK 922        TOTAL FREE ENERGY PREDICTED BY IDOCK:   -7.64 KCAL/MOL
REMARK 923 INTER-LIGAND FREE ENERGY PREDICTED BY IDOCK:   -6.96 KCAL/MOL
REMARK 924 INTRA-LIGAND FREE ENERGY PREDICTED BY IDOCK:   -0.68 KCAL/MOL
REMARK 927      BINDING AFFINITY PREDICTED BY RF-SCORE:    0.00 PKD
ROOT
HETATM    1  C   UNL     1     -10.590  16.430  65.363  1.00  0.00    -0.338 C  
HETATM    2  C   UNL     1     -10.545  14.907  65.285  1.00  0.00    -0.401 C  
ENDROOT
BRANCH   2   3
HETATM    3  N   UNL     1     -11.809  14.274  64.867  1.00  0.00    -0.389 NA 
BRANCH   3   4
HETATM    4  C   UNL     1     -11.639  13.235  63.830  1.00  0.00    -0.400 C  
HETATM    5  C   UNL     1     -11.403  11.809  64.325  1.00  0.00    -0.400 C  
ENDBRANCH   3   4
BRANCH   3   6
HETATM    6  C   UNL     1     -12.566  13.737  66.024  1.00  0.00    -0.408 C  
BRANCH   6   7
HETATM    7  C   UNL     1     -11.848  13.835  67.380  1.00  0.00    -0.396 C  
BRANCH   7   8
HETATM    8  N   UNL     1     -11.680  12.542  68.021  1.00  0.00    -0.346 N  
HETATM    9  C   UNL     1     -11.908  12.381  69.373  1.00  0.00    -0.304 C  
HETATM   10  H   UNL     1     -11.389  11.739  67.462  1.00  0.00     0.000 HD 
HETATM   11  O   UNL     1     -12.232  13.305  70.107  1.00  0.00    -0.334 OA 
BRANCH   9  12
HETATM   12  C   UNL     1     -11.851  10.995  69.897  1.00  0.00    -0.431 A  
HETATM   13  C   UNL     1     -12.908  10.588  70.732  1.00  0.00    -0.454 A  
HETATM   14  C   UNL     1     -12.811   9.412  71.475  1.00  0.00    -0.362 A  
HETATM   15  C   UNL     1     -11.648   8.630  71.435  1.00  0.00    -0.293 A  
HETATM   16 CL   UNL     1     -14.117   9.000  72.533  1.00  0.00    -0.508 Cl 
HETATM   17  C   UNL     1     -10.645   8.991  70.529  1.00  0.00    -0.274 A  
HETATM   18  N   UNL     1     -11.545   7.412  72.133  1.00  0.00    -0.283 NA 
HETATM   19  H1  UNL     1     -10.699   6.844  72.104  1.00  0.00     0.000 HD 
HETATM   20  C   UNL     1     -10.722  10.172  69.770  1.00  0.00    -0.279 A  
HETATM   21  H2  UNL     1     -12.327   6.823  71.846  1.00  0.00     0.000 HD 
BRANCH  20  22
HETATM   22  O   UNL     1      -9.582  10.427  69.054  1.00  0.00    -0.184 OA 
HETATM   23  C   UNL     1      -8.350  10.085  69.682  1.00  0.00    -0.176 C  
ENDBRANCH  20  22
ENDBRANCH   9  12
ENDBRANCH   7   8
ENDBRANCH   6   7
ENDBRANCH   3   6
ENDBRANCH   2   3
TORSDOF 7
ENDMDL
MODEL       55
REMARK 921   NORMALIZED FREE ENERGY PREDICTED BY IDOCK:   -4.91 KCAL/MOL
REMARK 922        TOTAL FREE ENERGY PREDICTED BY IDOCK:   -7.63 KCAL/MOL
REMARK 923 INTER-LIGAND FREE ENERGY PREDICTED BY IDOCK:   -6.96 KCAL/MOL
REMARK 924 INTRA-LIGAND FREE ENERGY PREDICTED BY IDOCK:   -0.67 KCAL/MOL
REMARK 927      BINDING AFFINITY PREDICTED BY RF-SCORE:    0.00 PKD
ROOT
HETATM    1  C   UNL     1      -9.414   7.729  73.416  1.00  0.00    -0.349 C  
HETATM    2  C   UNL     1     -10.564   8.240  72.554  1.00  0.00    -0.337 C  
ENDROOT
BRANCH   2   3
HETATM    3  N   UNL     1     -10.364   8.082  71.102  1.00  0.00    -0.196 NA 
BRANCH   3   4
HETATM    4  C   UNL     1     -11.291   7.118  70.476  1.00  0.00    -0.297 C  
HETATM    5  C   UNL     1     -12.600   6.848  71.218  1.00  0.00    -0.394 C  
ENDBRANCH   3   4
BRANCH   3   6
HETATM    6  C   UNL     1     -10.411   9.385  70.395  1.00  0.00    -0.262 C  
BRANCH   6   7
HETATM    7  C   UNL     1     -11.491  10.361  70.887  1.00  0.00    -0.297 C  
BRANCH   7   8
HETATM    8  N   UNL     1     -11.334  11.696  70.337  1.00  0.00    -0.408 N  
HETATM    9  C   UNL     1     -11.807  12.009  69.078  1.00  0.00    -0.315 C  
HETATM   10  H   UNL     1     -10.866  12.415  70.890  1.00  0.00     0.000 HD 
HETATM   11  O   UNL     1     -12.352  11.190  68.350  1.00  0.00    -0.556 OA 
BRANCH   9  12
HETATM   12  C   UNL     1     -11.727  13.433  68.672  1.00  0.00    -0.384 A  
HETATM   13  C   UNL     1     -11.330  13.693  67.347  1.00  0.00    -0.340 A  
HETATM   14  C   UNL     1     -10.975  14.984  66.954  1.00  0.00    -0.324 A  
HETATM   15  C   UNL     1     -10.970  16.040  67.877  1.00  0.00    -0.327 A  
HETATM   16 CL   UNL     1     -10.434  15.227  65.329  1.00  0.00    -0.412 Cl 
HETATM   17  C   UNL     1     -11.459  15.790  69.164  1.00  0.00    -0.383 A  
HETATM   18  N   UNL     1     -10.668  17.360  67.495  1.00  0.00    -0.322 NA 
HETATM   19  H1  UNL     1     -10.664  18.128  68.167  1.00  0.00     0.000 HD 
HETATM   20  C   UNL     1     -11.822  14.498  69.581  1.00  0.00    -0.318 A  
HETATM   21  H2  UNL     1     -11.297  17.615  66.734  1.00  0.00     0.000 HD 
BRANCH  20  22
HETATM   22  O   UNL     1     -12.135  14.429  70.913  1.00  0.00    -0.309 OA 
HETATM   23  C   UNL     1     -11.874  15.598  71.685  1.00  0.00    -0.429 C  
ENDBRANCH  20  22
ENDBRANCH   9  12
ENDBRANCH   7   8
ENDBRANCH   6   7
ENDBRANCH   3   6
ENDBRANCH   2   3
TORSDOF 7
ENDMDL
MODEL       56
REMARK 921   NORMALIZED FREE ENERGY PREDICTED BY IDOCK:   -4.89 KCAL/MOL
REMARK 922        TOTAL FREE ENERGY PREDICTED BY IDOCK:   -7.61 KCAL/MOL
REMARK 923 INTER-LIGAND FREE ENERGY PREDICTED BY IDOCK:   -6.97 KCAL/MOL
REMARK 924 INTRA-LIGAND FREE ENERGY PREDICTED BY IDOCK:   -0.64 KCAL/MOL
REMARK 927      BINDING AFFINITY PREDICTED BY RF-SCORE:    0.00 PKD
ROOT
HETATM    1  C   UNL     1     -12.305  12.888  65.224  1.00  0.00    -0.544 C  
HETATM    2  C   UNL     1     -12.281  13.703  66.514  1.00  0.00    -0.404 C  
ENDROOT
BRANCH   2   3
HETATM    3  N   UNL     1     -10.948  14.193  66.910  1.00  0.00    -0.296 NA 
BRANCH   3   4
HETATM    4  C   UNL     1     -10.603  15.508  66.333  1.00  0.00    -0.311 C  
HETATM    5  C   UNL     1      -9.162  15.690  65.860  1.00  0.00    -0.330 C  
ENDBRANCH   3   4
BRANCH   3   6
HETATM    6  C   UNL     1     -10.782  14.209  68.383  1.00  0.00    -0.256 C  
BRANCH   6   7
HETATM    7  C   UNL     1     -11.987  13.690  69.186  1.00  0.00    -0.351 C  
BRANCH   7   8
HETATM    8  N   UNL     1     -11.639  12.597  70.077  1.00  0.00    -0.531 N  
HETATM    9  C   UNL     1     -11.820  11.283  69.697  1.00  0.00    -0.360 C  
HETATM   10  H   UNL     1     -11.254  12.805  70.999  1.00  0.00     0.000 HD 
HETATM   11  O   UNL     1     -12.302  10.962  68.618  1.00  0.00    -0.501 OA 
BRANCH   9  12
HETATM   12  C   UNL     1     -11.297  10.245  70.619  1.00  0.00    -0.431 A  
HETATM   13  C   UNL     1     -10.011   9.743  70.347  1.00  0.00    -0.294 A  
HETATM   14  C   UNL     1      -9.548   8.596  70.990  1.00  0.00    -0.209 A  
HETATM   15  C   UNL     1     -10.363   7.898  71.891  1.00  0.00    -0.215 A  
HETATM   16 CL   UNL     1      -7.983   7.992  70.564  1.00  0.00    -0.094 Cl 
HETATM   17  C   UNL     1     -11.600   8.459  72.228  1.00  0.00    -0.453 A  
HETATM   18  N   UNL     1      -9.902   6.769  72.594  1.00  0.00    -0.167 NA 
HETATM   19  H1  UNL     1     -10.496   6.261  73.249  1.00  0.00     0.000 HD 
HETATM   20  C   UNL     1     -12.087   9.615  71.593  1.00  0.00    -0.402 A  
HETATM   21  H2  UNL     1      -9.051   7.037  73.088  1.00  0.00     0.000 HD 
BRANCH  20  22
HETATM   22  O   UNL     1     -13.373   9.925  71.950  1.00  0.00    -0.407 OA 
HETATM   23  C   UNL     1     -14.281   8.832  72.053  1.00  0.00    -0.414 C  
ENDBRANCH  20  22
ENDBRANCH   9  12
ENDBRANCH   7   8
ENDBRANCH   6   7
ENDBRANCH   3   6
ENDBRANCH   2   3
TORSDOF 7
ENDMDL
MODEL       57
REMARK 921   NORMALIZED FREE ENERGY PREDICTED BY IDOCK:   -4.87 KCAL/MOL
REMARK 922        TOTAL FREE ENERGY PREDICTED BY IDOCK:   -7.57 KCAL/MOL
REMARK 923 INTER-LIGAND FREE ENERGY PREDICTED BY IDOCK:   -6.68 KCAL/MOL
REMARK 924 INTRA-LIGAND FREE ENERGY PREDICTED BY IDOCK:   -0.89 KCAL/MOL
REMARK 927      BINDING AFFINITY PREDICTED BY RF-SCORE:    0.00 PKD
ROOT
HETATM    1  C   UNL     1     -10.201  11.770  67.316  1.00  0.00    -0.226 C  
HETATM    2  C   UNL     1     -10.948  11.241  66.095  1.00  0.00    -0.191 C  
ENDROOT
BRANCH   2   3
HETATM    3  N   UNL     1     -10.923  12.134  64.922  1.00  0.00    -0.300 NA 
BRANCH   3   4
HETATM    4  C   UNL     1     -10.412  11.490  63.695  1.00  0.00    -0.427 C  
HETATM    5  C   UNL     1      -9.487  10.289  63.889  1.00  0.00    -0.356 C  
ENDBRANCH   3   4
BRANCH   3   6
HETATM    6  C   UNL     1     -12.248  12.753  64.673  1.00  0.00    -0.447 C  
BRANCH   6   7
HETATM    7  C   UNL     1     -12.254  14.290  64.616  1.00  0.00    -0.454 C  
BRANCH   7   8
HETATM    8  N   UNL     1     -11.297  14.890  65.529  1.00  0.00    -0.350 N  
HETATM    9  C   UNL     1     -10.790  16.153  65.301  1.00  0.00    -0.336 C  
HETATM   10  H   UNL     1     -10.994  14.368  66.352  1.00  0.00     0.000 HD 
HETATM   11  O   UNL     1     -11.088  16.823  64.321  1.00  0.00    -1.106 OA 
BRANCH   9  12
HETATM   12  C   UNL     1      -9.935  16.729  66.367  1.00  0.00    -0.317 A  
HETATM   13  C   UNL     1      -8.620  17.077  66.008  1.00  0.00    -0.164 A  
HETATM   14  C   UNL     1      -7.672  17.375  66.988  1.00  0.00    -0.206 A  
HETATM   15  C   UNL     1      -7.998  17.298  68.349  1.00  0.00    -0.253 A  
HETATM   16 CL   UNL     1      -6.056  17.730  66.484  1.00  0.00    -0.202 Cl 
HETATM   17  C   UNL     1      -9.332  17.049  68.692  1.00  0.00    -0.270 A  
HETATM   18  N   UNL     1      -7.078  17.645  69.355  1.00  0.00    -0.115 NA 
HETATM   19  H1  UNL     1      -7.315  17.589  70.346  1.00  0.00     0.000 HD 
HETATM   20  C   UNL     1     -10.302  16.746  67.722  1.00  0.00    -0.318 A  
HETATM   21  H2  UNL     1      -6.752  18.593  69.166  1.00  0.00     0.000 HD 
BRANCH  20  22
HETATM   22  O   UNL     1     -11.510  16.388  68.261  1.00  0.00    -0.312 OA 
HETATM   23  C   UNL     1     -11.473  15.432  69.316  1.00  0.00    -0.333 C  
ENDBRANCH  20  22
ENDBRANCH   9  12
ENDBRANCH   7   8
ENDBRANCH   6   7
ENDBRANCH   3   6
ENDBRANCH   2   3
TORSDOF 7
ENDMDL
MODEL       58
REMARK 921   NORMALIZED FREE ENERGY PREDICTED BY IDOCK:   -4.86 KCAL/MOL
REMARK 922        TOTAL FREE ENERGY PREDICTED BY IDOCK:   -7.57 KCAL/MOL
REMARK 923 INTER-LIGAND FREE ENERGY PREDICTED BY IDOCK:   -6.48 KCAL/MOL
REMARK 924 INTRA-LIGAND FREE ENERGY PREDICTED BY IDOCK:   -1.09 KCAL/MOL
REMARK 927      BINDING AFFINITY PREDICTED BY RF-SCORE:    0.00 PKD
ROOT
HETATM    1  C   UNL     1     -10.220  10.016  67.600  1.00  0.00    -0.249 C  
HETATM    2  C   UNL     1      -9.961   9.640  66.144  1.00  0.00    -0.276 C  
ENDROOT
BRANCH   2   3
HETATM    3  N   UNL     1      -9.248  10.665  65.360  1.00  0.00    -0.183 NA 
BRANCH   3   4
HETATM    4  C   UNL     1      -7.801  10.405  65.219  1.00  0.00    -0.137 C  
HETATM    5  C   UNL     1      -6.904  10.910  66.348  1.00  0.00    -0.135 C  
ENDBRANCH   3   4
BRANCH   3   6
HETATM    6  C   UNL     1      -9.873  10.875  64.031  1.00  0.00    -0.322 C  
BRANCH   6   7
HETATM    7  C   UNL     1     -10.583  12.227  63.846  1.00  0.00    -0.427 C  
BRANCH   7   8
HETATM    8  N   UNL     1     -10.506  13.068  65.027  1.00  0.00    -0.315 N  
HETATM    9  C   UNL     1     -11.572  13.174  65.897  1.00  0.00    -0.354 C  
HETATM   10  H   UNL     1      -9.649  13.589  65.217  1.00  0.00     0.000 HD 
HETATM   11  O   UNL     1     -12.638  12.600  65.716  1.00  0.00    -0.575 OA 
BRANCH   9  12
HETATM   12  C   UNL     1     -11.339  13.941  67.145  1.00  0.00    -0.346 A  
HETATM   13  C   UNL     1     -11.924  13.434  68.320  1.00  0.00    -0.352 A  
HETATM   14  C   UNL     1     -11.982  14.213  69.476  1.00  0.00    -0.340 A  
HETATM   15  C   UNL     1     -11.494  15.526  69.482  1.00  0.00    -0.333 A  
HETATM   16 CL   UNL     1     -12.773  13.557  70.868  1.00  0.00    -0.389 Cl 
HETATM   17  C   UNL     1     -10.827  15.985  68.341  1.00  0.00    -0.310 A  
HETATM   18  N   UNL     1     -11.491  16.314  70.648  1.00  0.00    -0.511 NA 
HETATM   19  H1  UNL     1     -11.136  17.271  70.653  1.00  0.00     0.000 HD 
HETATM   20  C   UNL     1     -10.757  15.217  67.165  1.00  0.00    -0.316 A  
HETATM   21  H2  UNL     1     -10.997  15.795  71.373  1.00  0.00     0.000 HD 
BRANCH  20  22
HETATM   22  O   UNL     1     -10.194  15.892  66.114  1.00  0.00    -0.286 OA 
HETATM   23  C   UNL     1      -8.786  16.093  66.172  1.00  0.00    -0.323 C  
ENDBRANCH  20  22
ENDBRANCH   9  12
ENDBRANCH   7   8
ENDBRANCH   6   7
ENDBRANCH   3   6
ENDBRANCH   2   3
TORSDOF 7
ENDMDL
MODEL       59
REMARK 921   NORMALIZED FREE ENERGY PREDICTED BY IDOCK:   -4.86 KCAL/MOL
REMARK 922        TOTAL FREE ENERGY PREDICTED BY IDOCK:   -7.56 KCAL/MOL
REMARK 923 INTER-LIGAND FREE ENERGY PREDICTED BY IDOCK:   -6.76 KCAL/MOL
REMARK 924 INTRA-LIGAND FREE ENERGY PREDICTED BY IDOCK:   -0.80 KCAL/MOL
REMARK 927      BINDING AFFINITY PREDICTED BY RF-SCORE:    0.00 PKD
ROOT
HETATM    1  C   UNL     1     -11.953  14.866  64.446  1.00  0.00    -0.408 C  
HETATM    2  C   UNL     1     -12.844  13.977  65.309  1.00  0.00    -0.384 C  
ENDROOT
BRANCH   2   3
HETATM    3  N   UNL     1     -12.409  12.572  65.401  1.00  0.00    -0.635 NA 
BRANCH   3   4
HETATM    4  C   UNL     1     -12.035  11.979  64.101  1.00  0.00    -0.369 C  
HETATM    5  C   UNL     1     -10.755  11.145  64.074  1.00  0.00    -0.409 C  
ENDBRANCH   3   4
BRANCH   3   6
HETATM    6  C   UNL     1     -11.315  12.398  66.388  1.00  0.00    -0.342 C  
BRANCH   6   7
HETATM    7  C   UNL     1     -11.481  13.185  67.698  1.00  0.00    -0.324 C  
BRANCH   7   8
HETATM    8  N   UNL     1     -10.593  14.332  67.780  1.00  0.00    -0.251 N  
HETATM    9  C   UNL     1     -11.000  15.506  68.381  1.00  0.00    -0.297 C  
HETATM   10  H   UNL     1      -9.654  14.269  67.386  1.00  0.00     0.000 HD 
HETATM   11  O   UNL     1     -12.120  15.661  68.848  1.00  0.00    -0.319 OA 
BRANCH   9  12
HETATM   12  C   UNL     1      -9.971  16.562  68.542  1.00  0.00    -0.251 A  
HETATM   13  C   UNL     1     -10.305  17.849  68.082  1.00  0.00    -0.395 A  
HETATM   14  C   UNL     1      -9.324  18.832  67.950  1.00  0.00    -0.298 A  
HETATM   15  C   UNL     1      -7.981  18.549  68.235  1.00  0.00    -0.305 A  
HETATM   16 CL   UNL     1      -9.787  20.375  67.318  1.00  0.00    -0.592 Cl 
HETATM   17  C   UNL     1      -7.675  17.299  68.784  1.00  0.00    -0.261 A  
HETATM   18  N   UNL     1      -6.980  19.536  68.162  1.00  0.00    -0.270 NA 
HETATM   19  H1  UNL     1      -6.003  19.330  68.369  1.00  0.00     0.000 HD 
HETATM   20  C   UNL     1      -8.648  16.294  68.926  1.00  0.00    -0.260 A  
HETATM   21  H2  UNL     1      -7.267  20.314  68.755  1.00  0.00     0.000 HD 
BRANCH  20  22
HETATM   22  O   UNL     1      -8.129  15.096  69.342  1.00  0.00    -0.208 OA 
HETATM   23  C   UNL     1      -6.788  15.121  69.822  1.00  0.00    -0.179 C  
ENDBRANCH  20  22
ENDBRANCH   9  12
ENDBRANCH   7   8
ENDBRANCH   6   7
ENDBRANCH   3   6
ENDBRANCH   2   3
TORSDOF 7
ENDMDL
MODEL       60
REMARK 921   NORMALIZED FREE ENERGY PREDICTED BY IDOCK:   -4.81 KCAL/MOL
REMARK 922        TOTAL FREE ENERGY PREDICTED BY IDOCK:   -7.50 KCAL/MOL
REMARK 923 INTER-LIGAND FREE ENERGY PREDICTED BY IDOCK:   -6.84 KCAL/MOL
REMARK 924 INTRA-LIGAND FREE ENERGY PREDICTED BY IDOCK:   -0.66 KCAL/MOL
REMARK 927      BINDING AFFINITY PREDICTED BY RF-SCORE:    0.00 PKD
ROOT
HETATM    1  C   UNL     1     -11.273   3.997  73.588  1.00  0.00    -0.305 C  
HETATM    2  C   UNL     1     -10.547   4.960  72.655  1.00  0.00    -0.215 C  
ENDROOT
BRANCH   2   3
HETATM    3  N   UNL     1     -10.830   6.387  72.898  1.00  0.00    -0.246 NA 
BRANCH   3   4
HETATM    4  C   UNL     1     -10.096   6.950  74.049  1.00  0.00    -0.348 C  
HETATM    5  C   UNL     1      -8.941   7.897  73.726  1.00  0.00    -0.324 C  
ENDBRANCH   3   4
BRANCH   3   6
HETATM    6  C   UNL     1     -10.605   7.208  71.684  1.00  0.00    -0.207 C  
BRANCH   6   7
HETATM    7  C   UNL     1     -11.878   7.739  71.005  1.00  0.00    -0.272 C  
BRANCH   7   8
HETATM    8  N   UNL     1     -11.791   9.152  70.676  1.00  0.00    -0.437 N  
HETATM    9  C   UNL     1     -12.762  10.041  71.089  1.00  0.00    -0.387 C  
HETATM   10  H   UNL     1     -10.998   9.491  70.130  1.00  0.00     0.000 HD 
HETATM   11  O   UNL     1     -13.752   9.698  71.721  1.00  0.00    -0.342 OA 
BRANCH   9  12
HETATM   12  C   UNL     1     -12.503  11.478  70.827  1.00  0.00    -0.444 A  
HETATM   13  C   UNL     1     -13.055  12.398  71.737  1.00  0.00    -0.446 A  
HETATM   14  C   UNL     1     -13.090  13.760  71.434  1.00  0.00    -0.337 A  
HETATM   15  C   UNL     1     -12.612  14.235  70.205  1.00  0.00    -0.319 A  
HETATM   16 CL   UNL     1     -13.840  14.832  72.565  1.00  0.00    -0.554 Cl 
HETATM   17  C   UNL     1     -11.977  13.326  69.351  1.00  0.00    -0.356 A  
HETATM   18  N   UNL     1     -12.585  15.608  69.897  1.00  0.00    -0.554 NA 
HETATM   19  H1  UNL     1     -12.238  15.954  69.002  1.00  0.00     0.000 HD 
HETATM   20  C   UNL     1     -11.930  11.950  69.636  1.00  0.00    -0.298 A  
HETATM   21  H2  UNL     1     -12.069  16.083  70.637  1.00  0.00     0.000 HD 
BRANCH  20  22
HETATM   22  O   UNL     1     -11.400  11.206  68.615  1.00  0.00    -0.228 OA 
HETATM   23  C   UNL     1     -10.663  11.922  67.628  1.00  0.00    -0.215 C  
ENDBRANCH  20  22
ENDBRANCH   9  12
ENDBRANCH   7   8
ENDBRANCH   6   7
ENDBRANCH   3   6
ENDBRANCH   2   3
TORSDOF 7
ENDMDL
MODEL       61
REMARK 921   NORMALIZED FREE ENERGY PREDICTED BY IDOCK:   -4.80 KCAL/MOL
REMARK 922        TOTAL FREE ENERGY PREDICTED BY IDOCK:   -7.47 KCAL/MOL
REMARK 923 INTER-LIGAND FREE ENERGY PREDICTED BY IDOCK:   -6.81 KCAL/MOL
REMARK 924 INTRA-LIGAND FREE ENERGY PREDICTED BY IDOCK:   -0.66 KCAL/MOL
REMARK 927      BINDING AFFINITY PREDICTED BY RF-SCORE:    0.00 PKD
ROOT
HETATM    1  C   UNL     1      -9.246   7.749  70.928  1.00  0.00    -0.155 C  
HETATM    2  C   UNL     1     -10.460   7.954  70.028  1.00  0.00    -0.231 C  
ENDROOT
BRANCH   2   3
HETATM    3  N   UNL     1     -10.239   7.622  68.609  1.00  0.00    -0.195 NA 
BRANCH   3   4
HETATM    4  C   UNL     1     -10.935   6.396  68.170  1.00  0.00    -0.307 C  
HETATM    5  C   UNL     1     -10.595   5.880  66.773  1.00  0.00    -0.368 C  
ENDBRANCH   3   4
BRANCH   3   6
HETATM    6  C   UNL     1     -10.574   8.760  67.718  1.00  0.00    -0.191 C  
BRANCH   6   7
HETATM    7  C   UNL     1     -10.872  10.088  68.433  1.00  0.00    -0.235 C  
BRANCH   7   8
HETATM    8  N   UNL     1     -11.028  11.199  67.510  1.00  0.00    -0.256 N  
HETATM    9  C   UNL     1     -10.219  12.314  67.594  1.00  0.00    -0.203 C  
HETATM   10  H   UNL     1     -11.748  11.154  66.789  1.00  0.00     0.000 HD 
HETATM   11  O   UNL     1      -9.356  12.447  68.452  1.00  0.00    -0.206 OA 
BRANCH   9  12
HETATM   12  C   UNL     1     -10.363  13.323  66.517  1.00  0.00    -0.285 A  
HETATM   13  C   UNL     1     -10.054  14.655  66.849  1.00  0.00    -0.255 A  
HETATM   14  C   UNL     1     -10.406  15.699  65.993  1.00  0.00    -0.335 A  
HETATM   15  C   UNL     1     -11.106  15.449  64.805  1.00  0.00    -0.403 A  
HETATM   16 CL   UNL     1     -10.056  17.319  66.489  1.00  0.00    -0.298 Cl 
HETATM   17  C   UNL     1     -11.321  14.116  64.437  1.00  0.00    -0.310 A  
HETATM   18  N   UNL     1     -11.425  16.477  63.899  1.00  0.00    -1.599 NA 
HETATM   19  H1  UNL     1     -11.935  16.295  63.034  1.00  0.00     0.000 HD 
HETATM   20  C   UNL     1     -10.975  13.049  65.284  1.00  0.00    -0.284 A  
HETATM   21  H2  UNL     1     -10.559  16.957  63.655  1.00  0.00     0.000 HD 
BRANCH  20  22
HETATM   22  O   UNL     1     -11.397  11.832  64.817  1.00  0.00    -0.308 OA 
HETATM   23  C   UNL     1     -10.498  11.139  63.956  1.00  0.00    -0.383 C  
ENDBRANCH  20  22
ENDBRANCH   9  12
ENDBRANCH   7   8
ENDBRANCH   6   7
ENDBRANCH   3   6
ENDBRANCH   2   3
TORSDOF 7
ENDMDL
MODEL       62
REMARK 921   NORMALIZED FREE ENERGY PREDICTED BY IDOCK:   -4.76 KCAL/MOL
REMARK 922        TOTAL FREE ENERGY PREDICTED BY IDOCK:   -7.42 KCAL/MOL
REMARK 923 INTER-LIGAND FREE ENERGY PREDICTED BY IDOCK:   -6.78 KCAL/MOL
REMARK 924 INTRA-LIGAND FREE ENERGY PREDICTED BY IDOCK:   -0.64 KCAL/MOL
REMARK 927      BINDING AFFINITY PREDICTED BY RF-SCORE:    0.00 PKD
ROOT
HETATM    1  C   UNL     1     -12.533  11.770  63.262  1.00  0.00    -0.411 C  
HETATM    2  C   UNL     1     -11.370  12.010  64.220  1.00  0.00    -0.364 C  
ENDROOT
BRANCH   2   3
HETATM    3  N   UNL     1     -11.725  11.944  65.649  1.00  0.00    -0.371 NA 
BRANCH   3   4
HETATM    4  C   UNL     1     -10.585  11.621  66.530  1.00  0.00    -0.253 C  
HETATM    5  C   UNL     1     -10.743  11.973  68.009  1.00  0.00    -0.244 C  
ENDBRANCH   3   4
BRANCH   3   6
HETATM    6  C   UNL     1     -12.403  13.181  66.106  1.00  0.00    -0.315 C  
BRANCH   6   7
HETATM    7  C   UNL     1     -12.056  14.452  65.313  1.00  0.00    -0.380 C  
BRANCH   7   8
HETATM    8  N   UNL     1     -11.075  15.284  65.988  1.00  0.00    -0.314 N  
HETATM    9  C   UNL     1     -10.695  16.504  65.466  1.00  0.00    -0.256 C  
HETATM   10  H   UNL     1     -10.659  14.961  66.862  1.00  0.00     0.000 HD 
HETATM   11  O   UNL     1     -11.132  16.940  64.408  1.00  0.00    -1.128 OA 
BRANCH   9  12
HETATM   12  C   UNL     1      -9.800  17.338  66.305  1.00  0.00    -0.299 A  
HETATM   13  C   UNL     1     -10.211  18.661  66.550  1.00  0.00    -0.449 A  
HETATM   14  C   UNL     1      -9.324  19.588  67.098  1.00  0.00    -0.326 A  
HETATM   15  C   UNL     1      -7.998  19.233  67.382  1.00  0.00    -0.264 A  
HETATM   16 CL   UNL     1      -9.869  21.216  67.314  1.00  0.00    -0.225 Cl 
HETATM   17  C   UNL     1      -7.630  17.892  67.227  1.00  0.00    -0.217 A  
HETATM   18  N   UNL     1      -7.099  20.132  67.985  1.00  0.00    -0.284 NA 
HETATM   19  H1  UNL     1      -6.134  19.874  68.191  1.00  0.00     0.000 HD 
HETATM   20  C   UNL     1      -8.507  16.941  66.677  1.00  0.00    -0.250 A  
HETATM   21  H2  UNL     1      -7.525  20.465  68.850  1.00  0.00     0.000 HD 
BRANCH  20  22
HETATM   22  O   UNL     1      -7.918  15.722  66.469  1.00  0.00    -0.248 OA 
HETATM   23  C   UNL     1      -7.940  14.814  67.567  1.00  0.00    -0.188 C  
ENDBRANCH  20  22
ENDBRANCH   9  12
ENDBRANCH   7   8
ENDBRANCH   6   7
ENDBRANCH   3   6
ENDBRANCH   2   3
TORSDOF 7
ENDMDL
MODEL       63
REMARK 921   NORMALIZED FREE ENERGY PREDICTED BY IDOCK:   -4.75 KCAL/MOL
REMARK 922        TOTAL FREE ENERGY PREDICTED BY IDOCK:   -7.41 KCAL/MOL
REMARK 923 INTER-LIGAND FREE ENERGY PREDICTED BY IDOCK:   -6.99 KCAL/MOL
REMARK 924 INTRA-LIGAND FREE ENERGY PREDICTED BY IDOCK:   -0.43 KCAL/MOL
REMARK 927      BINDING AFFINITY PREDICTED BY RF-SCORE:    0.00 PKD
ROOT
HETATM    1  C   UNL     1     -14.160   8.534  72.482  1.00  0.00    -0.322 C  
HETATM    2  C   UNL     1     -12.853   9.230  72.114  1.00  0.00    -0.408 C  
ENDROOT
BRANCH   2   3
HETATM    3  N   UNL     1     -13.010  10.437  71.282  1.00  0.00    -0.394 NA 
BRANCH   3   4
HETATM    4  C   UNL     1     -12.664  11.690  71.983  1.00  0.00     0.010 C  
HETATM    5  C   UNL     1     -13.770  12.739  72.092  1.00  0.00    -0.454 C  
ENDBRANCH   3   4
BRANCH   3   6
HETATM    6  C   UNL     1     -12.260  10.328  70.007  1.00  0.00    -0.120 C  
BRANCH   6   7
HETATM    7  C   UNL     1     -11.118  11.342  69.828  1.00  0.00    -0.167 C  
BRANCH   7   8
HETATM    8  N   UNL     1     -11.437  12.384  68.868  1.00  0.00    -0.284 N  
HETATM    9  C   UNL     1     -10.443  13.133  68.273  1.00  0.00    -0.250 C  
HETATM   10  H   UNL     1     -12.413  12.565  68.631  1.00  0.00     0.000 HD 
HETATM   11  O   UNL     1      -9.255  12.989  68.532  1.00  0.00    -0.164 OA 
BRANCH   9  12
HETATM   12  C   UNL     1     -10.865  14.069  67.202  1.00  0.00    -0.288 A  
HETATM   13  C   UNL     1     -11.447  13.499  66.055  1.00  0.00    -0.345 A  
HETATM   14  C   UNL     1     -11.632  14.260  64.901  1.00  0.00    -0.384 A  
HETATM   15  C   UNL     1     -11.209  15.596  64.846  1.00  0.00    -0.369 A  
HETATM   16 CL   UNL     1     -12.292  13.484  63.503  1.00  0.00    -0.457 Cl 
HETATM   17  C   UNL     1     -10.723  16.180  66.021  1.00  0.00    -0.245 A  
HETATM   18  N   UNL     1     -11.432  16.402  63.714  1.00  0.00    -1.470 NA 
HETATM   19  H1  UNL     1     -11.124  17.373  63.674  1.00  0.00     0.000 HD 
HETATM   20  C   UNL     1     -10.529  15.431  67.195  1.00  0.00    -0.290 A  
HETATM   21  H2  UNL     1     -12.431  16.383  63.511  1.00  0.00     0.000 HD 
BRANCH  20  22
HETATM   22  O   UNL     1      -9.909  16.141  68.190  1.00  0.00    -0.223 OA 
HETATM   23  C   UNL     1     -10.249  17.520  68.288  1.00  0.00    -0.365 C  
ENDBRANCH  20  22
ENDBRANCH   9  12
ENDBRANCH   7   8
ENDBRANCH   6   7
ENDBRANCH   3   6
ENDBRANCH   2   3
TORSDOF 7
ENDMDL
MODEL       64
REMARK 921   NORMALIZED FREE ENERGY PREDICTED BY IDOCK:   -4.75 KCAL/MOL
REMARK 922        TOTAL FREE ENERGY PREDICTED BY IDOCK:   -7.41 KCAL/MOL
REMARK 923 INTER-LIGAND FREE ENERGY PREDICTED BY IDOCK:   -6.42 KCAL/MOL
REMARK 924 INTRA-LIGAND FREE ENERGY PREDICTED BY IDOCK:   -0.99 KCAL/MOL
REMARK 927      BINDING AFFINITY PREDICTED BY RF-SCORE:    0.00 PKD
ROOT
HETATM    1  C   UNL     1      -8.290  12.323  68.269  1.00  0.00    -0.174 C  
HETATM    2  C   UNL     1      -8.705  12.370  66.802  1.00  0.00    -0.160 C  
ENDROOT
BRANCH   2   3
HETATM    3  N   UNL     1     -10.148  12.186  66.563  1.00  0.00    -0.206 NA 
BRANCH   3   4
HETATM    4  C   UNL     1     -10.816  13.382  66.011  1.00  0.00    -0.274 C  
HETATM    5  C   UNL     1     -11.736  14.149  66.960  1.00  0.00    -0.430 C  
ENDBRANCH   3   4
BRANCH   3   6
HETATM    6  C   UNL     1     -10.419  10.999  65.715  1.00  0.00    -0.228 C  
BRANCH   6   7
HETATM    7  C   UNL     1     -10.190   9.640  66.396  1.00  0.00    -0.217 C  
BRANCH   7   8
HETATM    8  N   UNL     1     -10.931   9.501  67.637  1.00  0.00    -0.471 N  
HETATM    9  C   UNL     1     -10.288   9.201  68.821  1.00  0.00    -0.214 C  
HETATM   10  H   UNL     1     -11.943   9.628  67.634  1.00  0.00     0.000 HD 
HETATM   11  O   UNL     1      -9.081   9.008  68.893  1.00  0.00    -0.138 OA 
BRANCH   9  12
HETATM   12  C   UNL     1     -11.114   9.227  70.053  1.00  0.00    -0.228 A  
HETATM   13  C   UNL     1     -11.378   7.989  70.666  1.00  0.00    -0.256 A  
HETATM   14  C   UNL     1     -12.349   7.884  71.662  1.00  0.00    -0.315 A  
HETATM   15  C   UNL     1     -13.108   8.999  72.046  1.00  0.00    -0.414 A  
HETATM   16 CL   UNL     1     -12.673   6.322  72.331  1.00  0.00    -0.016 Cl 
HETATM   17  C   UNL     1     -12.770  10.243  71.501  1.00  0.00    -0.557 A  
HETATM   18  N   UNL     1     -14.055   8.933  73.085  1.00  0.00    -1.225 NA 
HETATM   19  H1  UNL     1     -14.607   9.744  73.364  1.00  0.00     0.000 HD 
HETATM   20  C   UNL     1     -11.795  10.371  70.496  1.00  0.00    -0.337 A  
HETATM   21  H2  UNL     1     -13.582   8.577  73.915  1.00  0.00     0.000 HD 
BRANCH  20  22
HETATM   22  O   UNL     1     -11.711  11.640  69.987  1.00  0.00    -0.318 OA 
HETATM   23  C   UNL     1     -12.176  12.691  70.828  1.00  0.00    -0.240 C  
ENDBRANCH  20  22
ENDBRANCH   9  12
ENDBRANCH   7   8
ENDBRANCH   6   7
ENDBRANCH   3   6
ENDBRANCH   2   3
TORSDOF 7
ENDMDL
MODEL       65
REMARK 921   NORMALIZED FREE ENERGY PREDICTED BY IDOCK:   -4.75 KCAL/MOL
REMARK 922        TOTAL FREE ENERGY PREDICTED BY IDOCK:   -7.40 KCAL/MOL
REMARK 923 INTER-LIGAND FREE ENERGY PREDICTED BY IDOCK:   -6.97 KCAL/MOL
REMARK 924 INTRA-LIGAND FREE ENERGY PREDICTED BY IDOCK:   -0.44 KCAL/MOL
REMARK 927      BINDING AFFINITY PREDICTED BY RF-SCORE:    0.00 PKD
ROOT
HETATM    1  C   UNL     1      -9.477   8.238  72.806  1.00  0.00    -0.343 C  
HETATM    2  C   UNL     1     -10.932   7.786  72.889  1.00  0.00    -0.407 C  
ENDROOT
BRANCH   2   3
HETATM    3  N   UNL     1     -11.744   8.101  71.699  1.00  0.00    -0.274 NA 
BRANCH   3   4
HETATM    4  C   UNL     1     -12.197   6.908  70.957  1.00  0.00    -0.377 C  
HETATM    5  C   UNL     1     -11.193   6.284  69.989  1.00  0.00    -0.480 C  
ENDBRANCH   3   4
BRANCH   3   6
HETATM    6  C   UNL     1     -12.894   8.976  72.034  1.00  0.00    -0.401 C  
BRANCH   6   7
HETATM    7  C   UNL     1     -12.888  10.356  71.356  1.00  0.00    -0.452 C  
BRANCH   7   8
HETATM    8  N   UNL     1     -12.521  10.291  69.952  1.00  0.00    -0.539 N  
HETATM    9  C   UNL     1     -12.059  11.407  69.284  1.00  0.00    -0.289 C  
HETATM   10  H   UNL     1     -12.605   9.406  69.452  1.00  0.00     0.000 HD 
HETATM   11  O   UNL     1     -11.960  12.506  69.814  1.00  0.00    -0.314 OA 
BRANCH   9  12
HETATM   12  C   UNL     1     -11.574  11.199  67.898  1.00  0.00    -0.328 A  
HETATM   13  C   UNL     1     -10.953   9.967  67.621  1.00  0.00    -0.297 A  
HETATM   14  C   UNL     1     -10.240   9.784  66.436  1.00  0.00    -0.217 A  
HETATM   15  C   UNL     1     -10.094  10.831  65.515  1.00  0.00    -0.274 A  
HETATM   16 CL   UNL     1      -9.444   8.268  66.184  1.00  0.00    -0.266 Cl 
HETATM   17  C   UNL     1     -10.797  12.018  65.754  1.00  0.00    -0.329 A  
HETATM   18  N   UNL     1      -9.426  10.657  64.289  1.00  0.00    -0.248 NA 
HETATM   19  H1  UNL     1      -9.320  11.419  63.620  1.00  0.00     0.000 HD 
HETATM   20  C   UNL     1     -11.522  12.224  66.941  1.00  0.00    -0.356 A  
HETATM   21  H2  UNL     1      -9.865   9.875  63.804  1.00  0.00     0.000 HD 
BRANCH  20  22
HETATM   22  O   UNL     1     -12.016  13.497  67.056  1.00  0.00    -0.386 OA 
HETATM   23  C   UNL     1     -11.951  14.308  65.887  1.00  0.00    -0.391 C  
ENDBRANCH  20  22
ENDBRANCH   9  12
ENDBRANCH   7   8
ENDBRANCH   6   7
ENDBRANCH   3   6
ENDBRANCH   2   3
TORSDOF 7
ENDMDL
MODEL       66
REMARK 921   NORMALIZED FREE ENERGY PREDICTED BY IDOCK:   -4.74 KCAL/MOL
REMARK 922        TOTAL FREE ENERGY PREDICTED BY IDOCK:   -7.39 KCAL/MOL
REMARK 923 INTER-LIGAND FREE ENERGY PREDICTED BY IDOCK:   -6.74 KCAL/MOL
REMARK 924 INTRA-LIGAND FREE ENERGY PREDICTED BY IDOCK:   -0.65 KCAL/MOL
REMARK 927      BINDING AFFINITY PREDICTED BY RF-SCORE:    0.00 PKD
ROOT
HETATM    1  C   UNL     1     -10.023   8.399  72.130  1.00  0.00    -0.376 C  
HETATM    2  C   UNL     1     -10.289   9.345  70.963  1.00  0.00    -0.312 C  
ENDROOT
BRANCH   2   3
HETATM    3  N   UNL     1      -9.095   9.707  70.178  1.00  0.00    -0.237 NA 
BRANCH   3   4
HETATM    4  C   UNL     1      -7.822   9.308  70.813  1.00  0.00    -0.145 C  
HETATM    5  C   UNL     1      -6.582  10.110  70.421  1.00  0.00    -0.132 C  
ENDBRANCH   3   4
BRANCH   3   6
HETATM    6  C   UNL     1      -9.170   9.188  68.790  1.00  0.00    -0.136 C  
BRANCH   6   7
HETATM    7  C   UNL     1     -10.569   9.217  68.153  1.00  0.00    -0.198 C  
BRANCH   7   8
HETATM    8  N   UNL     1     -10.801  10.415  67.364  1.00  0.00    -0.289 N  
HETATM    9  C   UNL     1     -11.658  11.403  67.805  1.00  0.00    -0.251 C  
HETATM   10  H   UNL     1     -10.323  10.527  66.470  1.00  0.00     0.000 HD 
HETATM   11  O   UNL     1     -12.285  11.321  68.853  1.00  0.00    -0.494 OA 
BRANCH   9  12
HETATM   12  C   UNL     1     -11.711  12.646  66.997  1.00  0.00    -0.438 A  
HETATM   13  C   UNL     1     -12.051  12.506  65.639  1.00  0.00    -0.464 A  
HETATM   14  C   UNL     1     -11.872  13.567  64.751  1.00  0.00    -0.381 A  
HETATM   15  C   UNL     1     -11.318  14.780  65.183  1.00  0.00    -0.379 A  
HETATM   16 CL   UNL     1     -12.247  13.312  63.082  1.00  0.00    -0.453 Cl 
HETATM   17  C   UNL     1     -11.076  14.941  66.552  1.00  0.00    -0.341 A  
HETATM   18  N   UNL     1     -11.176  15.883  64.321  1.00  0.00    -0.942 NA 
HETATM   19  H1  UNL     1     -10.772  16.766  64.635  1.00  0.00     0.000 HD 
HETATM   20  C   UNL     1     -11.249  13.886  67.464  1.00  0.00    -0.303 A  
HETATM   21  H2  UNL     1     -12.093  16.085  63.921  1.00  0.00     0.000 HD 
BRANCH  20  22
HETATM   22  O   UNL     1     -10.822  14.192  68.730  1.00  0.00    -0.244 OA 
HETATM   23  C   UNL     1      -9.692  15.054  68.824  1.00  0.00    -0.227 C  
ENDBRANCH  20  22
ENDBRANCH   9  12
ENDBRANCH   7   8
ENDBRANCH   6   7
ENDBRANCH   3   6
ENDBRANCH   2   3
TORSDOF 7
ENDMDL
MODEL       67
REMARK 921   NORMALIZED FREE ENERGY PREDICTED BY IDOCK:   -4.73 KCAL/MOL
REMARK 922        TOTAL FREE ENERGY PREDICTED BY IDOCK:   -7.39 KCAL/MOL
REMARK 923 INTER-LIGAND FREE ENERGY PREDICTED BY IDOCK:   -6.69 KCAL/MOL
REMARK 924 INTRA-LIGAND FREE ENERGY PREDICTED BY IDOCK:   -0.70 KCAL/MOL
REMARK 927      BINDING AFFINITY PREDICTED BY RF-SCORE:    0.00 PKD
ROOT
HETATM    1  C   UNL     1     -10.454  15.939  65.437  1.00  0.00    -0.429 C  
HETATM    2  C   UNL     1     -10.659  16.294  66.906  1.00  0.00    -0.270 C  
ENDROOT
BRANCH   2   3
HETATM    3  N   UNL     1      -9.647  15.736  67.822  1.00  0.00    -0.213 NA 
BRANCH   3   4
HETATM    4  C   UNL     1      -9.020  16.744  68.700  1.00  0.00    -0.251 C  
HETATM    5  C   UNL     1      -9.344  18.207  68.400  1.00  0.00    -0.319 C  
ENDBRANCH   3   4
BRANCH   3   6
HETATM    6  C   UNL     1     -10.190  14.612  68.624  1.00  0.00    -0.244 C  
BRANCH   6   7
HETATM    7  C   UNL     1      -9.905  13.209  68.064  1.00  0.00    -0.231 C  
BRANCH   7   8
HETATM    8  N   UNL     1     -10.123  12.159  69.044  1.00  0.00    -0.421 N  
HETATM    9  C   UNL     1     -11.275  11.399  69.029  1.00  0.00    -0.256 C  
HETATM   10  H   UNL     1      -9.413  11.980  69.754  1.00  0.00     0.000 HD 
HETATM   11  O   UNL     1     -12.180  11.578  68.224  1.00  0.00    -0.561 OA 
BRANCH   9  12
HETATM   12  C   UNL     1     -11.334  10.260  69.978  1.00  0.00    -0.370 A  
HETATM   13  C   UNL     1     -12.571  10.015  70.600  1.00  0.00    -0.301 A  
HETATM   14  C   UNL     1     -12.658   9.147  71.689  1.00  0.00    -0.360 A  
HETATM   15  C   UNL     1     -11.511   8.530  72.208  1.00  0.00    -0.375 A  
HETATM   16 CL   UNL     1     -14.196   8.938  72.452  1.00  0.00    -0.511 Cl 
HETATM   17  C   UNL     1     -10.304   8.703  71.522  1.00  0.00    -0.341 A  
HETATM   18  N   UNL     1     -11.577   7.609  73.270  1.00  0.00    -0.629 NA 
HETATM   19  H1  UNL     1     -10.743   7.160  73.648  1.00  0.00     0.000 HD 
HETATM   20  C   UNL     1     -10.194   9.573  70.423  1.00  0.00    -0.279 A  
HETATM   21  H2  UNL     1     -12.233   6.874  73.004  1.00  0.00     0.000 HD 
BRANCH  20  22
HETATM   22  O   UNL     1      -8.906   9.721  69.980  1.00  0.00    -0.209 OA 
HETATM   23  C   UNL     1      -8.322   8.587  69.345  1.00  0.00    -0.119 C  
ENDBRANCH  20  22
ENDBRANCH   9  12
ENDBRANCH   7   8
ENDBRANCH   6   7
ENDBRANCH   3   6
ENDBRANCH   2   3
TORSDOF 7
ENDMDL
MODEL       68
REMARK 921   NORMALIZED FREE ENERGY PREDICTED BY IDOCK:   -4.73 KCAL/MOL
REMARK 922        TOTAL FREE ENERGY PREDICTED BY IDOCK:   -7.38 KCAL/MOL
REMARK 923 INTER-LIGAND FREE ENERGY PREDICTED BY IDOCK:   -6.74 KCAL/MOL
REMARK 924 INTRA-LIGAND FREE ENERGY PREDICTED BY IDOCK:   -0.64 KCAL/MOL
REMARK 927      BINDING AFFINITY PREDICTED BY RF-SCORE:    0.00 PKD
ROOT
HETATM    1  C   UNL     1     -12.056  15.559  70.223  1.00  0.00    -0.415 C  
HETATM    2  C   UNL     1     -10.897  16.408  69.710  1.00  0.00    -0.343 C  
ENDROOT
BRANCH   2   3
HETATM    3  N   UNL     1     -10.513  16.146  68.310  1.00  0.00    -0.265 NA 
BRANCH   3   4
HETATM    4  C   UNL     1     -10.151  17.363  67.556  1.00  0.00    -0.322 C  
HETATM    5  C   UNL     1     -10.247  18.688  68.311  1.00  0.00    -0.423 C  
ENDBRANCH   3   4
BRANCH   3   6
HETATM    6  C   UNL     1      -9.434  15.133  68.215  1.00  0.00    -0.201 C  
BRANCH   6   7
HETATM    7  C   UNL     1      -9.886  13.732  67.774  1.00  0.00    -0.234 C  
BRANCH   7   8
HETATM    8  N   UNL     1     -10.138  12.844  68.895  1.00  0.00    -0.431 N  
HETATM    9  C   UNL     1     -11.242  12.015  68.915  1.00  0.00    -0.261 C  
HETATM   10  H   UNL     1      -9.488  12.833  69.682  1.00  0.00     0.000 HD 
HETATM   11  O   UNL     1     -12.076  11.996  68.019  1.00  0.00    -0.514 OA 
BRANCH   9  12
HETATM   12  C   UNL     1     -11.326  11.045  70.034  1.00  0.00    -0.358 A  
HETATM   13  C   UNL     1     -10.424   9.966  70.009  1.00  0.00    -0.331 A  
HETATM   14  C   UNL     1     -10.599   8.877  70.862  1.00  0.00    -0.233 A  
HETATM   15  C   UNL     1     -11.694   8.815  71.735  1.00  0.00    -0.346 A  
HETATM   16 CL   UNL     1      -9.493   7.552  70.737  1.00  0.00    -0.163 Cl 
HETATM   17  C   UNL     1     -12.528   9.936  71.822  1.00  0.00    -0.487 A  
HETATM   18  N   UNL     1     -11.864   7.754  72.643  1.00  0.00    -0.568 NA 
HETATM   19  H1  UNL     1     -12.662   7.710  73.278  1.00  0.00     0.000 HD 
HETATM   20  C   UNL     1     -12.371  11.044  70.972  1.00  0.00    -0.385 A  
HETATM   21  H2  UNL     1     -11.015   7.686  73.204  1.00  0.00     0.000 HD 
BRANCH  20  22
HETATM   22  O   UNL     1     -13.369  11.973  71.107  1.00  0.00    -0.009 OA 
HETATM   23  C   UNL     1     -13.249  12.875  72.202  1.00  0.00    -0.448 C  
ENDBRANCH  20  22
ENDBRANCH   9  12
ENDBRANCH   7   8
ENDBRANCH   6   7
ENDBRANCH   3   6
ENDBRANCH   2   3
TORSDOF 7
ENDMDL
MODEL       69
REMARK 921   NORMALIZED FREE ENERGY PREDICTED BY IDOCK:   -4.72 KCAL/MOL
REMARK 922        TOTAL FREE ENERGY PREDICTED BY IDOCK:   -7.37 KCAL/MOL
REMARK 923 INTER-LIGAND FREE ENERGY PREDICTED BY IDOCK:   -6.68 KCAL/MOL
REMARK 924 INTRA-LIGAND FREE ENERGY PREDICTED BY IDOCK:   -0.69 KCAL/MOL
REMARK 927      BINDING AFFINITY PREDICTED BY RF-SCORE:    0.00 PKD
ROOT
HETATM    1  C   UNL     1      -7.052  19.584  69.071  1.00  0.00    -0.399 C  
HETATM    2  C   UNL     1      -7.945  18.456  68.564  1.00  0.00    -0.314 C  
ENDROOT
BRANCH   2   3
HETATM    3  N   UNL     1      -9.380  18.785  68.505  1.00  0.00    -0.337 NA 
BRANCH   3   4
HETATM    4  C   UNL     1      -9.676  20.027  67.763  1.00  0.00    -0.398 C  
HETATM    5  C   UNL     1     -10.380  19.867  66.416  1.00  0.00    -0.611 C  
ENDBRANCH   3   4
BRANCH   3   6
HETATM    6  C   UNL     1     -10.183  17.656  67.974  1.00  0.00    -0.362 C  
BRANCH   6   7
HETATM    7  C   UNL     1      -9.921  16.294  68.637  1.00  0.00    -0.233 C  
BRANCH   7   8
HETATM    8  N   UNL     1      -9.909  15.199  67.684  1.00  0.00    -0.219 N  
HETATM    9  C   UNL     1     -10.970  14.320  67.595  1.00  0.00    -0.277 C  
HETATM   10  H   UNL     1      -9.104  15.076  67.070  1.00  0.00     0.000 HD 
HETATM   11  O   UNL     1     -11.955  14.390  68.319  1.00  0.00    -0.329 OA 
BRANCH   9  12
HETATM   12  C   UNL     1     -10.923  13.329  66.493  1.00  0.00    -0.299 A  
HETATM   13  C   UNL     1     -10.745  11.982  66.857  1.00  0.00    -0.282 A  
HETATM   14  C   UNL     1     -10.428  11.023  65.895  1.00  0.00    -0.240 A  
HETATM   15  C   UNL     1     -10.244  11.385  64.553  1.00  0.00    -0.299 A  
HETATM   16 CL   UNL     1     -10.157   9.396  66.416  1.00  0.00    -0.342 Cl 
HETATM   17  C   UNL     1     -10.520  12.707  64.186  1.00  0.00    -0.438 A  
HETATM   18  N   UNL     1      -9.977  10.431  63.554  1.00  0.00    -0.446 NA 
HETATM   19  H1  UNL     1      -9.843  10.695  62.578  1.00  0.00     0.000 HD 
HETATM   20  C   UNL     1     -10.841  13.689  65.139  1.00  0.00    -0.334 A  
HETATM   21  H2  UNL     1     -10.717   9.730  63.588  1.00  0.00     0.000 HD 
BRANCH  20  22
HETATM   22  O   UNL     1     -10.930  14.949  64.606  1.00  0.00    -0.370 OA 
HETATM   23  C   UNL     1     -12.244  15.427  64.331  1.00  0.00    -0.151 C  
ENDBRANCH  20  22
ENDBRANCH   9  12
ENDBRANCH   7   8
ENDBRANCH   6   7
ENDBRANCH   3   6
ENDBRANCH   2   3
TORSDOF 7
ENDMDL
MODEL       70
REMARK 921   NORMALIZED FREE ENERGY PREDICTED BY IDOCK:   -4.70 KCAL/MOL
REMARK 922        TOTAL FREE ENERGY PREDICTED BY IDOCK:   -7.34 KCAL/MOL
REMARK 923 INTER-LIGAND FREE ENERGY PREDICTED BY IDOCK:   -6.55 KCAL/MOL
REMARK 924 INTRA-LIGAND FREE ENERGY PREDICTED BY IDOCK:   -0.78 KCAL/MOL
REMARK 927      BINDING AFFINITY PREDICTED BY RF-SCORE:    0.00 PKD
ROOT
HETATM    1  C   UNL     1     -10.131  18.961  67.079  1.00  0.00    -0.408 C  
HETATM    2  C   UNL     1     -10.401  17.485  66.802  1.00  0.00    -0.314 C  
ENDROOT
BRANCH   2   3
HETATM    3  N   UNL     1      -9.435  16.842  65.894  1.00  0.00    -0.512 NA 
BRANCH   3   4
HETATM    4  C   UNL     1      -8.026  17.034  66.293  1.00  0.00    -0.308 C  
HETATM    5  C   UNL     1      -7.400  15.929  67.143  1.00  0.00    -0.258 C  
ENDBRANCH   3   4
BRANCH   3   6
HETATM    6  C   UNL     1      -9.731  15.400  65.706  1.00  0.00    -0.350 C  
BRANCH   6   7
HETATM    7  C   UNL     1     -11.065  14.921  66.302  1.00  0.00    -0.340 C  
BRANCH   7   8
HETATM    8  N   UNL     1     -10.895  13.852  67.270  1.00  0.00    -0.284 N  
HETATM    9  C   UNL     1     -11.544  12.643  67.118  1.00  0.00    -0.368 C  
HETATM   10  H   UNL     1     -10.287  13.997  68.076  1.00  0.00     0.000 HD 
HETATM   11  O   UNL     1     -12.309  12.410  66.191  1.00  0.00    -0.606 OA 
BRANCH   9  12
HETATM   12  C   UNL     1     -11.188  11.571  68.080  1.00  0.00    -0.335 A  
HETATM   13  C   UNL     1     -12.125  11.289  69.090  1.00  0.00    -0.348 A  
HETATM   14  C   UNL     1     -11.773  10.494  70.181  1.00  0.00    -0.326 A  
HETATM   15  C   UNL     1     -10.472   9.991  70.314  1.00  0.00    -0.272 A  
HETATM   16 CL   UNL     1     -12.950  10.238  71.423  1.00  0.00    -0.503 Cl 
HETATM   17  C   UNL     1      -9.578  10.195  69.256  1.00  0.00    -0.239 A  
HETATM   18  N   UNL     1     -10.105   9.144  71.375  1.00  0.00    -0.325 NA 
HETATM   19  H1  UNL     1      -9.158   8.778  71.472  1.00  0.00     0.000 HD 
HETATM   20  C   UNL     1      -9.912  10.993  68.148  1.00  0.00    -0.177 A  
HETATM   21  H2  UNL     1     -10.747   8.351  71.376  1.00  0.00     0.000 HD 
BRANCH  20  22
HETATM   22  O   UNL     1      -8.860  11.194  67.293  1.00  0.00    -0.142 OA 
HETATM   23  C   UNL     1      -7.781  11.979  67.792  1.00  0.00    -0.139 C  
ENDBRANCH  20  22
ENDBRANCH   9  12
ENDBRANCH   7   8
ENDBRANCH   6   7
ENDBRANCH   3   6
ENDBRANCH   2   3
TORSDOF 7
ENDMDL
MODEL       71
REMARK 921   NORMALIZED FREE ENERGY PREDICTED BY IDOCK:   -4.70 KCAL/MOL
REMARK 922        TOTAL FREE ENERGY PREDICTED BY IDOCK:   -7.34 KCAL/MOL
REMARK 923 INTER-LIGAND FREE ENERGY PREDICTED BY IDOCK:   -6.41 KCAL/MOL
REMARK 924 INTRA-LIGAND FREE ENERGY PREDICTED BY IDOCK:   -0.93 KCAL/MOL
REMARK 927      BINDING AFFINITY PREDICTED BY RF-SCORE:    0.00 PKD
ROOT
HETATM    1  C   UNL     1      -7.244  11.399  68.481  1.00  0.00    -0.093 C  
HETATM    2  C   UNL     1      -7.801  10.341  69.429  1.00  0.00    -0.157 C  
ENDROOT
BRANCH   2   3
HETATM    3  N   UNL     1      -9.147   9.850  69.082  1.00  0.00    -0.161 NA 
BRANCH   3   4
HETATM    4  C   UNL     1      -9.138   8.665  68.202  1.00  0.00    -0.141 C  
HETATM    5  C   UNL     1      -9.451   8.908  66.726  1.00  0.00    -0.243 C  
ENDBRANCH   3   4
BRANCH   3   6
HETATM    6  C   UNL     1      -9.969   9.596  70.291  1.00  0.00    -0.270 C  
BRANCH   6   7
HETATM    7  C   UNL     1     -11.302  10.360  70.350  1.00  0.00    -0.337 C  
BRANCH   7   8
HETATM    8  N   UNL     1     -11.175  11.745  69.930  1.00  0.00    -0.487 N  
HETATM    9  C   UNL     1     -11.671  12.168  68.713  1.00  0.00    -0.321 C  
HETATM   10  H   UNL     1     -10.712  12.415  70.544  1.00  0.00     0.000 HD 
HETATM   11  O   UNL     1     -12.212  11.414  67.916  1.00  0.00    -0.592 OA 
BRANCH   9  12
HETATM   12  C   UNL     1     -11.620  13.626  68.445  1.00  0.00    -0.377 A  
HETATM   13  C   UNL     1     -11.068  14.027  67.215  1.00  0.00    -0.314 A  
HETATM   14  C   UNL     1     -10.739  15.363  66.987  1.00  0.00    -0.321 A  
HETATM   15  C   UNL     1     -10.917  16.328  67.988  1.00  0.00    -0.328 A  
HETATM   16 CL   UNL     1     -10.003  15.781  65.478  1.00  0.00    -0.366 Cl 
HETATM   17  C   UNL     1     -11.557  15.937  69.170  1.00  0.00    -0.382 A  
HETATM   18  N   UNL     1     -10.645  17.691  67.767  1.00  0.00    -0.386 NA 
HETATM   19  H1  UNL     1     -10.774  18.392  68.496  1.00  0.00     0.000 HD 
HETATM   20  C   UNL     1     -11.896  14.596  69.421  1.00  0.00    -0.329 A  
HETATM   21  H2  UNL     1     -11.181  17.986  66.951  1.00  0.00     0.000 HD 
BRANCH  20  22
HETATM   22  O   UNL     1     -12.378  14.390  70.687  1.00  0.00    -0.306 OA 
HETATM   23  C   UNL     1     -13.386  15.292  71.134  1.00  0.00    -0.498 C  
ENDBRANCH  20  22
ENDBRANCH   9  12
ENDBRANCH   7   8
ENDBRANCH   6   7
ENDBRANCH   3   6
ENDBRANCH   2   3
TORSDOF 7
ENDMDL
MODEL       72
REMARK 921   NORMALIZED FREE ENERGY PREDICTED BY IDOCK:   -4.66 KCAL/MOL
REMARK 922        TOTAL FREE ENERGY PREDICTED BY IDOCK:   -7.28 KCAL/MOL
REMARK 923 INTER-LIGAND FREE ENERGY PREDICTED BY IDOCK:   -6.33 KCAL/MOL
REMARK 924 INTRA-LIGAND FREE ENERGY PREDICTED BY IDOCK:   -0.95 KCAL/MOL
REMARK 927      BINDING AFFINITY PREDICTED BY RF-SCORE:    0.00 PKD
ROOT
HETATM    1  C   UNL     1      -9.036   8.577  72.160  1.00  0.00    -0.319 C  
HETATM    2  C   UNL     1     -10.294   8.090  72.873  1.00  0.00    -0.327 C  
ENDROOT
BRANCH   2   3
HETATM    3  N   UNL     1     -11.487   7.982  72.013  1.00  0.00    -0.288 NA 
BRANCH   3   4
HETATM    4  C   UNL     1     -11.886   6.590  71.722  1.00  0.00    -0.335 C  
HETATM    5  C   UNL     1     -11.297   5.508  72.627  1.00  0.00    -0.346 C  
ENDBRANCH   3   4
BRANCH   3   6
HETATM    6  C   UNL     1     -12.632   8.749  72.560  1.00  0.00    -0.306 C  
BRANCH   6   7
HETATM    7  C   UNL     1     -13.165   9.870  71.653  1.00  0.00    -0.421 C  
BRANCH   7   8
HETATM    8  N   UNL     1     -12.525   9.889  70.349  1.00  0.00    -0.501 N  
HETATM    9  C   UNL     1     -12.100  11.073  69.781  1.00  0.00    -0.353 C  
HETATM   10  H   UNL     1     -12.387   9.013  69.846  1.00  0.00     0.000 HD 
HETATM   11  O   UNL     1     -12.259  12.163  70.317  1.00  0.00    -0.316 OA 
BRANCH   9  12
HETATM   12  C   UNL     1     -11.330  10.967  68.518  1.00  0.00    -0.367 A  
HETATM   13  C   UNL     1     -11.425  12.048  67.623  1.00  0.00    -0.392 A  
HETATM   14  C   UNL     1     -10.956  11.929  66.315  1.00  0.00    -0.302 A  
HETATM   15  C   UNL     1     -10.416  10.721  65.853  1.00  0.00    -0.204 A  
HETATM   16 CL   UNL     1     -11.162  13.272  65.244  1.00  0.00    -0.308 Cl 
HETATM   17  C   UNL     1     -10.236   9.685  66.777  1.00  0.00    -0.308 A  
HETATM   18  N   UNL     1      -9.887  10.590  64.555  1.00  0.00    -0.314 NA 
HETATM   19  H1  UNL     1      -9.494   9.710  64.219  1.00  0.00     0.000 HD 
HETATM   20  C   UNL     1     -10.700   9.784  68.100  1.00  0.00    -0.233 A  
HETATM   21  H2  UNL     1      -9.180  11.314  64.433  1.00  0.00     0.000 HD 
BRANCH  20  22
HETATM   22  O   UNL     1     -10.564   8.619  68.807  1.00  0.00    -0.211 OA 
HETATM   23  C   UNL     1     -10.095   7.488  68.079  1.00  0.00    -0.183 C  
ENDBRANCH  20  22
ENDBRANCH   9  12
ENDBRANCH   7   8
ENDBRANCH   6   7
ENDBRANCH   3   6
ENDBRANCH   2   3
TORSDOF 7
ENDMDL
MODEL       73
REMARK 921   NORMALIZED FREE ENERGY PREDICTED BY IDOCK:   -4.66 KCAL/MOL
REMARK 922        TOTAL FREE ENERGY PREDICTED BY IDOCK:   -7.28 KCAL/MOL
REMARK 923 INTER-LIGAND FREE ENERGY PREDICTED BY IDOCK:   -6.63 KCAL/MOL
REMARK 924 INTRA-LIGAND FREE ENERGY PREDICTED BY IDOCK:   -0.65 KCAL/MOL
REMARK 927      BINDING AFFINITY PREDICTED BY RF-SCORE:    0.00 PKD
ROOT
HETATM    1  C   UNL     1     -11.328   4.996  73.010  1.00  0.00    -0.374 C  
HETATM    2  C   UNL     1     -10.917   5.786  71.771  1.00  0.00    -0.256 C  
ENDROOT
BRANCH   2   3
HETATM    3  N   UNL     1     -11.327   7.202  71.779  1.00  0.00    -0.246 NA 
BRANCH   3   4
HETATM    4  C   UNL     1     -10.839   7.956  72.951  1.00  0.00    -0.386 C  
HETATM    5  C   UNL     1      -9.325   8.131  73.068  1.00  0.00    -0.335 C  
ENDBRANCH   3   4
BRANCH   3   6
HETATM    6  C   UNL     1     -10.949   7.891  70.521  1.00  0.00    -0.248 C  
BRANCH   6   7
HETATM    7  C   UNL     1     -11.550   9.294  70.335  1.00  0.00    -0.173 C  
BRANCH   7   8
HETATM    8  N   UNL     1     -11.405   9.792  68.978  1.00  0.00    -0.464 N  
HETATM    9  C   UNL     1     -11.497  11.141  68.700  1.00  0.00    -0.298 C  
HETATM   10  H   UNL     1     -11.232   9.134  68.218  1.00  0.00     0.000 HD 
HETATM   11  O   UNL     1     -11.731  11.983  69.558  1.00  0.00    -0.301 OA 
BRANCH   9  12
HETATM   12  C   UNL     1     -11.189  11.557  67.310  1.00  0.00    -0.365 A  
HETATM   13  C   UNL     1     -11.840  12.709  66.833  1.00  0.00    -0.425 A  
HETATM   14  C   UNL     1     -11.818  13.024  65.474  1.00  0.00    -0.395 A  
HETATM   15  C   UNL     1     -11.181  12.182  64.552  1.00  0.00    -0.331 A  
HETATM   16 CL   UNL     1     -12.693  14.418  64.941  1.00  0.00    -0.308 Cl 
HETATM   17  C   UNL     1     -10.454  11.094  65.048  1.00  0.00    -0.357 A  
HETATM   18  N   UNL     1     -11.097  12.503  63.184  1.00  0.00    -0.715 NA 
HETATM   19  H1  UNL     1     -10.634  11.891  62.513  1.00  0.00     0.000 HD 
HETATM   20  C   UNL     1     -10.462  10.759  66.414  1.00  0.00    -0.233 A  
HETATM   21  H2  UNL     1     -10.674  13.428  63.107  1.00  0.00     0.000 HD 
BRANCH  20  22
HETATM   22  O   UNL     1      -9.815   9.581  66.683  1.00  0.00    -0.197 OA 
HETATM   23  C   UNL     1      -9.136   8.969  65.591  1.00  0.00    -0.223 C  
ENDBRANCH  20  22
ENDBRANCH   9  12
ENDBRANCH   7   8
ENDBRANCH   6   7
ENDBRANCH   3   6
ENDBRANCH   2   3
TORSDOF 7
ENDMDL
MODEL       74
REMARK 921   NORMALIZED FREE ENERGY PREDICTED BY IDOCK:   -4.66 KCAL/MOL
REMARK 922        TOTAL FREE ENERGY PREDICTED BY IDOCK:   -7.28 KCAL/MOL
REMARK 923 INTER-LIGAND FREE ENERGY PREDICTED BY IDOCK:   -6.44 KCAL/MOL
REMARK 924 INTRA-LIGAND FREE ENERGY PREDICTED BY IDOCK:   -0.83 KCAL/MOL
REMARK 927      BINDING AFFINITY PREDICTED BY RF-SCORE:    0.00 PKD
ROOT
HETATM    1  C   UNL     1     -12.458  12.531  64.871  1.00  0.00    -0.524 C  
HETATM    2  C   UNL     1     -12.549  13.828  65.669  1.00  0.00    -0.509 C  
ENDROOT
BRANCH   2   3
HETATM    3  N   UNL     1     -11.477  14.017  66.664  1.00  0.00    -0.348 NA 
BRANCH   3   4
HETATM    4  C   UNL     1     -10.343  14.824  66.169  1.00  0.00    -0.304 C  
HETATM    5  C   UNL     1     -10.646  15.806  65.038  1.00  0.00    -0.397 C  
ENDBRANCH   3   4
BRANCH   3   6
HETATM    6  C   UNL     1     -11.998  14.573  67.936  1.00  0.00    -0.287 C  
BRANCH   6   7
HETATM    7  C   UNL     1     -11.170  14.236  69.187  1.00  0.00    -0.270 C  
BRANCH   7   8
HETATM    8  N   UNL     1     -10.913  12.813  69.324  1.00  0.00    -0.443 N  
HETATM    9  C   UNL     1     -11.681  12.027  70.159  1.00  0.00    -0.233 C  
HETATM   10  H   UNL     1     -10.152  12.388  68.794  1.00  0.00     0.000 HD 
HETATM   11  O   UNL     1     -12.591  12.476  70.844  1.00  0.00    -0.334 OA 
BRANCH   9  12
HETATM   12  C   UNL     1     -11.431  10.566  70.114  1.00  0.00    -0.405 A  
HETATM   13  C   UNL     1     -11.582   9.858  71.320  1.00  0.00    -0.456 A  
HETATM   14  C   UNL     1     -11.119   8.547  71.436  1.00  0.00    -0.265 A  
HETATM   15  C   UNL     1     -10.462   7.920  70.368  1.00  0.00    -0.218 A  
HETATM   16 CL   UNL     1     -11.275   7.754  72.966  1.00  0.00    -0.448 Cl 
HETATM   17  C   UNL     1     -10.405   8.596  69.144  1.00  0.00    -0.227 A  
HETATM   18  N   UNL     1     -10.034   6.582  70.440  1.00  0.00    -0.178 NA 
HETATM   19  H1  UNL     1      -9.556   6.126  69.663  1.00  0.00     0.000 HD 
HETATM   20  C   UNL     1     -10.865   9.917  69.005  1.00  0.00    -0.215 A  
HETATM   21  H2  UNL     1     -10.841   6.010  70.688  1.00  0.00     0.000 HD 
BRANCH  20  22
HETATM   22  O   UNL     1     -10.591  10.457  67.776  1.00  0.00    -0.212 OA 
HETATM   23  C   UNL     1     -10.531   9.544  66.684  1.00  0.00    -0.171 C  
ENDBRANCH  20  22
ENDBRANCH   9  12
ENDBRANCH   7   8
ENDBRANCH   6   7
ENDBRANCH   3   6
ENDBRANCH   2   3
TORSDOF 7
ENDMDL
MODEL       75
REMARK 921   NORMALIZED FREE ENERGY PREDICTED BY IDOCK:   -4.65 KCAL/MOL
REMARK 922        TOTAL FREE ENERGY PREDICTED BY IDOCK:   -7.27 KCAL/MOL
REMARK 923 INTER-LIGAND FREE ENERGY PREDICTED BY IDOCK:   -6.84 KCAL/MOL
REMARK 924 INTRA-LIGAND FREE ENERGY PREDICTED BY IDOCK:   -0.43 KCAL/MOL
REMARK 927      BINDING AFFINITY PREDICTED BY RF-SCORE:    0.00 PKD
ROOT
HETATM    1  C   UNL     1     -11.401   6.332  69.853  1.00  0.00    -0.504 C  
HETATM    2  C   UNL     1     -10.746   7.678  70.148  1.00  0.00    -0.240 C  
ENDROOT
BRANCH   2   3
HETATM    3  N   UNL     1     -11.593   8.625  70.897  1.00  0.00    -0.278 NA 
BRANCH   3   4
HETATM    4  C   UNL     1     -11.726   8.296  72.331  1.00  0.00    -0.397 C  
HETATM    5  C   UNL     1     -10.444   7.906  73.064  1.00  0.00    -0.410 C  
ENDBRANCH   3   4
BRANCH   3   6
HETATM    6  C   UNL     1     -11.139  10.026  70.723  1.00  0.00    -0.334 C  
BRANCH   6   7
HETATM    7  C   UNL     1      -9.901  10.210  69.829  1.00  0.00    -0.208 C  
BRANCH   7   8
HETATM    8  N   UNL     1      -9.958  11.424  69.035  1.00  0.00    -0.395 N  
HETATM    9  C   UNL     1     -10.940  11.608  68.082  1.00  0.00    -0.226 C  
HETATM   10  H   UNL     1      -9.260  12.154  69.183  1.00  0.00     0.000 HD 
HETATM   11  O   UNL     1     -11.791  10.763  67.833  1.00  0.00    -0.553 OA 
BRANCH   9  12
HETATM   12  C   UNL     1     -10.996  12.939  67.432  1.00  0.00    -0.288 A  
HETATM   13  C   UNL     1     -11.685  13.019  66.208  1.00  0.00    -0.440 A  
HETATM   14  C   UNL     1     -11.569  14.152  65.402  1.00  0.00    -0.334 A  
HETATM   15  C   UNL     1     -10.736  15.216  65.774  1.00  0.00    -0.351 A  
HETATM   16 CL   UNL     1     -12.389  14.162  63.878  1.00  0.00    -0.373 Cl 
HETATM   17  C   UNL     1     -10.134  15.169  67.036  1.00  0.00    -0.244 A  
HETATM   18  N   UNL     1     -10.642  16.392  65.007  1.00  0.00    -0.685 NA 
HETATM   19  H1  UNL     1     -10.036  17.167  65.277  1.00  0.00     0.000 HD 
HETATM   20  C   UNL     1     -10.238  14.038  67.865  1.00  0.00    -0.240 A  
HETATM   21  H2  UNL     1     -11.585  16.762  64.887  1.00  0.00     0.000 HD 
BRANCH  20  22
HETATM   22  O   UNL     1      -9.462  14.122  68.991  1.00  0.00    -0.084 OA 
HETATM   23  C   UNL     1      -9.057  15.430  69.383  1.00  0.00    -0.258 C  
ENDBRANCH  20  22
ENDBRANCH   9  12
ENDBRANCH   7   8
ENDBRANCH   6   7
ENDBRANCH   3   6
ENDBRANCH   2   3
TORSDOF 7
ENDMDL
MODEL       76
REMARK 921   NORMALIZED FREE ENERGY PREDICTED BY IDOCK:   -4.65 KCAL/MOL
REMARK 922        TOTAL FREE ENERGY PREDICTED BY IDOCK:   -7.27 KCAL/MOL
REMARK 923 INTER-LIGAND FREE ENERGY PREDICTED BY IDOCK:   -6.53 KCAL/MOL
REMARK 924 INTRA-LIGAND FREE ENERGY PREDICTED BY IDOCK:   -0.74 KCAL/MOL
REMARK 927      BINDING AFFINITY PREDICTED BY RF-SCORE:    0.00 PKD
ROOT
HETATM    1  C   UNL     1      -7.103  19.703  68.867  1.00  0.00    -0.388 C  
HETATM    2  C   UNL     1      -8.113  18.640  68.446  1.00  0.00    -0.333 C  
ENDROOT
BRANCH   2   3
HETATM    3  N   UNL     1      -9.522  19.070  68.509  1.00  0.00    -0.363 NA 
BRANCH   3   4
HETATM    4  C   UNL     1      -9.845  20.184  67.595  1.00  0.00    -0.429 C  
HETATM    5  C   UNL     1     -10.432  19.805  66.236  1.00  0.00    -0.614 C  
ENDBRANCH   3   4
BRANCH   3   6
HETATM    6  C   UNL     1     -10.454  17.936  68.298  1.00  0.00    -0.354 C  
BRANCH   6   7
HETATM    7  C   UNL     1     -10.066  16.626  69.005  1.00  0.00    -0.293 C  
BRANCH   7   8
HETATM    8  N   UNL     1      -9.824  15.537  68.075  1.00  0.00    -0.212 N  
HETATM    9  C   UNL     1     -10.852  14.717  67.656  1.00  0.00    -0.284 C  
HETATM   10  H   UNL     1      -8.879  15.376  67.726  1.00  0.00     0.000 HD 
HETATM   11  O   UNL     1     -12.003  14.835  68.055  1.00  0.00    -0.316 OA 
BRANCH   9  12
HETATM   12  C   UNL     1     -10.526  13.731  66.596  1.00  0.00    -0.272 A  
HETATM   13  C   UNL     1     -11.437  13.621  65.530  1.00  0.00    -0.317 A  
HETATM   14  C   UNL     1     -11.356  12.554  64.635  1.00  0.00    -0.318 A  
HETATM   15  C   UNL     1     -10.391  11.550  64.800  1.00  0.00    -0.289 A  
HETATM   16 CL   UNL     1     -12.546  12.440  63.384  1.00  0.00    -0.558 Cl 
HETATM   17  C   UNL     1      -9.431  11.721  65.803  1.00  0.00    -0.232 A  
HETATM   18  N   UNL     1     -10.253  10.493  63.882  1.00  0.00    -0.440 NA 
HETATM   19  H1  UNL     1      -9.551   9.762  64.002  1.00  0.00     0.000 HD 
HETATM   20  C   UNL     1      -9.493  12.789  66.715  1.00  0.00    -0.243 A  
HETATM   21  H2  UNL     1     -10.124  10.899  62.956  1.00  0.00     0.000 HD 
BRANCH  20  22
HETATM   22  O   UNL     1      -8.555  12.703  67.710  1.00  0.00    -0.157 OA 
HETATM   23  C   UNL     1      -7.226  13.078  67.359  1.00  0.00    -0.116 C  
ENDBRANCH  20  22
ENDBRANCH   9  12
ENDBRANCH   7   8
ENDBRANCH   6   7
ENDBRANCH   3   6
ENDBRANCH   2   3
TORSDOF 7
ENDMDL
MODEL       77
REMARK 921   NORMALIZED FREE ENERGY PREDICTED BY IDOCK:   -4.65 KCAL/MOL
REMARK 922        TOTAL FREE ENERGY PREDICTED BY IDOCK:   -7.26 KCAL/MOL
REMARK 923 INTER-LIGAND FREE ENERGY PREDICTED BY IDOCK:   -6.37 KCAL/MOL
REMARK 924 INTRA-LIGAND FREE ENERGY PREDICTED BY IDOCK:   -0.89 KCAL/MOL
REMARK 927      BINDING AFFINITY PREDICTED BY RF-SCORE:    0.00 PKD
ROOT
HETATM    1  C   UNL     1     -10.033   9.587  68.049  1.00  0.00    -0.198 C  
HETATM    2  C   UNL     1     -10.391   9.455  66.572  1.00  0.00    -0.198 C  
ENDROOT
BRANCH   2   3
HETATM    3  N   UNL     1      -9.915  10.560  65.721  1.00  0.00    -0.244 NA 
BRANCH   3   4
HETATM    4  C   UNL     1      -8.864  10.163  64.763  1.00  0.00    -0.195 C  
HETATM    5  C   UNL     1      -8.485   8.683  64.740  1.00  0.00    -0.168 C  
ENDBRANCH   3   4
BRANCH   3   6
HETATM    6  C   UNL     1     -11.033  11.236  65.019  1.00  0.00    -0.156 C  
BRANCH   6   7
HETATM    7  C   UNL     1     -11.325  12.674  65.479  1.00  0.00    -0.321 C  
BRANCH   7   8
HETATM    8  N   UNL     1     -11.792  12.740  66.853  1.00  0.00    -0.388 N  
HETATM    9  C   UNL     1     -10.975  13.206  67.862  1.00  0.00    -0.249 C  
HETATM   10  H   UNL     1     -12.741  12.436  67.075  1.00  0.00     0.000 HD 
HETATM   11  O   UNL     1      -9.818  13.560  67.671  1.00  0.00    -0.219 OA 
BRANCH   9  12
HETATM   12  C   UNL     1     -11.595  13.371  69.199  1.00  0.00    -0.365 A  
HETATM   13  C   UNL     1     -11.908  12.193  69.903  1.00  0.00    -0.392 A  
HETATM   14  C   UNL     1     -12.722  12.239  71.035  1.00  0.00    -0.225 A  
HETATM   15  C   UNL     1     -13.275  13.450  71.473  1.00  0.00    -0.312 A  
HETATM   16 CL   UNL     1     -13.123  10.749  71.817  1.00  0.00    -0.583 Cl 
HETATM   17  C   UNL     1     -12.879  14.626  70.826  1.00  0.00    -0.418 A  
HETATM   18  N   UNL     1     -14.055  13.532  72.642  1.00  0.00    -0.729 NA 
HETATM   19  H1  UNL     1     -14.457  14.414  72.961  1.00  0.00     0.000 HD 
HETATM   20  C   UNL     1     -12.060  14.603  69.684  1.00  0.00    -0.311 A  
HETATM   21  H2  UNL     1     -13.507  13.144  73.409  1.00  0.00     0.000 HD 
BRANCH  20  22
HETATM   22  O   UNL     1     -11.903  15.836  69.108  1.00  0.00    -0.381 OA 
HETATM   23  C   UNL     1     -10.757  16.580  69.508  1.00  0.00    -0.321 C  
ENDBRANCH  20  22
ENDBRANCH   9  12
ENDBRANCH   7   8
ENDBRANCH   6   7
ENDBRANCH   3   6
ENDBRANCH   2   3
TORSDOF 7
ENDMDL
MODEL       78
REMARK 921   NORMALIZED FREE ENERGY PREDICTED BY IDOCK:   -4.64 KCAL/MOL
REMARK 922        TOTAL FREE ENERGY PREDICTED BY IDOCK:   -7.25 KCAL/MOL
REMARK 923 INTER-LIGAND FREE ENERGY PREDICTED BY IDOCK:   -6.79 KCAL/MOL
REMARK 924 INTRA-LIGAND FREE ENERGY PREDICTED BY IDOCK:   -0.46 KCAL/MOL
REMARK 927      BINDING AFFINITY PREDICTED BY RF-SCORE:    0.00 PKD
ROOT
HETATM    1  C   UNL     1     -12.136  14.901  64.372  1.00  0.00    -0.417 C  
HETATM    2  C   UNL     1     -12.907  13.965  65.298  1.00  0.00    -0.398 C  
ENDROOT
BRANCH   2   3
HETATM    3  N   UNL     1     -12.490  12.553  65.233  1.00  0.00    -0.647 NA 
BRANCH   3   4
HETATM    4  C   UNL     1     -12.144  12.097  63.872  1.00  0.00    -0.488 C  
HETATM    5  C   UNL     1     -10.791  11.406  63.706  1.00  0.00    -0.468 C  
ENDBRANCH   3   4
BRANCH   3   6
HETATM    6  C   UNL     1     -11.384  12.261  66.178  1.00  0.00    -0.353 C  
BRANCH   6   7
HETATM    7  C   UNL     1     -11.385  13.097  67.469  1.00  0.00    -0.298 C  
BRANCH   7   8
HETATM    8  N   UNL     1     -10.418  14.180  67.437  1.00  0.00    -0.269 N  
HETATM    9  C   UNL     1     -10.747  15.443  67.884  1.00  0.00    -0.286 C  
HETATM   10  H   UNL     1      -9.479  14.004  67.078  1.00  0.00     0.000 HD 
HETATM   11  O   UNL     1     -11.862  15.732  68.301  1.00  0.00    -0.301 OA 
BRANCH   9  12
HETATM   12  C   UNL     1      -9.647  16.436  67.945  1.00  0.00    -0.228 A  
HETATM   13  C   UNL     1      -8.459  16.029  68.580  1.00  0.00    -0.208 A  
HETATM   14  C   UNL     1      -7.479  16.963  68.916  1.00  0.00    -0.238 A  
HETATM   15  C   UNL     1      -7.671  18.328  68.663  1.00  0.00    -0.302 A  
HETATM   16 CL   UNL     1      -6.071  16.408  69.755  1.00  0.00    -0.209 Cl 
HETATM   17  C   UNL     1      -8.809  18.710  67.944  1.00  0.00    -0.308 A  
HETATM   18  N   UNL     1      -6.677  19.284  68.943  1.00  0.00    -0.297 NA 
HETATM   19  H1  UNL     1      -6.816  20.278  68.759  1.00  0.00     0.000 HD 
HETATM   20  C   UNL     1      -9.809  17.785  67.596  1.00  0.00    -0.299 A  
HETATM   21  H2  UNL     1      -5.824  18.995  68.464  1.00  0.00     0.000 HD 
BRANCH  20  22
HETATM   22  O   UNL     1     -10.910  18.372  67.027  1.00  0.00    -0.345 OA 
HETATM   23  C   UNL     1     -10.703  19.636  66.406  1.00  0.00    -0.424 C  
ENDBRANCH  20  22
ENDBRANCH   9  12
ENDBRANCH   7   8
ENDBRANCH   6   7
ENDBRANCH   3   6
ENDBRANCH   2   3
TORSDOF 7
ENDMDL
MODEL       79
REMARK 921   NORMALIZED FREE ENERGY PREDICTED BY IDOCK:   -4.61 KCAL/MOL
REMARK 922        TOTAL FREE ENERGY PREDICTED BY IDOCK:   -7.21 KCAL/MOL
REMARK 923 INTER-LIGAND FREE ENERGY PREDICTED BY IDOCK:   -6.76 KCAL/MOL
REMARK 924 INTRA-LIGAND FREE ENERGY PREDICTED BY IDOCK:   -0.45 KCAL/MOL
REMARK 927      BINDING AFFINITY PREDICTED BY RF-SCORE:    0.00 PKD
ROOT
HETATM    1  C   UNL     1     -14.119   8.807  72.019  1.00  0.00    -0.508 C  
HETATM    2  C   UNL     1     -12.846   8.082  71.595  1.00  0.00    -0.329 C  
ENDROOT
BRANCH   2   3
HETATM    3  N   UNL     1     -11.656   8.399  72.407  1.00  0.00    -0.384 NA 
BRANCH   3   4
HETATM    4  C   UNL     1     -11.064   7.224  73.077  1.00  0.00    -0.317 C  
HETATM    5  C   UNL     1      -9.657   7.401  73.647  1.00  0.00    -0.337 C  
ENDBRANCH   3   4
BRANCH   3   6
HETATM    6  C   UNL     1     -10.629   9.124  71.619  1.00  0.00    -0.357 C  
BRANCH   6   7
HETATM    7  C   UNL     1     -11.062   9.545  70.205  1.00  0.00    -0.271 C  
BRANCH   7   8
HETATM    8  N   UNL     1     -10.773  10.940  69.922  1.00  0.00    -0.462 N  
HETATM    9  C   UNL     1     -11.469  11.629  68.950  1.00  0.00    -0.287 C  
HETATM   10  H   UNL     1     -10.043  11.418  70.451  1.00  0.00     0.000 HD 
HETATM   11  O   UNL     1     -12.337  11.111  68.260  1.00  0.00    -0.532 OA 
BRANCH   9  12
HETATM   12  C   UNL     1     -11.199  13.084  68.842  1.00  0.00    -0.326 A  
HETATM   13  C   UNL     1     -11.520  13.874  69.961  1.00  0.00    -0.208 A  
HETATM   14  C   UNL     1     -11.548  15.265  69.862  1.00  0.00    -0.311 A  
HETATM   15  C   UNL     1     -11.294  15.903  68.640  1.00  0.00    -0.376 A  
HETATM   16 CL   UNL     1     -12.014  16.178  71.256  1.00  0.00    -0.456 Cl 
HETATM   17  C   UNL     1     -10.880  15.115  67.560  1.00  0.00    -0.301 A  
HETATM   18  N   UNL     1     -11.263  17.305  68.524  1.00  0.00    -0.116 NA 
HETATM   19  H1  UNL     1     -11.079  17.770  67.635  1.00  0.00     0.000 HD 
HETATM   20  C   UNL     1     -10.845  13.712  67.638  1.00  0.00    -0.256 A  
HETATM   21  H2  UNL     1     -10.591  17.659  69.205  1.00  0.00     0.000 HD 
BRANCH  20  22
HETATM   22  O   UNL     1     -10.557  13.113  66.440  1.00  0.00    -0.280 OA 
HETATM   23  C   UNL     1     -11.618  13.058  65.490  1.00  0.00    -0.347 C  
ENDBRANCH  20  22
ENDBRANCH   9  12
ENDBRANCH   7   8
ENDBRANCH   6   7
ENDBRANCH   3   6
ENDBRANCH   2   3
TORSDOF 7
ENDMDL
MODEL       80
REMARK 921   NORMALIZED FREE ENERGY PREDICTED BY IDOCK:   -4.61 KCAL/MOL
REMARK 922        TOTAL FREE ENERGY PREDICTED BY IDOCK:   -7.21 KCAL/MOL
REMARK 923 INTER-LIGAND FREE ENERGY PREDICTED BY IDOCK:   -6.54 KCAL/MOL
REMARK 924 INTRA-LIGAND FREE ENERGY PREDICTED BY IDOCK:   -0.67 KCAL/MOL
REMARK 927      BINDING AFFINITY PREDICTED BY RF-SCORE:    0.00 PKD
ROOT
HETATM    1  C   UNL     1     -11.531   6.767  70.088  1.00  0.00    -0.404 C  
HETATM    2  C   UNL     1     -10.979   6.116  68.823  1.00  0.00    -0.348 C  
ENDROOT
BRANCH   2   3
HETATM    3  N   UNL     1      -9.910   6.878  68.154  1.00  0.00    -0.134 NA 
BRANCH   3   4
HETATM    4  C   UNL     1      -8.651   6.122  67.996  1.00  0.00    -0.115 C  
HETATM    5  C   UNL     1      -8.079   5.476  69.257  1.00  0.00    -0.095 C  
ENDBRANCH   3   4
BRANCH   3   6
HETATM    6  C   UNL     1     -10.357   7.425  66.850  1.00  0.00    -0.296 C  
BRANCH   6   7
HETATM    7  C   UNL     1     -10.218   8.949  66.695  1.00  0.00    -0.268 C  
BRANCH   7   8
HETATM    8  N   UNL     1     -10.532   9.668  67.917  1.00  0.00    -0.231 N  
HETATM    9  C   UNL     1     -11.275  10.832  67.888  1.00  0.00    -0.318 C  
HETATM   10  H   UNL     1     -10.199   9.308  68.811  1.00  0.00     0.000 HD 
HETATM   11  O   UNL     1     -11.682  11.335  66.849  1.00  0.00    -0.464 OA 
BRANCH   9  12
HETATM   12  C   UNL     1     -11.663  11.406  69.199  1.00  0.00    -0.410 A  
HETATM   13  C   UNL     1     -12.145  10.507  70.168  1.00  0.00    -0.380 A  
HETATM   14  C   UNL     1     -12.774  10.978  71.321  1.00  0.00    -0.432 A  
HETATM   15  C   UNL     1     -12.971  12.351  71.522  1.00  0.00    -0.285 A  
HETATM   16 CL   UNL     1     -13.403   9.821  72.443  1.00  0.00    -0.451 Cl 
HETATM   17  C   UNL     1     -12.402  13.238  70.602  1.00  0.00    -0.416 A  
HETATM   18  N   UNL     1     -13.553  12.855  72.700  1.00  0.00    -0.683 NA 
HETATM   19  H1  UNL     1     -13.697  13.855  72.846  1.00  0.00     0.000 HD 
HETATM   20  C   UNL     1     -11.764  12.786  69.433  1.00  0.00    -0.319 A  
HETATM   21  H2  UNL     1     -13.015  12.499  73.489  1.00  0.00     0.000 HD 
BRANCH  20  22
HETATM   22  O   UNL     1     -11.403  13.803  68.588  1.00  0.00    -0.252 OA 
HETATM   23  C   UNL     1     -10.061  14.267  68.695  1.00  0.00    -0.238 C  
ENDBRANCH  20  22
ENDBRANCH   9  12
ENDBRANCH   7   8
ENDBRANCH   6   7
ENDBRANCH   3   6
ENDBRANCH   2   3
TORSDOF 7
ENDMDL
MODEL       81
REMARK 921   NORMALIZED FREE ENERGY PREDICTED BY IDOCK:   -4.57 KCAL/MOL
REMARK 922        TOTAL FREE ENERGY PREDICTED BY IDOCK:   -7.16 KCAL/MOL
REMARK 923 INTER-LIGAND FREE ENERGY PREDICTED BY IDOCK:   -6.43 KCAL/MOL
REMARK 924 INTRA-LIGAND FREE ENERGY PREDICTED BY IDOCK:   -0.73 KCAL/MOL
REMARK 927      BINDING AFFINITY PREDICTED BY RF-SCORE:    0.00 PKD
ROOT
HETATM    1  C   UNL     1      -8.819   8.752  67.516  1.00  0.00    -0.139 C  
HETATM    2  C   UNL     1     -10.309   9.059  67.628  1.00  0.00    -0.257 C  
ENDROOT
BRANCH   2   3
HETATM    3  N   UNL     1     -10.712  10.365  67.076  1.00  0.00    -0.256 NA 
BRANCH   3   4
HETATM    4  C   UNL     1     -11.607  11.135  67.963  1.00  0.00    -0.263 C  
HETATM    5  C   UNL     1     -11.357  11.005  69.465  1.00  0.00    -0.356 C  
ENDBRANCH   3   4
BRANCH   3   6
HETATM    6  C   UNL     1      -9.538  11.183  66.683  1.00  0.00    -0.190 C  
BRANCH   6   7
HETATM    7  C   UNL     1      -9.848  12.376  65.763  1.00  0.00    -0.240 C  
BRANCH   7   8
HETATM    8  N   UNL     1      -9.901  13.638  66.479  1.00  0.00    -0.285 N  
HETATM    9  C   UNL     1     -10.376  14.783  65.871  1.00  0.00    -0.320 C  
HETATM   10  H   UNL     1      -9.581  13.679  67.447  1.00  0.00     0.000 HD 
HETATM   11  O   UNL     1     -10.748  14.812  64.706  1.00  0.00    -0.407 OA 
BRANCH   9  12
HETATM   12  C   UNL     1     -10.524  15.981  66.733  1.00  0.00    -0.308 A  
HETATM   13  C   UNL     1     -10.425  17.234  66.101  1.00  0.00    -0.279 A  
HETATM   14  C   UNL     1     -10.290  18.400  66.855  1.00  0.00    -0.390 A  
HETATM   15  C   UNL     1     -10.212  18.346  68.253  1.00  0.00    -0.384 A  
HETATM   16 CL   UNL     1     -10.106  19.902  66.017  1.00  0.00    -0.587 Cl 
HETATM   17  C   UNL     1     -10.411  17.107  68.875  1.00  0.00    -0.348 A  
HETATM   18  N   UNL     1     -10.130  19.509  69.040  1.00  0.00    -0.592 NA 
HETATM   19  H1  UNL     1     -10.073  19.470  70.058  1.00  0.00     0.000 HD 
HETATM   20  C   UNL     1     -10.549  15.920  68.135  1.00  0.00    -0.280 A  
HETATM   21  H2  UNL     1     -10.919  20.107  68.795  1.00  0.00     0.000 HD 
BRANCH  20  22
HETATM   22  O   UNL     1     -10.585  14.797  68.919  1.00  0.00    -0.236 OA 
HETATM   23  C   UNL     1     -11.710  14.666  69.784  1.00  0.00    -0.313 C  
ENDBRANCH  20  22
ENDBRANCH   9  12
ENDBRANCH   7   8
ENDBRANCH   6   7
ENDBRANCH   3   6
ENDBRANCH   2   3
TORSDOF 7
ENDMDL
MODEL       82
REMARK 921   NORMALIZED FREE ENERGY PREDICTED BY IDOCK:   -4.54 KCAL/MOL
REMARK 922        TOTAL FREE ENERGY PREDICTED BY IDOCK:   -7.11 KCAL/MOL
REMARK 923 INTER-LIGAND FREE ENERGY PREDICTED BY IDOCK:   -6.31 KCAL/MOL
REMARK 924 INTRA-LIGAND FREE ENERGY PREDICTED BY IDOCK:   -0.80 KCAL/MOL
REMARK 927      BINDING AFFINITY PREDICTED BY RF-SCORE:    0.00 PKD
ROOT
HETATM    1  C   UNL     1      -8.830  12.979  68.203  1.00  0.00    -0.194 C  
HETATM    2  C   UNL     1      -9.421  13.002  66.797  1.00  0.00    -0.250 C  
ENDROOT
BRANCH   2   3
HETATM    3  N   UNL     1     -10.305  14.148  66.518  1.00  0.00    -0.279 NA 
BRANCH   3   4
HETATM    4  C   UNL     1     -10.692  14.269  65.098  1.00  0.00    -0.394 C  
HETATM    5  C   UNL     1     -12.190  14.267  64.796  1.00  0.00    -0.456 C  
ENDBRANCH   3   4
BRANCH   3   6
HETATM    6  C   UNL     1     -11.507  14.140  67.388  1.00  0.00    -0.345 C  
BRANCH   6   7
HETATM    7  C   UNL     1     -11.700  15.396  68.254  1.00  0.00    -0.297 C  
BRANCH   7   8
HETATM    8  N   UNL     1     -10.858  16.503  67.833  1.00  0.00    -0.344 N  
HETATM    9  C   UNL     1      -9.713  16.833  68.530  1.00  0.00    -0.248 C  
HETATM   10  H   UNL     1     -11.117  17.044  67.008  1.00  0.00     0.000 HD 
HETATM   11  O   UNL     1      -9.358  16.244  69.543  1.00  0.00    -0.186 OA 
BRANCH   9  12
HETATM   12  C   UNL     1      -8.850  17.881  67.934  1.00  0.00    -0.260 A  
HETATM   13  C   UNL     1      -7.774  18.338  68.716  1.00  0.00    -0.286 A  
HETATM   14  C   UNL     1      -7.074  19.490  68.356  1.00  0.00    -0.314 A  
HETATM   15  C   UNL     1      -7.451  20.237  67.232  1.00  0.00    -0.300 A  
HETATM   16 CL   UNL     1      -5.803  20.036  69.396  1.00  0.00    -0.305 Cl 
HETATM   17  C   UNL     1      -8.457  19.721  66.407  1.00  0.00    -0.391 A  
HETATM   18  N   UNL     1      -6.730  21.372  66.816  1.00  0.00    -0.758 NA 
HETATM   19  H1  UNL     1      -7.004  21.916  65.998  1.00  0.00     0.000 HD 
HETATM   20  C   UNL     1      -9.175  18.562  66.750  1.00  0.00    -0.297 A  
HETATM   21  H2  UNL     1      -5.756  21.094  66.694  1.00  0.00     0.000 HD 
BRANCH  20  22
HETATM   22  O   UNL     1     -10.214  18.300  65.897  1.00  0.00    -0.541 OA 
HETATM   23  C   UNL     1     -11.068  19.396  65.584  1.00  0.00     0.131 C  
ENDBRANCH  20  22
ENDBRANCH   9  12
ENDBRANCH   7   8
ENDBRANCH   6   7
ENDBRANCH   3   6
ENDBRANCH   2   3
TORSDOF 7
ENDMDL
MODEL       83
REMARK 921   NORMALIZED FREE ENERGY PREDICTED BY IDOCK:   -4.54 KCAL/MOL
REMARK 922        TOTAL FREE ENERGY PREDICTED BY IDOCK:   -7.11 KCAL/MOL
REMARK 923 INTER-LIGAND FREE ENERGY PREDICTED BY IDOCK:   -6.44 KCAL/MOL
REMARK 924 INTRA-LIGAND FREE ENERGY PREDICTED BY IDOCK:   -0.66 KCAL/MOL
REMARK 927      BINDING AFFINITY PREDICTED BY RF-SCORE:    0.00 PKD
ROOT
HETATM    1  C   UNL     1     -12.045  12.759  65.935  1.00  0.00    -0.485 C  
HETATM    2  C   UNL     1     -12.153  14.184  66.471  1.00  0.00    -0.454 C  
ENDROOT
BRANCH   2   3
HETATM    3  N   UNL     1     -11.181  14.520  67.528  1.00  0.00    -0.307 NA 
BRANCH   3   4
HETATM    4  C   UNL     1     -10.110  15.433  67.081  1.00  0.00    -0.245 C  
HETATM    5  C   UNL     1     -10.269  16.044  65.690  1.00  0.00    -0.412 C  
ENDBRANCH   3   4
BRANCH   3   6
HETATM    6  C   UNL     1     -11.849  15.053  68.740  1.00  0.00    -0.301 C  
BRANCH   6   7
HETATM    7  C   UNL     1     -12.039  14.043  69.883  1.00  0.00    -0.345 C  
BRANCH   7   8
HETATM    8  N   UNL     1     -11.351  12.787  69.642  1.00  0.00    -0.478 N  
HETATM    9  C   UNL     1     -11.820  11.604  70.177  1.00  0.00    -0.344 C  
HETATM   10  H   UNL     1     -10.507  12.779  69.069  1.00  0.00     0.000 HD 
HETATM   11  O   UNL     1     -12.808  11.544  70.896  1.00  0.00    -0.294 OA 
BRANCH   9  12
HETATM   12  C   UNL     1     -11.130  10.362  69.750  1.00  0.00    -0.352 A  
HETATM   13  C   UNL     1     -10.773  10.268  68.393  1.00  0.00    -0.263 A  
HETATM   14  C   UNL     1     -10.364   9.049  67.850  1.00  0.00    -0.235 A  
HETATM   15  C   UNL     1     -10.336   7.887  68.633  1.00  0.00    -0.201 A  
HETATM   16 CL   UNL     1     -10.002   8.985  66.159  1.00  0.00    -0.354 Cl 
HETATM   17  C   UNL     1     -10.598   8.011  70.002  1.00  0.00    -0.242 A  
HETATM   18  N   UNL     1      -9.877   6.658  68.125  1.00  0.00    -0.130 NA 
HETATM   19  H1  UNL     1      -9.857   5.812  68.695  1.00  0.00     0.000 HD 
HETATM   20  C   UNL     1     -11.011   9.229  70.570  1.00  0.00    -0.265 A  
HETATM   21  H2  UNL     1      -8.939   6.805  67.754  1.00  0.00     0.000 HD 
BRANCH  20  22
HETATM   22  O   UNL     1     -11.360   9.117  71.891  1.00  0.00    -0.365 OA 
HETATM   23  C   UNL     1     -12.528   8.352  72.173  1.00  0.00    -0.370 C  
ENDBRANCH  20  22
ENDBRANCH   9  12
ENDBRANCH   7   8
ENDBRANCH   6   7
ENDBRANCH   3   6
ENDBRANCH   2   3
TORSDOF 7
ENDMDL
MODEL       84
REMARK 921   NORMALIZED FREE ENERGY PREDICTED BY IDOCK:   -4.52 KCAL/MOL
REMARK 922        TOTAL FREE ENERGY PREDICTED BY IDOCK:   -7.08 KCAL/MOL
REMARK 923 INTER-LIGAND FREE ENERGY PREDICTED BY IDOCK:   -6.51 KCAL/MOL
REMARK 924 INTRA-LIGAND FREE ENERGY PREDICTED BY IDOCK:   -0.57 KCAL/MOL
REMARK 927      BINDING AFFINITY PREDICTED BY RF-SCORE:    0.00 PKD
ROOT
HETATM    1  C   UNL     1      -9.919  19.935  69.307  1.00  0.00    -0.268 C  
HETATM    2  C   UNL     1      -9.397  18.871  68.347  1.00  0.00    -0.350 C  
ENDROOT
BRANCH   2   3
HETATM    3  N   UNL     1     -10.438  18.198  67.548  1.00  0.00    -0.397 NA 
BRANCH   3   4
HETATM    4  C   UNL     1     -10.441  18.589  66.124  1.00  0.00    -0.413 C  
HETATM    5  C   UNL     1     -10.516  20.086  65.827  1.00  0.00    -0.469 C  
ENDBRANCH   3   4
BRANCH   3   6
HETATM    6  C   UNL     1     -10.369  16.723  67.684  1.00  0.00    -0.309 C  
BRANCH   6   7
HETATM    7  C   UNL     1     -11.524  16.080  68.469  1.00  0.00    -0.357 C  
BRANCH   7   8
HETATM    8  N   UNL     1     -11.417  14.633  68.542  1.00  0.00    -0.287 N  
HETATM    9  C   UNL     1     -11.636  13.961  69.727  1.00  0.00    -0.270 C  
HETATM   10  H   UNL     1     -11.177  14.106  67.702  1.00  0.00     0.000 HD 
HETATM   11  O   UNL     1     -11.901  14.532  70.777  1.00  0.00    -0.297 OA 
BRANCH   9  12
HETATM   12  C   UNL     1     -11.647  12.479  69.660  1.00  0.00    -0.323 A  
HETATM   13  C   UNL     1     -12.374  11.803  70.656  1.00  0.00    -0.421 A  
HETATM   14  C   UNL     1     -12.229  10.427  70.830  1.00  0.00    -0.359 A  
HETATM   15  C   UNL     1     -11.330   9.695  70.042  1.00  0.00    -0.195 A  
HETATM   16 CL   UNL     1     -13.102   9.666  72.115  1.00  0.00    -0.516 Cl 
HETATM   17  C   UNL     1     -10.686  10.358  68.991  1.00  0.00    -0.260 A  
HETATM   18  N   UNL     1     -11.203   8.298  70.160  1.00  0.00    -0.411 NA 
HETATM   19  H1  UNL     1     -10.549   7.765  69.587  1.00  0.00     0.000 HD 
HETATM   20  C   UNL     1     -10.818  11.744  68.798  1.00  0.00    -0.227 A  
HETATM   21  H2  UNL     1     -12.130   7.890  70.036  1.00  0.00     0.000 HD 
BRANCH  20  22
HETATM   22  O   UNL     1      -9.999  12.231  67.814  1.00  0.00    -0.191 OA 
HETATM   23  C   UNL     1      -9.554  11.292  66.839  1.00  0.00    -0.191 C  
ENDBRANCH  20  22
ENDBRANCH   9  12
ENDBRANCH   7   8
ENDBRANCH   6   7
ENDBRANCH   3   6
ENDBRANCH   2   3
TORSDOF 7
ENDMDL
MODEL       85
REMARK 921   NORMALIZED FREE ENERGY PREDICTED BY IDOCK:   -4.52 KCAL/MOL
REMARK 922        TOTAL FREE ENERGY PREDICTED BY IDOCK:   -7.08 KCAL/MOL
REMARK 923 INTER-LIGAND FREE ENERGY PREDICTED BY IDOCK:   -6.54 KCAL/MOL
REMARK 924 INTRA-LIGAND FREE ENERGY PREDICTED BY IDOCK:   -0.54 KCAL/MOL
REMARK 927      BINDING AFFINITY PREDICTED BY RF-SCORE:    0.00 PKD
ROOT
HETATM    1  C   UNL     1      -5.236  20.195  64.486  1.00  0.00    -0.200 C  
HETATM    2  C   UNL     1      -6.707  20.444  64.804  1.00  0.00    -0.216 C  
ENDROOT
BRANCH   2   3
HETATM    3  N   UNL     1      -7.366  19.363  65.559  1.00  0.00    -0.432 NA 
BRANCH   3   4
HETATM    4  C   UNL     1      -6.521  18.166  65.743  1.00  0.00    -0.276 C  
HETATM    5  C   UNL     1      -7.202  16.933  66.334  1.00  0.00    -0.269 C  
ENDBRANCH   3   4
BRANCH   3   6
HETATM    6  C   UNL     1      -7.887  19.840  66.863  1.00  0.00    -0.284 C  
BRANCH   6   7
HETATM    7  C   UNL     1      -9.419  19.904  66.975  1.00  0.00    -0.380 C  
BRANCH   7   8
HETATM    8  N   UNL     1      -9.991  18.699  67.550  1.00  0.00    -0.323 N  
HETATM    9  C   UNL     1     -10.529  17.712  66.748  1.00  0.00    -0.289 C  
HETATM   10  H   UNL     1      -9.996  18.581  68.563  1.00  0.00     0.000 HD 
HETATM   11  O   UNL     1     -10.582  17.801  65.529  1.00  0.00    -0.632 OA 
BRANCH   9  12
HETATM   12  C   UNL     1     -10.952  16.462  67.425  1.00  0.00    -0.145 A  
HETATM   13  C   UNL     1     -11.212  16.544  68.805  1.00  0.00    -0.277 A  
HETATM   14  C   UNL     1     -11.357  15.386  69.570  1.00  0.00    -0.301 A  
HETATM   15  C   UNL     1     -11.211  14.119  68.989  1.00  0.00    -0.271 A  
HETATM   16 CL   UNL     1     -11.610  15.554  71.273  1.00  0.00    -0.412 Cl 
HETATM   17  C   UNL     1     -11.050  14.048  67.600  1.00  0.00    -0.298 A  
HETATM   18  N   UNL     1     -11.405  12.935  69.724  1.00  0.00    -0.497 NA 
HETATM   19  H1  UNL     1     -11.298  12.013  69.302  1.00  0.00     0.000 HD 
HETATM   20  C   UNL     1     -10.902  15.201  66.811  1.00  0.00    -0.322 A  
HETATM   21  H2  UNL     1     -12.333  12.980  70.145  1.00  0.00     0.000 HD 
BRANCH  20  22
HETATM   22  O   UNL     1     -10.609  14.924  65.501  1.00  0.00    -0.309 OA 
HETATM   23  C   UNL     1     -11.656  14.346  64.728  1.00  0.00    -0.408 C  
ENDBRANCH  20  22
ENDBRANCH   9  12
ENDBRANCH   7   8
ENDBRANCH   6   7
ENDBRANCH   3   6
ENDBRANCH   2   3
TORSDOF 7
ENDMDL
MODEL       86
REMARK 921   NORMALIZED FREE ENERGY PREDICTED BY IDOCK:   -4.51 KCAL/MOL
REMARK 922        TOTAL FREE ENERGY PREDICTED BY IDOCK:   -7.07 KCAL/MOL
REMARK 923 INTER-LIGAND FREE ENERGY PREDICTED BY IDOCK:   -6.29 KCAL/MOL
REMARK 924 INTRA-LIGAND FREE ENERGY PREDICTED BY IDOCK:   -0.78 KCAL/MOL
REMARK 927      BINDING AFFINITY PREDICTED BY RF-SCORE:    0.00 PKD
ROOT
HETATM    1  C   UNL     1     -11.256  15.533  64.701  1.00  0.00    -0.381 C  
HETATM    2  C   UNL     1     -11.017  17.032  64.853  1.00  0.00     0.092 C  
ENDROOT
BRANCH   2   3
HETATM    3  N   UNL     1      -9.814  17.389  65.626  1.00  0.00    -0.543 NA 
BRANCH   3   4
HETATM    4  C   UNL     1     -10.060  18.397  66.677  1.00  0.00    -0.380 C  
HETATM    5  C   UNL     1     -10.212  19.845  66.213  1.00  0.00    -0.614 C  
ENDBRANCH   3   4
BRANCH   3   6
HETATM    6  C   UNL     1      -9.150  16.192  66.197  1.00  0.00    -0.347 C  
BRANCH   6   7
HETATM    7  C   UNL     1      -9.353  15.986  67.707  1.00  0.00    -0.211 C  
BRANCH   7   8
HETATM    8  N   UNL     1      -9.666  14.609  68.049  1.00  0.00    -0.212 N  
HETATM    9  C   UNL     1     -10.930  14.248  68.471  1.00  0.00    -0.252 C  
HETATM   10  H   UNL     1      -8.939  13.897  67.976  1.00  0.00     0.000 HD 
HETATM   11  O   UNL     1     -11.840  15.055  68.608  1.00  0.00    -0.327 OA 
BRANCH   9  12
HETATM   12  C   UNL     1     -11.182  12.798  68.653  1.00  0.00    -0.322 A  
HETATM   13  C   UNL     1     -11.860  12.414  69.824  1.00  0.00    -0.387 A  
HETATM   14  C   UNL     1     -11.910  11.073  70.207  1.00  0.00    -0.367 A  
HETATM   15  C   UNL     1     -11.256  10.087  69.456  1.00  0.00    -0.208 A  
HETATM   16 CL   UNL     1     -12.702  10.673  71.692  1.00  0.00    -0.532 Cl 
HETATM   17  C   UNL     1     -10.670  10.466  68.243  1.00  0.00    -0.275 A  
HETATM   18  N   UNL     1     -11.335   8.722  69.789  1.00  0.00    -0.444 NA 
HETATM   19  H1  UNL     1     -10.859   8.004  69.243  1.00  0.00     0.000 HD 
HETATM   20  C   UNL     1     -10.608  11.810  67.837  1.00  0.00    -0.201 A  
HETATM   21  H2  UNL     1     -12.322   8.471  69.841  1.00  0.00     0.000 HD 
BRANCH  20  22
HETATM   22  O   UNL     1      -9.869  11.997  66.699  1.00  0.00    -0.198 OA 
HETATM   23  C   UNL     1      -8.498  11.617  66.766  1.00  0.00    -0.177 C  
ENDBRANCH  20  22
ENDBRANCH   9  12
ENDBRANCH   7   8
ENDBRANCH   6   7
ENDBRANCH   3   6
ENDBRANCH   2   3
TORSDOF 7
ENDMDL
MODEL       87
REMARK 921   NORMALIZED FREE ENERGY PREDICTED BY IDOCK:   -4.51 KCAL/MOL
REMARK 922        TOTAL FREE ENERGY PREDICTED BY IDOCK:   -7.06 KCAL/MOL
REMARK 923 INTER-LIGAND FREE ENERGY PREDICTED BY IDOCK:   -6.46 KCAL/MOL
REMARK 924 INTRA-LIGAND FREE ENERGY PREDICTED BY IDOCK:   -0.61 KCAL/MOL
REMARK 927      BINDING AFFINITY PREDICTED BY RF-SCORE:    0.00 PKD
ROOT
HETATM    1  C   UNL     1      -9.256  10.360  62.598  1.00  0.00    -0.322 C  
HETATM    2  C   UNL     1     -10.072  11.265  63.516  1.00  0.00    -0.396 C  
ENDROOT
BRANCH   2   3
HETATM    3  N   UNL     1     -10.449  10.658  64.805  1.00  0.00    -0.287 NA 
BRANCH   3   4
HETATM    4  C   UNL     1      -9.624   9.491  65.176  1.00  0.00    -0.200 C  
HETATM    5  C   UNL     1     -10.009   8.765  66.464  1.00  0.00    -0.360 C  
ENDBRANCH   3   4
BRANCH   3   6
HETATM    6  C   UNL     1     -10.461  11.657  65.902  1.00  0.00    -0.255 C  
BRANCH   6   7
HETATM    7  C   UNL     1      -9.170  12.477  66.058  1.00  0.00    -0.013 C  
BRANCH   7   8
HETATM    8  N   UNL     1      -9.404  13.790  66.631  1.00  0.00    -0.318 N  
HETATM    9  C   UNL     1     -10.097  14.759  65.933  1.00  0.00    -0.321 C  
HETATM   10  H   UNL     1      -9.052  14.000  67.565  1.00  0.00     0.000 HD 
HETATM   11  O   UNL     1     -10.523  14.585  64.799  1.00  0.00    -0.423 OA 
BRANCH   9  12
HETATM   12  C   UNL     1     -10.408  16.012  66.664  1.00  0.00    -0.299 A  
HETATM   13  C   UNL     1     -10.381  17.205  65.919  1.00  0.00    -0.294 A  
HETATM   14  C   UNL     1     -10.400  18.443  66.562  1.00  0.00    -0.400 A  
HETATM   15  C   UNL     1     -10.408  18.525  67.961  1.00  0.00    -0.383 A  
HETATM   16 CL   UNL     1     -10.298  19.872  65.593  1.00  0.00    -0.507 Cl 
HETATM   17  C   UNL     1     -10.535  17.336  68.689  1.00  0.00    -0.356 A  
HETATM   18  N   UNL     1     -10.482  19.759  68.635  1.00  0.00    -0.531 NA 
HETATM   19  H1  UNL     1     -10.488  19.819  69.653  1.00  0.00     0.000 HD 
HETATM   20  C   UNL     1     -10.518  16.078  68.061  1.00  0.00    -0.275 A  
HETATM   21  H2  UNL     1     -11.304  20.253  68.288  1.00  0.00     0.000 HD 
BRANCH  20  22
HETATM   22  O   UNL     1     -10.504  15.034  68.948  1.00  0.00    -0.226 OA 
HETATM   23  C   UNL     1     -11.111  15.272  70.215  1.00  0.00    -0.293 C  
ENDBRANCH  20  22
ENDBRANCH   9  12
ENDBRANCH   7   8
ENDBRANCH   6   7
ENDBRANCH   3   6
ENDBRANCH   2   3
TORSDOF 7
ENDMDL
MODEL       88
REMARK 921   NORMALIZED FREE ENERGY PREDICTED BY IDOCK:   -4.49 KCAL/MOL
REMARK 922        TOTAL FREE ENERGY PREDICTED BY IDOCK:   -7.04 KCAL/MOL
REMARK 923 INTER-LIGAND FREE ENERGY PREDICTED BY IDOCK:   -6.22 KCAL/MOL
REMARK 924 INTRA-LIGAND FREE ENERGY PREDICTED BY IDOCK:   -0.82 KCAL/MOL
REMARK 927      BINDING AFFINITY PREDICTED BY RF-SCORE:    0.00 PKD
ROOT
HETATM    1  C   UNL     1     -10.520  15.936  65.530  1.00  0.00    -0.425 C  
HETATM    2  C   UNL     1     -10.173  14.467  65.748  1.00  0.00    -0.335 C  
ENDROOT
BRANCH   2   3
HETATM    3  N   UNL     1     -10.712  13.883  66.989  1.00  0.00    -0.282 NA 
BRANCH   3   4
HETATM    4  C   UNL     1     -11.490  14.837  67.805  1.00  0.00    -0.345 C  
HETATM    5  C   UNL     1     -11.678  14.480  69.279  1.00  0.00    -0.350 C  
ENDBRANCH   3   4
BRANCH   3   6
HETATM    6  C   UNL     1     -11.504  12.658  66.723  1.00  0.00    -0.351 C  
BRANCH   6   7
HETATM    7  C   UNL     1     -10.699  11.348  66.698  1.00  0.00    -0.269 C  
BRANCH   7   8
HETATM    8  N   UNL     1     -10.891  10.548  67.895  1.00  0.00    -0.260 N  
HETATM    9  C   UNL     1      -9.956  10.549  68.910  1.00  0.00    -0.204 C  
HETATM   10  H   UNL     1     -11.731   9.976  67.986  1.00  0.00     0.000 HD 
HETATM   11  O   UNL     1      -8.914  11.189  68.854  1.00  0.00    -0.156 OA 
BRANCH   9  12
HETATM   12  C   UNL     1     -10.317   9.816  70.148  1.00  0.00    -0.335 A  
HETATM   13  C   UNL     1      -9.528   8.698  70.476  1.00  0.00    -0.206 A  
HETATM   14  C   UNL     1      -9.943   7.802  71.461  1.00  0.00    -0.171 A  
HETATM   15  C   UNL     1     -11.169   7.973  72.117  1.00  0.00    -0.319 A  
HETATM   16 CL   UNL     1      -8.960   6.412  71.773  1.00  0.00    -0.140 Cl 
HETATM   17  C   UNL     1     -11.899   9.138  71.854  1.00  0.00    -0.439 A  
HETATM   18  N   UNL     1     -11.588   7.115  73.151  1.00  0.00    -0.527 NA 
HETATM   19  H1  UNL     1     -12.480   7.239  73.628  1.00  0.00     0.000 HD 
HETATM   20  C   UNL     1     -11.498  10.055  70.866  1.00  0.00    -0.371 A  
HETATM   21  H2  UNL     1     -10.854   7.102  73.860  1.00  0.00     0.000 HD 
BRANCH  20  22
HETATM   22  O   UNL     1     -12.415  11.052  70.653  1.00  0.00    -0.336 OA 
HETATM   23  C   UNL     1     -13.073  11.562  71.808  1.00  0.00    -0.398 C  
ENDBRANCH  20  22
ENDBRANCH   9  12
ENDBRANCH   7   8
ENDBRANCH   6   7
ENDBRANCH   3   6
ENDBRANCH   2   3
TORSDOF 7
ENDMDL
MODEL       89
REMARK 921   NORMALIZED FREE ENERGY PREDICTED BY IDOCK:   -4.48 KCAL/MOL
REMARK 922        TOTAL FREE ENERGY PREDICTED BY IDOCK:   -7.03 KCAL/MOL
REMARK 923 INTER-LIGAND FREE ENERGY PREDICTED BY IDOCK:   -6.53 KCAL/MOL
REMARK 924 INTRA-LIGAND FREE ENERGY PREDICTED BY IDOCK:   -0.50 KCAL/MOL
REMARK 927      BINDING AFFINITY PREDICTED BY RF-SCORE:    0.00 PKD
ROOT
HETATM    1  C   UNL     1     -10.598  13.129  64.336  1.00  0.00    -0.441 C  
HETATM    2  C   UNL     1     -11.201  11.790  64.749  1.00  0.00    -0.271 C  
ENDROOT
BRANCH   2   3
HETATM    3  N   UNL     1     -10.532  11.139  65.890  1.00  0.00    -0.257 NA 
BRANCH   3   4
HETATM    4  C   UNL     1      -9.872   9.864  65.543  1.00  0.00    -0.311 C  
HETATM    5  C   UNL     1      -9.971   8.741  66.574  1.00  0.00    -0.360 C  
ENDBRANCH   3   4
BRANCH   3   6
HETATM    6  C   UNL     1      -9.579  12.053  66.565  1.00  0.00    -0.224 C  
BRANCH   6   7
HETATM    7  C   UNL     1     -10.124  12.766  67.813  1.00  0.00    -0.224 C  
BRANCH   7   8
HETATM    8  N   UNL     1     -10.252  11.878  68.955  1.00  0.00    -0.417 N  
HETATM    9  C   UNL     1     -11.403  11.145  69.163  1.00  0.00    -0.273 C  
HETATM   10  H   UNL     1      -9.479  11.795  69.615  1.00  0.00     0.000 HD 
HETATM   11  O   UNL     1     -12.380  11.217  68.428  1.00  0.00    -0.556 OA 
BRANCH   9  12
HETATM   12  C   UNL     1     -11.375  10.161  70.273  1.00  0.00    -0.387 A  
HETATM   13  C   UNL     1     -10.405   9.146  70.197  1.00  0.00    -0.244 A  
HETATM   14  C   UNL     1     -10.469   8.039  71.043  1.00  0.00    -0.203 A  
HETATM   15  C   UNL     1     -11.520   7.896  71.960  1.00  0.00    -0.300 A  
HETATM   16 CL   UNL     1      -9.283   6.793  70.856  1.00  0.00    -0.157 Cl 
HETATM   17  C   UNL     1     -12.423   8.957  72.095  1.00  0.00    -0.459 A  
HETATM   18  N   UNL     1     -11.580   6.817  72.862  1.00  0.00    -0.494 NA 
HETATM   19  H1  UNL     1     -12.345   6.713  73.529  1.00  0.00     0.000 HD 
HETATM   20  C   UNL     1     -12.376  10.081  71.253  1.00  0.00    -0.398 A  
HETATM   21  H2  UNL     1     -10.705   6.801  73.386  1.00  0.00     0.000 HD 
BRANCH  20  22
HETATM   22  O   UNL     1     -13.428  10.939  71.441  1.00  0.00    -0.192 OA 
HETATM   23  C   UNL     1     -13.113  12.214  71.992  1.00  0.00    -0.357 C  
ENDBRANCH  20  22
ENDBRANCH   9  12
ENDBRANCH   7   8
ENDBRANCH   6   7
ENDBRANCH   3   6
ENDBRANCH   2   3
TORSDOF 7
ENDMDL
MODEL       90
REMARK 921   NORMALIZED FREE ENERGY PREDICTED BY IDOCK:   -4.48 KCAL/MOL
REMARK 922        TOTAL FREE ENERGY PREDICTED BY IDOCK:   -7.02 KCAL/MOL
REMARK 923 INTER-LIGAND FREE ENERGY PREDICTED BY IDOCK:   -6.10 KCAL/MOL
REMARK 924 INTRA-LIGAND FREE ENERGY PREDICTED BY IDOCK:   -0.93 KCAL/MOL
REMARK 927      BINDING AFFINITY PREDICTED BY RF-SCORE:    0.00 PKD
ROOT
HETATM    1  C   UNL     1     -11.231  12.287  63.711  1.00  0.00    -0.510 C  
HETATM    2  C   UNL     1     -10.293  11.397  64.521  1.00  0.00    -0.313 C  
ENDROOT
BRANCH   2   3
HETATM    3  N   UNL     1     -10.046  11.854  65.900  1.00  0.00    -0.227 NA 
BRANCH   3   4
HETATM    4  C   UNL     1     -11.053  11.383  66.872  1.00  0.00    -0.295 C  
HETATM    5  C   UNL     1     -11.660  12.440  67.793  1.00  0.00    -0.413 C  
ENDBRANCH   3   4
BRANCH   3   6
HETATM    6  C   UNL     1      -8.678  11.510  66.358  1.00  0.00    -0.179 C  
BRANCH   6   7
HETATM    7  C   UNL     1      -7.899  12.658  67.020  1.00  0.00    -0.038 C  
BRANCH   7   8
HETATM    8  N   UNL     1      -8.498  13.958  66.775  1.00  0.00    -0.439 N  
HETATM    9  C   UNL     1      -7.839  15.123  67.115  1.00  0.00    -0.205 C  
HETATM   10  H   UNL     1      -9.421  14.012  66.344  1.00  0.00     0.000 HD 
HETATM   11  O   UNL     1      -6.743  15.132  67.660  1.00  0.00    -0.153 OA 
BRANCH   9  12
HETATM   12  C   UNL     1      -8.473  16.394  66.689  1.00  0.00    -0.306 A  
HETATM   13  C   UNL     1      -7.617  17.394  66.191  1.00  0.00    -0.321 A  
HETATM   14  C   UNL     1      -8.079  18.699  66.015  1.00  0.00    -0.093 A  
HETATM   15  C   UNL     1      -9.390  19.051  66.365  1.00  0.00    -0.336 A  
HETATM   16 CL   UNL     1      -6.960  19.897  65.462  1.00  0.00    -0.324 Cl 
HETATM   17  C   UNL     1     -10.259  18.030  66.765  1.00  0.00    -0.367 A  
HETATM   18  N   UNL     1      -9.897  20.345  66.148  1.00  0.00    -0.638 NA 
HETATM   19  H1  UNL     1     -10.851  20.601  66.403  1.00  0.00     0.000 HD 
HETATM   20  C   UNL     1      -9.816  16.708  66.948  1.00  0.00    -0.263 A  
HETATM   21  H2  UNL     1      -9.767  20.569  65.162  1.00  0.00     0.000 HD 
BRANCH  20  22
HETATM   22  O   UNL     1     -10.774  15.888  67.483  1.00  0.00    -0.310 OA 
HETATM   23  C   UNL     1     -11.211  16.201  68.802  1.00  0.00    -0.365 C  
ENDBRANCH  20  22
ENDBRANCH   9  12
ENDBRANCH   7   8
ENDBRANCH   6   7
ENDBRANCH   3   6
ENDBRANCH   2   3
TORSDOF 7
ENDMDL
MODEL       91
REMARK 921   NORMALIZED FREE ENERGY PREDICTED BY IDOCK:   -4.47 KCAL/MOL
REMARK 922        TOTAL FREE ENERGY PREDICTED BY IDOCK:   -7.02 KCAL/MOL
REMARK 923 INTER-LIGAND FREE ENERGY PREDICTED BY IDOCK:   -6.30 KCAL/MOL
REMARK 924 INTRA-LIGAND FREE ENERGY PREDICTED BY IDOCK:   -0.72 KCAL/MOL
REMARK 927      BINDING AFFINITY PREDICTED BY RF-SCORE:    0.00 PKD
ROOT
HETATM    1  C   UNL     1      -7.059  12.270  67.998  1.00  0.00    -0.099 C  
HETATM    2  C   UNL     1      -7.671  11.677  66.733  1.00  0.00    -0.116 C  
ENDROOT
BRANCH   2   3
HETATM    3  N   UNL     1      -9.124  11.436  66.805  1.00  0.00    -0.171 NA 
BRANCH   3   4
HETATM    4  C   UNL     1      -9.941  12.615  66.454  1.00  0.00    -0.255 C  
HETATM    5  C   UNL     1     -11.442  12.382  66.291  1.00  0.00    -0.423 C  
ENDBRANCH   3   4
BRANCH   3   6
HETATM    6  C   UNL     1      -9.528  10.262  65.993  1.00  0.00    -0.185 C  
BRANCH   6   7
HETATM    7  C   UNL     1      -9.439   8.905  66.712  1.00  0.00    -0.187 C  
BRANCH   7   8
HETATM    8  N   UNL     1     -10.463   8.741  67.729  1.00  0.00    -0.316 N  
HETATM    9  C   UNL     1     -10.172   8.915  69.067  1.00  0.00    -0.206 C  
HETATM   10  H   UNL     1     -11.412   8.492  67.450  1.00  0.00     0.000 HD 
HETATM   11  O   UNL     1      -9.050   9.186  69.474  1.00  0.00    -0.144 OA 
BRANCH   9  12
HETATM   12  C   UNL     1     -11.318   8.869  70.008  1.00  0.00    -0.050 A  
HETATM   13  C   UNL     1     -11.824  10.103  70.453  1.00  0.00    -0.373 A  
HETATM   14  C   UNL     1     -12.714  10.159  71.526  1.00  0.00    -0.436 A  
HETATM   15  C   UNL     1     -13.093   8.994  72.207  1.00  0.00    -0.445 A  
HETATM   16 CL   UNL     1     -13.250  11.713  72.067  1.00  0.00    -0.562 Cl 
HETATM   17  C   UNL     1     -12.661   7.765  71.696  1.00  0.00    -0.358 A  
HETATM   18  N   UNL     1     -14.029   9.016  73.257  1.00  0.00    -1.199 NA 
HETATM   19  H1  UNL     1     -14.304   8.168  73.753  1.00  0.00     0.000 HD 
HETATM   20  C   UNL     1     -11.765   7.685  70.616  1.00  0.00    -0.193 A  
HETATM   21  H2  UNL     1     -14.877   9.462  72.909  1.00  0.00     0.000 HD 
BRANCH  20  22
HETATM   22  O   UNL     1     -11.346   6.406  70.356  1.00  0.00    -0.336 OA 
HETATM   23  C   UNL     1     -10.735   5.710  71.437  1.00  0.00    -0.244 C  
ENDBRANCH  20  22
ENDBRANCH   9  12
ENDBRANCH   7   8
ENDBRANCH   6   7
ENDBRANCH   3   6
ENDBRANCH   2   3
TORSDOF 7
ENDMDL
MODEL       92
REMARK 921   NORMALIZED FREE ENERGY PREDICTED BY IDOCK:   -4.45 KCAL/MOL
REMARK 922        TOTAL FREE ENERGY PREDICTED BY IDOCK:   -6.98 KCAL/MOL
REMARK 923 INTER-LIGAND FREE ENERGY PREDICTED BY IDOCK:   -6.10 KCAL/MOL
REMARK 924 INTRA-LIGAND FREE ENERGY PREDICTED BY IDOCK:   -0.88 KCAL/MOL
REMARK 927      BINDING AFFINITY PREDICTED BY RF-SCORE:    0.00 PKD
ROOT
HETATM    1  C   UNL     1     -10.212   9.336  66.221  1.00  0.00    -0.273 C  
HETATM    2  C   UNL     1      -9.082  10.345  66.034  1.00  0.00    -0.162 C  
ENDROOT
BRANCH   2   3
HETATM    3  N   UNL     1      -8.900  10.816  64.649  1.00  0.00    -0.175 NA 
BRANCH   3   4
HETATM    4  C   UNL     1      -7.911  10.034  63.880  1.00  0.00    -0.151 C  
HETATM    5  C   UNL     1      -8.466   9.101  62.804  1.00  0.00    -0.211 C  
ENDBRANCH   3   4
BRANCH   3   6
HETATM    6  C   UNL     1     -10.189  10.890  63.918  1.00  0.00    -0.354 C  
BRANCH   6   7
HETATM    7  C   UNL     1     -10.634  12.305  63.514  1.00  0.00    -0.448 C  
BRANCH   7   8
HETATM    8  N   UNL     1     -10.126  13.330  64.409  1.00  0.00    -0.627 N  
HETATM    9  C   UNL     1     -10.895  14.426  64.747  1.00  0.00    -0.399 C  
HETATM   10  H   UNL     1      -9.186  13.239  64.795  1.00  0.00     0.000 HD 
HETATM   11  O   UNL     1     -12.019  14.614  64.300  1.00  0.00    -0.444 OA 
BRANCH   9  12
HETATM   12  C   UNL     1     -10.340  15.336  65.779  1.00  0.00    -0.364 A  
HETATM   13  C   UNL     1     -10.637  16.704  65.646  1.00  0.00    -0.282 A  
HETATM   14  C   UNL     1      -9.954  17.655  66.404  1.00  0.00    -0.334 A  
HETATM   15  C   UNL     1      -8.934  17.273  67.285  1.00  0.00    -0.227 A  
HETATM   16 CL   UNL     1     -10.320  19.327  66.146  1.00  0.00    -0.542 Cl 
HETATM   17  C   UNL     1      -8.714  15.905  67.483  1.00  0.00    -0.189 A  
HETATM   18  N   UNL     1      -8.266  18.206  68.101  1.00  0.00    -0.268 NA 
HETATM   19  H1  UNL     1      -7.523  17.928  68.742  1.00  0.00     0.000 HD 
HETATM   20  C   UNL     1      -9.391  14.930  66.730  1.00  0.00    -0.250 A  
HETATM   21  H2  UNL     1      -8.971  18.708  68.640  1.00  0.00     0.000 HD 
BRANCH  20  22
HETATM   22  O   UNL     1      -8.935  13.659  66.961  1.00  0.00    -0.227 OA 
HETATM   23  C   UNL     1      -7.622  13.546  67.501  1.00  0.00    -0.167 C  
ENDBRANCH  20  22
ENDBRANCH   9  12
ENDBRANCH   7   8
ENDBRANCH   6   7
ENDBRANCH   3   6
ENDBRANCH   2   3
TORSDOF 7
ENDMDL
MODEL       93
REMARK 921   NORMALIZED FREE ENERGY PREDICTED BY IDOCK:   -4.43 KCAL/MOL
REMARK 922        TOTAL FREE ENERGY PREDICTED BY IDOCK:   -6.96 KCAL/MOL
REMARK 923 INTER-LIGAND FREE ENERGY PREDICTED BY IDOCK:   -6.09 KCAL/MOL
REMARK 924 INTRA-LIGAND FREE ENERGY PREDICTED BY IDOCK:   -0.87 KCAL/MOL
REMARK 927      BINDING AFFINITY PREDICTED BY RF-SCORE:    0.00 PKD
ROOT
HETATM    1  C   UNL     1     -12.085  13.684  69.213  1.00  0.00    -0.360 C  
HETATM    2  C   UNL     1     -12.190  13.803  67.696  1.00  0.00    -0.194 C  
ENDROOT
BRANCH   2   3
HETATM    3  N   UNL     1     -11.807  12.587  66.955  1.00  0.00    -0.515 NA 
BRANCH   3   4
HETATM    4  C   UNL     1     -12.208  12.607  65.533  1.00  0.00    -0.440 C  
HETATM    5  C   UNL     1     -12.904  13.874  65.038  1.00  0.00    -0.309 C  
ENDBRANCH   3   4
BRANCH   3   6
HETATM    6  C   UNL     1     -10.358  12.296  67.084  1.00  0.00    -0.218 C  
BRANCH   6   7
HETATM    7  C   UNL     1      -9.463  12.930  66.007  1.00  0.00    -0.103 C  
BRANCH   7   8
HETATM    8  N   UNL     1      -8.915  14.212  66.415  1.00  0.00    -0.482 N  
HETATM    9  C   UNL     1      -9.364  15.390  65.851  1.00  0.00    -0.294 C  
HETATM   10  H   UNL     1      -8.188  14.243  67.129  1.00  0.00     0.000 HD 
HETATM   11  O   UNL     1     -10.213  15.425  64.970  1.00  0.00    -0.357 OA 
BRANCH   9  12
HETATM   12  C   UNL     1      -8.846  16.649  66.441  1.00  0.00    -0.337 A  
HETATM   13  C   UNL     1      -9.737  17.736  66.498  1.00  0.00    -0.324 A  
HETATM   14  C   UNL     1      -9.273  19.019  66.787  1.00  0.00    -0.319 A  
HETATM   15  C   UNL     1      -7.907  19.259  66.991  1.00  0.00    -0.247 A  
HETATM   16 CL   UNL     1     -10.408  20.324  66.778  1.00  0.00    -0.500 Cl 
HETATM   17  C   UNL     1      -7.044  18.158  67.029  1.00  0.00    -0.217 A  
HETATM   18  N   UNL     1      -7.418  20.533  67.337  1.00  0.00    -0.321 NA 
HETATM   19  H1  UNL     1      -6.424  20.708  67.484  1.00  0.00     0.000 HD 
HETATM   20  C   UNL     1      -7.491  16.857  66.741  1.00  0.00    -0.241 A  
HETATM   21  H2  UNL     1      -7.916  20.841  68.172  1.00  0.00     0.000 HD 
BRANCH  20  22
HETATM   22  O   UNL     1      -6.476  15.938  66.684  1.00  0.00    -0.171 OA 
HETATM   23  C   UNL     1      -5.851  15.610  67.921  1.00  0.00    -0.139 C  
ENDBRANCH  20  22
ENDBRANCH   9  12
ENDBRANCH   7   8
ENDBRANCH   6   7
ENDBRANCH   3   6
ENDBRANCH   2   3
TORSDOF 7
ENDMDL
MODEL       94
REMARK 921   NORMALIZED FREE ENERGY PREDICTED BY IDOCK:   -4.43 KCAL/MOL
REMARK 922        TOTAL FREE ENERGY PREDICTED BY IDOCK:   -6.96 KCAL/MOL
REMARK 923 INTER-LIGAND FREE ENERGY PREDICTED BY IDOCK:   -6.29 KCAL/MOL
REMARK 924 INTRA-LIGAND FREE ENERGY PREDICTED BY IDOCK:   -0.67 KCAL/MOL
REMARK 927      BINDING AFFINITY PREDICTED BY RF-SCORE:    0.00 PKD
ROOT
HETATM    1  C   UNL     1     -12.503  13.353  65.263  1.00  0.00    -0.532 C  
HETATM    2  C   UNL     1     -11.732  14.187  66.281  1.00  0.00    -0.390 C  
ENDROOT
BRANCH   2   3
HETATM    3  N   UNL     1     -10.273  14.219  66.074  1.00  0.00    -0.303 NA 
BRANCH   3   4
HETATM    4  C   UNL     1      -9.732  15.577  65.861  1.00  0.00    -0.357 C  
HETATM    5  C   UNL     1     -10.663  16.584  65.189  1.00  0.00    -0.261 C  
ENDBRANCH   3   4
BRANCH   3   6
HETATM    6  C   UNL     1      -9.545  13.534  67.170  1.00  0.00    -0.241 C  
BRANCH   6   7
HETATM    7  C   UNL     1     -10.360  13.301  68.453  1.00  0.00    -0.251 C  
BRANCH   7   8
HETATM    8  N   UNL     1     -10.242  11.942  68.954  1.00  0.00    -0.391 N  
HETATM    9  C   UNL     1     -11.186  10.984  68.644  1.00  0.00    -0.263 C  
HETATM   10  H   UNL     1      -9.448  11.692  69.544  1.00  0.00     0.000 HD 
HETATM   11  O   UNL     1     -12.177  11.222  67.966  1.00  0.00    -0.621 OA 
BRANCH   9  12
HETATM   12  C   UNL     1     -10.896   9.597  69.082  1.00  0.00    -0.212 A  
HETATM   13  C   UNL     1     -10.612   8.659  68.073  1.00  0.00    -0.205 A  
HETATM   14  C   UNL     1     -10.586   7.295  68.361  1.00  0.00    -0.170 A  
HETATM   15  C   UNL     1     -10.879   6.826  69.649  1.00  0.00    -0.271 A  
HETATM   16 CL   UNL     1     -10.296   6.188  67.063  1.00  0.00    -0.256 Cl 
HETATM   17  C   UNL     1     -11.063   7.771  70.665  1.00  0.00    -0.264 A  
HETATM   18  N   UNL     1     -10.808   5.460  69.979  1.00  0.00    -0.238 NA 
HETATM   19  H1  UNL     1     -11.021   5.119  70.916  1.00  0.00     0.000 HD 
HETATM   20  C   UNL     1     -11.092   9.150  70.398  1.00  0.00    -0.253 A  
HETATM   21  H2  UNL     1      -9.876   5.129  69.731  1.00  0.00     0.000 HD 
BRANCH  20  22
HETATM   22  O   UNL     1     -11.429   9.904  71.492  1.00  0.00    -0.365 OA 
HETATM   23  C   UNL     1     -12.822  10.086  71.729  1.00  0.00    -0.446 C  
ENDBRANCH  20  22
ENDBRANCH   9  12
ENDBRANCH   7   8
ENDBRANCH   6   7
ENDBRANCH   3   6
ENDBRANCH   2   3
TORSDOF 7
ENDMDL
MODEL       95
REMARK 921   NORMALIZED FREE ENERGY PREDICTED BY IDOCK:   -4.42 KCAL/MOL
REMARK 922        TOTAL FREE ENERGY PREDICTED BY IDOCK:   -6.94 KCAL/MOL
REMARK 923 INTER-LIGAND FREE ENERGY PREDICTED BY IDOCK:   -6.28 KCAL/MOL
REMARK 924 INTRA-LIGAND FREE ENERGY PREDICTED BY IDOCK:   -0.66 KCAL/MOL
REMARK 927      BINDING AFFINITY PREDICTED BY RF-SCORE:    0.00 PKD
ROOT
HETATM    1  C   UNL     1      -7.877  15.631  69.325  1.00  0.00    -0.230 C  
HETATM    2  C   UNL     1      -8.471  16.571  68.280  1.00  0.00    -0.199 C  
ENDROOT
BRANCH   2   3
HETATM    3  N   UNL     1      -9.839  16.228  67.849  1.00  0.00    -0.234 NA 
BRANCH   3   4
HETATM    4  C   UNL     1     -10.893  16.757  68.738  1.00  0.00    -0.318 C  
HETATM    5  C   UNL     1     -11.659  15.732  69.573  1.00  0.00    -0.368 C  
ENDBRANCH   3   4
BRANCH   3   6
HETATM    6  C   UNL     1     -10.091  16.630  66.444  1.00  0.00    -0.315 C  
BRANCH   6   7
HETATM    7  C   UNL     1     -10.694  15.538  65.545  1.00  0.00    -0.381 C  
BRANCH   7   8
HETATM    8  N   UNL     1     -10.330  14.197  65.971  1.00  0.00    -0.299 N  
HETATM    9  C   UNL     1     -11.251  13.169  65.951  1.00  0.00    -0.289 C  
HETATM   10  H   UNL     1      -9.379  14.013  66.289  1.00  0.00     0.000 HD 
HETATM   11  O   UNL     1     -12.416  13.325  65.608  1.00  0.00    -0.457 OA 
BRANCH   9  12
HETATM   12  C   UNL     1     -10.740  11.812  66.264  1.00  0.00    -0.312 A  
HETATM   13  C   UNL     1      -9.906  11.211  65.304  1.00  0.00    -0.296 A  
HETATM   14  C   UNL     1      -9.595   9.854  65.387  1.00  0.00    -0.285 A  
HETATM   15  C   UNL     1     -10.134   9.053  66.403  1.00  0.00    -0.281 A  
HETATM   16 CL   UNL     1      -8.618   9.159  64.139  1.00  0.00    -0.204 Cl 
HETATM   17  C   UNL     1     -10.881   9.680  67.407  1.00  0.00    -0.242 A  
HETATM   18  N   UNL     1      -9.795   7.694  66.540  1.00  0.00    -0.384 NA 
HETATM   19  H1  UNL     1     -10.188   7.112  67.280  1.00  0.00     0.000 HD 
HETATM   20  C   UNL     1     -11.207  11.047  67.344  1.00  0.00    -0.285 A  
HETATM   21  H2  UNL     1      -8.779   7.633  66.602  1.00  0.00     0.000 HD 
BRANCH  20  22
HETATM   22  O   UNL     1     -12.064  11.442  68.336  1.00  0.00    -0.575 OA 
HETATM   23  C   UNL     1     -11.641  11.194  69.674  1.00  0.00    -0.326 C  
ENDBRANCH  20  22
ENDBRANCH   9  12
ENDBRANCH   7   8
ENDBRANCH   6   7
ENDBRANCH   3   6
ENDBRANCH   2   3
TORSDOF 7
ENDMDL
MODEL       96
REMARK 921   NORMALIZED FREE ENERGY PREDICTED BY IDOCK:   -4.40 KCAL/MOL
REMARK 922        TOTAL FREE ENERGY PREDICTED BY IDOCK:   -6.92 KCAL/MOL
REMARK 923 INTER-LIGAND FREE ENERGY PREDICTED BY IDOCK:   -6.35 KCAL/MOL
REMARK 924 INTRA-LIGAND FREE ENERGY PREDICTED BY IDOCK:   -0.57 KCAL/MOL
REMARK 927      BINDING AFFINITY PREDICTED BY RF-SCORE:    0.00 PKD
ROOT
HETATM    1  C   UNL     1      -9.834   8.630  72.583  1.00  0.00    -0.184 C  
HETATM    2  C   UNL     1     -10.441   7.256  72.319  1.00  0.00    -0.214 C  
ENDROOT
BRANCH   2   3
HETATM    3  N   UNL     1     -11.292   7.179  71.117  1.00  0.00    -0.265 NA 
BRANCH   3   4
HETATM    4  C   UNL     1     -12.727   6.996  71.416  1.00  0.00    -0.374 C  
HETATM    5  C   UNL     1     -13.604   8.246  71.346  1.00  0.00    -0.266 C  
ENDBRANCH   3   4
BRANCH   3   6
HETATM    6  C   UNL     1     -11.091   8.346  70.224  1.00  0.00    -0.213 C  
BRANCH   6   7
HETATM    7  C   UNL     1     -10.192   8.090  69.003  1.00  0.00    -0.210 C  
BRANCH   7   8
HETATM    8  N   UNL     1     -10.537   8.927  67.867  1.00  0.00    -0.387 N  
HETATM    9  C   UNL     1     -10.213  10.269  67.846  1.00  0.00    -0.183 C  
HETATM   10  H   UNL     1     -11.026   8.516  67.071  1.00  0.00     0.000 HD 
HETATM   11  O   UNL     1      -9.652  10.833  68.776  1.00  0.00    -0.175 OA 
BRANCH   9  12
HETATM   12  C   UNL     1     -10.479  10.997  66.581  1.00  0.00    -0.307 A  
HETATM   13  C   UNL     1     -11.291  12.143  66.667  1.00  0.00    -0.405 A  
HETATM   14  C   UNL     1     -11.806  12.735  65.514  1.00  0.00    -0.422 A  
HETATM   15  C   UNL     1     -11.557  12.182  64.250  1.00  0.00    -0.370 A  
HETATM   16 CL   UNL     1     -12.852  14.102  65.690  1.00  0.00    -0.501 Cl 
HETATM   17  C   UNL     1     -10.670  11.103  64.168  1.00  0.00    -0.415 A  
HETATM   18  N   UNL     1     -12.020  12.788  63.068  1.00  0.00    -0.746 NA 
HETATM   19  H1  UNL     1     -11.839  12.386  62.148  1.00  0.00     0.000 HD 
HETATM   20  C   UNL     1     -10.139  10.491  65.317  1.00  0.00    -0.300 A  
HETATM   21  H2  UNL     1     -11.681  13.750  63.059  1.00  0.00     0.000 HD 
BRANCH  20  22
HETATM   22  O   UNL     1      -9.411   9.364  65.040  1.00  0.00    -0.247 OA 
HETATM   23  C   UNL     1      -8.382   9.500  64.065  1.00  0.00    -0.170 C  
ENDBRANCH  20  22
ENDBRANCH   9  12
ENDBRANCH   7   8
ENDBRANCH   6   7
ENDBRANCH   3   6
ENDBRANCH   2   3
TORSDOF 7
ENDMDL
MODEL       97
REMARK 921   NORMALIZED FREE ENERGY PREDICTED BY IDOCK:   -4.40 KCAL/MOL
REMARK 922        TOTAL FREE ENERGY PREDICTED BY IDOCK:   -6.92 KCAL/MOL
REMARK 923 INTER-LIGAND FREE ENERGY PREDICTED BY IDOCK:   -6.50 KCAL/MOL
REMARK 924 INTRA-LIGAND FREE ENERGY PREDICTED BY IDOCK:   -0.42 KCAL/MOL
REMARK 927      BINDING AFFINITY PREDICTED BY RF-SCORE:    0.00 PKD
ROOT
HETATM    1  C   UNL     1     -10.838   5.211  72.925  1.00  0.00    -0.324 C  
HETATM    2  C   UNL     1     -10.560   5.291  71.428  1.00  0.00    -0.177 C  
ENDROOT
BRANCH   2   3
HETATM    3  N   UNL     1      -9.989   6.572  70.974  1.00  0.00    -0.183 NA 
BRANCH   3   4
HETATM    4  C   UNL     1      -9.218   6.468  69.719  1.00  0.00    -0.145 C  
HETATM    5  C   UNL     1     -10.013   6.148  68.454  1.00  0.00    -0.162 C  
ENDBRANCH   3   4
BRANCH   3   6
HETATM    6  C   UNL     1     -11.024   7.629  70.864  1.00  0.00    -0.250 C  
BRANCH   6   7
HETATM    7  C   UNL     1     -10.792   8.870  71.742  1.00  0.00    -0.365 C  
BRANCH   7   8
HETATM    8  N   UNL     1     -11.058  10.112  71.038  1.00  0.00    -0.321 N  
HETATM    9  C   UNL     1     -12.286  10.735  71.131  1.00  0.00    -0.393 C  
HETATM   10  H   UNL     1     -10.325  10.531  70.466  1.00  0.00     0.000 HD 
HETATM   11  O   UNL     1     -13.219  10.274  71.776  1.00  0.00    -0.413 OA 
BRANCH   9  12
HETATM   12  C   UNL     1     -12.406  12.070  70.495  1.00  0.00    -0.369 A  
HETATM   13  C   UNL     1     -11.965  12.180  69.163  1.00  0.00    -0.311 A  
HETATM   14  C   UNL     1     -11.793  13.433  68.575  1.00  0.00    -0.366 A  
HETATM   15  C   UNL     1     -12.020  14.607  69.306  1.00  0.00    -0.302 A  
HETATM   16 CL   UNL     1     -11.185  13.503  66.956  1.00  0.00    -0.317 Cl 
HETATM   17  C   UNL     1     -12.552  14.486  70.595  1.00  0.00    -0.416 A  
HETATM   18  N   UNL     1     -11.907  15.882  68.721  1.00  0.00    -0.467 NA 
HETATM   19  H1  UNL     1     -12.072  16.736  69.253  1.00  0.00     0.000 HD 
HETATM   20  C   UNL     1     -12.733  13.234  71.207  1.00  0.00    -0.323 A  
HETATM   21  H2  UNL     1     -12.514  15.903  67.902  1.00  0.00     0.000 HD 
BRANCH  20  22
HETATM   22  O   UNL     1     -13.123  13.326  72.517  1.00  0.00    -0.411 OA 
HETATM   23  C   UNL     1     -13.255  14.642  73.046  1.00  0.00    -0.485 C  
ENDBRANCH  20  22
ENDBRANCH   9  12
ENDBRANCH   7   8
ENDBRANCH   6   7
ENDBRANCH   3   6
ENDBRANCH   2   3
TORSDOF 7
ENDMDL
MODEL       98
REMARK 921   NORMALIZED FREE ENERGY PREDICTED BY IDOCK:   -4.39 KCAL/MOL
REMARK 922        TOTAL FREE ENERGY PREDICTED BY IDOCK:   -6.90 KCAL/MOL
REMARK 923 INTER-LIGAND FREE ENERGY PREDICTED BY IDOCK:   -5.90 KCAL/MOL
REMARK 924 INTRA-LIGAND FREE ENERGY PREDICTED BY IDOCK:   -1.00 KCAL/MOL
REMARK 927      BINDING AFFINITY PREDICTED BY RF-SCORE:    0.00 PKD
ROOT
HETATM    1  C   UNL     1     -10.384  19.593  68.256  1.00  0.00    -0.539 C  
HETATM    2  C   UNL     1      -9.426  18.592  67.618  1.00  0.00    -0.279 C  
ENDROOT
BRANCH   2   3
HETATM    3  N   UNL     1      -9.860  17.185  67.699  1.00  0.00    -0.263 NA 
BRANCH   3   4
HETATM    4  C   UNL     1     -10.580  16.856  68.946  1.00  0.00    -0.353 C  
HETATM    5  C   UNL     1     -11.555  15.682  68.881  1.00  0.00    -0.392 C  
ENDBRANCH   3   4
BRANCH   3   6
HETATM    6  C   UNL     1     -10.659  16.786  66.515  1.00  0.00    -0.198 C  
BRANCH   6   7
HETATM    7  C   UNL     1      -9.926  15.895  65.498  1.00  0.00    -0.278 C  
BRANCH   7   8
HETATM    8  N   UNL     1     -10.277  14.491  65.627  1.00  0.00    -0.336 N  
HETATM    9  C   UNL     1      -9.588  13.661  66.488  1.00  0.00    -0.286 C  
HETATM   10  H   UNL     1     -11.045  14.113  65.073  1.00  0.00     0.000 HD 
HETATM   11  O   UNL     1      -8.639  14.040  67.162  1.00  0.00    -0.205 OA 
BRANCH   9  12
HETATM   12  C   UNL     1     -10.118  12.285  66.653  1.00  0.00    -0.231 A  
HETATM   13  C   UNL     1     -10.390  11.864  67.968  1.00  0.00    -0.209 A  
HETATM   14  C   UNL     1     -10.638  10.519  68.244  1.00  0.00    -0.206 A  
HETATM   15  C   UNL     1     -10.584   9.555  67.227  1.00  0.00    -0.248 A  
HETATM   16 CL   UNL     1     -10.900  10.054  69.889  1.00  0.00    -0.298 Cl 
HETATM   17  C   UNL     1     -10.411   9.998  65.911  1.00  0.00    -0.202 A  
HETATM   18  N   UNL     1     -10.882   8.201  67.468  1.00  0.00    -0.510 NA 
HETATM   19  H1  UNL     1     -10.843   7.500  66.728  1.00  0.00     0.000 HD 
HETATM   20  C   UNL     1     -10.160  11.348  65.610  1.00  0.00    -0.248 A  
HETATM   21  H2  UNL     1     -11.809   8.157  67.890  1.00  0.00     0.000 HD 
BRANCH  20  22
HETATM   22  O   UNL     1      -9.872  11.561  64.288  1.00  0.00    -0.240 OA 
HETATM   23  C   UNL     1     -10.980  11.831  63.434  1.00  0.00    -0.380 C  
ENDBRANCH  20  22
ENDBRANCH   9  12
ENDBRANCH   7   8
ENDBRANCH   6   7
ENDBRANCH   3   6
ENDBRANCH   2   3
TORSDOF 7
ENDMDL
MODEL       99
REMARK 921   NORMALIZED FREE ENERGY PREDICTED BY IDOCK:   -4.37 KCAL/MOL
REMARK 922        TOTAL FREE ENERGY PREDICTED BY IDOCK:   -6.87 KCAL/MOL
REMARK 923 INTER-LIGAND FREE ENERGY PREDICTED BY IDOCK:   -6.22 KCAL/MOL
REMARK 924 INTRA-LIGAND FREE ENERGY PREDICTED BY IDOCK:   -0.65 KCAL/MOL
REMARK 927      BINDING AFFINITY PREDICTED BY RF-SCORE:    0.00 PKD
ROOT
HETATM    1  C   UNL     1     -12.891  12.179  70.972  1.00  0.00    -0.258 C  
HETATM    2  C   UNL     1     -12.050  13.447  70.863  1.00  0.00    -0.183 C  
ENDROOT
BRANCH   2   3
HETATM    3  N   UNL     1     -12.797  14.649  70.453  1.00  0.00    -0.318 NA 
BRANCH   3   4
HETATM    4  C   UNL     1     -13.204  15.510  71.582  1.00  0.00    -0.492 C  
HETATM    5  C   UNL     1     -12.870  15.001  72.983  1.00  0.00    -0.574 C  
ENDBRANCH   3   4
BRANCH   3   6
HETATM    6  C   UNL     1     -12.058  15.437  69.436  1.00  0.00    -0.280 C  
BRANCH   6   7
HETATM    7  C   UNL     1     -10.526  15.329  69.508  1.00  0.00    -0.260 C  
BRANCH   7   8
HETATM    8  N   UNL     1      -9.853  16.393  68.783  1.00  0.00    -0.239 N  
HETATM    9  C   UNL     1      -9.329  16.177  67.525  1.00  0.00    -0.217 C  
HETATM   10  H   UNL     1      -9.767  17.315  69.212  1.00  0.00     0.000 HD 
HETATM   11  O   UNL     1      -9.372  15.091  66.963  1.00  0.00    -0.206 OA 
BRANCH   9  12
HETATM   12  C   UNL     1      -8.795  17.365  66.814  1.00  0.00    -0.272 A  
HETATM   13  C   UNL     1      -7.533  17.227  66.207  1.00  0.00    -0.354 A  
HETATM   14  C   UNL     1      -6.840  18.348  65.749  1.00  0.00    -0.275 A  
HETATM   15  C   UNL     1      -7.367  19.636  65.917  1.00  0.00    -0.308 A  
HETATM   16 CL   UNL     1      -5.265  18.119  65.072  1.00  0.00    -0.149 Cl 
HETATM   17  C   UNL     1      -8.664  19.754  66.431  1.00  0.00    -0.412 A  
HETATM   18  N   UNL     1      -6.715  20.778  65.417  1.00  0.00    -0.479 NA 
HETATM   19  H1  UNL     1      -7.099  21.716  65.539  1.00  0.00     0.000 HD 
HETATM   20  C   UNL     1      -9.380  18.638  66.898  1.00  0.00    -0.304 A  
HETATM   21  H2  UNL     1      -6.556  20.634  64.420  1.00  0.00     0.000 HD 
BRANCH  20  22
HETATM   22  O   UNL     1     -10.566  18.971  67.498  1.00  0.00    -0.428 OA 
HETATM   23  C   UNL     1     -10.491  19.904  68.572  1.00  0.00    -0.213 C  
ENDBRANCH  20  22
ENDBRANCH   9  12
ENDBRANCH   7   8
ENDBRANCH   6   7
ENDBRANCH   3   6
ENDBRANCH   2   3
TORSDOF 7
ENDMDL
MODEL      100
REMARK 921   NORMALIZED FREE ENERGY PREDICTED BY IDOCK:   -4.36 KCAL/MOL
REMARK 922        TOTAL FREE ENERGY PREDICTED BY IDOCK:   -6.86 KCAL/MOL
REMARK 923 INTER-LIGAND FREE ENERGY PREDICTED BY IDOCK:   -6.48 KCAL/MOL
REMARK 924 INTRA-LIGAND FREE ENERGY PREDICTED BY IDOCK:   -0.38 KCAL/MOL
REMARK 927      BINDING AFFINITY PREDICTED BY RF-SCORE:    0.00 PKD
ROOT
HETATM    1  C   UNL     1      -8.211  10.617  68.734  1.00  0.00    -0.142 C  
HETATM    2  C   UNL     1      -8.533   9.345  69.512  1.00  0.00    -0.152 C  
ENDROOT
BRANCH   2   3
HETATM    3  N   UNL     1      -9.949   8.939  69.470  1.00  0.00    -0.186 NA 
BRANCH   3   4
HETATM    4  C   UNL     1     -10.197   7.728  68.662  1.00  0.00    -0.201 C  
HETATM    5  C   UNL     1     -10.540   7.948  67.190  1.00  0.00    -0.383 C  
ENDBRANCH   3   4
BRANCH   3   6
HETATM    6  C   UNL     1     -10.517   8.782  70.831  1.00  0.00    -0.221 C  
BRANCH   6   7
HETATM    7  C   UNL     1     -11.840   9.527  71.081  1.00  0.00    -0.358 C  
BRANCH   7   8
HETATM    8  N   UNL     1     -11.835  10.876  70.542  1.00  0.00    -0.338 N  
HETATM    9  C   UNL     1     -12.533  11.893  71.161  1.00  0.00    -0.261 C  
HETATM   10  H   UNL     1     -11.306  11.075  69.693  1.00  0.00     0.000 HD 
HETATM   11  O   UNL     1     -13.210  11.719  72.166  1.00  0.00    -0.498 OA 
BRANCH   9  12
HETATM   12  C   UNL     1     -12.343  13.259  70.615  1.00  0.00    -0.416 A  
HETATM   13  C   UNL     1     -11.696  13.360  69.370  1.00  0.00    -0.382 A  
HETATM   14  C   UNL     1     -11.242  14.595  68.906  1.00  0.00    -0.267 A  
HETATM   15  C   UNL     1     -11.387  15.752  69.683  1.00  0.00    -0.334 A  
HETATM   16 CL   UNL     1     -10.396  14.644  67.398  1.00  0.00    -0.241 Cl 
HETATM   17  C   UNL     1     -12.119  15.657  70.873  1.00  0.00    -0.452 A  
HETATM   18  N   UNL     1     -10.988  17.018  69.217  1.00  0.00    -0.308 NA 
HETATM   19  H1  UNL     1     -11.093  17.860  69.782  1.00  0.00     0.000 HD 
HETATM   20  C   UNL     1     -12.585  14.424  71.359  1.00  0.00    -0.354 A  
HETATM   21  H2  UNL     1     -11.454  17.182  68.324  1.00  0.00     0.000 HD 
BRANCH  20  22
HETATM   22  O   UNL     1     -13.147  14.514  72.606  1.00  0.00    -0.401 OA 
HETATM   23  C   UNL     1     -13.392  15.829  73.095  1.00  0.00    -0.587 C  
ENDBRANCH  20  22
ENDBRANCH   9  12
ENDBRANCH   7   8
ENDBRANCH   6   7
ENDBRANCH   3   6
ENDBRANCH   2   3
TORSDOF 7
ENDMDL
MODEL      101
REMARK 921   NORMALIZED FREE ENERGY PREDICTED BY IDOCK:   -4.36 KCAL/MOL
REMARK 922        TOTAL FREE ENERGY PREDICTED BY IDOCK:   -6.86 KCAL/MOL
REMARK 923 INTER-LIGAND FREE ENERGY PREDICTED BY IDOCK:   -6.04 KCAL/MOL
REMARK 924 INTRA-LIGAND FREE ENERGY PREDICTED BY IDOCK:   -0.82 KCAL/MOL
REMARK 927      BINDING AFFINITY PREDICTED BY RF-SCORE:    0.00 PKD
ROOT
HETATM    1  C   UNL     1     -11.819  12.937  69.556  1.00  0.00    -0.383 C  
HETATM    2  C   UNL     1     -11.839  13.778  68.283  1.00  0.00    -0.378 C  
ENDROOT
BRANCH   2   3
HETATM    3  N   UNL     1     -11.513  13.038  67.050  1.00  0.00    -0.315 NA 
BRANCH   3   4
HETATM    4  C   UNL     1     -12.193  13.558  65.847  1.00  0.00    -0.460 C  
HETATM    5  C   UNL     1     -12.654  12.522  64.822  1.00  0.00    -0.493 C  
ENDBRANCH   3   4
BRANCH   3   6
HETATM    6  C   UNL     1     -10.048  12.957  66.828  1.00  0.00    -0.238 C  
BRANCH   6   7
HETATM    7  C   UNL     1      -9.497  13.890  65.737  1.00  0.00     0.016 C  
BRANCH   7   8
HETATM    8  N   UNL     1      -8.843  15.066  66.282  1.00  0.00    -0.471 N  
HETATM    9  C   UNL     1      -9.353  16.330  66.067  1.00  0.00    -0.326 C  
HETATM   10  H   UNL     1      -7.991  14.956  66.833  1.00  0.00     0.000 HD 
HETATM   11  O   UNL     1     -10.354  16.538  65.393  1.00  0.00    -0.558 OA 
BRANCH   9  12
HETATM   12  C   UNL     1      -8.694  17.446  66.788  1.00  0.00    -0.278 A  
HETATM   13  C   UNL     1      -8.000  18.386  66.004  1.00  0.00    -0.146 A  
HETATM   14  C   UNL     1      -7.140  19.309  66.600  1.00  0.00    -0.208 A  
HETATM   15  C   UNL     1      -6.920  19.296  67.984  1.00  0.00    -0.252 A  
HETATM   16 CL   UNL     1      -6.266  20.395  65.576  1.00  0.00    -0.249 Cl 
HETATM   17  C   UNL     1      -7.688  18.423  68.763  1.00  0.00    -0.287 A  
HETATM   18  N   UNL     1      -6.099  20.248  68.617  1.00  0.00    -0.282 NA 
HETATM   19  H1  UNL     1      -5.939  20.238  69.624  1.00  0.00     0.000 HD 
HETATM   20  C   UNL     1      -8.560  17.486  68.184  1.00  0.00    -0.258 A  
HETATM   21  H2  UNL     1      -6.447  21.174  68.365  1.00  0.00     0.000 HD 
BRANCH  20  22
HETATM   22  O   UNL     1      -9.110  16.625  69.098  1.00  0.00    -0.245 OA 
HETATM   23  C   UNL     1     -10.441  16.912  69.516  1.00  0.00    -0.228 C  
ENDBRANCH  20  22
ENDBRANCH   9  12
ENDBRANCH   7   8
ENDBRANCH   6   7
ENDBRANCH   3   6
ENDBRANCH   2   3
TORSDOF 7
ENDMDL
MODEL      102
REMARK 921   NORMALIZED FREE ENERGY PREDICTED BY IDOCK:   -4.35 KCAL/MOL
REMARK 922        TOTAL FREE ENERGY PREDICTED BY IDOCK:   -6.85 KCAL/MOL
REMARK 923 INTER-LIGAND FREE ENERGY PREDICTED BY IDOCK:   -5.91 KCAL/MOL
REMARK 924 INTRA-LIGAND FREE ENERGY PREDICTED BY IDOCK:   -0.94 KCAL/MOL
REMARK 927      BINDING AFFINITY PREDICTED BY RF-SCORE:    0.00 PKD
ROOT
HETATM    1  C   UNL     1      -8.922   9.047  68.504  1.00  0.00    -0.133 C  
HETATM    2  C   UNL     1      -8.101  10.292  68.826  1.00  0.00    -0.120 C  
ENDROOT
BRANCH   2   3
HETATM    3  N   UNL     1      -7.933  11.228  67.699  1.00  0.00    -0.114 NA 
BRANCH   3   4
HETATM    4  C   UNL     1      -6.528  11.416  67.287  1.00  0.00    -0.098 C  
HETATM    5  C   UNL     1      -6.057  10.609  66.078  1.00  0.00    -0.131 C  
ENDBRANCH   3   4
BRANCH   3   6
HETATM    6  C   UNL     1      -8.772  10.847  66.537  1.00  0.00    -0.163 C  
BRANCH   6   7
HETATM    7  C   UNL     1      -9.863  11.859  66.153  1.00  0.00    -0.232 C  
BRANCH   7   8
HETATM    8  N   UNL     1     -10.170  12.787  67.228  1.00  0.00    -0.231 N  
HETATM    9  C   UNL     1     -11.311  12.641  67.992  1.00  0.00    -0.290 C  
HETATM   10  H   UNL     1      -9.532  13.559  67.422  1.00  0.00     0.000 HD 
HETATM   11  O   UNL     1     -12.133  11.755  67.797  1.00  0.00    -0.595 OA 
BRANCH   9  12
HETATM   12  C   UNL     1     -11.455  13.551  69.154  1.00  0.00    -0.345 A  
HETATM   13  C   UNL     1     -12.172  13.060  70.260  1.00  0.00    -0.368 A  
HETATM   14  C   UNL     1     -12.581  13.921  71.279  1.00  0.00    -0.371 A  
HETATM   15  C   UNL     1     -12.321  15.296  71.205  1.00  0.00    -0.361 A  
HETATM   16 CL   UNL     1     -13.516  13.266  72.579  1.00  0.00    -0.669 Cl 
HETATM   17  C   UNL     1     -11.523  15.758  70.152  1.00  0.00    -0.366 A  
HETATM   18  N   UNL     1     -12.675  16.178  72.243  1.00  0.00    -0.450 NA 
HETATM   19  H1  UNL     1     -12.485  17.179  72.189  1.00  0.00     0.000 HD 
HETATM   20  C   UNL     1     -11.100  14.908  69.115  1.00  0.00    -0.269 A  
HETATM   21  H2  UNL     1     -12.257  15.827  73.105  1.00  0.00     0.000 HD 
BRANCH  20  22
HETATM   22  O   UNL     1     -10.456  15.572  68.103  1.00  0.00    -0.249 OA 
HETATM   23  C   UNL     1     -10.518  16.994  68.141  1.00  0.00    -0.357 C  
ENDBRANCH  20  22
ENDBRANCH   9  12
ENDBRANCH   7   8
ENDBRANCH   6   7
ENDBRANCH   3   6
ENDBRANCH   2   3
TORSDOF 7
ENDMDL
MODEL      103
REMARK 921   NORMALIZED FREE ENERGY PREDICTED BY IDOCK:   -4.35 KCAL/MOL
REMARK 922        TOTAL FREE ENERGY PREDICTED BY IDOCK:   -6.84 KCAL/MOL
REMARK 923 INTER-LIGAND FREE ENERGY PREDICTED BY IDOCK:   -6.18 KCAL/MOL
REMARK 924 INTRA-LIGAND FREE ENERGY PREDICTED BY IDOCK:   -0.66 KCAL/MOL
REMARK 927      BINDING AFFINITY PREDICTED BY RF-SCORE:    0.00 PKD
ROOT
HETATM    1  C   UNL     1     -10.190  18.059  68.677  1.00  0.00    -0.385 C  
HETATM    2  C   UNL     1      -9.832  16.577  68.736  1.00  0.00    -0.254 C  
ENDROOT
BRANCH   2   3
HETATM    3  N   UNL     1     -10.788  15.685  68.055  1.00  0.00    -0.297 NA 
BRANCH   3   4
HETATM    4  C   UNL     1     -10.784  15.821  66.584  1.00  0.00    -0.287 C  
HETATM    5  C   UNL     1     -10.977  14.537  65.779  1.00  0.00    -0.319 C  
ENDBRANCH   3   4
BRANCH   3   6
HETATM    6  C   UNL     1     -10.595  14.268  68.448  1.00  0.00    -0.253 C  
BRANCH   6   7
HETATM    7  C   UNL     1     -11.755  13.642  69.240  1.00  0.00    -0.325 C  
BRANCH   7   8
HETATM    8  N   UNL     1     -11.438  12.319  69.750  1.00  0.00    -0.484 N  
HETATM    9  C   UNL     1     -11.633  11.192  68.977  1.00  0.00    -0.324 C  
HETATM   10  H   UNL     1     -11.064  12.222  70.694  1.00  0.00     0.000 HD 
HETATM   11  O   UNL     1     -12.102  11.233  67.847  1.00  0.00    -0.634 OA 
BRANCH   9  12
HETATM   12  C   UNL     1     -11.141   9.909  69.535  1.00  0.00    -0.255 A  
HETATM   13  C   UNL     1     -10.536   9.015  68.633  1.00  0.00    -0.229 A  
HETATM   14  C   UNL     1     -10.283   7.695  69.006  1.00  0.00    -0.206 A  
HETATM   15  C   UNL     1     -10.660   7.221  70.270  1.00  0.00    -0.229 A  
HETATM   16 CL   UNL     1      -9.598   6.627  67.830  1.00  0.00    -0.124 Cl 
HETATM   17  C   UNL     1     -11.170   8.142  71.192  1.00  0.00    -0.289 A  
HETATM   18  N   UNL     1     -10.369   5.910  70.691  1.00  0.00    -0.221 NA 
HETATM   19  H1  UNL     1     -10.644   5.565  71.611  1.00  0.00     0.000 HD 
HETATM   20  C   UNL     1     -11.432   9.477  70.838  1.00  0.00    -0.334 A  
HETATM   21  H2  UNL     1      -9.365   5.767  70.591  1.00  0.00     0.000 HD 
BRANCH  20  22
HETATM   22  O   UNL     1     -12.064  10.182  71.828  1.00  0.00    -0.349 OA 
HETATM   23  C   UNL     1     -13.457   9.934  71.990  1.00  0.00    -0.380 C  
ENDBRANCH  20  22
ENDBRANCH   9  12
ENDBRANCH   7   8
ENDBRANCH   6   7
ENDBRANCH   3   6
ENDBRANCH   2   3
TORSDOF 7
ENDMDL
MODEL      104
REMARK 921   NORMALIZED FREE ENERGY PREDICTED BY IDOCK:   -4.34 KCAL/MOL
REMARK 922        TOTAL FREE ENERGY PREDICTED BY IDOCK:   -6.83 KCAL/MOL
REMARK 923 INTER-LIGAND FREE ENERGY PREDICTED BY IDOCK:   -6.49 KCAL/MOL
REMARK 924 INTRA-LIGAND FREE ENERGY PREDICTED BY IDOCK:   -0.34 KCAL/MOL
REMARK 927      BINDING AFFINITY PREDICTED BY RF-SCORE:    0.00 PKD
ROOT
HETATM    1  C   UNL     1      -9.200   7.863  73.388  1.00  0.00    -0.351 C  
HETATM    2  C   UNL     1      -9.359   7.066  72.097  1.00  0.00    -0.134 C  
ENDROOT
BRANCH   2   3
HETATM    3  N   UNL     1     -10.139   7.744  71.046  1.00  0.00    -0.186 NA 
BRANCH   3   4
HETATM    4  C   UNL     1     -11.298   6.962  70.568  1.00  0.00    -0.327 C  
HETATM    5  C   UNL     1     -11.070   6.086  69.338  1.00  0.00    -0.445 C  
ENDBRANCH   3   4
BRANCH   3   6
HETATM    6  C   UNL     1     -10.562   9.102  71.464  1.00  0.00    -0.358 C  
BRANCH   6   7
HETATM    7  C   UNL     1     -11.565   9.795  70.527  1.00  0.00    -0.292 C  
BRANCH   7   8
HETATM    8  N   UNL     1     -11.118  11.110  70.099  1.00  0.00    -0.479 N  
HETATM    9  C   UNL     1     -11.533  11.648  68.898  1.00  0.00    -0.287 C  
HETATM   10  H   UNL     1     -10.486  11.643  70.697  1.00  0.00     0.000 HD 
HETATM   11  O   UNL     1     -12.267  11.052  68.120  1.00  0.00    -0.578 OA 
BRANCH   9  12
HETATM   12  C   UNL     1     -11.137  13.051  68.625  1.00  0.00    -0.305 A  
HETATM   13  C   UNL     1     -11.299  13.972  69.676  1.00  0.00    -0.270 A  
HETATM   14  C   UNL     1     -11.205  15.343  69.437  1.00  0.00    -0.296 A  
HETATM   15  C   UNL     1     -10.985  15.834  68.143  1.00  0.00    -0.330 A  
HETATM   16 CL   UNL     1     -11.480  16.426  70.758  1.00  0.00    -0.319 Cl 
HETATM   17  C   UNL     1     -10.728  14.909  67.124  1.00  0.00    -0.296 A  
HETATM   18  N   UNL     1     -10.833  17.208  67.883  1.00  0.00    -0.344 NA 
HETATM   19  H1  UNL     1     -10.673  17.565  66.941  1.00  0.00     0.000 HD 
HETATM   20  C   UNL     1     -10.817  13.523  67.343  1.00  0.00    -0.269 A  
HETATM   21  H2  UNL     1     -10.082  17.556  68.480  1.00  0.00     0.000 HD 
BRANCH  20  22
HETATM   22  O   UNL     1     -10.677  12.787  66.195  1.00  0.00    -0.269 OA 
HETATM   23  C   UNL     1     -10.663  13.518  64.973  1.00  0.00    -0.357 C  
ENDBRANCH  20  22
ENDBRANCH   9  12
ENDBRANCH   7   8
ENDBRANCH   6   7
ENDBRANCH   3   6
ENDBRANCH   2   3
TORSDOF 7
ENDMDL
MODEL      105
REMARK 921   NORMALIZED FREE ENERGY PREDICTED BY IDOCK:   -4.31 KCAL/MOL
REMARK 922        TOTAL FREE ENERGY PREDICTED BY IDOCK:   -6.79 KCAL/MOL
REMARK 923 INTER-LIGAND FREE ENERGY PREDICTED BY IDOCK:   -6.06 KCAL/MOL
REMARK 924 INTRA-LIGAND FREE ENERGY PREDICTED BY IDOCK:   -0.74 KCAL/MOL
REMARK 927      BINDING AFFINITY PREDICTED BY RF-SCORE:    0.00 PKD
ROOT
HETATM    1  C   UNL     1      -9.798  15.903  66.697  1.00  0.00    -0.267 C  
HETATM    2  C   UNL     1     -10.189  14.469  66.354  1.00  0.00    -0.287 C  
ENDROOT
BRANCH   2   3
HETATM    3  N   UNL     1     -11.629  14.176  66.479  1.00  0.00    -0.359 NA 
BRANCH   3   4
HETATM    4  C   UNL     1     -12.325  14.057  65.182  1.00  0.00    -0.453 C  
HETATM    5  C   UNL     1     -12.467  12.648  64.610  1.00  0.00    -0.538 C  
ENDBRANCH   3   4
BRANCH   3   6
HETATM    6  C   UNL     1     -11.876  12.977  67.316  1.00  0.00    -0.363 C  
BRANCH   6   7
HETATM    7  C   UNL     1     -11.329  13.053  68.751  1.00  0.00    -0.289 C  
BRANCH   7   8
HETATM    8  N   UNL     1     -10.778  11.789  69.209  1.00  0.00    -0.424 N  
HETATM    9  C   UNL     1     -11.495  10.962  70.050  1.00  0.00    -0.329 C  
HETATM   10  H   UNL     1      -9.846  11.508  68.904  1.00  0.00     0.000 HD 
HETATM   11  O   UNL     1     -12.606  11.249  70.477  1.00  0.00    -0.291 OA 
BRANCH   9  12
HETATM   12  C   UNL     1     -10.904   9.633  70.339  1.00  0.00    -0.353 A  
HETATM   13  C   UNL     1     -11.135   9.101  71.621  1.00  0.00    -0.445 A  
HETATM   14  C   UNL     1     -10.412   7.996  72.070  1.00  0.00    -0.246 A  
HETATM   15  C   UNL     1      -9.417   7.415  71.272  1.00  0.00    -0.154 A  
HETATM   16 CL   UNL     1     -10.695   7.430  73.681  1.00  0.00    -0.364 Cl 
HETATM   17  C   UNL     1      -9.264   7.889  69.964  1.00  0.00    -0.153 A  
HETATM   18  N   UNL     1      -8.710   6.268  71.679  1.00  0.00    -0.134 NA 
HETATM   19  H1  UNL     1      -7.986   5.846  71.098  1.00  0.00     0.000 HD 
HETATM   20  C   UNL     1      -9.983   9.001  69.490  1.00  0.00    -0.191 A  
HETATM   21  H2  UNL     1      -9.394   5.544  71.900  1.00  0.00     0.000 HD 
BRANCH  20  22
HETATM   22  O   UNL     1      -9.591   9.403  68.240  1.00  0.00    -0.141 OA 
HETATM   23  C   UNL     1     -10.266   8.799  67.141  1.00  0.00    -0.276 C  
ENDBRANCH  20  22
ENDBRANCH   9  12
ENDBRANCH   7   8
ENDBRANCH   6   7
ENDBRANCH   3   6
ENDBRANCH   2   3
TORSDOF 7
ENDMDL
MODEL      106
REMARK 921   NORMALIZED FREE ENERGY PREDICTED BY IDOCK:   -4.31 KCAL/MOL
REMARK 922        TOTAL FREE ENERGY PREDICTED BY IDOCK:   -6.79 KCAL/MOL
REMARK 923 INTER-LIGAND FREE ENERGY PREDICTED BY IDOCK:   -6.18 KCAL/MOL
REMARK 924 INTRA-LIGAND FREE ENERGY PREDICTED BY IDOCK:   -0.61 KCAL/MOL
REMARK 927      BINDING AFFINITY PREDICTED BY RF-SCORE:    0.00 PKD
ROOT
HETATM    1  C   UNL     1      -9.925  20.275  66.967  1.00  0.00    -0.601 C  
HETATM    2  C   UNL     1     -10.504  19.180  66.076  1.00  0.00    -0.467 C  
ENDROOT
BRANCH   2   3
HETATM    3  N   UNL     1      -9.619  18.018  65.873  1.00  0.00    -0.516 NA 
BRANCH   3   4
HETATM    4  C   UNL     1      -8.609  17.847  66.938  1.00  0.00    -0.245 C  
HETATM    5  C   UNL     1      -7.187  17.521  66.484  1.00  0.00    -0.298 C  
ENDBRANCH   3   4
BRANCH   3   6
HETATM    6  C   UNL     1     -10.389  16.765  65.679  1.00  0.00    -0.265 C  
BRANCH   6   7
HETATM    7  C   UNL     1     -10.709  15.985  66.965  1.00  0.00    -0.277 C  
BRANCH   7   8
HETATM    8  N   UNL     1     -10.880  14.562  66.730  1.00  0.00    -0.299 N  
HETATM    9  C   UNL     1      -9.815  13.689  66.833  1.00  0.00    -0.261 C  
HETATM   10  H   UNL     1     -11.802  14.202  66.484  1.00  0.00     0.000 HD 
HETATM   11  O   UNL     1      -8.678  14.056  67.095  1.00  0.00    -0.209 OA 
BRANCH   9  12
HETATM   12  C   UNL     1     -10.127  12.244  66.718  1.00  0.00    -0.224 A  
HETATM   13  C   UNL     1     -10.066  11.485  67.901  1.00  0.00    -0.202 A  
HETATM   14  C   UNL     1     -10.083  10.091  67.851  1.00  0.00    -0.169 A  
HETATM   15  C   UNL     1     -10.123   9.417  66.623  1.00  0.00    -0.262 A  
HETATM   16 CL   UNL     1      -9.939   9.215  69.337  1.00  0.00    -0.185 Cl 
HETATM   17  C   UNL     1     -10.283  10.179  65.460  1.00  0.00    -0.288 A  
HETATM   18  N   UNL     1     -10.195   8.013  66.546  1.00  0.00    -0.468 NA 
HETATM   19  H1  UNL     1     -10.224   7.523  65.653  1.00  0.00     0.000 HD 
HETATM   20  C   UNL     1     -10.268  11.584  65.487  1.00  0.00    -0.258 A  
HETATM   21  H2  UNL     1     -11.002   7.713  67.093  1.00  0.00     0.000 HD 
BRANCH  20  22
HETATM   22  O   UNL     1     -10.289  12.147  64.238  1.00  0.00    -0.294 OA 
HETATM   23  C   UNL     1      -9.787  11.345  63.174  1.00  0.00    -0.388 C  
ENDBRANCH  20  22
ENDBRANCH   9  12
ENDBRANCH   7   8
ENDBRANCH   6   7
ENDBRANCH   3   6
ENDBRANCH   2   3
TORSDOF 7
ENDMDL
MODEL      107
REMARK 921   NORMALIZED FREE ENERGY PREDICTED BY IDOCK:   -4.30 KCAL/MOL
REMARK 922        TOTAL FREE ENERGY PREDICTED BY IDOCK:   -6.78 KCAL/MOL
REMARK 923 INTER-LIGAND FREE ENERGY PREDICTED BY IDOCK:   -6.18 KCAL/MOL
REMARK 924 INTRA-LIGAND FREE ENERGY PREDICTED BY IDOCK:   -0.60 KCAL/MOL
REMARK 927      BINDING AFFINITY PREDICTED BY RF-SCORE:    0.00 PKD
ROOT
HETATM    1  C   UNL     1      -6.246  18.530  65.248  1.00  0.00    -0.286 C  
HETATM    2  C   UNL     1      -7.089  19.785  65.455  1.00  0.00    -0.288 C  
ENDROOT
BRANCH   2   3
HETATM    3  N   UNL     1      -8.240  19.612  66.360  1.00  0.00    -0.323 NA 
BRANCH   3   4
HETATM    4  C   UNL     1      -7.951  19.967  67.764  1.00  0.00    -0.289 C  
HETATM    5  C   UNL     1      -7.723  18.805  68.730  1.00  0.00    -0.351 C  
ENDBRANCH   3   4
BRANCH   3   6
HETATM    6  C   UNL     1      -9.438  20.339  65.874  1.00  0.00    -0.088 C  
BRANCH   6   7
HETATM    7  C   UNL     1     -10.689  19.473  65.655  1.00  0.00    -0.325 C  
BRANCH   7   8
HETATM    8  N   UNL     1     -10.622  18.204  66.358  1.00  0.00    -0.328 N  
HETATM    9  C   UNL     1     -10.769  17.008  65.685  1.00  0.00    -0.144 C  
HETATM   10  H   UNL     1     -10.465  18.196  67.366  1.00  0.00     0.000 HD 
HETATM   11  O   UNL     1     -10.988  16.944  64.482  1.00  0.00    -0.989 OA 
BRANCH   9  12
HETATM   12  C   UNL     1     -10.539  15.770  66.469  1.00  0.00    -0.306 A  
HETATM   13  C   UNL     1      -9.670  15.869  67.571  1.00  0.00    -0.223 A  
HETATM   14  C   UNL     1      -9.191  14.721  68.201  1.00  0.00    -0.195 A  
HETATM   15  C   UNL     1      -9.534  13.446  67.730  1.00  0.00    -0.210 A  
HETATM   16 CL   UNL     1      -8.073  14.908  69.509  1.00  0.00    -0.118 Cl 
HETATM   17  C   UNL     1     -10.475  13.359  66.698  1.00  0.00    -0.280 A  
HETATM   18  N   UNL     1      -9.109  12.272  68.379  1.00  0.00    -0.300 NA 
HETATM   19  H1  UNL     1      -9.358  11.345  68.036  1.00  0.00     0.000 HD 
HETATM   20  C   UNL     1     -10.971  14.503  66.048  1.00  0.00    -0.324 A  
HETATM   21  H2  UNL     1      -9.401  12.333  69.354  1.00  0.00     0.000 HD 
BRANCH  20  22
HETATM   22  O   UNL     1     -11.765  14.209  64.971  1.00  0.00    -0.343 OA 
HETATM   23  C   UNL     1     -12.625  13.082  65.109  1.00  0.00    -0.469 C  
ENDBRANCH  20  22
ENDBRANCH   9  12
ENDBRANCH   7   8
ENDBRANCH   6   7
ENDBRANCH   3   6
ENDBRANCH   2   3
TORSDOF 7
ENDMDL
MODEL      108
REMARK 921   NORMALIZED FREE ENERGY PREDICTED BY IDOCK:   -4.30 KCAL/MOL
REMARK 922        TOTAL FREE ENERGY PREDICTED BY IDOCK:   -6.78 KCAL/MOL
REMARK 923 INTER-LIGAND FREE ENERGY PREDICTED BY IDOCK:   -6.14 KCAL/MOL
REMARK 924 INTRA-LIGAND FREE ENERGY PREDICTED BY IDOCK:   -0.64 KCAL/MOL
REMARK 927      BINDING AFFINITY PREDICTED BY RF-SCORE:    0.00 PKD
ROOT
HETATM    1  C   UNL     1     -10.578   4.370  65.652  1.00  0.00    -0.179 C  
HETATM    2  C   UNL     1      -9.650   4.978  66.699  1.00  0.00    -0.158 C  
ENDROOT
BRANCH   2   3
HETATM    3  N   UNL     1     -10.183   4.971  68.073  1.00  0.00    -0.117 NA 
BRANCH   3   4
HETATM    4  C   UNL     1      -9.162   4.705  69.106  1.00  0.00    -0.128 C  
HETATM    5  C   UNL     1      -9.668   4.519  70.536  1.00  0.00    -0.290 C  
ENDBRANCH   3   4
BRANCH   3   6
HETATM    6  C   UNL     1     -10.925   6.218  68.383  1.00  0.00    -0.325 C  
BRANCH   6   7
HETATM    7  C   UNL     1     -10.451   7.469  67.624  1.00  0.00    -0.250 C  
BRANCH   7   8
HETATM    8  N   UNL     1     -10.975   8.700  68.190  1.00  0.00    -0.460 N  
HETATM    9  C   UNL     1     -10.628   9.929  67.666  1.00  0.00    -0.270 C  
HETATM   10  H   UNL     1     -11.610   8.655  68.987  1.00  0.00     0.000 HD 
HETATM   11  O   UNL     1      -9.850  10.058  66.729  1.00  0.00    -0.180 OA 
BRANCH   9  12
HETATM   12  C   UNL     1     -11.331  11.111  68.221  1.00  0.00    -0.365 A  
HETATM   13  C   UNL     1     -11.434  12.239  67.386  1.00  0.00    -0.422 A  
HETATM   14  C   UNL     1     -11.837  13.470  67.903  1.00  0.00    -0.362 A  
HETATM   15  C   UNL     1     -12.112  13.620  69.269  1.00  0.00    -0.314 A  
HETATM   16 CL   UNL     1     -11.881  14.833  66.838  1.00  0.00    -0.332 Cl 
HETATM   17  C   UNL     1     -12.102  12.473  70.071  1.00  0.00    -0.337 A  
HETATM   18  N   UNL     1     -12.572  14.836  69.808  1.00  0.00    -0.573 NA 
HETATM   19  H1  UNL     1     -12.772  14.945  70.802  1.00  0.00     0.000 HD 
HETATM   20  C   UNL     1     -11.699  11.222  69.571  1.00  0.00    -0.345 A  
HETATM   21  H2  UNL     1     -13.408  15.108  69.290  1.00  0.00     0.000 HD 
BRANCH  20  22
HETATM   22  O   UNL     1     -11.614  10.256  70.539  1.00  0.00    -0.288 OA 
HETATM   23  C   UNL     1     -12.650  10.248  71.517  1.00  0.00    -0.440 C  
ENDBRANCH  20  22
ENDBRANCH   9  12
ENDBRANCH   7   8
ENDBRANCH   6   7
ENDBRANCH   3   6
ENDBRANCH   2   3
TORSDOF 7
ENDMDL
MODEL      109
REMARK 921   NORMALIZED FREE ENERGY PREDICTED BY IDOCK:   -4.29 KCAL/MOL
REMARK 922        TOTAL FREE ENERGY PREDICTED BY IDOCK:   -6.76 KCAL/MOL
REMARK 923 INTER-LIGAND FREE ENERGY PREDICTED BY IDOCK:   -5.97 KCAL/MOL
REMARK 924 INTRA-LIGAND FREE ENERGY PREDICTED BY IDOCK:   -0.80 KCAL/MOL
REMARK 927      BINDING AFFINITY PREDICTED BY RF-SCORE:    0.00 PKD
ROOT
HETATM    1  C   UNL     1     -10.725  19.146  67.426  1.00  0.00    -0.578 C  
HETATM    2  C   UNL     1      -9.816  19.614  66.294  1.00  0.00    -0.447 C  
ENDROOT
BRANCH   2   3
HETATM    3  N   UNL     1      -8.374  19.545  66.592  1.00  0.00    -0.301 NA 
BRANCH   3   4
HETATM    4  C   UNL     1      -7.877  20.683  67.391  1.00  0.00    -0.283 C  
HETATM    5  C   UNL     1      -6.393  20.665  67.756  1.00  0.00    -0.343 C  
ENDBRANCH   3   4
BRANCH   3   6
HETATM    6  C   UNL     1      -8.005  18.258  67.232  1.00  0.00    -0.224 C  
BRANCH   6   7
HETATM    7  C   UNL     1      -7.869  17.063  66.274  1.00  0.00    -0.311 C  
BRANCH   7   8
HETATM    8  N   UNL     1      -8.706  15.939  66.657  1.00  0.00    -0.259 N  
HETATM    9  C   UNL     1      -8.298  15.045  67.626  1.00  0.00    -0.164 C  
HETATM   10  H   UNL     1      -9.609  15.808  66.202  1.00  0.00     0.000 HD 
HETATM   11  O   UNL     1      -7.216  15.126  68.193  1.00  0.00    -0.102 OA 
BRANCH   9  12
HETATM   12  C   UNL     1      -9.286  14.022  68.046  1.00  0.00    -0.205 A  
HETATM   13  C   UNL     1      -8.852  12.683  68.047  1.00  0.00    -0.195 A  
HETATM   14  C   UNL     1      -9.770  11.641  68.169  1.00  0.00    -0.189 A  
HETATM   15  C   UNL     1     -11.145  11.900  68.256  1.00  0.00    -0.239 A  
HETATM   16 CL   UNL     1      -9.181  10.016  68.098  1.00  0.00    -0.127 Cl 
HETATM   17  C   UNL     1     -11.557  13.234  68.353  1.00  0.00    -0.372 A  
HETATM   18  N   UNL     1     -12.088  10.871  68.434  1.00  0.00    -0.818 NA 
HETATM   19  H1  UNL     1     -13.088  11.060  68.497  1.00  0.00     0.000 HD 
HETATM   20  C   UNL     1     -10.649  14.301  68.232  1.00  0.00    -0.245 A  
HETATM   21  H2  UNL     1     -11.818  10.342  69.263  1.00  0.00     0.000 HD 
BRANCH  20  22
HETATM   22  O   UNL     1     -11.259  15.527  68.206  1.00  0.00    -0.311 OA 
HETATM   23  C   UNL     1     -11.588  16.097  69.469  1.00  0.00    -0.254 C  
ENDBRANCH  20  22
ENDBRANCH   9  12
ENDBRANCH   7   8
ENDBRANCH   6   7
ENDBRANCH   3   6
ENDBRANCH   2   3
TORSDOF 7
ENDMDL
MODEL      110
REMARK 921   NORMALIZED FREE ENERGY PREDICTED BY IDOCK:   -4.28 KCAL/MOL
REMARK 922        TOTAL FREE ENERGY PREDICTED BY IDOCK:   -6.75 KCAL/MOL
REMARK 923 INTER-LIGAND FREE ENERGY PREDICTED BY IDOCK:   -6.07 KCAL/MOL
REMARK 924 INTRA-LIGAND FREE ENERGY PREDICTED BY IDOCK:   -0.68 KCAL/MOL
REMARK 927      BINDING AFFINITY PREDICTED BY RF-SCORE:    0.00 PKD
ROOT
HETATM    1  C   UNL     1     -12.671  12.352  64.580  1.00  0.00    -0.404 C  
HETATM    2  C   UNL     1     -11.620  12.570  65.664  1.00  0.00    -0.389 C  
ENDROOT
BRANCH   2   3
HETATM    3  N   UNL     1     -11.760  11.696  66.843  1.00  0.00    -0.555 NA 
BRANCH   3   4
HETATM    4  C   UNL     1     -10.798  10.576  66.871  1.00  0.00    -0.187 C  
HETATM    5  C   UNL     1     -10.032  10.301  65.577  1.00  0.00    -0.364 C  
ENDBRANCH   3   4
BRANCH   3   6
HETATM    6  C   UNL     1     -11.702  12.466  68.110  1.00  0.00    -0.353 C  
BRANCH   6   7
HETATM    7  C   UNL     1     -10.329  13.069  68.448  1.00  0.00    -0.252 C  
BRANCH   7   8
HETATM    8  N   UNL     1     -10.236  14.479  68.108  1.00  0.00    -0.226 N  
HETATM    9  C   UNL     1      -9.031  15.047  67.748  1.00  0.00    -0.179 C  
HETATM   10  H   UNL     1     -11.076  15.057  68.136  1.00  0.00     0.000 HD 
HETATM   11  O   UNL     1      -7.981  14.419  67.721  1.00  0.00    -0.131 OA 
BRANCH   9  12
HETATM   12  C   UNL     1      -9.073  16.454  67.280  1.00  0.00    -0.211 A  
HETATM   13  C   UNL     1      -8.130  17.337  67.838  1.00  0.00    -0.210 A  
HETATM   14  C   UNL     1      -8.259  18.715  67.661  1.00  0.00    -0.258 A  
HETATM   15  C   UNL     1      -9.345  19.251  66.957  1.00  0.00    -0.318 A  
HETATM   16 CL   UNL     1      -7.105  19.751  68.428  1.00  0.00    -0.333 Cl 
HETATM   17  C   UNL     1     -10.221  18.361  66.323  1.00  0.00    -0.427 A  
HETATM   18  N   UNL     1      -9.470  20.632  66.718  1.00  0.00    -0.656 NA 
HETATM   19  H1  UNL     1     -10.261  21.022  66.205  1.00  0.00     0.000 HD 
HETATM   20  C   UNL     1     -10.110  16.969  66.488  1.00  0.00    -0.314 A  
HETATM   21  H2  UNL     1      -8.616  20.946  66.258  1.00  0.00     0.000 HD 
BRANCH  20  22
HETATM   22  O   UNL     1     -11.142  16.275  65.912  1.00  0.00    -0.093 OA 
HETATM   23  C   UNL     1     -11.220  16.322  64.491  1.00  0.00    -0.207 C  
ENDBRANCH  20  22
ENDBRANCH   9  12
ENDBRANCH   7   8
ENDBRANCH   6   7
ENDBRANCH   3   6
ENDBRANCH   2   3
TORSDOF 7
ENDMDL
MODEL      111
REMARK 921   NORMALIZED FREE ENERGY PREDICTED BY IDOCK:   -4.28 KCAL/MOL
REMARK 922        TOTAL FREE ENERGY PREDICTED BY IDOCK:   -6.74 KCAL/MOL
REMARK 923 INTER-LIGAND FREE ENERGY PREDICTED BY IDOCK:   -6.41 KCAL/MOL
REMARK 924 INTRA-LIGAND FREE ENERGY PREDICTED BY IDOCK:   -0.33 KCAL/MOL
REMARK 927      BINDING AFFINITY PREDICTED BY RF-SCORE:    0.00 PKD
ROOT
HETATM    1  C   UNL     1     -10.167  20.049  69.150  1.00  0.00    -0.237 C  
HETATM    2  C   UNL     1      -9.584  18.900  68.333  1.00  0.00    -0.369 C  
ENDROOT
BRANCH   2   3
HETATM    3  N   UNL     1     -10.582  18.080  67.623  1.00  0.00    -0.413 NA 
BRANCH   3   4
HETATM    4  C   UNL     1     -10.642  18.343  66.171  1.00  0.00    -0.315 C  
HETATM    5  C   UNL     1     -10.450  19.793  65.731  1.00  0.00    -0.545 C  
ENDBRANCH   3   4
BRANCH   3   6
HETATM    6  C   UNL     1     -10.392  16.632  67.884  1.00  0.00    -0.310 C  
BRANCH   6   7
HETATM    7  C   UNL     1     -10.945  15.692  66.800  1.00  0.00    -0.230 C  
BRANCH   7   8
HETATM    8  N   UNL     1     -10.570  14.305  67.016  1.00  0.00    -0.278 N  
HETATM    9  C   UNL     1     -11.309  13.274  66.472  1.00  0.00    -0.322 C  
HETATM   10  H   UNL     1      -9.747  14.090  67.579  1.00  0.00     0.000 HD 
HETATM   11  O   UNL     1     -12.323  13.459  65.812  1.00  0.00    -0.437 OA 
BRANCH   9  12
HETATM   12  C   UNL     1     -10.759  11.906  66.630  1.00  0.00    -0.291 A  
HETATM   13  C   UNL     1     -10.077  11.365  65.524  1.00  0.00    -0.293 A  
HETATM   14  C   UNL     1      -9.758  10.007  65.483  1.00  0.00    -0.289 A  
HETATM   15  C   UNL     1     -10.142   9.147  66.521  1.00  0.00    -0.287 A  
HETATM   16 CL   UNL     1      -8.978   9.391  64.067  1.00  0.00    -0.220 Cl 
HETATM   17  C   UNL     1     -10.732   9.712  67.658  1.00  0.00    -0.324 A  
HETATM   18  N   UNL     1      -9.787   7.786  66.530  1.00  0.00    -0.375 NA 
HETATM   19  H1  UNL     1     -10.067   7.160  67.285  1.00  0.00     0.000 HD 
HETATM   20  C   UNL     1     -11.061  11.077  67.721  1.00  0.00    -0.295 A  
HETATM   21  H2  UNL     1      -8.774   7.728  66.436  1.00  0.00     0.000 HD 
BRANCH  20  22
HETATM   22  O   UNL     1     -11.762  11.410  68.850  1.00  0.00    -0.288 OA 
HETATM   23  C   UNL     1     -11.664  10.505  69.945  1.00  0.00    -0.294 C  
ENDBRANCH  20  22
ENDBRANCH   9  12
ENDBRANCH   7   8
ENDBRANCH   6   7
ENDBRANCH   3   6
ENDBRANCH   2   3
TORSDOF 7
ENDMDL
MODEL      112
REMARK 921   NORMALIZED FREE ENERGY PREDICTED BY IDOCK:   -4.27 KCAL/MOL
REMARK 922        TOTAL FREE ENERGY PREDICTED BY IDOCK:   -6.73 KCAL/MOL
REMARK 923 INTER-LIGAND FREE ENERGY PREDICTED BY IDOCK:   -6.15 KCAL/MOL
REMARK 924 INTRA-LIGAND FREE ENERGY PREDICTED BY IDOCK:   -0.57 KCAL/MOL
REMARK 927      BINDING AFFINITY PREDICTED BY RF-SCORE:    0.00 PKD
ROOT
HETATM    1  C   UNL     1      -9.702   8.995  66.785  1.00  0.00    -0.279 C  
HETATM    2  C   UNL     1      -8.617   9.869  66.163  1.00  0.00    -0.128 C  
ENDROOT
BRANCH   2   3
HETATM    3  N   UNL     1      -8.694   9.997  64.696  1.00  0.00    -0.175 NA 
BRANCH   3   4
HETATM    4  C   UNL     1      -8.147   8.833  63.969  1.00  0.00    -0.164 C  
HETATM    5  C   UNL     1      -6.641   8.833  63.715  1.00  0.00    -0.087 C  
ENDBRANCH   3   4
BRANCH   3   6
HETATM    6  C   UNL     1     -10.074  10.295  64.241  1.00  0.00    -0.121 C  
BRANCH   6   7
HETATM    7  C   UNL     1     -10.407  11.788  64.089  1.00  0.00    -0.331 C  
BRANCH   7   8
HETATM    8  N   UNL     1     -10.497  12.476  65.366  1.00  0.00    -0.276 N  
HETATM    9  C   UNL     1     -11.644  13.149  65.733  1.00  0.00    -0.347 C  
HETATM   10  H   UNL     1      -9.698  12.460  66.001  1.00  0.00     0.000 HD 
HETATM   11  O   UNL     1     -12.627  13.232  65.009  1.00  0.00    -0.538 OA 
BRANCH   9  12
HETATM   12  C   UNL     1     -11.685  13.691  67.114  1.00  0.00    -0.418 A  
HETATM   13  C   UNL     1     -11.396  15.059  67.267  1.00  0.00    -0.337 A  
HETATM   14  C   UNL     1     -11.154  15.594  68.533  1.00  0.00    -0.322 A  
HETATM   15  C   UNL     1     -11.156  14.777  69.671  1.00  0.00    -0.272 A  
HETATM   16 CL   UNL     1     -10.740  17.270  68.649  1.00  0.00    -0.320 Cl 
HETATM   17  C   UNL     1     -11.540  13.440  69.519  1.00  0.00    -0.352 A  
HETATM   18  N   UNL     1     -10.968  15.300  70.964  1.00  0.00    -0.516 NA 
HETATM   19  H1  UNL     1     -10.969  14.704  71.792  1.00  0.00     0.000 HD 
HETATM   20  C   UNL     1     -11.789  12.880  68.254  1.00  0.00    -0.330 A  
HETATM   21  H2  UNL     1     -11.662  16.033  71.107  1.00  0.00     0.000 HD 
BRANCH  20  22
HETATM   22  O   UNL     1     -12.006  11.527  68.297  1.00  0.00    -0.544 OA 
HETATM   23  C   UNL     1     -11.472  10.836  69.422  1.00  0.00    -0.295 C  
ENDBRANCH  20  22
ENDBRANCH   9  12
ENDBRANCH   7   8
ENDBRANCH   6   7
ENDBRANCH   3   6
ENDBRANCH   2   3
TORSDOF 7
ENDMDL
MODEL      113
REMARK 921   NORMALIZED FREE ENERGY PREDICTED BY IDOCK:   -4.26 KCAL/MOL
REMARK 922        TOTAL FREE ENERGY PREDICTED BY IDOCK:   -6.71 KCAL/MOL
REMARK 923 INTER-LIGAND FREE ENERGY PREDICTED BY IDOCK:   -6.23 KCAL/MOL
REMARK 924 INTRA-LIGAND FREE ENERGY PREDICTED BY IDOCK:   -0.48 KCAL/MOL
REMARK 927      BINDING AFFINITY PREDICTED BY RF-SCORE:    0.00 PKD
ROOT
HETATM    1  C   UNL     1      -7.470   6.034  68.878  1.00  0.00    -0.086 C  
HETATM    2  C   UNL     1      -8.175   7.339  69.232  1.00  0.00    -0.131 C  
ENDROOT
BRANCH   2   3
HETATM    3  N   UNL     1      -9.613   7.371  68.908  1.00  0.00    -0.148 NA 
BRANCH   3   4
HETATM    4  C   UNL     1     -10.490   7.342  70.096  1.00  0.00    -0.220 C  
HETATM    5  C   UNL     1     -11.790   6.550  69.965  1.00  0.00    -0.284 C  
ENDBRANCH   3   4
BRANCH   3   6
HETATM    6  C   UNL     1      -9.956   8.519  68.034  1.00  0.00    -0.183 C  
BRANCH   6   7
HETATM    7  C   UNL     1      -9.959   9.893  68.725  1.00  0.00    -0.173 C  
BRANCH   7   8
HETATM    8  N   UNL     1     -10.322  10.973  67.825  1.00  0.00    -0.182 N  
HETATM    9  C   UNL     1     -11.254  11.924  68.192  1.00  0.00    -0.258 C  
HETATM   10  H   UNL     1      -9.882  11.030  66.906  1.00  0.00     0.000 HD 
HETATM   11  O   UNL     1     -11.841  11.900  69.266  1.00  0.00    -0.296 OA 
BRANCH   9  12
HETATM   12  C   UNL     1     -11.444  13.063  67.262  1.00  0.00    -0.380 A  
HETATM   13  C   UNL     1     -11.904  12.756  65.968  1.00  0.00    -0.495 A  
HETATM   14  C   UNL     1     -11.862  13.714  64.955  1.00  0.00    -0.360 A  
HETATM   15  C   UNL     1     -11.328  14.988  65.192  1.00  0.00    -0.372 A  
HETATM   16 CL   UNL     1     -12.382  13.255  63.370  1.00  0.00    -0.513 Cl 
HETATM   17  C   UNL     1     -10.965  15.314  66.504  1.00  0.00    -0.295 A  
HETATM   18  N   UNL     1     -11.323  15.990  64.204  1.00  0.00    -1.134 NA 
HETATM   19  H1  UNL     1     -10.934  16.917  64.377  1.00  0.00     0.000 HD 
HETATM   20  C   UNL     1     -10.999  14.364  67.540  1.00  0.00    -0.293 A  
HETATM   21  H2  UNL     1     -12.282  16.110  63.879  1.00  0.00     0.000 HD 
BRANCH  20  22
HETATM   22  O   UNL     1     -10.468  14.829  68.715  1.00  0.00    -0.235 OA 
HETATM   23  C   UNL     1      -9.052  14.980  68.753  1.00  0.00    -0.197 C  
ENDBRANCH  20  22
ENDBRANCH   9  12
ENDBRANCH   7   8
ENDBRANCH   6   7
ENDBRANCH   3   6
ENDBRANCH   2   3
TORSDOF 7
ENDMDL
MODEL      114
REMARK 921   NORMALIZED FREE ENERGY PREDICTED BY IDOCK:   -4.23 KCAL/MOL
REMARK 922        TOTAL FREE ENERGY PREDICTED BY IDOCK:   -6.68 KCAL/MOL
REMARK 923 INTER-LIGAND FREE ENERGY PREDICTED BY IDOCK:   -5.97 KCAL/MOL
REMARK 924 INTRA-LIGAND FREE ENERGY PREDICTED BY IDOCK:   -0.71 KCAL/MOL
REMARK 927      BINDING AFFINITY PREDICTED BY RF-SCORE:    0.00 PKD
ROOT
HETATM    1  C   UNL     1     -11.533   5.479  72.481  1.00  0.00    -0.303 C  
HETATM    2  C   UNL     1     -10.943   6.839  72.842  1.00  0.00    -0.263 C  
ENDROOT
BRANCH   2   3
HETATM    3  N   UNL     1     -10.111   7.450  71.788  1.00  0.00    -0.176 NA 
BRANCH   3   4
HETATM    4  C   UNL     1      -8.665   7.206  71.958  1.00  0.00    -0.122 C  
HETATM    5  C   UNL     1      -7.851   8.335  72.589  1.00  0.00    -0.184 C  
ENDBRANCH   3   4
BRANCH   3   6
HETATM    6  C   UNL     1     -10.553   7.043  70.432  1.00  0.00    -0.223 C  
BRANCH   6   7
HETATM    7  C   UNL     1      -9.979   7.878  69.276  1.00  0.00    -0.190 C  
BRANCH   7   8
HETATM    8  N   UNL     1     -10.403   9.266  69.322  1.00  0.00    -0.209 N  
HETATM    9  C   UNL     1     -10.881   9.903  68.194  1.00  0.00    -0.234 C  
HETATM   10  H   UNL     1     -10.347   9.779  70.202  1.00  0.00     0.000 HD 
HETATM   11  O   UNL     1     -10.949   9.358  67.100  1.00  0.00    -0.154 OA 
BRANCH   9  12
HETATM   12  C   UNL     1     -11.423  11.271  68.382  1.00  0.00    -0.377 A  
HETATM   13  C   UNL     1     -11.361  12.136  67.274  1.00  0.00    -0.398 A  
HETATM   14  C   UNL     1     -11.600  13.502  67.427  1.00  0.00    -0.356 A  
HETATM   15  C   UNL     1     -11.869  14.047  68.690  1.00  0.00    -0.361 A  
HETATM   16 CL   UNL     1     -11.445  14.522  66.038  1.00  0.00    -0.345 Cl 
HETATM   17  C   UNL     1     -12.025  13.166  69.766  1.00  0.00    -0.382 A  
HETATM   18  N   UNL     1     -12.166  15.412  68.864  1.00  0.00    -0.604 NA 
HETATM   19  H1  UNL     1     -12.362  15.808  69.783  1.00  0.00     0.000 HD 
HETATM   20  C   UNL     1     -11.789  11.787  69.635  1.00  0.00    -0.339 A  
HETATM   21  H2  UNL     1     -12.950  15.640  68.253  1.00  0.00     0.000 HD 
BRANCH  20  22
HETATM   22  O   UNL     1     -11.849  11.114  70.827  1.00  0.00    -0.315 OA 
HETATM   23  C   UNL     1     -13.031  11.300  71.600  1.00  0.00    -0.432 C  
ENDBRANCH  20  22
ENDBRANCH   9  12
ENDBRANCH   7   8
ENDBRANCH   6   7
ENDBRANCH   3   6
ENDBRANCH   2   3
TORSDOF 7
ENDMDL
MODEL      115
REMARK 921   NORMALIZED FREE ENERGY PREDICTED BY IDOCK:   -4.23 KCAL/MOL
REMARK 922        TOTAL FREE ENERGY PREDICTED BY IDOCK:   -6.68 KCAL/MOL
REMARK 923 INTER-LIGAND FREE ENERGY PREDICTED BY IDOCK:   -6.19 KCAL/MOL
REMARK 924 INTRA-LIGAND FREE ENERGY PREDICTED BY IDOCK:   -0.49 KCAL/MOL
REMARK 927      BINDING AFFINITY PREDICTED BY RF-SCORE:    0.00 PKD
ROOT
HETATM    1  C   UNL     1      -7.859   8.499  72.261  1.00  0.00    -0.122 C  
HETATM    2  C   UNL     1      -9.255   8.091  71.801  1.00  0.00    -0.161 C  
ENDROOT
BRANCH   2   3
HETATM    3  N   UNL     1      -9.299   7.406  70.496  1.00  0.00    -0.158 NA 
BRANCH   3   4
HETATM    4  C   UNL     1      -9.775   6.011  70.572  1.00  0.00    -0.174 C  
HETATM    5  C   UNL     1     -10.885   5.614  69.600  1.00  0.00    -0.365 C  
ENDBRANCH   3   4
BRANCH   3   6
HETATM    6  C   UNL     1     -10.085   8.172  69.499  1.00  0.00    -0.193 C  
BRANCH   6   7
HETATM    7  C   UNL     1      -9.335   9.329  68.819  1.00  0.00    -0.139 C  
BRANCH   7   8
HETATM    8  N   UNL     1      -9.802  10.634  69.255  1.00  0.00    -0.328 N  
HETATM    9  C   UNL     1     -10.945  11.196  68.725  1.00  0.00    -0.219 C  
HETATM   10  H   UNL     1      -9.275  11.143  69.965  1.00  0.00     0.000 HD 
HETATM   11  O   UNL     1     -11.609  10.653  67.851  1.00  0.00    -0.491 OA 
BRANCH   9  12
HETATM   12  C   UNL     1     -11.414  12.460  69.342  1.00  0.00    -0.336 A  
HETATM   13  C   UNL     1     -12.173  12.348  70.522  1.00  0.00    -0.382 A  
HETATM   14  C   UNL     1     -12.870  13.447  71.023  1.00  0.00    -0.251 A  
HETATM   15  C   UNL     1     -12.861  14.674  70.346  1.00  0.00    -0.270 A  
HETATM   16 CL   UNL     1     -13.838  13.227  72.441  1.00  0.00    -0.680 Cl 
HETATM   17  C   UNL     1     -12.025  14.802  69.230  1.00  0.00    -0.329 A  
HETATM   18  N   UNL     1     -13.511  15.812  70.857  1.00  0.00    -0.723 NA 
HETATM   19  H1  UNL     1     -13.504  16.705  70.364  1.00  0.00     0.000 HD 
HETATM   20  C   UNL     1     -11.314  13.708  68.708  1.00  0.00    -0.289 A  
HETATM   21  H2  UNL     1     -13.158  15.974  71.800  1.00  0.00     0.000 HD 
BRANCH  20  22
HETATM   22  O   UNL     1     -10.671  13.995  67.532  1.00  0.00    -0.264 OA 
HETATM   23  C   UNL     1     -10.981  15.249  66.932  1.00  0.00    -0.315 C  
ENDBRANCH  20  22
ENDBRANCH   9  12
ENDBRANCH   7   8
ENDBRANCH   6   7
ENDBRANCH   3   6
ENDBRANCH   2   3
TORSDOF 7
ENDMDL
MODEL      116
REMARK 921   NORMALIZED FREE ENERGY PREDICTED BY IDOCK:   -4.21 KCAL/MOL
REMARK 922        TOTAL FREE ENERGY PREDICTED BY IDOCK:   -6.65 KCAL/MOL
REMARK 923 INTER-LIGAND FREE ENERGY PREDICTED BY IDOCK:   -5.80 KCAL/MOL
REMARK 924 INTRA-LIGAND FREE ENERGY PREDICTED BY IDOCK:   -0.85 KCAL/MOL
REMARK 927      BINDING AFFINITY PREDICTED BY RF-SCORE:    0.00 PKD
ROOT
HETATM    1  C   UNL     1     -11.229   4.601  73.155  1.00  0.00    -0.367 C  
HETATM    2  C   UNL     1     -10.778   5.053  71.770  1.00  0.00    -0.080 C  
ENDROOT
BRANCH   2   3
HETATM    3  N   UNL     1     -11.029   6.474  71.472  1.00  0.00    -0.246 NA 
BRANCH   3   4
HETATM    4  C   UNL     1     -12.122   7.065  72.271  1.00  0.00    -0.177 C  
HETATM    5  C   UNL     1     -13.526   6.983  71.674  1.00  0.00    -0.350 C  
ENDBRANCH   3   4
BRANCH   3   6
HETATM    6  C   UNL     1      -9.796   7.289  71.593  1.00  0.00    -0.165 C  
BRANCH   6   7
HETATM    7  C   UNL     1     -10.021   8.785  71.870  1.00  0.00    -0.331 C  
BRANCH   7   8
HETATM    8  N   UNL     1     -10.145   9.569  70.653  1.00  0.00    -0.282 N  
HETATM    9  C   UNL     1     -11.223  10.407  70.452  1.00  0.00    -0.321 C  
HETATM   10  H   UNL     1      -9.422   9.498  69.936  1.00  0.00     0.000 HD 
HETATM   11  O   UNL     1     -12.138  10.518  71.257  1.00  0.00    -0.354 OA 
BRANCH   9  12
HETATM   12  C   UNL     1     -11.178  11.270  69.246  1.00  0.00    -0.336 A  
HETATM   13  C   UNL     1     -11.449  12.637  69.435  1.00  0.00    -0.330 A  
HETATM   14  C   UNL     1     -11.688  13.470  68.341  1.00  0.00    -0.358 A  
HETATM   15  C   UNL     1     -11.700  12.956  67.037  1.00  0.00    -0.385 A  
HETATM   16 CL   UNL     1     -12.079  15.128  68.642  1.00  0.00    -0.246 Cl 
HETATM   17  C   UNL     1     -11.333  11.618  66.854  1.00  0.00    -0.364 A  
HETATM   18  N   UNL     1     -11.884  13.783  65.913  1.00  0.00    -0.363 NA 
HETATM   19  H1  UNL     1     -11.894  13.409  64.963  1.00  0.00     0.000 HD 
HETATM   20  C   UNL     1     -11.088  10.762  67.941  1.00  0.00    -0.308 A  
HETATM   21  H2  UNL     1     -11.181  14.520  65.950  1.00  0.00     0.000 HD 
BRANCH  20  22
HETATM   22  O   UNL     1     -10.889   9.459  67.567  1.00  0.00    -0.269 OA 
HETATM   23  C   UNL     1      -9.623   9.154  66.989  1.00  0.00    -0.170 C  
ENDBRANCH  20  22
ENDBRANCH   9  12
ENDBRANCH   7   8
ENDBRANCH   6   7
ENDBRANCH   3   6
ENDBRANCH   2   3
TORSDOF 7
ENDMDL
MODEL      117
REMARK 921   NORMALIZED FREE ENERGY PREDICTED BY IDOCK:   -4.20 KCAL/MOL
REMARK 922        TOTAL FREE ENERGY PREDICTED BY IDOCK:   -6.64 KCAL/MOL
REMARK 923 INTER-LIGAND FREE ENERGY PREDICTED BY IDOCK:   -5.72 KCAL/MOL
REMARK 924 INTRA-LIGAND FREE ENERGY PREDICTED BY IDOCK:   -0.92 KCAL/MOL
REMARK 927      BINDING AFFINITY PREDICTED BY RF-SCORE:    0.00 PKD
ROOT
HETATM    1  C   UNL     1     -10.672  11.309  64.041  1.00  0.00    -0.444 C  
HETATM    2  C   UNL     1      -9.756  10.497  64.952  1.00  0.00    -0.300 C  
ENDROOT
BRANCH   2   3
HETATM    3  N   UNL     1      -9.787  10.896  66.371  1.00  0.00    -0.200 NA 
BRANCH   3   4
HETATM    4  C   UNL     1     -10.586   9.994  67.224  1.00  0.00    -0.257 C  
HETATM    5  C   UNL     1     -10.439   8.496  66.960  1.00  0.00    -0.362 C  
ENDBRANCH   3   4
BRANCH   3   6
HETATM    6  C   UNL     1      -8.421  11.064  66.925  1.00  0.00    -0.139 C  
BRANCH   6   7
HETATM    7  C   UNL     1      -8.283  12.141  68.014  1.00  0.00    -0.158 C  
BRANCH   7   8
HETATM    8  N   UNL     1      -8.813  13.429  67.601  1.00  0.00    -0.187 N  
HETATM    9  C   UNL     1      -7.974  14.454  67.216  1.00  0.00    -0.180 C  
HETATM   10  H   UNL     1      -9.823  13.577  67.596  1.00  0.00     0.000 HD 
HETATM   11  O   UNL     1      -6.754  14.355  67.225  1.00  0.00    -0.269 OA 
BRANCH   9  12
HETATM   12  C   UNL     1      -8.620  15.675  66.675  1.00  0.00    -0.330 A  
HETATM   13  C   UNL     1      -8.124  16.911  67.129  1.00  0.00    -0.214 A  
HETATM   14  C   UNL     1      -8.828  18.090  66.884  1.00  0.00    -0.258 A  
HETATM   15  C   UNL     1     -10.059  18.066  66.216  1.00  0.00    -0.363 A  
HETATM   16 CL   UNL     1      -8.198  19.569  67.525  1.00  0.00    -0.320 Cl 
HETATM   17  C   UNL     1     -10.495  16.847  65.684  1.00  0.00    -0.252 A  
HETATM   18  N   UNL     1     -10.763  19.245  65.909  1.00  0.00    -0.436 NA 
HETATM   19  H1  UNL     1     -11.660  19.228  65.423  1.00  0.00     0.000 HD 
HETATM   20  C   UNL     1      -9.801  15.647  65.917  1.00  0.00    -0.350 A  
HETATM   21  H2  UNL     1     -10.136  19.855  65.385  1.00  0.00     0.000 HD 
BRANCH  20  22
HETATM   22  O   UNL     1     -10.459  14.543  65.441  1.00  0.00    -0.330 OA 
HETATM   23  C   UNL     1     -11.804  14.371  65.879  1.00  0.00    -0.367 C  
ENDBRANCH  20  22
ENDBRANCH   9  12
ENDBRANCH   7   8
ENDBRANCH   6   7
ENDBRANCH   3   6
ENDBRANCH   2   3
TORSDOF 7
ENDMDL
MODEL      118
REMARK 921   NORMALIZED FREE ENERGY PREDICTED BY IDOCK:   -4.20 KCAL/MOL
REMARK 922        TOTAL FREE ENERGY PREDICTED BY IDOCK:   -6.64 KCAL/MOL
REMARK 923 INTER-LIGAND FREE ENERGY PREDICTED BY IDOCK:   -5.78 KCAL/MOL
REMARK 924 INTRA-LIGAND FREE ENERGY PREDICTED BY IDOCK:   -0.86 KCAL/MOL
REMARK 927      BINDING AFFINITY PREDICTED BY RF-SCORE:    0.00 PKD
ROOT
HETATM    1  C   UNL     1     -10.532  18.847  67.207  1.00  0.00    -0.510 C  
HETATM    2  C   UNL     1      -9.642  17.608  67.176  1.00  0.00    -0.278 C  
ENDROOT
BRANCH   2   3
HETATM    3  N   UNL     1     -10.169  16.452  67.924  1.00  0.00    -0.260 NA 
BRANCH   3   4
HETATM    4  C   UNL     1     -10.772  16.810  69.224  1.00  0.00    -0.324 C  
HETATM    5  C   UNL     1     -10.870  15.693  70.261  1.00  0.00    -0.366 C  
ENDBRANCH   3   4
BRANCH   3   6
HETATM    6  C   UNL     1     -11.119  15.655  67.110  1.00  0.00    -0.218 C  
BRANCH   6   7
HETATM    7  C   UNL     1     -10.569  14.322  66.576  1.00  0.00    -0.286 C  
BRANCH   7   8
HETATM    8  N   UNL     1     -11.078  13.173  67.304  1.00  0.00    -0.271 N  
HETATM    9  C   UNL     1     -10.330  12.567  68.293  1.00  0.00    -0.236 C  
HETATM   10  H   UNL     1     -12.005  12.808  67.081  1.00  0.00     0.000 HD 
HETATM   11  O   UNL     1      -9.202  12.934  68.593  1.00  0.00    -0.102 OA 
BRANCH   9  12
HETATM   12  C   UNL     1     -11.000  11.497  69.073  1.00  0.00    -0.285 A  
HETATM   13  C   UNL     1     -11.938  11.907  70.037  1.00  0.00    -0.409 A  
HETATM   14  C   UNL     1     -12.418  11.005  70.987  1.00  0.00    -0.409 A  
HETATM   15  C   UNL     1     -11.950   9.685  71.025  1.00  0.00    -0.343 A  
HETATM   16 CL   UNL     1     -13.521  11.588  72.187  1.00  0.00    -0.410 Cl 
HETATM   17  C   UNL     1     -11.093   9.262  70.003  1.00  0.00    -0.228 A  
HETATM   18  N   UNL     1     -12.457   8.741  71.938  1.00  0.00    -0.346 NA 
HETATM   19  H1  UNL     1     -12.116   7.780  71.966  1.00  0.00     0.000 HD 
HETATM   20  C   UNL     1     -10.598  10.153  69.036  1.00  0.00    -0.223 A  
HETATM   21  H2  UNL     1     -13.469   8.709  71.823  1.00  0.00     0.000 HD 
BRANCH  20  22
HETATM   22  O   UNL     1      -9.661   9.587  68.211  1.00  0.00    -0.143 OA 
HETATM   23  C   UNL     1      -8.441   9.182  68.824  1.00  0.00    -0.130 C  
ENDBRANCH  20  22
ENDBRANCH   9  12
ENDBRANCH   7   8
ENDBRANCH   6   7
ENDBRANCH   3   6
ENDBRANCH   2   3
TORSDOF 7
ENDMDL
MODEL      119
REMARK 921   NORMALIZED FREE ENERGY PREDICTED BY IDOCK:   -4.19 KCAL/MOL
REMARK 922        TOTAL FREE ENERGY PREDICTED BY IDOCK:   -6.62 KCAL/MOL
REMARK 923 INTER-LIGAND FREE ENERGY PREDICTED BY IDOCK:   -5.76 KCAL/MOL
REMARK 924 INTRA-LIGAND FREE ENERGY PREDICTED BY IDOCK:   -0.85 KCAL/MOL
REMARK 927      BINDING AFFINITY PREDICTED BY RF-SCORE:    0.00 PKD
ROOT
HETATM    1  C   UNL     1      -8.423   8.901  64.659  1.00  0.00    -0.185 C  
HETATM    2  C   UNL     1      -8.298   9.315  66.122  1.00  0.00    -0.119 C  
ENDROOT
BRANCH   2   3
HETATM    3  N   UNL     1      -8.509   8.224  67.091  1.00  0.00    -0.122 NA 
BRANCH   3   4
HETATM    4  C   UNL     1      -9.331   7.114  66.568  1.00  0.00    -0.164 C  
HETATM    5  C   UNL     1     -10.687   6.894  67.237  1.00  0.00    -0.421 C  
ENDBRANCH   3   4
BRANCH   3   6
HETATM    6  C   UNL     1      -7.226   7.712  67.632  1.00  0.00    -0.087 C  
BRANCH   6   7
HETATM    7  C   UNL     1      -7.130   7.671  69.166  1.00  0.00    -0.077 C  
BRANCH   7   8
HETATM    8  N   UNL     1      -8.432   7.664  69.810  1.00  0.00    -0.133 N  
HETATM    9  C   UNL     1      -8.854   8.733  70.576  1.00  0.00    -0.176 C  
HETATM   10  H   UNL     1      -9.045   6.857  69.695  1.00  0.00     0.000 HD 
HETATM   11  O   UNL     1      -8.160   9.720  70.780  1.00  0.00    -0.271 OA 
BRANCH   9  12
HETATM   12  C   UNL     1     -10.253   8.689  71.066  1.00  0.00    -0.278 A  
HETATM   13  C   UNL     1     -10.994   9.882  70.978  1.00  0.00    -0.360 A  
HETATM   14  C   UNL     1     -12.212  10.010  71.645  1.00  0.00    -0.367 A  
HETATM   15  C   UNL     1     -12.707   8.970  72.445  1.00  0.00    -0.363 A  
HETATM   16 CL   UNL     1     -13.043  11.525  71.551  1.00  0.00    -0.498 Cl 
HETATM   17  C   UNL     1     -12.012   7.755  72.446  1.00  0.00    -0.338 A  
HETATM   18  N   UNL     1     -13.957   9.053  73.085  1.00  0.00    -1.215 NA 
HETATM   19  H1  UNL     1     -14.317   8.296  73.667  1.00  0.00     0.000 HD 
HETATM   20  C   UNL     1     -10.783   7.604  71.781  1.00  0.00    -0.216 A  
HETATM   21  H2  UNL     1     -14.658   9.257  72.372  1.00  0.00     0.000 HD 
BRANCH  20  22
HETATM   22  O   UNL     1     -10.187   6.393  72.020  1.00  0.00    -0.192 OA 
HETATM   23  C   UNL     1      -9.943   6.067  73.384  1.00  0.00    -0.182 C  
ENDBRANCH  20  22
ENDBRANCH   9  12
ENDBRANCH   7   8
ENDBRANCH   6   7
ENDBRANCH   3   6
ENDBRANCH   2   3
TORSDOF 7
ENDMDL
MODEL      120
REMARK 921   NORMALIZED FREE ENERGY PREDICTED BY IDOCK:   -4.19 KCAL/MOL
REMARK 922        TOTAL FREE ENERGY PREDICTED BY IDOCK:   -6.62 KCAL/MOL
REMARK 923 INTER-LIGAND FREE ENERGY PREDICTED BY IDOCK:   -6.11 KCAL/MOL
REMARK 924 INTRA-LIGAND FREE ENERGY PREDICTED BY IDOCK:   -0.50 KCAL/MOL
REMARK 927      BINDING AFFINITY PREDICTED BY RF-SCORE:    0.00 PKD
ROOT
HETATM    1  C   UNL     1      -7.570  16.162  69.169  1.00  0.00    -0.230 C  
HETATM    2  C   UNL     1      -8.248  17.398  68.588  1.00  0.00    -0.264 C  
ENDROOT
BRANCH   2   3
HETATM    3  N   UNL     1      -9.630  17.183  68.122  1.00  0.00    -0.261 NA 
BRANCH   3   4
HETATM    4  C   UNL     1     -10.286  18.407  67.621  1.00  0.00    -0.405 C  
HETATM    5  C   UNL     1     -10.201  19.643  68.516  1.00  0.00    -0.529 C  
ENDBRANCH   3   4
BRANCH   3   6
HETATM    6  C   UNL     1      -9.708  16.099  67.113  1.00  0.00    -0.233 C  
BRANCH   6   7
HETATM    7  C   UNL     1     -11.068  15.387  67.018  1.00  0.00    -0.273 C  
BRANCH   7   8
HETATM    8  N   UNL     1     -11.092  14.125  67.738  1.00  0.00    -0.269 N  
HETATM    9  C   UNL     1     -11.692  13.007  67.195  1.00  0.00    -0.382 C  
HETATM   10  H   UNL     1     -10.659  14.065  68.660  1.00  0.00     0.000 HD 
HETATM   11  O   UNL     1     -12.254  13.015  66.107  1.00  0.00    -0.422 OA 
BRANCH   9  12
HETATM   12  C   UNL     1     -11.533  11.737  67.944  1.00  0.00    -0.387 A  
HETATM   13  C   UNL     1     -12.143  11.666  69.210  1.00  0.00    -0.323 A  
HETATM   14  C   UNL     1     -11.833  10.628  70.089  1.00  0.00    -0.337 A  
HETATM   15  C   UNL     1     -10.884   9.656  69.747  1.00  0.00    -0.250 A  
HETATM   16 CL   UNL     1     -12.567  10.634  71.656  1.00  0.00    -0.504 Cl 
HETATM   17  C   UNL     1     -10.357   9.679  68.451  1.00  0.00    -0.233 A  
HETATM   18  N   UNL     1     -10.592   8.569  70.592  1.00  0.00    -0.204 NA 
HETATM   19  H1  UNL     1      -9.901   7.862  70.343  1.00  0.00     0.000 HD 
HETATM   20  C   UNL     1     -10.655  10.716  67.549  1.00  0.00    -0.252 A  
HETATM   21  H2  UNL     1     -11.469   8.090  70.796  1.00  0.00     0.000 HD 
BRANCH  20  22
HETATM   22  O   UNL     1      -9.933  10.643  66.387  1.00  0.00    -0.206 OA 
HETATM   23  C   UNL     1      -8.887   9.677  66.352  1.00  0.00    -0.150 C  
ENDBRANCH  20  22
ENDBRANCH   9  12
ENDBRANCH   7   8
ENDBRANCH   6   7
ENDBRANCH   3   6
ENDBRANCH   2   3
TORSDOF 7
ENDMDL
MODEL      121
REMARK 921   NORMALIZED FREE ENERGY PREDICTED BY IDOCK:   -4.14 KCAL/MOL
REMARK 922        TOTAL FREE ENERGY PREDICTED BY IDOCK:   -6.55 KCAL/MOL
REMARK 923 INTER-LIGAND FREE ENERGY PREDICTED BY IDOCK:   -5.91 KCAL/MOL
REMARK 924 INTRA-LIGAND FREE ENERGY PREDICTED BY IDOCK:   -0.64 KCAL/MOL
REMARK 927      BINDING AFFINITY PREDICTED BY RF-SCORE:    0.00 PKD
ROOT
HETATM    1  C   UNL     1     -13.806   9.122  72.095  1.00  0.00    -0.508 C  
HETATM    2  C   UNL     1     -13.096  10.472  72.060  1.00  0.00    -0.406 C  
ENDROOT
BRANCH   2   3
HETATM    3  N   UNL     1     -11.945  10.540  71.142  1.00  0.00    -0.353 NA 
BRANCH   3   4
HETATM    4  C   UNL     1     -11.320   9.230  70.874  1.00  0.00    -0.308 C  
HETATM    5  C   UNL     1      -9.840   9.093  71.230  1.00  0.00    -0.363 C  
ENDBRANCH   3   4
BRANCH   3   6
HETATM    6  C   UNL     1     -12.294  11.221  69.871  1.00  0.00    -0.233 C  
BRANCH   6   7
HETATM    7  C   UNL     1     -11.266  11.065  68.738  1.00  0.00    -0.266 C  
BRANCH   7   8
HETATM    8  N   UNL     1     -10.856  12.339  68.173  1.00  0.00    -0.216 N  
HETATM    9  C   UNL     1      -9.523  12.693  68.107  1.00  0.00    -0.218 C  
HETATM   10  H   UNL     1     -11.564  12.981  67.819  1.00  0.00     0.000 HD 
HETATM   11  O   UNL     1      -8.624  11.983  68.538  1.00  0.00    -0.157 OA 
BRANCH   9  12
HETATM   12  C   UNL     1      -9.203  13.946  67.381  1.00  0.00    -0.224 A  
HETATM   13  C   UNL     1      -8.314  14.836  68.011  1.00  0.00    -0.143 A  
HETATM   14  C   UNL     1      -8.160  16.138  67.537  1.00  0.00    -0.145 A  
HETATM   15  C   UNL     1      -8.912  16.600  66.448  1.00  0.00    -0.291 A  
HETATM   16 CL   UNL     1      -7.101  17.204  68.395  1.00  0.00    -0.196 Cl 
HETATM   17  C   UNL     1      -9.718  15.680  65.769  1.00  0.00    -0.380 A  
HETATM   18  N   UNL     1      -8.737  17.891  65.916  1.00  0.00    -0.501 NA 
HETATM   19  H1  UNL     1      -9.284  18.227  65.124  1.00  0.00     0.000 HD 
HETATM   20  C   UNL     1      -9.888  14.363  66.229  1.00  0.00    -0.304 A  
HETATM   21  H2  UNL     1      -7.750  18.000  65.681  1.00  0.00     0.000 HD 
BRANCH  20  22
HETATM   22  O   UNL     1     -10.827  13.661  65.519  1.00  0.00    -0.284 OA 
HETATM   23  C   UNL     1     -11.918  14.413  64.998  1.00  0.00    -0.412 C  
ENDBRANCH  20  22
ENDBRANCH   9  12
ENDBRANCH   7   8
ENDBRANCH   6   7
ENDBRANCH   3   6
ENDBRANCH   2   3
TORSDOF 7
ENDMDL
MODEL      122
REMARK 921   NORMALIZED FREE ENERGY PREDICTED BY IDOCK:   -4.14 KCAL/MOL
REMARK 922        TOTAL FREE ENERGY PREDICTED BY IDOCK:   -6.54 KCAL/MOL
REMARK 923 INTER-LIGAND FREE ENERGY PREDICTED BY IDOCK:   -5.83 KCAL/MOL
REMARK 924 INTRA-LIGAND FREE ENERGY PREDICTED BY IDOCK:   -0.71 KCAL/MOL
REMARK 927      BINDING AFFINITY PREDICTED BY RF-SCORE:    0.00 PKD
ROOT
HETATM    1  C   UNL     1     -12.370  14.109  65.277  1.00  0.00    -0.469 C  
HETATM    2  C   UNL     1     -12.367  12.590  65.129  1.00  0.00    -0.429 C  
ENDROOT
BRANCH   2   3
HETATM    3  N   UNL     1     -11.396  11.888  65.987  1.00  0.00    -0.335 NA 
BRANCH   3   4
HETATM    4  C   UNL     1     -10.129  11.558  65.304  1.00  0.00    -0.269 C  
HETATM    5  C   UNL     1      -9.752  10.078  65.244  1.00  0.00    -0.373 C  
ENDBRANCH   3   4
BRANCH   3   6
HETATM    6  C   UNL     1     -11.133  12.632  67.243  1.00  0.00    -0.278 C  
BRANCH   6   7
HETATM    7  C   UNL     1     -11.866  12.102  68.486  1.00  0.00    -0.310 C  
BRANCH   7   8
HETATM    8  N   UNL     1     -11.324  10.841  68.963  1.00  0.00    -0.262 N  
HETATM    9  C   UNL     1     -11.737  10.296  70.162  1.00  0.00    -0.284 C  
HETATM   10  H   UNL     1     -10.628  10.351  68.402  1.00  0.00     0.000 HD 
HETATM   11  O   UNL     1     -12.547  10.843  70.898  1.00  0.00    -0.345 OA 
BRANCH   9  12
HETATM   12  C   UNL     1     -11.233   8.939  70.484  1.00  0.00    -0.287 A  
HETATM   13  C   UNL     1     -11.193   8.583  71.845  1.00  0.00    -0.397 A  
HETATM   14  C   UNL     1     -10.499   7.446  72.260  1.00  0.00    -0.223 A  
HETATM   15  C   UNL     1      -9.797   6.656  71.339  1.00  0.00    -0.179 A  
HETATM   16 CL   UNL     1     -10.432   7.099  73.954  1.00  0.00    -0.382 Cl 
HETATM   17  C   UNL     1      -9.925   6.963  69.979  1.00  0.00    -0.190 A  
HETATM   18  N   UNL     1      -9.134   5.476  71.723  1.00  0.00    -0.139 NA 
HETATM   19  H1  UNL     1      -8.623   4.901  71.052  1.00  0.00     0.000 HD 
HETATM   20  C   UNL     1     -10.619   8.103  69.539  1.00  0.00    -0.213 A  
HETATM   21  H2  UNL     1      -9.813   4.877  72.193  1.00  0.00     0.000 HD 
BRANCH  20  22
HETATM   22  O   UNL     1     -10.509   8.312  68.189  1.00  0.00    -0.211 OA 
HETATM   23  C   UNL     1     -10.312   7.155  67.383  1.00  0.00    -0.254 C  
ENDBRANCH  20  22
ENDBRANCH   9  12
ENDBRANCH   7   8
ENDBRANCH   6   7
ENDBRANCH   3   6
ENDBRANCH   2   3
TORSDOF 7
ENDMDL
MODEL      123
REMARK 921   NORMALIZED FREE ENERGY PREDICTED BY IDOCK:   -4.14 KCAL/MOL
REMARK 922        TOTAL FREE ENERGY PREDICTED BY IDOCK:   -6.54 KCAL/MOL
REMARK 923 INTER-LIGAND FREE ENERGY PREDICTED BY IDOCK:   -5.73 KCAL/MOL
REMARK 924 INTRA-LIGAND FREE ENERGY PREDICTED BY IDOCK:   -0.81 KCAL/MOL
REMARK 927      BINDING AFFINITY PREDICTED BY RF-SCORE:    0.00 PKD
ROOT
HETATM    1  C   UNL     1     -11.765  12.099  69.591  1.00  0.00    -0.396 C  
HETATM    2  C   UNL     1     -11.790  12.132  68.066  1.00  0.00    -0.285 C  
ENDROOT
BRANCH   2   3
HETATM    3  N   UNL     1     -10.701  11.380  67.416  1.00  0.00    -0.218 NA 
BRANCH   3   4
HETATM    4  C   UNL     1     -10.713  11.473  65.942  1.00  0.00    -0.272 C  
HETATM    5  C   UNL     1     -11.876  12.241  65.315  1.00  0.00    -0.411 C  
ENDBRANCH   3   4
BRANCH   3   6
HETATM    6  C   UNL     1      -9.372  11.760  67.952  1.00  0.00    -0.184 C  
BRANCH   6   7
HETATM    7  C   UNL     1      -8.552  12.709  67.063  1.00  0.00    -0.181 C  
BRANCH   7   8
HETATM    8  N   UNL     1      -8.851  14.109  67.312  1.00  0.00    -0.207 N  
HETATM    9  C   UNL     1      -9.416  14.901  66.333  1.00  0.00    -0.300 C  
HETATM   10  H   UNL     1      -8.639  14.512  68.224  1.00  0.00     0.000 HD 
HETATM   11  O   UNL     1      -9.670  14.490  65.208  1.00  0.00    -0.255 OA 
BRANCH   9  12
HETATM   12  C   UNL     1      -9.815  16.272  66.735  1.00  0.00    -0.254 A  
HETATM   13  C   UNL     1      -9.081  17.335  66.180  1.00  0.00    -0.193 A  
HETATM   14  C   UNL     1      -9.206  18.627  66.692  1.00  0.00    -0.321 A  
HETATM   15  C   UNL     1     -10.035  18.887  67.791  1.00  0.00    -0.355 A  
HETATM   16 CL   UNL     1      -8.226  19.879  66.008  1.00  0.00    -0.355 Cl 
HETATM   17  C   UNL     1     -10.834  17.843  68.273  1.00  0.00    -0.127 A  
HETATM   18  N   UNL     1     -10.220  20.188  68.294  1.00  0.00    -0.391 NA 
HETATM   19  H1  UNL     1     -10.823  20.377  69.094  1.00  0.00     0.000 HD 
HETATM   20  C   UNL     1     -10.724  16.535  67.771  1.00  0.00    -0.329 A  
HETATM   21  H2  UNL     1     -10.533  20.777  67.522  1.00  0.00     0.000 HD 
BRANCH  20  22
HETATM   22  O   UNL     1     -11.479  15.627  68.467  1.00  0.00    -0.344 OA 
HETATM   23  C   UNL     1     -11.576  15.830  69.873  1.00  0.00    -0.351 C  
ENDBRANCH  20  22
ENDBRANCH   9  12
ENDBRANCH   7   8
ENDBRANCH   6   7
ENDBRANCH   3   6
ENDBRANCH   2   3
TORSDOF 7
ENDMDL
MODEL      124
REMARK 921   NORMALIZED FREE ENERGY PREDICTED BY IDOCK:   -4.13 KCAL/MOL
REMARK 922        TOTAL FREE ENERGY PREDICTED BY IDOCK:   -6.54 KCAL/MOL
REMARK 923 INTER-LIGAND FREE ENERGY PREDICTED BY IDOCK:   -6.06 KCAL/MOL
REMARK 924 INTRA-LIGAND FREE ENERGY PREDICTED BY IDOCK:   -0.47 KCAL/MOL
REMARK 927      BINDING AFFINITY PREDICTED BY RF-SCORE:    0.00 PKD
ROOT
HETATM    1  C   UNL     1     -12.224  13.234  64.271  1.00  0.00    -0.454 C  
HETATM    2  C   UNL     1     -12.539  13.618  65.713  1.00  0.00    -0.461 C  
ENDROOT
BRANCH   2   3
HETATM    3  N   UNL     1     -11.924  12.747  66.731  1.00  0.00    -0.466 NA 
BRANCH   3   4
HETATM    4  C   UNL     1     -10.966  11.770  66.177  1.00  0.00    -0.307 C  
HETATM    5  C   UNL     1     -10.957  10.383  66.819  1.00  0.00    -0.116 C  
ENDBRANCH   3   4
BRANCH   3   6
HETATM    6  C   UNL     1     -11.296  13.533  67.821  1.00  0.00    -0.296 C  
BRANCH   6   7
HETATM    7  C   UNL     1     -11.886  13.300  69.222  1.00  0.00    -0.331 C  
BRANCH   7   8
HETATM    8  N   UNL     1     -11.309  12.146  69.890  1.00  0.00    -0.506 N  
HETATM    9  C   UNL     1     -12.102  11.248  70.574  1.00  0.00    -0.387 C  
HETATM   10  H   UNL     1     -10.300  11.997  69.852  1.00  0.00     0.000 HD 
HETATM   11  O   UNL     1     -13.314  11.381  70.684  1.00  0.00     0.208 OA 
BRANCH   9  12
HETATM   12  C   UNL     1     -11.434  10.030  71.093  1.00  0.00    -0.432 A  
HETATM   13  C   UNL     1     -10.142   9.760  70.608  1.00  0.00    -0.252 A  
HETATM   14  C   UNL     1      -9.546   8.518  70.831  1.00  0.00    -0.185 A  
HETATM   15  C   UNL     1     -10.234   7.503  71.510  1.00  0.00    -0.188 A  
HETATM   16 CL   UNL     1      -7.982   8.225  70.152  1.00  0.00    -0.103 Cl 
HETATM   17  C   UNL     1     -11.477   7.815  72.073  1.00  0.00    -0.337 A  
HETATM   18  N   UNL     1      -9.637   6.261  71.795  1.00  0.00    -0.154 NA 
HETATM   19  H1  UNL     1     -10.138   5.522  72.289  1.00  0.00     0.000 HD 
HETATM   20  C   UNL     1     -12.095   9.059  71.861  1.00  0.00    -0.378 A  
HETATM   21  H2  UNL     1      -8.770   6.442  72.301  1.00  0.00     0.000 HD 
BRANCH  20  22
HETATM   22  O   UNL     1     -13.367   9.122  72.367  1.00  0.00    -0.434 OA 
HETATM   23  C   UNL     1     -14.339   8.291  71.739  1.00  0.00    -0.483 C  
ENDBRANCH  20  22
ENDBRANCH   9  12
ENDBRANCH   7   8
ENDBRANCH   6   7
ENDBRANCH   3   6
ENDBRANCH   2   3
TORSDOF 7
ENDMDL
MODEL      125
REMARK 921   NORMALIZED FREE ENERGY PREDICTED BY IDOCK:   -4.13 KCAL/MOL
REMARK 922        TOTAL FREE ENERGY PREDICTED BY IDOCK:   -6.53 KCAL/MOL
REMARK 923 INTER-LIGAND FREE ENERGY PREDICTED BY IDOCK:   -5.91 KCAL/MOL
REMARK 924 INTRA-LIGAND FREE ENERGY PREDICTED BY IDOCK:   -0.63 KCAL/MOL
REMARK 927      BINDING AFFINITY PREDICTED BY RF-SCORE:    0.00 PKD
ROOT
HETATM    1  C   UNL     1     -11.975  13.343  67.940  1.00  0.00    -0.360 C  
HETATM    2  C   UNL     1     -10.799  14.286  68.173  1.00  0.00    -0.244 C  
ENDROOT
BRANCH   2   3
HETATM    3  N   UNL     1      -9.639  14.054  67.293  1.00  0.00    -0.232 NA 
BRANCH   3   4
HETATM    4  C   UNL     1      -9.102  15.285  66.679  1.00  0.00    -0.282 C  
HETATM    5  C   UNL     1      -7.648  15.628  66.996  1.00  0.00    -0.245 C  
ENDBRANCH   3   4
BRANCH   3   6
HETATM    6  C   UNL     1      -8.563  13.305  67.987  1.00  0.00    -0.178 C  
BRANCH   6   7
HETATM    7  C   UNL     1      -8.694  11.774  67.944  1.00  0.00    -0.164 C  
BRANCH   7   8
HETATM    8  N   UNL     1      -9.046  11.204  69.233  1.00  0.00    -0.392 N  
HETATM    9  C   UNL     1     -10.078  10.296  69.352  1.00  0.00    -0.235 C  
HETATM   10  H   UNL     1      -8.521  11.480  70.063  1.00  0.00     0.000 HD 
HETATM   11  O   UNL     1     -10.766   9.942  68.404  1.00  0.00    -0.218 OA 
BRANCH   9  12
HETATM   12  C   UNL     1     -10.259   9.666  70.683  1.00  0.00    -0.346 A  
HETATM   13  C   UNL     1      -9.167   8.944  71.198  1.00  0.00    -0.324 A  
HETATM   14  C   UNL     1      -9.326   8.109  72.303  1.00  0.00    -0.224 A  
HETATM   15  C   UNL     1     -10.583   7.941  72.901  1.00  0.00    -0.368 A  
HETATM   16 CL   UNL     1      -7.959   7.199  72.848  1.00  0.00    -0.110 Cl 
HETATM   17  C   UNL     1     -11.640   8.736  72.444  1.00  0.00    -0.321 A  
HETATM   18  N   UNL     1     -10.761   7.146  74.049  1.00  0.00    -0.556 NA 
HETATM   19  H1  UNL     1     -11.676   7.024  74.484  1.00  0.00     0.000 HD 
HETATM   20  C   UNL     1     -11.501   9.585  71.332  1.00  0.00    -0.392 A  
HETATM   21  H2  UNL     1     -10.119   7.486  74.765  1.00  0.00     0.000 HD 
BRANCH  20  22
HETATM   22  O   UNL     1     -12.681  10.167  70.948  1.00  0.00    -0.335 OA 
HETATM   23  C   UNL     1     -12.884  11.515  71.360  1.00  0.00    -0.384 C  
ENDBRANCH  20  22
ENDBRANCH   9  12
ENDBRANCH   7   8
ENDBRANCH   6   7
ENDBRANCH   3   6
ENDBRANCH   2   3
TORSDOF 7
ENDMDL
MODEL      126
REMARK 921   NORMALIZED FREE ENERGY PREDICTED BY IDOCK:   -4.11 KCAL/MOL
REMARK 922        TOTAL FREE ENERGY PREDICTED BY IDOCK:   -6.50 KCAL/MOL
REMARK 923 INTER-LIGAND FREE ENERGY PREDICTED BY IDOCK:   -5.89 KCAL/MOL
REMARK 924 INTRA-LIGAND FREE ENERGY PREDICTED BY IDOCK:   -0.61 KCAL/MOL
REMARK 927      BINDING AFFINITY PREDICTED BY RF-SCORE:    0.00 PKD
ROOT
HETATM    1  C   UNL     1     -11.364  10.666  70.076  1.00  0.00    -0.400 C  
HETATM    2  C   UNL     1     -10.685   9.575  69.255  1.00  0.00    -0.222 C  
ENDROOT
BRANCH   2   3
HETATM    3  N   UNL     1      -9.434   9.053  69.836  1.00  0.00    -0.168 NA 
BRANCH   3   4
HETATM    4  C   UNL     1      -8.896   7.874  69.128  1.00  0.00    -0.142 C  
HETATM    5  C   UNL     1      -9.031   6.530  69.842  1.00  0.00    -0.143 C  
ENDBRANCH   3   4
BRANCH   3   6
HETATM    6  C   UNL     1      -8.399  10.109  69.953  1.00  0.00    -0.089 C  
BRANCH   6   7
HETATM    7  C   UNL     1      -7.790  10.581  68.622  1.00  0.00    -0.116 C  
BRANCH   7   8
HETATM    8  N   UNL     1      -8.638  11.531  67.923  1.00  0.00    -0.137 N  
HETATM    9  C   UNL     1      -9.073  11.286  66.636  1.00  0.00    -0.179 C  
HETATM   10  H   UNL     1      -8.917  12.394  68.391  1.00  0.00     0.000 HD 
HETATM   11  O   UNL     1      -8.754  10.286  66.005  1.00  0.00    -0.143 OA 
BRANCH   9  12
HETATM   12  C   UNL     1     -10.050  12.247  66.069  1.00  0.00    -0.269 A  
HETATM   13  C   UNL     1     -11.030  11.721  65.207  1.00  0.00    -0.350 A  
HETATM   14  C   UNL     1     -11.818  12.569  64.429  1.00  0.00    -0.386 A  
HETATM   15  C   UNL     1     -11.627  13.957  64.460  1.00  0.00    -0.393 A  
HETATM   16 CL   UNL     1     -12.959  11.859  63.340  1.00  0.00    -0.484 Cl 
HETATM   17  C   UNL     1     -10.719  14.475  65.392  1.00  0.00    -0.372 A  
HETATM   18  N   UNL     1     -12.443  14.839  63.727  1.00  0.00    -1.063 NA 
HETATM   19  H1  UNL     1     -12.303  15.849  63.749  1.00  0.00     0.000 HD 
HETATM   20  C   UNL     1      -9.916  13.639  66.186  1.00  0.00    -0.306 A  
HETATM   21  H2  UNL     1     -13.412  14.652  63.984  1.00  0.00     0.000 HD 
BRANCH  20  22
HETATM   22  O   UNL     1      -8.990  14.326  66.926  1.00  0.00    -0.231 OA 
HETATM   23  C   UNL     1      -8.853  15.714  66.637  1.00  0.00    -0.292 C  
ENDBRANCH  20  22
ENDBRANCH   9  12
ENDBRANCH   7   8
ENDBRANCH   6   7
ENDBRANCH   3   6
ENDBRANCH   2   3
TORSDOF 7
ENDMDL
MODEL      127
REMARK 921   NORMALIZED FREE ENERGY PREDICTED BY IDOCK:   -4.08 KCAL/MOL
REMARK 922        TOTAL FREE ENERGY PREDICTED BY IDOCK:   -6.46 KCAL/MOL
REMARK 923 INTER-LIGAND FREE ENERGY PREDICTED BY IDOCK:   -6.08 KCAL/MOL
REMARK 924 INTRA-LIGAND FREE ENERGY PREDICTED BY IDOCK:   -0.38 KCAL/MOL
REMARK 927      BINDING AFFINITY PREDICTED BY RF-SCORE:    0.00 PKD
ROOT
HETATM    1  C   UNL     1      -8.161   6.681  65.149  1.00  0.00    -0.118 C  
HETATM    2  C   UNL     1      -8.966   7.826  65.754  1.00  0.00    -0.066 C  
ENDROOT
BRANCH   2   3
HETATM    3  N   UNL     1      -8.392   9.166  65.535  1.00  0.00    -0.125 NA 
BRANCH   3   4
HETATM    4  C   UNL     1      -9.257  10.061  64.740  1.00  0.00    -0.249 C  
HETATM    5  C   UNL     1      -9.078  10.013  63.223  1.00  0.00    -0.300 C  
ENDBRANCH   3   4
BRANCH   3   6
HETATM    6  C   UNL     1      -8.004   9.815  66.811  1.00  0.00    -0.105 C  
BRANCH   6   7
HETATM    7  C   UNL     1      -8.930  10.948  67.280  1.00  0.00    -0.137 C  
BRANCH   7   8
HETATM    8  N   UNL     1     -10.024  10.473  68.110  1.00  0.00    -0.150 N  
HETATM    9  C   UNL     1      -9.792   9.970  69.375  1.00  0.00    -0.224 C  
HETATM   10  H   UNL     1     -10.978  10.511  67.752  1.00  0.00     0.000 HD 
HETATM   11  O   UNL     1      -8.671   9.869  69.855  1.00  0.00    -0.205 OA 
BRANCH   9  12
HETATM   12  C   UNL     1     -10.987   9.649  70.193  1.00  0.00    -0.320 A  
HETATM   13  C   UNL     1     -11.759  10.736  70.642  1.00  0.00    -0.442 A  
HETATM   14  C   UNL     1     -12.736  10.555  71.621  1.00  0.00    -0.445 A  
HETATM   15  C   UNL     1     -12.943   9.297  72.205  1.00  0.00    -0.424 A  
HETATM   16 CL   UNL     1     -13.606  11.942  72.178  1.00  0.00    -0.371 Cl 
HETATM   17  C   UNL     1     -12.240   8.206  71.682  1.00  0.00    -0.343 A  
HETATM   18  N   UNL     1     -13.957   9.075  73.155  1.00  0.00    -1.215 NA 
HETATM   19  H1  UNL     1     -14.108   8.160  73.580  1.00  0.00     0.000 HD 
HETATM   20  C   UNL     1     -11.252   8.366  70.695  1.00  0.00    -0.255 A  
HETATM   21  H2  UNL     1     -14.840   9.378  72.744  1.00  0.00     0.000 HD 
BRANCH  20  22
HETATM   22  O   UNL     1     -10.574   7.207  70.419  1.00  0.00    -0.215 OA 
HETATM   23  C   UNL     1     -11.041   6.452  69.306  1.00  0.00    -0.373 C  
ENDBRANCH  20  22
ENDBRANCH   9  12
ENDBRANCH   7   8
ENDBRANCH   6   7
ENDBRANCH   3   6
ENDBRANCH   2   3
TORSDOF 7
ENDMDL
MODEL      128
REMARK 921   NORMALIZED FREE ENERGY PREDICTED BY IDOCK:   -4.07 KCAL/MOL
REMARK 922        TOTAL FREE ENERGY PREDICTED BY IDOCK:   -6.45 KCAL/MOL
REMARK 923 INTER-LIGAND FREE ENERGY PREDICTED BY IDOCK:   -5.81 KCAL/MOL
REMARK 924 INTRA-LIGAND FREE ENERGY PREDICTED BY IDOCK:   -0.64 KCAL/MOL
REMARK 927      BINDING AFFINITY PREDICTED BY RF-SCORE:    0.00 PKD
ROOT
HETATM    1  C   UNL     1      -8.817   9.529  62.884  1.00  0.00    -0.242 C  
HETATM    2  C   UNL     1      -9.795  10.605  63.347  1.00  0.00    -0.321 C  
ENDROOT
BRANCH   2   3
HETATM    3  N   UNL     1     -10.128  10.559  64.782  1.00  0.00    -0.338 NA 
BRANCH   3   4
HETATM    4  C   UNL     1      -9.776   9.282  65.434  1.00  0.00    -0.099 C  
HETATM    5  C   UNL     1     -10.194   9.122  66.895  1.00  0.00    -0.336 C  
ENDBRANCH   3   4
BRANCH   3   6
HETATM    6  C   UNL     1      -9.539  11.702  65.522  1.00  0.00    -0.218 C  
BRANCH   6   7
HETATM    7  C   UNL     1     -10.172  13.072  65.226  1.00  0.00    -0.279 C  
BRANCH   7   8
HETATM    8  N   UNL     1      -9.561  14.148  65.987  1.00  0.00    -0.469 N  
HETATM    9  C   UNL     1      -9.863  15.469  65.722  1.00  0.00    -0.357 C  
HETATM   10  H   UNL     1      -8.899  13.924  66.730  1.00  0.00     0.000 HD 
HETATM   11  O   UNL     1     -10.626  15.810  64.829  1.00  0.00    -0.504 OA 
BRANCH   9  12
HETATM   12  C   UNL     1      -9.300  16.479  66.651  1.00  0.00    -0.279 A  
HETATM   13  C   UNL     1     -10.014  17.683  66.788  1.00  0.00    -0.320 A  
HETATM   14  C   UNL     1      -9.437  18.782  67.425  1.00  0.00    -0.297 A  
HETATM   15  C   UNL     1      -8.122  18.723  67.907  1.00  0.00    -0.261 A  
HETATM   16 CL   UNL     1     -10.343  20.254  67.503  1.00  0.00    -0.470 Cl 
HETATM   17  C   UNL     1      -7.456  17.493  67.853  1.00  0.00    -0.206 A  
HETATM   18  N   UNL     1      -7.534  19.798  68.599  1.00  0.00    -0.319 NA 
HETATM   19  H1  UNL     1      -6.577  19.755  68.950  1.00  0.00     0.000 HD 
HETATM   20  C   UNL     1      -8.020  16.373  67.217  1.00  0.00    -0.168 A  
HETATM   21  H2  UNL     1      -8.143  20.033  69.383  1.00  0.00     0.000 HD 
BRANCH  20  22
HETATM   22  O   UNL     1      -7.160  15.309  67.138  1.00  0.00    -0.183 OA 
HETATM   23  C   UNL     1      -5.933  15.433  67.851  1.00  0.00    -0.149 C  
ENDBRANCH  20  22
ENDBRANCH   9  12
ENDBRANCH   7   8
ENDBRANCH   6   7
ENDBRANCH   3   6
ENDBRANCH   2   3
TORSDOF 7
ENDMDL
MODEL      129
REMARK 921   NORMALIZED FREE ENERGY PREDICTED BY IDOCK:   -4.06 KCAL/MOL
REMARK 922        TOTAL FREE ENERGY PREDICTED BY IDOCK:   -6.44 KCAL/MOL
REMARK 923 INTER-LIGAND FREE ENERGY PREDICTED BY IDOCK:   -6.18 KCAL/MOL
REMARK 924 INTRA-LIGAND FREE ENERGY PREDICTED BY IDOCK:   -0.25 KCAL/MOL
REMARK 927      BINDING AFFINITY PREDICTED BY RF-SCORE:    0.00 PKD
ROOT
HETATM    1  C   UNL     1      -9.112  15.476  67.181  1.00  0.00    -0.233 C  
HETATM    2  C   UNL     1      -9.731  14.161  66.716  1.00  0.00    -0.277 C  
ENDROOT
BRANCH   2   3
HETATM    3  N   UNL     1     -11.121  13.945  67.158  1.00  0.00    -0.294 NA 
BRANCH   3   4
HETATM    4  C   UNL     1     -12.131  14.365  66.166  1.00  0.00    -0.357 C  
HETATM    5  C   UNL     1     -12.135  13.615  64.835  1.00  0.00    -0.426 C  
ENDBRANCH   3   4
BRANCH   3   6
HETATM    6  C   UNL     1     -11.353  12.541  67.577  1.00  0.00    -0.312 C  
BRANCH   6   7
HETATM    7  C   UNL     1     -11.985  12.367  68.967  1.00  0.00    -0.241 C  
BRANCH   7   8
HETATM    8  N   UNL     1     -11.403  11.266  69.715  1.00  0.00    -0.362 N  
HETATM    9  C   UNL     1     -11.992  10.801  70.874  1.00  0.00    -0.333 C  
HETATM   10  H   UNL     1     -10.544  10.830  69.378  1.00  0.00     0.000 HD 
HETATM   11  O   UNL     1     -13.005  11.295  71.350  1.00  0.00    -0.407 OA 
BRANCH   9  12
HETATM   12  C   UNL     1     -11.400   9.583  71.478  1.00  0.00    -0.456 A  
HETATM   13  C   UNL     1     -10.049   9.321  71.186  1.00  0.00    -0.374 A  
HETATM   14  C   UNL     1      -9.486   8.081  71.487  1.00  0.00    -0.160 A  
HETATM   15  C   UNL     1     -10.260   7.058  72.051  1.00  0.00    -0.190 A  
HETATM   16 CL   UNL     1      -7.838   7.798  71.042  1.00  0.00    -0.087 Cl 
HETATM   17  C   UNL     1     -11.574   7.361  72.428  1.00  0.00    -0.327 A  
HETATM   18  N   UNL     1      -9.705   5.817  72.414  1.00  0.00    -0.159 NA 
HETATM   19  H1  UNL     1     -10.269   5.073  72.825  1.00  0.00     0.000 HD 
HETATM   20  C   UNL     1     -12.161   8.604  72.135  1.00  0.00    -0.386 A  
HETATM   21  H2  UNL     1      -8.923   5.998  73.043  1.00  0.00     0.000 HD 
BRANCH  20  22
HETATM   22  O   UNL     1     -13.494   8.658  72.449  1.00  0.00    -0.369 OA 
HETATM   23  C   UNL     1     -14.383   8.008  71.546  1.00  0.00    -0.434 C  
ENDBRANCH  20  22
ENDBRANCH   9  12
ENDBRANCH   7   8
ENDBRANCH   6   7
ENDBRANCH   3   6
ENDBRANCH   2   3
TORSDOF 7
ENDMDL
MODEL      130
REMARK 921   NORMALIZED FREE ENERGY PREDICTED BY IDOCK:   -4.04 KCAL/MOL
REMARK 922        TOTAL FREE ENERGY PREDICTED BY IDOCK:   -6.41 KCAL/MOL
REMARK 923 INTER-LIGAND FREE ENERGY PREDICTED BY IDOCK:   -5.56 KCAL/MOL
REMARK 924 INTRA-LIGAND FREE ENERGY PREDICTED BY IDOCK:   -0.85 KCAL/MOL
REMARK 927      BINDING AFFINITY PREDICTED BY RF-SCORE:    0.00 PKD
ROOT
HETATM    1  C   UNL     1      -9.418   9.142  65.969  1.00  0.00    -0.321 C  
HETATM    2  C   UNL     1     -10.477   9.553  66.987  1.00  0.00    -0.232 C  
ENDROOT
BRANCH   2   3
HETATM    3  N   UNL     1     -10.223  10.842  67.656  1.00  0.00    -0.182 NA 
BRANCH   3   4
HETATM    4  C   UNL     1     -11.244  11.202  68.660  1.00  0.00    -0.255 C  
HETATM    5  C   UNL     1     -11.583  12.686  68.787  1.00  0.00    -0.355 C  
ENDBRANCH   3   4
BRANCH   3   6
HETATM    6  C   UNL     1      -8.865  10.895  68.251  1.00  0.00    -0.140 C  
BRANCH   6   7
HETATM    7  C   UNL     1      -7.852  11.773  67.497  1.00  0.00    -0.148 C  
BRANCH   7   8
HETATM    8  N   UNL     1      -8.451  12.977  66.949  1.00  0.00    -0.390 N  
HETATM    9  C   UNL     1      -8.473  14.154  67.670  1.00  0.00    -0.185 C  
HETATM   10  H   UNL     1      -8.862  12.953  66.015  1.00  0.00     0.000 HD 
HETATM   11  O   UNL     1      -8.023  14.247  68.805  1.00  0.00    -0.139 OA 
BRANCH   9  12
HETATM   12  C   UNL     1      -8.974  15.358  66.964  1.00  0.00    -0.253 A  
HETATM   13  C   UNL     1      -8.637  16.606  67.520  1.00  0.00    -0.199 A  
HETATM   14  C   UNL     1      -9.272  17.770  67.086  1.00  0.00    -0.253 A  
HETATM   15  C   UNL     1     -10.283  17.718  66.116  1.00  0.00    -0.339 A  
HETATM   16 CL   UNL     1      -8.861  19.264  67.855  1.00  0.00    -0.343 Cl 
HETATM   17  C   UNL     1     -10.541  16.487  65.501  1.00  0.00    -0.310 A  
HETATM   18  N   UNL     1     -10.902  18.881  65.622  1.00  0.00    -0.401 NA 
HETATM   19  H1  UNL     1     -11.638  18.843  64.917  1.00  0.00     0.000 HD 
HETATM   20  C   UNL     1      -9.913  15.302  65.922  1.00  0.00    -0.340 A  
HETATM   21  H2  UNL     1     -10.169  19.500  65.275  1.00  0.00     0.000 HD 
BRANCH  20  22
HETATM   22  O   UNL     1     -10.402  14.183  65.301  1.00  0.00    -0.344 OA 
HETATM   23  C   UNL     1     -11.663  14.320  64.654  1.00  0.00    -0.430 C  
ENDBRANCH  20  22
ENDBRANCH   9  12
ENDBRANCH   7   8
ENDBRANCH   6   7
ENDBRANCH   3   6
ENDBRANCH   2   3
TORSDOF 7
ENDMDL
MODEL      131
REMARK 921   NORMALIZED FREE ENERGY PREDICTED BY IDOCK:   -4.04 KCAL/MOL
REMARK 922        TOTAL FREE ENERGY PREDICTED BY IDOCK:   -6.40 KCAL/MOL
REMARK 923 INTER-LIGAND FREE ENERGY PREDICTED BY IDOCK:   -5.83 KCAL/MOL
REMARK 924 INTRA-LIGAND FREE ENERGY PREDICTED BY IDOCK:   -0.57 KCAL/MOL
REMARK 927      BINDING AFFINITY PREDICTED BY RF-SCORE:    0.00 PKD
ROOT
HETATM    1  C   UNL     1      -8.411   4.681  66.895  1.00  0.00    -0.106 C  
HETATM    2  C   UNL     1      -9.901   4.909  67.130  1.00  0.00    -0.190 C  
ENDROOT
BRANCH   2   3
HETATM    3  N   UNL     1     -10.294   5.002  68.548  1.00  0.00    -0.081 NA 
BRANCH   3   4
HETATM    4  C   UNL     1      -9.167   4.839  69.489  1.00  0.00    -0.120 C  
HETATM    5  C   UNL     1      -9.459   4.071  70.778  1.00  0.00    -0.240 C  
ENDBRANCH   3   4
BRANCH   3   6
HETATM    6  C   UNL     1     -11.036   6.254  68.834  1.00  0.00    -0.368 C  
BRANCH   6   7
HETATM    7  C   UNL     1     -10.190   7.538  68.811  1.00  0.00    -0.197 C  
BRANCH   7   8
HETATM    8  N   UNL     1     -10.706   8.534  67.888  1.00  0.00    -0.461 N  
HETATM    9  C   UNL     1     -10.247   9.835  67.914  1.00  0.00    -0.194 C  
HETATM   10  H   UNL     1     -11.420   8.266  67.210  1.00  0.00     0.000 HD 
HETATM   11  O   UNL     1      -9.414  10.231  68.719  1.00  0.00    -0.160 OA 
BRANCH   9  12
HETATM   12  C   UNL     1     -10.730  10.733  66.837  1.00  0.00    -0.309 A  
HETATM   13  C   UNL     1     -10.159  10.560  65.563  1.00  0.00    -0.349 A  
HETATM   14  C   UNL     1     -10.353  11.515  64.564  1.00  0.00    -0.302 A  
HETATM   15  C   UNL     1     -11.087  12.681  64.817  1.00  0.00    -0.300 A  
HETATM   16 CL   UNL     1      -9.570  11.277  63.039  1.00  0.00    -0.377 Cl 
HETATM   17  C   UNL     1     -11.732  12.796  66.054  1.00  0.00    -0.470 A  
HETATM   18  N   UNL     1     -11.343  13.633  63.814  1.00  0.00    -0.567 NA 
HETATM   19  H1  UNL     1     -11.877  14.483  63.998  1.00  0.00     0.000 HD 
HETATM   20  C   UNL     1     -11.551  11.846  67.075  1.00  0.00    -0.291 A  
HETATM   21  H2  UNL     1     -11.786  13.150  63.032  1.00  0.00     0.000 HD 
BRANCH  20  22
HETATM   22  O   UNL     1     -12.143  12.206  68.257  1.00  0.00    -0.407 OA 
HETATM   23  C   UNL     1     -11.759  13.466  68.799  1.00  0.00    -0.340 C  
ENDBRANCH  20  22
ENDBRANCH   9  12
ENDBRANCH   7   8
ENDBRANCH   6   7
ENDBRANCH   3   6
ENDBRANCH   2   3
TORSDOF 7
ENDMDL
MODEL      132
REMARK 921   NORMALIZED FREE ENERGY PREDICTED BY IDOCK:   -4.03 KCAL/MOL
REMARK 922        TOTAL FREE ENERGY PREDICTED BY IDOCK:   -6.40 KCAL/MOL
REMARK 923 INTER-LIGAND FREE ENERGY PREDICTED BY IDOCK:   -5.74 KCAL/MOL
REMARK 924 INTRA-LIGAND FREE ENERGY PREDICTED BY IDOCK:   -0.66 KCAL/MOL
REMARK 927      BINDING AFFINITY PREDICTED BY RF-SCORE:    0.00 PKD
ROOT
HETATM    1  C   UNL     1      -7.304  18.186  68.443  1.00  0.00    -0.276 C  
HETATM    2  C   UNL     1      -7.856  17.118  67.503  1.00  0.00    -0.175 C  
ENDROOT
BRANCH   2   3
HETATM    3  N   UNL     1      -9.127  17.473  66.846  1.00  0.00    -0.247 NA 
BRANCH   3   4
HETATM    4  C   UNL     1      -9.128  18.822  66.244  1.00  0.00    -0.242 C  
HETATM    5  C   UNL     1     -10.482  19.523  66.143  1.00  0.00    -0.613 C  
ENDBRANCH   3   4
BRANCH   3   6
HETATM    6  C   UNL     1      -9.533  16.456  65.846  1.00  0.00    -0.254 C  
BRANCH   6   7
HETATM    7  C   UNL     1     -10.957  15.901  66.015  1.00  0.00    -0.139 C  
BRANCH   7   8
HETATM    8  N   UNL     1     -10.984  14.454  66.141  1.00  0.00    -0.315 N  
HETATM    9  C   UNL     1     -10.551  13.831  67.295  1.00  0.00    -0.275 C  
HETATM   10  H   UNL     1     -11.329  13.889  65.365  1.00  0.00     0.000 HD 
HETATM   11  O   UNL     1     -10.100  14.445  68.253  1.00  0.00    -0.226 OA 
BRANCH   9  12
HETATM   12  C   UNL     1     -10.758  12.365  67.377  1.00  0.00    -0.257 A  
HETATM   13  C   UNL     1     -11.109  11.843  68.635  1.00  0.00    -0.295 A  
HETATM   14  C   UNL     1     -11.067  10.468  68.869  1.00  0.00    -0.261 A  
HETATM   15  C   UNL     1     -10.639   9.582  67.871  1.00  0.00    -0.244 A  
HETATM   16 CL   UNL     1     -11.447   9.894  70.456  1.00  0.00    -0.362 Cl 
HETATM   17  C   UNL     1     -10.387  10.101  66.596  1.00  0.00    -0.274 A  
HETATM   18  N   UNL     1     -10.638   8.188  68.062  1.00  0.00    -0.399 NA 
HETATM   19  H1  UNL     1     -10.326   7.544  67.336  1.00  0.00     0.000 HD 
HETATM   20  C   UNL     1     -10.424  11.483  66.338  1.00  0.00    -0.250 A  
HETATM   21  H2  UNL     1     -11.579   7.912  68.341  1.00  0.00     0.000 HD 
BRANCH  20  22
HETATM   22  O   UNL     1     -10.006  11.806  65.073  1.00  0.00    -0.248 OA 
HETATM   23  C   UNL     1     -10.885  11.456  64.008  1.00  0.00    -0.383 C  
ENDBRANCH  20  22
ENDBRANCH   9  12
ENDBRANCH   7   8
ENDBRANCH   6   7
ENDBRANCH   3   6
ENDBRANCH   2   3
TORSDOF 7
ENDMDL
MODEL      133
REMARK 921   NORMALIZED FREE ENERGY PREDICTED BY IDOCK:   -4.03 KCAL/MOL
REMARK 922        TOTAL FREE ENERGY PREDICTED BY IDOCK:   -6.39 KCAL/MOL
REMARK 923 INTER-LIGAND FREE ENERGY PREDICTED BY IDOCK:   -5.81 KCAL/MOL
REMARK 924 INTRA-LIGAND FREE ENERGY PREDICTED BY IDOCK:   -0.59 KCAL/MOL
REMARK 927      BINDING AFFINITY PREDICTED BY RF-SCORE:    0.00 PKD
ROOT
HETATM    1  C   UNL     1      -9.704  14.823  66.307  1.00  0.00    -0.326 C  
HETATM    2  C   UNL     1     -10.083  13.471  65.711  1.00  0.00    -0.287 C  
ENDROOT
BRANCH   2   3
HETATM    3  N   UNL     1     -11.423  12.985  66.086  1.00  0.00    -0.324 NA 
BRANCH   3   4
HETATM    4  C   UNL     1     -12.432  13.142  65.019  1.00  0.00    -0.460 C  
HETATM    5  C   UNL     1     -12.051  12.616  63.636  1.00  0.00    -0.632 C  
ENDBRANCH   3   4
BRANCH   3   6
HETATM    6  C   UNL     1     -11.386  11.582  66.566  1.00  0.00    -0.193 C  
BRANCH   6   7
HETATM    7  C   UNL     1     -11.390  11.411  68.094  1.00  0.00    -0.304 C  
BRANCH   7   8
HETATM    8  N   UNL     1     -11.371  10.017  68.503  1.00  0.00    -0.509 N  
HETATM    9  C   UNL     1     -10.427   9.549  69.395  1.00  0.00    -0.217 C  
HETATM   10  H   UNL     1     -12.066   9.374  68.124  1.00  0.00     0.000 HD 
HETATM   11  O   UNL     1      -9.548  10.258  69.867  1.00  0.00    -0.176 OA 
BRANCH   9  12
HETATM   12  C   UNL     1     -10.586   8.148  69.858  1.00  0.00    -0.239 A  
HETATM   13  C   UNL     1     -10.725   7.949  71.243  1.00  0.00    -0.257 A  
HETATM   14  C   UNL     1     -10.617   6.671  71.790  1.00  0.00    -0.215 A  
HETATM   15  C   UNL     1     -10.330   5.564  70.979  1.00  0.00    -0.239 A  
HETATM   16 CL   UNL     1     -10.733   6.501  73.508  1.00  0.00    -0.304 Cl 
HETATM   17  C   UNL     1     -10.290   5.758  69.593  1.00  0.00    -0.330 A  
HETATM   18  N   UNL     1     -10.268   4.257  71.497  1.00  0.00    -0.123 NA 
HETATM   19  H1  UNL     1     -10.059   3.452  70.906  1.00  0.00     0.000 HD 
HETATM   20  C   UNL     1     -10.398   7.037  69.021  1.00  0.00    -0.200 A  
HETATM   21  H2  UNL     1     -11.148   4.071  71.977  1.00  0.00     0.000 HD 
BRANCH  20  22
HETATM   22  O   UNL     1     -10.189   7.041  67.667  1.00  0.00    -0.164 OA 
HETATM   23  C   UNL     1     -10.952   6.109  66.907  1.00  0.00    -0.305 C  
ENDBRANCH  20  22
ENDBRANCH   9  12
ENDBRANCH   7   8
ENDBRANCH   6   7
ENDBRANCH   3   6
ENDBRANCH   2   3
TORSDOF 7
ENDMDL
MODEL      134
REMARK 921   NORMALIZED FREE ENERGY PREDICTED BY IDOCK:   -4.03 KCAL/MOL
REMARK 922        TOTAL FREE ENERGY PREDICTED BY IDOCK:   -6.39 KCAL/MOL
REMARK 923 INTER-LIGAND FREE ENERGY PREDICTED BY IDOCK:   -5.99 KCAL/MOL
REMARK 924 INTRA-LIGAND FREE ENERGY PREDICTED BY IDOCK:   -0.40 KCAL/MOL
REMARK 927      BINDING AFFINITY PREDICTED BY RF-SCORE:    0.00 PKD
ROOT
HETATM    1  C   UNL     1      -6.871   6.058  67.034  1.00  0.00    -0.063 C  
HETATM    2  C   UNL     1      -7.720   6.548  65.865  1.00  0.00    -0.090 C  
ENDROOT
BRANCH   2   3
HETATM    3  N   UNL     1      -9.071   7.009  66.234  1.00  0.00    -0.162 NA 
BRANCH   3   4
HETATM    4  C   UNL     1      -9.885   5.981  66.912  1.00  0.00    -0.158 C  
HETATM    5  C   UNL     1     -10.505   4.905  66.022  1.00  0.00    -0.327 C  
ENDBRANCH   3   4
BRANCH   3   6
HETATM    6  C   UNL     1      -9.027   8.254  67.040  1.00  0.00    -0.140 C  
BRANCH   6   7
HETATM    7  C   UNL     1     -10.396   8.823  67.444  1.00  0.00    -0.280 C  
BRANCH   7   8
HETATM    8  N   UNL     1     -10.668  10.115  66.839  1.00  0.00    -0.200 N  
HETATM    9  C   UNL     1     -11.354  11.095  67.528  1.00  0.00    -0.278 C  
HETATM   10  H   UNL     1     -10.347  10.301  65.888  1.00  0.00     0.000 HD 
HETATM   11  O   UNL     1     -11.791  10.931  68.659  1.00  0.00    -0.417 OA 
BRANCH   9  12
HETATM   12  C   UNL     1     -11.450  12.424  66.876  1.00  0.00    -0.423 A  
HETATM   13  C   UNL     1     -11.853  12.442  65.528  1.00  0.00    -0.469 A  
HETATM   14  C   UNL     1     -11.720  13.602  64.764  1.00  0.00    -0.377 A  
HETATM   15  C   UNL     1     -11.150  14.760  65.309  1.00  0.00    -0.370 A  
HETATM   16 CL   UNL     1     -12.173  13.541  63.095  1.00  0.00    -0.305 Cl 
HETATM   17  C   UNL     1     -10.843  14.762  66.675  1.00  0.00    -0.319 A  
HETATM   18  N   UNL     1     -11.053  15.958  64.577  1.00  0.00    -0.850 NA 
HETATM   19  H1  UNL     1     -10.638  16.801  64.974  1.00  0.00     0.000 HD 
HETATM   20  C   UNL     1     -10.970  13.605  67.463  1.00  0.00    -0.268 A  
HETATM   21  H2  UNL     1     -11.988  16.197  64.248  1.00  0.00     0.000 HD 
BRANCH  20  22
HETATM   22  O   UNL     1     -10.484  13.764  68.735  1.00  0.00    -0.240 OA 
HETATM   23  C   UNL     1     -10.167  15.096  69.128  1.00  0.00    -0.249 C  
ENDBRANCH  20  22
ENDBRANCH   9  12
ENDBRANCH   7   8
ENDBRANCH   6   7
ENDBRANCH   3   6
ENDBRANCH   2   3
TORSDOF 7
ENDMDL
MODEL      135
REMARK 921   NORMALIZED FREE ENERGY PREDICTED BY IDOCK:   -4.03 KCAL/MOL
REMARK 922        TOTAL FREE ENERGY PREDICTED BY IDOCK:   -6.39 KCAL/MOL
REMARK 923 INTER-LIGAND FREE ENERGY PREDICTED BY IDOCK:   -5.63 KCAL/MOL
REMARK 924 INTRA-LIGAND FREE ENERGY PREDICTED BY IDOCK:   -0.76 KCAL/MOL
REMARK 927      BINDING AFFINITY PREDICTED BY RF-SCORE:    0.00 PKD
ROOT
HETATM    1  C   UNL     1      -8.533   5.873  65.625  1.00  0.00    -0.153 C  
HETATM    2  C   UNL     1      -9.146   7.189  66.092  1.00  0.00    -0.119 C  
ENDROOT
BRANCH   2   3
HETATM    3  N   UNL     1      -8.416   8.396  65.662  1.00  0.00    -0.156 NA 
BRANCH   3   4
HETATM    4  C   UNL     1      -9.248   9.358  64.912  1.00  0.00    -0.183 C  
HETATM    5  C   UNL     1      -8.882   9.580  63.445  1.00  0.00    -0.236 C  
ENDBRANCH   3   4
BRANCH   3   6
HETATM    6  C   UNL     1      -7.741   9.066  66.800  1.00  0.00    -0.093 C  
BRANCH   6   7
HETATM    7  C   UNL     1      -8.434  10.336  67.319  1.00  0.00    -0.125 C  
BRANCH   7   8
HETATM    8  N   UNL     1      -9.435  10.054  68.333  1.00  0.00    -0.140 N  
HETATM    9  C   UNL     1      -9.093   9.966  69.668  1.00  0.00    -0.227 C  
HETATM   10  H   UNL     1     -10.407   9.919  68.055  1.00  0.00     0.000 HD 
HETATM   11  O   UNL     1      -7.943  10.090  70.069  1.00  0.00    -0.175 OA 
BRANCH   9  12
HETATM   12  C   UNL     1     -10.210   9.821  70.633  1.00  0.00    -0.290 A  
HETATM   13  C   UNL     1     -10.097   8.790  71.583  1.00  0.00    -0.390 A  
HETATM   14  C   UNL     1     -11.198   8.411  72.352  1.00  0.00    -0.368 A  
HETATM   15  C   UNL     1     -12.446   9.022  72.170  1.00  0.00    -0.380 A  
HETATM   16 CL   UNL     1     -11.013   7.092  73.456  1.00  0.00    -0.276 Cl 
HETATM   17  C   UNL     1     -12.523  10.111  71.294  1.00  0.00    -0.510 A  
HETATM   18  N   UNL     1     -13.558   8.697  72.968  1.00  0.00    -0.875 NA 
HETATM   19  H1  UNL     1     -14.467   9.142  72.835  1.00  0.00     0.000 HD 
HETATM   20  C   UNL     1     -11.426  10.510  70.510  1.00  0.00    -0.345 A  
HETATM   21  H2  UNL     1     -13.289   8.824  73.943  1.00  0.00     0.000 HD 
BRANCH  20  22
HETATM   22  O   UNL     1     -11.737  11.496  69.611  1.00  0.00    -0.294 OA 
HETATM   23  C   UNL     1     -11.964  12.795  70.150  1.00  0.00    -0.296 C  
ENDBRANCH  20  22
ENDBRANCH   9  12
ENDBRANCH   7   8
ENDBRANCH   6   7
ENDBRANCH   3   6
ENDBRANCH   2   3
TORSDOF 7
ENDMDL
MODEL      136
REMARK 921   NORMALIZED FREE ENERGY PREDICTED BY IDOCK:   -4.02 KCAL/MOL
REMARK 922        TOTAL FREE ENERGY PREDICTED BY IDOCK:   -6.37 KCAL/MOL
REMARK 923 INTER-LIGAND FREE ENERGY PREDICTED BY IDOCK:   -5.65 KCAL/MOL
REMARK 924 INTRA-LIGAND FREE ENERGY PREDICTED BY IDOCK:   -0.72 KCAL/MOL
REMARK 927      BINDING AFFINITY PREDICTED BY RF-SCORE:    0.00 PKD
ROOT
HETATM    1  C   UNL     1      -8.166   7.402  65.480  1.00  0.00    -0.135 C  
HETATM    2  C   UNL     1      -9.325   8.272  65.958  1.00  0.00    -0.149 C  
ENDROOT
BRANCH   2   3
HETATM    3  N   UNL     1      -9.135   9.719  65.754  1.00  0.00    -0.165 NA 
BRANCH   3   4
HETATM    4  C   UNL     1     -10.138  10.330  64.857  1.00  0.00    -0.276 C  
HETATM    5  C   UNL     1      -9.600  11.054  63.624  1.00  0.00    -0.324 C  
ENDBRANCH   3   4
BRANCH   3   6
HETATM    6  C   UNL     1      -9.071  10.454  67.041  1.00  0.00    -0.139 C  
BRANCH   6   7
HETATM    7  C   UNL     1      -7.943  11.494  67.148  1.00  0.00    -0.160 C  
BRANCH   7   8
HETATM    8  N   UNL     1      -8.337  12.801  66.652  1.00  0.00    -0.413 N  
HETATM    9  C   UNL     1      -9.167  13.622  67.388  1.00  0.00    -0.222 C  
HETATM   10  H   UNL     1      -7.994  13.117  65.745  1.00  0.00     0.000 HD 
HETATM   11  O   UNL     1      -9.637  13.295  68.470  1.00  0.00    -0.205 OA 
BRANCH   9  12
HETATM   12  C   UNL     1      -9.388  14.991  66.861  1.00  0.00    -0.258 A  
HETATM   13  C   UNL     1      -9.098  16.060  67.728  1.00  0.00    -0.196 A  
HETATM   14  C   UNL     1      -9.517  17.355  67.421  1.00  0.00    -0.246 A  
HETATM   15  C   UNL     1     -10.265  17.613  66.265  1.00  0.00    -0.362 A  
HETATM   16 CL   UNL     1      -9.187  18.615  68.560  1.00  0.00    -0.363 Cl 
HETATM   17  C   UNL     1     -10.462  16.562  65.362  1.00  0.00    -0.291 A  
HETATM   18  N   UNL     1     -10.654  18.916  65.904  1.00  0.00    -0.510 NA 
HETATM   19  H1  UNL     1     -11.199  19.104  65.062  1.00  0.00     0.000 HD 
HETATM   20  C   UNL     1     -10.049  15.250  65.650  1.00  0.00    -0.371 A  
HETATM   21  H2  UNL     1      -9.813  19.492  65.866  1.00  0.00     0.000 HD 
BRANCH  20  22
HETATM   22  O   UNL     1     -10.460  14.337  64.714  1.00  0.00    -0.431 OA 
HETATM   23  C   UNL     1     -11.867  14.190  64.551  1.00  0.00    -0.436 C  
ENDBRANCH  20  22
ENDBRANCH   9  12
ENDBRANCH   7   8
ENDBRANCH   6   7
ENDBRANCH   3   6
ENDBRANCH   2   3
TORSDOF 7
ENDMDL
MODEL      137
REMARK 921   NORMALIZED FREE ENERGY PREDICTED BY IDOCK:   -4.01 KCAL/MOL
REMARK 922        TOTAL FREE ENERGY PREDICTED BY IDOCK:   -6.37 KCAL/MOL
REMARK 923 INTER-LIGAND FREE ENERGY PREDICTED BY IDOCK:   -5.53 KCAL/MOL
REMARK 924 INTRA-LIGAND FREE ENERGY PREDICTED BY IDOCK:   -0.84 KCAL/MOL
REMARK 927      BINDING AFFINITY PREDICTED BY RF-SCORE:    0.00 PKD
ROOT
HETATM    1  C   UNL     1     -10.957  13.461  67.073  1.00  0.00    -0.298 C  
HETATM    2  C   UNL     1     -10.063  12.633  66.155  1.00  0.00    -0.257 C  
ENDROOT
BRANCH   2   3
HETATM    3  N   UNL     1     -10.786  11.824  65.157  1.00  0.00    -0.282 NA 
BRANCH   3   4
HETATM    4  C   UNL     1     -11.098  12.555  63.913  1.00  0.00    -0.423 C  
HETATM    5  C   UNL     1     -12.522  12.412  63.376  1.00  0.00    -0.554 C  
ENDBRANCH   3   4
BRANCH   3   6
HETATM    6  C   UNL     1     -10.074  10.558  64.853  1.00  0.00    -0.333 C  
BRANCH   6   7
HETATM    7  C   UNL     1      -9.109  10.070  65.946  1.00  0.00    -0.159 C  
BRANCH   7   8
HETATM    8  N   UNL     1      -9.753   9.203  66.917  1.00  0.00    -0.178 N  
HETATM    9  C   UNL     1      -9.717   9.494  68.266  1.00  0.00    -0.147 C  
HETATM   10  H   UNL     1     -10.240   8.365  66.597  1.00  0.00     0.000 HD 
HETATM   11  O   UNL     1      -9.128  10.465  68.722  1.00  0.00    -0.148 OA 
BRANCH   9  12
HETATM   12  C   UNL     1     -10.528   8.627  69.155  1.00  0.00    -0.223 A  
HETATM   13  C   UNL     1     -11.186   9.256  70.228  1.00  0.00    -0.267 A  
HETATM   14  C   UNL     1     -11.749   8.500  71.256  1.00  0.00    -0.284 A  
HETATM   15  C   UNL     1     -11.639   7.103  71.264  1.00  0.00    -0.294 A  
HETATM   16 CL   UNL     1     -12.486   9.336  72.580  1.00  0.00    -0.300 Cl 
HETATM   17  C   UNL     1     -11.070   6.483  70.145  1.00  0.00    -0.410 A  
HETATM   18  N   UNL     1     -12.243   6.313  72.260  1.00  0.00    -0.518 NA 
HETATM   19  H1  UNL     1     -12.163   5.297  72.265  1.00  0.00     0.000 HD 
HETATM   20  C   UNL     1     -10.498   7.225  69.098  1.00  0.00    -0.215 A  
HETATM   21  H2  UNL     1     -13.235   6.548  72.283  1.00  0.00     0.000 HD 
BRANCH  20  22
HETATM   22  O   UNL     1      -9.863   6.444  68.168  1.00  0.00    -0.124 OA 
HETATM   23  C   UNL     1      -9.254   5.251  68.654  1.00  0.00    -0.116 C  
ENDBRANCH  20  22
ENDBRANCH   9  12
ENDBRANCH   7   8
ENDBRANCH   6   7
ENDBRANCH   3   6
ENDBRANCH   2   3
TORSDOF 7
ENDMDL
MODEL      138
REMARK 921   NORMALIZED FREE ENERGY PREDICTED BY IDOCK:   -4.00 KCAL/MOL
REMARK 922        TOTAL FREE ENERGY PREDICTED BY IDOCK:   -6.35 KCAL/MOL
REMARK 923 INTER-LIGAND FREE ENERGY PREDICTED BY IDOCK:   -5.22 KCAL/MOL
REMARK 924 INTRA-LIGAND FREE ENERGY PREDICTED BY IDOCK:   -1.13 KCAL/MOL
REMARK 927      BINDING AFFINITY PREDICTED BY RF-SCORE:    0.00 PKD
ROOT
HETATM    1  C   UNL     1      -8.346  15.531  69.193  1.00  0.00    -0.253 C  
HETATM    2  C   UNL     1      -9.181  16.110  68.055  1.00  0.00    -0.195 C  
ENDROOT
BRANCH   2   3
HETATM    3  N   UNL     1     -10.267  15.234  67.579  1.00  0.00    -0.237 NA 
BRANCH   3   4
HETATM    4  C   UNL     1     -11.513  15.352  68.363  1.00  0.00    -0.355 C  
HETATM    5  C   UNL     1     -11.914  14.134  69.195  1.00  0.00    -0.388 C  
ENDBRANCH   3   4
BRANCH   3   6
HETATM    6  C   UNL     1     -10.540  15.430  66.134  1.00  0.00    -0.316 C  
BRANCH   6   7
HETATM    7  C   UNL     1     -10.503  14.152  65.280  1.00  0.00    -0.384 C  
BRANCH   7   8
HETATM    8  N   UNL     1      -9.996  13.003  66.010  1.00  0.00    -0.277 N  
HETATM    9  C   UNL     1     -10.841  11.998  66.435  1.00  0.00    -0.278 C  
HETATM   10  H   UNL     1      -8.997  12.938  66.211  1.00  0.00     0.000 HD 
HETATM   11  O   UNL     1     -12.051  12.026  66.253  1.00  0.00    -0.596 OA 
BRANCH   9  12
HETATM   12  C   UNL     1     -10.203  10.804  67.041  1.00  0.00    -0.261 A  
HETATM   13  C   UNL     1     -10.753   9.553  66.705  1.00  0.00    -0.136 A  
HETATM   14  C   UNL     1     -10.396   8.408  67.418  1.00  0.00    -0.285 A  
HETATM   15  C   UNL     1      -9.515   8.484  68.505  1.00  0.00    -0.142 A  
HETATM   16 CL   UNL     1     -11.156   6.911  67.000  1.00  0.00    -0.427 Cl 
HETATM   17  C   UNL     1      -8.900   9.714  68.768  1.00  0.00    -0.130 A  
HETATM   18  N   UNL     1      -9.097   7.339  69.208  1.00  0.00    -0.139 NA 
HETATM   19  H1  UNL     1      -8.456   7.394  69.999  1.00  0.00     0.000 HD 
HETATM   20  C   UNL     1      -9.244  10.880  68.061  1.00  0.00    -0.156 A  
HETATM   21  H2  UNL     1      -8.702   6.686  68.531  1.00  0.00     0.000 HD 
BRANCH  20  22
HETATM   22  O   UNL     1      -8.645  12.007  68.559  1.00  0.00    -0.157 OA 
HETATM   23  C   UNL     1      -7.222  11.988  68.632  1.00  0.00    -0.110 C  
ENDBRANCH  20  22
ENDBRANCH   9  12
ENDBRANCH   7   8
ENDBRANCH   6   7
ENDBRANCH   3   6
ENDBRANCH   2   3
TORSDOF 7
ENDMDL
MODEL      139
REMARK 921   NORMALIZED FREE ENERGY PREDICTED BY IDOCK:   -4.00 KCAL/MOL
REMARK 922        TOTAL FREE ENERGY PREDICTED BY IDOCK:   -6.35 KCAL/MOL
REMARK 923 INTER-LIGAND FREE ENERGY PREDICTED BY IDOCK:   -5.70 KCAL/MOL
REMARK 924 INTRA-LIGAND FREE ENERGY PREDICTED BY IDOCK:   -0.65 KCAL/MOL
REMARK 927      BINDING AFFINITY PREDICTED BY RF-SCORE:    0.00 PKD
ROOT
HETATM    1  C   UNL     1     -12.906  11.957  63.341  1.00  0.00    -0.393 C  
HETATM    2  C   UNL     1     -11.509  12.570  63.338  1.00  0.00    -0.452 C  
ENDROOT
BRANCH   2   3
HETATM    3  N   UNL     1     -10.475  11.751  63.996  1.00  0.00    -0.330 NA 
BRANCH   3   4
HETATM    4  C   UNL     1      -9.510  11.145  63.057  1.00  0.00    -0.369 C  
HETATM    5  C   UNL     1      -8.490  10.177  63.656  1.00  0.00    -0.184 C  
ENDBRANCH   3   4
BRANCH   3   6
HETATM    6  C   UNL     1      -9.766  12.507  65.057  1.00  0.00     0.007 C  
BRANCH   6   7
HETATM    7  C   UNL     1     -10.351  12.360  66.471  1.00  0.00    -0.228 C  
BRANCH   7   8
HETATM    8  N   UNL     1     -10.050  11.071  67.071  1.00  0.00    -0.190 N  
HETATM    9  C   UNL     1     -10.972  10.425  67.870  1.00  0.00    -0.297 C  
HETATM   10  H   UNL     1      -9.143  10.637  66.898  1.00  0.00     0.000 HD 
HETATM   11  O   UNL     1     -12.066  10.900  68.141  1.00  0.00    -0.563 OA 
BRANCH   9  12
HETATM   12  C   UNL     1     -10.623   9.052  68.311  1.00  0.00    -0.213 A  
HETATM   13  C   UNL     1     -10.631   8.048  67.326  1.00  0.00    -0.360 A  
HETATM   14  C   UNL     1     -10.576   6.701  67.686  1.00  0.00    -0.263 A  
HETATM   15  C   UNL     1     -10.549   6.319  69.034  1.00  0.00    -0.267 A  
HETATM   16 CL   UNL     1     -10.656   5.512  66.432  1.00  0.00    -0.318 Cl 
HETATM   17  C   UNL     1     -10.442   7.325  70.001  1.00  0.00    -0.234 A  
HETATM   18  N   UNL     1     -10.440   4.971  69.425  1.00  0.00    -0.151 NA 
HETATM   19  H1  UNL     1     -10.420   4.693  70.406  1.00  0.00     0.000 HD 
HETATM   20  C   UNL     1     -10.495   8.688  69.660  1.00  0.00    -0.220 A  
HETATM   21  H2  UNL     1      -9.611   4.583  68.974  1.00  0.00     0.000 HD 
BRANCH  20  22
HETATM   22  O   UNL     1     -10.523   9.516  70.752  1.00  0.00    -0.274 OA 
HETATM   23  C   UNL     1     -11.748   9.563  71.478  1.00  0.00    -0.402 C  
ENDBRANCH  20  22
ENDBRANCH   9  12
ENDBRANCH   7   8
ENDBRANCH   6   7
ENDBRANCH   3   6
ENDBRANCH   2   3
TORSDOF 7
ENDMDL
MODEL      140
REMARK 921   NORMALIZED FREE ENERGY PREDICTED BY IDOCK:   -3.94 KCAL/MOL
REMARK 922        TOTAL FREE ENERGY PREDICTED BY IDOCK:   -6.26 KCAL/MOL
REMARK 923 INTER-LIGAND FREE ENERGY PREDICTED BY IDOCK:   -5.65 KCAL/MOL
REMARK 924 INTRA-LIGAND FREE ENERGY PREDICTED BY IDOCK:   -0.61 KCAL/MOL
REMARK 927      BINDING AFFINITY PREDICTED BY RF-SCORE:    0.00 PKD
ROOT
HETATM    1  C   UNL     1     -10.486   8.974  67.471  1.00  0.00    -0.338 C  
HETATM    2  C   UNL     1      -9.970   9.371  66.091  1.00  0.00    -0.281 C  
ENDROOT
BRANCH   2   3
HETATM    3  N   UNL     1      -9.733  10.815  65.913  1.00  0.00    -0.213 NA 
BRANCH   3   4
HETATM    4  C   UNL     1     -10.721  11.477  65.038  1.00  0.00    -0.290 C  
HETATM    5  C   UNL     1     -10.248  11.847  63.633  1.00  0.00    -0.466 C  
ENDBRANCH   3   4
BRANCH   3   6
HETATM    6  C   UNL     1      -9.634  11.521  67.214  1.00  0.00    -0.172 C  
BRANCH   6   7
HETATM    7  C   UNL     1      -8.495  12.549  67.318  1.00  0.00    -0.185 C  
BRANCH   7   8
HETATM    8  N   UNL     1      -8.969  13.879  67.661  1.00  0.00    -0.182 N  
HETATM    9  C   UNL     1      -8.165  14.988  67.491  1.00  0.00    -0.182 C  
HETATM   10  H   UNL     1      -9.912  13.994  68.034  1.00  0.00     0.000 HD 
HETATM   11  O   UNL     1      -7.016  14.919  67.076  1.00  0.00    -0.180 OA 
BRANCH   9  12
HETATM   12  C   UNL     1      -8.794  16.309  67.733  1.00  0.00    -0.188 A  
HETATM   13  C   UNL     1      -7.938  17.361  68.105  1.00  0.00    -0.233 A  
HETATM   14  C   UNL     1      -8.458  18.556  68.602  1.00  0.00    -0.299 A  
HETATM   15  C   UNL     1      -9.839  18.721  68.777  1.00  0.00    -0.384 A  
HETATM   16 CL   UNL     1      -7.350  19.787  69.104  1.00  0.00    -0.341 Cl 
HETATM   17  C   UNL     1     -10.686  17.708  68.312  1.00  0.00    -0.285 A  
HETATM   18  N   UNL     1     -10.394  19.934  69.226  1.00  0.00    -0.588 NA 
HETATM   19  H1  UNL     1     -11.398  20.054  69.353  1.00  0.00     0.000 HD 
HETATM   20  C   UNL     1     -10.183  16.496  67.807  1.00  0.00    -0.278 A  
HETATM   21  H2  UNL     1     -10.068  20.674  68.604  1.00  0.00     0.000 HD 
BRANCH  20  22
HETATM   22  O   UNL     1     -11.163  15.576  67.542  1.00  0.00    -0.322 OA 
HETATM   23  C   UNL     1     -12.005  15.216  68.633  1.00  0.00    -0.240 C  
ENDBRANCH  20  22
ENDBRANCH   9  12
ENDBRANCH   7   8
ENDBRANCH   6   7
ENDBRANCH   3   6
ENDBRANCH   2   3
TORSDOF 7
ENDMDL
MODEL      141
REMARK 921   NORMALIZED FREE ENERGY PREDICTED BY IDOCK:   -3.93 KCAL/MOL
REMARK 922        TOTAL FREE ENERGY PREDICTED BY IDOCK:   -6.26 KCAL/MOL
REMARK 923 INTER-LIGAND FREE ENERGY PREDICTED BY IDOCK:   -5.76 KCAL/MOL
REMARK 924 INTRA-LIGAND FREE ENERGY PREDICTED BY IDOCK:   -0.50 KCAL/MOL
REMARK 927      BINDING AFFINITY PREDICTED BY RF-SCORE:    0.00 PKD
ROOT
HETATM    1  C   UNL     1      -9.388  11.362  65.505  1.00  0.00    -0.228 C  
HETATM    2  C   UNL     1      -9.937  12.684  66.034  1.00  0.00    -0.258 C  
ENDROOT
BRANCH   2   3
HETATM    3  N   UNL     1     -11.223  12.576  66.747  1.00  0.00    -0.280 NA 
BRANCH   3   4
HETATM    4  C   UNL     1     -12.393  12.933  65.921  1.00  0.00    -0.313 C  
HETATM    5  C   UNL     1     -12.125  13.821  64.706  1.00  0.00    -0.438 C  
ENDBRANCH   3   4
BRANCH   3   6
HETATM    6  C   UNL     1     -11.404  11.235  67.356  1.00  0.00    -0.276 C  
BRANCH   6   7
HETATM    7  C   UNL     1     -11.890  11.236  68.815  1.00  0.00    -0.329 C  
BRANCH   7   8
HETATM    8  N   UNL     1     -11.324  10.149  69.595  1.00  0.00    -0.319 N  
HETATM    9  C   UNL     1     -11.706   9.938  70.904  1.00  0.00    -0.364 C  
HETATM   10  H   UNL     1     -10.633   9.532  69.168  1.00  0.00     0.000 HD 
HETATM   11  O   UNL     1     -12.509  10.655  71.487  1.00  0.00    -0.377 OA 
BRANCH   9  12
HETATM   12  C   UNL     1     -11.180   8.717  71.562  1.00  0.00    -0.360 A  
HETATM   13  C   UNL     1      -9.887   8.799  72.111  1.00  0.00    -0.347 A  
HETATM   14  C   UNL     1      -9.213   7.645  72.511  1.00  0.00    -0.157 A  
HETATM   15  C   UNL     1      -9.791   6.379  72.341  1.00  0.00    -0.166 A  
HETATM   16 CL   UNL     1      -7.600   7.806  73.117  1.00  0.00    -0.130 Cl 
HETATM   17  C   UNL     1     -11.113   6.317  71.886  1.00  0.00    -0.315 A  
HETATM   18  N   UNL     1      -9.155   5.205  72.783  1.00  0.00    -0.133 NA 
HETATM   19  H1  UNL     1      -9.576   4.284  72.659  1.00  0.00     0.000 HD 
HETATM   20  C   UNL     1     -11.811   7.466  71.478  1.00  0.00    -0.297 A  
HETATM   21  H2  UNL     1      -8.945   5.320  73.775  1.00  0.00     0.000 HD 
BRANCH  20  22
HETATM   22  O   UNL     1     -13.035   7.187  70.928  1.00  0.00    -0.269 OA 
HETATM   23  C   UNL     1     -14.167   7.383  71.771  1.00  0.00    -0.403 C  
ENDBRANCH  20  22
ENDBRANCH   9  12
ENDBRANCH   7   8
ENDBRANCH   6   7
ENDBRANCH   3   6
ENDBRANCH   2   3
TORSDOF 7
ENDMDL
MODEL      142
REMARK 921   NORMALIZED FREE ENERGY PREDICTED BY IDOCK:   -3.93 KCAL/MOL
REMARK 922        TOTAL FREE ENERGY PREDICTED BY IDOCK:   -6.25 KCAL/MOL
REMARK 923 INTER-LIGAND FREE ENERGY PREDICTED BY IDOCK:   -5.49 KCAL/MOL
REMARK 924 INTRA-LIGAND FREE ENERGY PREDICTED BY IDOCK:   -0.76 KCAL/MOL
REMARK 927      BINDING AFFINITY PREDICTED BY RF-SCORE:    0.00 PKD
ROOT
HETATM    1  C   UNL     1     -10.823   7.110  70.379  1.00  0.00    -0.269 C  
HETATM    2  C   UNL     1     -11.100   6.653  68.951  1.00  0.00    -0.246 C  
ENDROOT
BRANCH   2   3
HETATM    3  N   UNL     1     -10.020   6.943  67.990  1.00  0.00    -0.149 NA 
BRANCH   3   4
HETATM    4  C   UNL     1      -9.458   5.739  67.345  1.00  0.00    -0.112 C  
HETATM    5  C   UNL     1     -10.442   4.848  66.588  1.00  0.00    -0.270 C  
ENDBRANCH   3   4
BRANCH   3   6
HETATM    6  C   UNL     1     -10.443   7.932  66.969  1.00  0.00    -0.349 C  
BRANCH   6   7
HETATM    7  C   UNL     1      -9.498   9.132  66.786  1.00  0.00    -0.175 C  
BRANCH   7   8
HETATM    8  N   UNL     1      -9.983  10.333  67.444  1.00  0.00    -0.182 N  
HETATM    9  C   UNL     1     -10.488  11.390  66.714  1.00  0.00    -0.244 C  
HETATM   10  H   UNL     1      -9.949  10.396  68.461  1.00  0.00     0.000 HD 
HETATM   11  O   UNL     1     -10.533  11.394  65.491  1.00  0.00    -0.253 OA 
BRANCH   9  12
HETATM   12  C   UNL     1     -11.090  12.504  67.487  1.00  0.00    -0.311 A  
HETATM   13  C   UNL     1     -10.690  13.807  67.138  1.00  0.00    -0.283 A  
HETATM   14  C   UNL     1     -10.993  14.888  67.967  1.00  0.00    -0.279 A  
HETATM   15  C   UNL     1     -11.668  14.695  69.180  1.00  0.00    -0.309 A  
HETATM   16 CL   UNL     1     -10.418  16.455  67.514  1.00  0.00    -0.300 Cl 
HETATM   17  C   UNL     1     -12.146  13.412  69.470  1.00  0.00    -0.334 A  
HETATM   18  N   UNL     1     -12.033  15.773  70.009  1.00  0.00    -0.354 NA 
HETATM   19  H1  UNL     1     -12.523  15.632  70.892  1.00  0.00     0.000 HD 
HETATM   20  C   UNL     1     -11.852  12.309  68.649  1.00  0.00    -0.305 A  
HETATM   21  H2  UNL     1     -12.581  16.424  69.448  1.00  0.00     0.000 HD 
BRANCH  20  22
HETATM   22  O   UNL     1     -12.281  11.118  69.173  1.00  0.00    -0.410 OA 
HETATM   23  C   UNL     1     -11.790  10.785  70.468  1.00  0.00    -0.356 C  
ENDBRANCH  20  22
ENDBRANCH   9  12
ENDBRANCH   7   8
ENDBRANCH   6   7
ENDBRANCH   3   6
ENDBRANCH   2   3
TORSDOF 7
ENDMDL
MODEL      143
REMARK 921   NORMALIZED FREE ENERGY PREDICTED BY IDOCK:   -3.92 KCAL/MOL
REMARK 922        TOTAL FREE ENERGY PREDICTED BY IDOCK:   -6.24 KCAL/MOL
REMARK 923 INTER-LIGAND FREE ENERGY PREDICTED BY IDOCK:   -5.57 KCAL/MOL
REMARK 924 INTRA-LIGAND FREE ENERGY PREDICTED BY IDOCK:   -0.68 KCAL/MOL
REMARK 927      BINDING AFFINITY PREDICTED BY RF-SCORE:    0.00 PKD
ROOT
HETATM    1  C   UNL     1     -10.682  15.816  65.609  1.00  0.00    -0.360 C  
HETATM    2  C   UNL     1     -10.108  14.409  65.748  1.00  0.00    -0.340 C  
ENDROOT
BRANCH   2   3
HETATM    3  N   UNL     1     -10.348  13.772  67.056  1.00  0.00    -0.258 NA 
BRANCH   3   4
HETATM    4  C   UNL     1     -11.694  14.032  67.605  1.00  0.00    -0.377 C  
HETATM    5  C   UNL     1     -11.912  13.676  69.075  1.00  0.00    -0.392 C  
ENDBRANCH   3   4
BRANCH   3   6
HETATM    6  C   UNL     1     -10.073  12.315  67.018  1.00  0.00    -0.212 C  
BRANCH   6   7
HETATM    7  C   UNL     1      -8.884  11.849  67.874  1.00  0.00    -0.172 C  
BRANCH   7   8
HETATM    8  N   UNL     1      -9.286  10.985  68.970  1.00  0.00    -0.360 N  
HETATM    9  C   UNL     1      -9.490   9.634  68.775  1.00  0.00    -0.148 C  
HETATM   10  H   UNL     1      -9.421  11.384  69.899  1.00  0.00     0.000 HD 
HETATM   11  O   UNL     1      -9.374   9.094  67.682  1.00  0.00    -0.134 OA 
BRANCH   9  12
HETATM   12  C   UNL     1      -9.754   8.819  69.986  1.00  0.00    -0.182 A  
HETATM   13  C   UNL     1     -11.020   8.213  70.079  1.00  0.00    -0.199 A  
HETATM   14  C   UNL     1     -11.452   7.654  71.282  1.00  0.00    -0.269 A  
HETATM   15  C   UNL     1     -10.652   7.716  72.431  1.00  0.00    -0.260 A  
HETATM   16 CL   UNL     1     -13.045   6.982  71.349  1.00  0.00    -0.412 Cl 
HETATM   17  C   UNL     1      -9.357   8.233  72.303  1.00  0.00    -0.323 A  
HETATM   18  N   UNL     1     -11.039   7.114  73.642  1.00  0.00    -0.536 NA 
HETATM   19  H1  UNL     1     -10.457   7.160  74.479  1.00  0.00     0.000 HD 
HETATM   20  C   UNL     1      -8.902   8.801  71.100  1.00  0.00    -0.219 A  
HETATM   21  H2  UNL     1     -11.235   6.131  73.452  1.00  0.00     0.000 HD 
BRANCH  20  22
HETATM   22  O   UNL     1      -7.666   9.383  71.214  1.00  0.00    -0.336 OA 
HETATM   23  C   UNL     1      -6.659   8.609  71.858  1.00  0.00    -0.077 C  
ENDBRANCH  20  22
ENDBRANCH   9  12
ENDBRANCH   7   8
ENDBRANCH   6   7
ENDBRANCH   3   6
ENDBRANCH   2   3
TORSDOF 7
ENDMDL
MODEL      144
REMARK 921   NORMALIZED FREE ENERGY PREDICTED BY IDOCK:   -3.92 KCAL/MOL
REMARK 922        TOTAL FREE ENERGY PREDICTED BY IDOCK:   -6.24 KCAL/MOL
REMARK 923 INTER-LIGAND FREE ENERGY PREDICTED BY IDOCK:   -5.44 KCAL/MOL
REMARK 924 INTRA-LIGAND FREE ENERGY PREDICTED BY IDOCK:   -0.80 KCAL/MOL
REMARK 927      BINDING AFFINITY PREDICTED BY RF-SCORE:    0.00 PKD
ROOT
HETATM    1  C   UNL     1     -12.893  11.327  71.379  1.00  0.00    -0.515 C  
HETATM    2  C   UNL     1     -12.734   9.931  70.786  1.00  0.00    -0.224 C  
ENDROOT
BRANCH   2   3
HETATM    3  N   UNL     1     -11.492   9.236  71.170  1.00  0.00    -0.304 NA 
BRANCH   3   4
HETATM    4  C   UNL     1     -11.601   8.478  72.433  1.00  0.00    -0.354 C  
HETATM    5  C   UNL     1     -11.626   6.955  72.316  1.00  0.00    -0.309 C  
ENDBRANCH   3   4
BRANCH   3   6
HETATM    6  C   UNL     1     -10.989   8.363  70.081  1.00  0.00    -0.215 C  
BRANCH   6   7
HETATM    7  C   UNL     1      -9.617   8.754  69.506  1.00  0.00    -0.167 C  
BRANCH   7   8
HETATM    8  N   UNL     1      -9.575  10.129  69.040  1.00  0.00    -0.186 N  
HETATM    9  C   UNL     1     -10.056  10.473  67.793  1.00  0.00    -0.175 C  
HETATM   10  H   UNL     1      -9.184  10.852  69.644  1.00  0.00     0.000 HD 
HETATM   11  O   UNL     1     -10.513   9.654  67.006  1.00  0.00    -0.247 OA 
BRANCH   9  12
HETATM   12  C   UNL     1     -10.101  11.921  67.474  1.00  0.00    -0.206 A  
HETATM   13  C   UNL     1     -11.239  12.385  66.789  1.00  0.00    -0.363 A  
HETATM   14  C   UNL     1     -11.254  13.659  66.220  1.00  0.00    -0.305 A  
HETATM   15  C   UNL     1     -10.125  14.488  66.286  1.00  0.00    -0.295 A  
HETATM   16 CL   UNL     1     -12.658  14.146  65.335  1.00  0.00    -0.500 Cl 
HETATM   17  C   UNL     1      -9.036  14.057  67.052  1.00  0.00    -0.256 A  
HETATM   18  N   UNL     1     -10.131  15.797  65.768  1.00  0.00    -0.344 NA 
HETATM   19  H1  UNL     1      -9.310  16.400  65.815  1.00  0.00     0.000 HD 
HETATM   20  C   UNL     1      -9.001  12.777  67.634  1.00  0.00    -0.191 A  
HETATM   21  H2  UNL     1     -10.910  16.297  66.196  1.00  0.00     0.000 HD 
BRANCH  20  22
HETATM   22  O   UNL     1      -7.796  12.485  68.217  1.00  0.00    -0.130 OA 
HETATM   23  C   UNL     1      -6.673  13.233  67.760  1.00  0.00    -0.153 C  
ENDBRANCH  20  22
ENDBRANCH   9  12
ENDBRANCH   7   8
ENDBRANCH   6   7
ENDBRANCH   3   6
ENDBRANCH   2   3
TORSDOF 7
ENDMDL
MODEL      145
REMARK 921   NORMALIZED FREE ENERGY PREDICTED BY IDOCK:   -3.92 KCAL/MOL
REMARK 922        TOTAL FREE ENERGY PREDICTED BY IDOCK:   -6.24 KCAL/MOL
REMARK 923 INTER-LIGAND FREE ENERGY PREDICTED BY IDOCK:   -5.37 KCAL/MOL
REMARK 924 INTRA-LIGAND FREE ENERGY PREDICTED BY IDOCK:   -0.87 KCAL/MOL
REMARK 927      BINDING AFFINITY PREDICTED BY RF-SCORE:    0.00 PKD
ROOT
HETATM    1  C   UNL     1     -12.195  12.820  65.390  1.00  0.00    -0.532 C  
HETATM    2  C   UNL     1     -12.129  13.685  66.645  1.00  0.00    -0.411 C  
ENDROOT
BRANCH   2   3
HETATM    3  N   UNL     1     -10.795  14.239  66.941  1.00  0.00    -0.294 NA 
BRANCH   3   4
HETATM    4  C   UNL     1     -10.647  15.662  66.572  1.00  0.00    -0.307 C  
HETATM    5  C   UNL     1      -9.287  16.085  66.019  1.00  0.00    -0.380 C  
ENDBRANCH   3   4
BRANCH   3   6
HETATM    6  C   UNL     1     -10.412  14.026  68.358  1.00  0.00    -0.253 C  
BRANCH   6   7
HETATM    7  C   UNL     1     -11.361  13.125  69.166  1.00  0.00    -0.281 C  
BRANCH   7   8
HETATM    8  N   UNL     1     -10.719  11.908  69.633  1.00  0.00    -0.422 N  
HETATM    9  C   UNL     1     -10.966  10.694  69.025  1.00  0.00    -0.248 C  
HETATM   10  H   UNL     1     -10.075  11.952  70.422  1.00  0.00     0.000 HD 
HETATM   11  O   UNL     1     -11.748  10.564  68.091  1.00  0.00    -0.431 OA 
BRANCH   9  12
HETATM   12  C   UNL     1     -10.150   9.543  69.482  1.00  0.00    -0.218 A  
HETATM   13  C   UNL     1     -10.848   8.439  70.006  1.00  0.00    -0.225 A  
HETATM   14  C   UNL     1     -10.169   7.433  70.694  1.00  0.00    -0.199 A  
HETATM   15  C   UNL     1      -8.787   7.518  70.910  1.00  0.00    -0.144 A  
HETATM   16 CL   UNL     1     -11.092   6.136  71.371  1.00  0.00    -0.335 Cl 
HETATM   17  C   UNL     1      -8.089   8.568  70.302  1.00  0.00    -0.106 A  
HETATM   18  N   UNL     1      -8.069   6.493  71.554  1.00  0.00    -0.111 NA 
HETATM   19  H1  UNL     1      -7.063   6.555  71.712  1.00  0.00     0.000 HD 
HETATM   20  C   UNL     1      -8.753   9.592  69.604  1.00  0.00    -0.182 A  
HETATM   21  H2  UNL     1      -8.253   5.623  71.054  1.00  0.00     0.000 HD 
BRANCH  20  22
HETATM   22  O   UNL     1      -7.918  10.603  69.208  1.00  0.00    -0.147 OA 
HETATM   23  C   UNL     1      -6.760  10.816  70.009  1.00  0.00    -0.149 C  
ENDBRANCH  20  22
ENDBRANCH   9  12
ENDBRANCH   7   8
ENDBRANCH   6   7
ENDBRANCH   3   6
ENDBRANCH   2   3
TORSDOF 7
ENDMDL
MODEL      146
REMARK 921   NORMALIZED FREE ENERGY PREDICTED BY IDOCK:   -3.92 KCAL/MOL
REMARK 922        TOTAL FREE ENERGY PREDICTED BY IDOCK:   -6.23 KCAL/MOL
REMARK 923 INTER-LIGAND FREE ENERGY PREDICTED BY IDOCK:   -5.72 KCAL/MOL
REMARK 924 INTRA-LIGAND FREE ENERGY PREDICTED BY IDOCK:   -0.52 KCAL/MOL
REMARK 927      BINDING AFFINITY PREDICTED BY RF-SCORE:    0.00 PKD
ROOT
HETATM    1  C   UNL     1      -7.852  17.250  68.685  1.00  0.00    -0.272 C  
HETATM    2  C   UNL     1      -8.443  17.898  67.437  1.00  0.00    -0.235 C  
ENDROOT
BRANCH   2   3
HETATM    3  N   UNL     1      -9.905  17.765  67.307  1.00  0.00    -0.301 NA 
BRANCH   3   4
HETATM    4  C   UNL     1     -10.529  18.832  66.497  1.00  0.00    -0.427 C  
HETATM    5  C   UNL     1      -9.824  20.187  66.494  1.00  0.00    -0.574 C  
ENDBRANCH   3   4
BRANCH   3   6
HETATM    6  C   UNL     1     -10.293  16.428  66.796  1.00  0.00    -0.293 C  
BRANCH   6   7
HETATM    7  C   UNL     1      -9.346  15.826  65.744  1.00  0.00    -0.263 C  
BRANCH   7   8
HETATM    8  N   UNL     1      -9.462  14.382  65.646  1.00  0.00    -0.538 N  
HETATM    9  C   UNL     1      -9.094  13.564  66.695  1.00  0.00    -0.168 C  
HETATM   10  H   UNL     1      -9.822  13.965  64.787  1.00  0.00     0.000 HD 
HETATM   11  O   UNL     1      -8.629  13.994  67.743  1.00  0.00    -0.160 OA 
BRANCH   9  12
HETATM   12  C   UNL     1      -9.389  12.118  66.547  1.00  0.00    -0.229 A  
HETATM   13  C   UNL     1      -8.525  11.223  67.204  1.00  0.00    -0.149 A  
HETATM   14  C   UNL     1      -8.562   9.859  66.914  1.00  0.00    -0.128 A  
HETATM   15  C   UNL     1      -9.432   9.356  65.938  1.00  0.00    -0.251 A  
HETATM   16 CL   UNL     1      -7.428   8.821  67.708  1.00  0.00    -0.092 Cl 
HETATM   17  C   UNL     1     -10.354  10.238  65.362  1.00  0.00    -0.233 A  
HETATM   18  N   UNL     1      -9.529   7.979  65.663  1.00  0.00    -0.406 NA 
HETATM   19  H1  UNL     1     -10.162   7.613  64.953  1.00  0.00     0.000 HD 
HETATM   20  C   UNL     1     -10.335  11.616  65.640  1.00  0.00    -0.262 A  
HETATM   21  H2  UNL     1      -9.735   7.501  66.540  1.00  0.00     0.000 HD 
BRANCH  20  22
HETATM   22  O   UNL     1     -11.214  12.333  64.872  1.00  0.00    -0.303 OA 
HETATM   23  C   UNL     1     -11.528  11.788  63.594  1.00  0.00    -0.431 C  
ENDBRANCH  20  22
ENDBRANCH   9  12
ENDBRANCH   7   8
ENDBRANCH   6   7
ENDBRANCH   3   6
ENDBRANCH   2   3
TORSDOF 7
ENDMDL
MODEL      147
REMARK 921   NORMALIZED FREE ENERGY PREDICTED BY IDOCK:   -3.91 KCAL/MOL
REMARK 922        TOTAL FREE ENERGY PREDICTED BY IDOCK:   -6.22 KCAL/MOL
REMARK 923 INTER-LIGAND FREE ENERGY PREDICTED BY IDOCK:   -5.63 KCAL/MOL
REMARK 924 INTRA-LIGAND FREE ENERGY PREDICTED BY IDOCK:   -0.59 KCAL/MOL
REMARK 927      BINDING AFFINITY PREDICTED BY RF-SCORE:    0.00 PKD
ROOT
HETATM    1  C   UNL     1      -9.617   3.730  70.469  1.00  0.00    -0.262 C  
HETATM    2  C   UNL     1      -9.673   5.174  70.957  1.00  0.00    -0.183 C  
ENDROOT
BRANCH   2   3
HETATM    3  N   UNL     1      -9.813   6.181  69.889  1.00  0.00    -0.165 NA 
BRANCH   3   4
HETATM    4  C   UNL     1     -10.865   5.860  68.904  1.00  0.00    -0.303 C  
HETATM    5  C   UNL     1     -10.407   5.644  67.462  1.00  0.00    -0.277 C  
ENDBRANCH   3   4
BRANCH   3   6
HETATM    6  C   UNL     1     -10.012   7.544  70.440  1.00  0.00    -0.184 C  
BRANCH   6   7
HETATM    7  C   UNL     1     -11.292   8.259  69.976  1.00  0.00     0.000 C  
BRANCH   7   8
HETATM    8  N   UNL     1     -11.074   9.103  68.814  1.00  0.00    -0.447 N  
HETATM    9  C   UNL     1     -11.116  10.479  68.916  1.00  0.00    -0.261 C  
HETATM   10  H   UNL     1     -10.887   8.672  67.909  1.00  0.00     0.000 HD 
HETATM   11  O   UNL     1     -11.363  11.062  69.963  1.00  0.00    -0.285 OA 
BRANCH   9  12
HETATM   12  C   UNL     1     -10.736  11.247  67.705  1.00  0.00    -0.270 A  
HETATM   13  C   UNL     1     -11.645  12.226  67.263  1.00  0.00    -0.427 A  
HETATM   14  C   UNL     1     -11.502  12.808  66.003  1.00  0.00    -0.350 A  
HETATM   15  C   UNL     1     -10.476  12.406  65.138  1.00  0.00    -0.292 A  
HETATM   16 CL   UNL     1     -12.691  13.957  65.491  1.00  0.00    -0.559 Cl 
HETATM   17  C   UNL     1      -9.521  11.505  65.624  1.00  0.00    -0.244 A  
HETATM   18  N   UNL     1     -10.277  13.014  63.884  1.00  0.00    -0.713 NA 
HETATM   19  H1  UNL     1      -9.530  12.721  63.255  1.00  0.00     0.000 HD 
HETATM   20  C   UNL     1      -9.645  10.906  66.890  1.00  0.00    -0.178 A  
HETATM   21  H2  UNL     1     -10.180  14.017  64.038  1.00  0.00     0.000 HD 
BRANCH  20  22
HETATM   22  O   UNL     1      -8.697   9.946  67.127  1.00  0.00    -0.131 OA 
HETATM   23  C   UNL     1      -7.597   9.907  66.223  1.00  0.00    -0.102 C  
ENDBRANCH  20  22
ENDBRANCH   9  12
ENDBRANCH   7   8
ENDBRANCH   6   7
ENDBRANCH   3   6
ENDBRANCH   2   3
TORSDOF 7
ENDMDL
MODEL      148
REMARK 921   NORMALIZED FREE ENERGY PREDICTED BY IDOCK:   -3.91 KCAL/MOL
REMARK 922        TOTAL FREE ENERGY PREDICTED BY IDOCK:   -6.22 KCAL/MOL
REMARK 923 INTER-LIGAND FREE ENERGY PREDICTED BY IDOCK:   -5.31 KCAL/MOL
REMARK 924 INTRA-LIGAND FREE ENERGY PREDICTED BY IDOCK:   -0.91 KCAL/MOL
REMARK 927      BINDING AFFINITY PREDICTED BY RF-SCORE:    0.00 PKD
ROOT
HETATM    1  C   UNL     1     -12.224  14.045  64.977  1.00  0.00    -0.448 C  
HETATM    2  C   UNL     1     -12.033  12.672  65.613  1.00  0.00    -0.452 C  
ENDROOT
BRANCH   2   3
HETATM    3  N   UNL     1     -11.123  12.650  66.772  1.00  0.00    -0.266 NA 
BRANCH   3   4
HETATM    4  C   UNL     1      -9.870  13.403  66.559  1.00  0.00    -0.286 C  
HETATM    5  C   UNL     1      -8.622  12.863  67.256  1.00  0.00    -0.205 C  
ENDBRANCH   3   4
BRANCH   3   6
HETATM    6  C   UNL     1     -11.799  13.105  68.012  1.00  0.00    -0.358 C  
BRANCH   6   7
HETATM    7  C   UNL     1     -11.994  12.024  69.088  1.00  0.00    -0.268 C  
BRANCH   7   8
HETATM    8  N   UNL     1     -11.733  10.684  68.591  1.00  0.00    -0.488 N  
HETATM    9  C   UNL     1     -10.967   9.792  69.315  1.00  0.00    -0.193 C  
HETATM   10  H   UNL     1     -12.122  10.398  67.693  1.00  0.00     0.000 HD 
HETATM   11  O   UNL     1     -10.447  10.078  70.386  1.00  0.00    -0.281 OA 
BRANCH   9  12
HETATM   12  C   UNL     1     -10.884   8.408  68.790  1.00  0.00     0.013 A  
HETATM   13  C   UNL     1     -10.829   7.371  69.740  1.00  0.00    -0.246 A  
HETATM   14  C   UNL     1     -10.488   6.074  69.354  1.00  0.00    -0.267 A  
HETATM   15  C   UNL     1     -10.158   5.783  68.024  1.00  0.00    -0.161 A  
HETATM   16 CL   UNL     1     -10.374   4.858  70.580  1.00  0.00    -0.286 Cl 
HETATM   17  C   UNL     1     -10.312   6.798  67.072  1.00  0.00    -0.338 A  
HETATM   18  N   UNL     1      -9.864   4.475  67.598  1.00  0.00    -0.154 NA 
HETATM   19  H1  UNL     1      -9.623   4.263  66.630  1.00  0.00     0.000 HD 
HETATM   20  C   UNL     1     -10.654   8.111  67.438  1.00  0.00    -0.255 A  
HETATM   21  H2  UNL     1     -10.648   3.878  67.862  1.00  0.00     0.000 HD 
BRANCH  20  22
HETATM   22  O   UNL     1     -10.611   8.991  66.388  1.00  0.00    -0.148 OA 
HETATM   23  C   UNL     1      -9.399   9.026  65.641  1.00  0.00    -0.222 C  
ENDBRANCH  20  22
ENDBRANCH   9  12
ENDBRANCH   7   8
ENDBRANCH   6   7
ENDBRANCH   3   6
ENDBRANCH   2   3
TORSDOF 7
ENDMDL
MODEL      149
REMARK 921   NORMALIZED FREE ENERGY PREDICTED BY IDOCK:   -3.90 KCAL/MOL
REMARK 922        TOTAL FREE ENERGY PREDICTED BY IDOCK:   -6.21 KCAL/MOL
REMARK 923 INTER-LIGAND FREE ENERGY PREDICTED BY IDOCK:   -5.69 KCAL/MOL
REMARK 924 INTRA-LIGAND FREE ENERGY PREDICTED BY IDOCK:   -0.52 KCAL/MOL
REMARK 927      BINDING AFFINITY PREDICTED BY RF-SCORE:    0.00 PKD
ROOT
HETATM    1  C   UNL     1      -7.893   4.609  67.392  1.00  0.00    -0.090 C  
HETATM    2  C   UNL     1      -9.148   5.417  67.077  1.00  0.00    -0.112 C  
ENDROOT
BRANCH   2   3
HETATM    3  N   UNL     1     -10.106   5.527  68.192  1.00  0.00    -0.161 NA 
BRANCH   3   4
HETATM    4  C   UNL     1      -9.474   5.474  69.526  1.00  0.00    -0.141 C  
HETATM    5  C   UNL     1     -10.349   4.979  70.677  1.00  0.00    -0.278 C  
ENDBRANCH   3   4
BRANCH   3   6
HETATM    6  C   UNL     1     -10.960   6.734  68.068  1.00  0.00    -0.209 C  
BRANCH   6   7
HETATM    7  C   UNL     1     -10.225   8.076  68.213  1.00  0.00    -0.205 C  
BRANCH   7   8
HETATM    8  N   UNL     1     -10.682   9.072  67.260  1.00  0.00    -0.378 N  
HETATM    9  C   UNL     1      -9.936  10.204  66.998  1.00  0.00    -0.199 C  
HETATM   10  H   UNL     1     -11.570   8.933  66.776  1.00  0.00     0.000 HD 
HETATM   11  O   UNL     1      -8.877  10.448  67.562  1.00  0.00    -0.134 OA 
BRANCH   9  12
HETATM   12  C   UNL     1     -10.419  11.081  65.904  1.00  0.00    -0.300 A  
HETATM   13  C   UNL     1     -11.236  12.165  66.274  1.00  0.00    -0.382 A  
HETATM   14  C   UNL     1     -11.944  12.881  65.309  1.00  0.00    -0.419 A  
HETATM   15  C   UNL     1     -11.887  12.514  63.957  1.00  0.00    -0.431 A  
HETATM   16 CL   UNL     1     -12.983  14.161  65.834  1.00  0.00    -0.338 Cl 
HETATM   17  C   UNL     1     -10.997  11.499  63.589  1.00  0.00    -0.482 A  
HETATM   18  N   UNL     1     -12.549  13.251  62.957  1.00  0.00    -0.722 NA 
HETATM   19  H1  UNL     1     -12.507  12.984  61.973  1.00  0.00     0.000 HD 
HETATM   20  C   UNL     1     -10.273  10.765  64.545  1.00  0.00    -0.359 A  
HETATM   21  H2  UNL     1     -12.240  14.220  63.030  1.00  0.00     0.000 HD 
BRANCH  20  22
HETATM   22  O   UNL     1      -9.571   9.721  64.004  1.00  0.00    -0.190 OA 
HETATM   23  C   UNL     1      -8.162   9.899  63.888  1.00  0.00    -0.156 C  
ENDBRANCH  20  22
ENDBRANCH   9  12
ENDBRANCH   7   8
ENDBRANCH   6   7
ENDBRANCH   3   6
ENDBRANCH   2   3
TORSDOF 7
ENDMDL
MODEL      150
REMARK 921   NORMALIZED FREE ENERGY PREDICTED BY IDOCK:   -3.90 KCAL/MOL
REMARK 922        TOTAL FREE ENERGY PREDICTED BY IDOCK:   -6.21 KCAL/MOL
REMARK 923 INTER-LIGAND FREE ENERGY PREDICTED BY IDOCK:   -5.86 KCAL/MOL
REMARK 924 INTRA-LIGAND FREE ENERGY PREDICTED BY IDOCK:   -0.35 KCAL/MOL
REMARK 927      BINDING AFFINITY PREDICTED BY RF-SCORE:    0.00 PKD
ROOT
HETATM    1  C   UNL     1     -10.530  15.546  67.723  1.00  0.00    -0.273 C  
HETATM    2  C   UNL     1     -10.525  14.293  66.853  1.00  0.00    -0.272 C  
ENDROOT
BRANCH   2   3
HETATM    3  N   UNL     1     -11.807  13.565  66.815  1.00  0.00    -0.386 NA 
BRANCH   3   4
HETATM    4  C   UNL     1     -12.612  13.842  65.608  1.00  0.00    -0.517 C  
HETATM    5  C   UNL     1     -12.064  13.311  64.285  1.00  0.00    -0.475 C  
ENDBRANCH   3   4
BRANCH   3   6
HETATM    6  C   UNL     1     -11.616  12.105  66.990  1.00  0.00    -0.337 C  
BRANCH   6   7
HETATM    7  C   UNL     1     -11.839  11.580  68.418  1.00  0.00    -0.283 C  
BRANCH   7   8
HETATM    8  N   UNL     1     -11.314  10.239  68.611  1.00  0.00    -0.455 N  
HETATM    9  C   UNL     1     -11.091   9.737  69.878  1.00  0.00    -0.254 C  
HETATM   10  H   UNL     1     -11.107   9.659  67.798  1.00  0.00     0.000 HD 
HETATM   11  O   UNL     1     -11.290  10.387  70.896  1.00  0.00    -0.335 OA 
BRANCH   9  12
HETATM   12  C   UNL     1     -10.694   8.310  69.967  1.00  0.00    -0.239 A  
HETATM   13  C   UNL     1      -9.773   7.846  69.011  1.00  0.00    -0.162 A  
HETATM   14  C   UNL     1      -9.544   6.479  68.852  1.00  0.00    -0.127 A  
HETATM   15  C   UNL     1     -10.252   5.539  69.614  1.00  0.00    -0.266 A  
HETATM   16 CL   UNL     1      -8.448   5.970  67.614  1.00  0.00    -0.108 Cl 
HETATM   17  C   UNL     1     -11.092   6.013  70.628  1.00  0.00    -0.371 A  
HETATM   18  N   UNL     1     -10.002   4.158  69.512  1.00  0.00    -0.107 NA 
HETATM   19  H1  UNL     1     -10.517   3.474  70.066  1.00  0.00     0.000 HD 
HETATM   20  C   UNL     1     -11.336   7.386  70.806  1.00  0.00    -0.280 A  
HETATM   21  H2  UNL     1      -9.007   4.009  69.679  1.00  0.00     0.000 HD 
BRANCH  20  22
HETATM   22  O   UNL     1     -12.296   7.644  71.749  1.00  0.00    -0.299 OA 
HETATM   23  C   UNL     1     -13.634   7.301  71.400  1.00  0.00    -0.311 C  
ENDBRANCH  20  22
ENDBRANCH   9  12
ENDBRANCH   7   8
ENDBRANCH   6   7
ENDBRANCH   3   6
ENDBRANCH   2   3
TORSDOF 7
ENDMDL
MODEL      151
REMARK 921   NORMALIZED FREE ENERGY PREDICTED BY IDOCK:   -3.89 KCAL/MOL
REMARK 922        TOTAL FREE ENERGY PREDICTED BY IDOCK:   -6.19 KCAL/MOL
REMARK 923 INTER-LIGAND FREE ENERGY PREDICTED BY IDOCK:   -5.55 KCAL/MOL
REMARK 924 INTRA-LIGAND FREE ENERGY PREDICTED BY IDOCK:   -0.65 KCAL/MOL
REMARK 927      BINDING AFFINITY PREDICTED BY RF-SCORE:    0.00 PKD
ROOT
HETATM    1  C   UNL     1      -5.319  18.120  70.649  1.00  0.00    -0.259 C  
HETATM    2  C   UNL     1      -6.020  16.924  70.012  1.00  0.00    -0.184 C  
ENDROOT
BRANCH   2   3
HETATM    3  N   UNL     1      -7.206  17.262  69.204  1.00  0.00    -0.222 NA 
BRANCH   3   4
HETATM    4  C   UNL     1      -7.196  18.644  68.684  1.00  0.00    -0.291 C  
HETATM    5  C   UNL     1      -7.541  18.820  67.206  1.00  0.00    -0.232 C  
ENDBRANCH   3   4
BRANCH   3   6
HETATM    6  C   UNL     1      -7.417  16.292  68.103  1.00  0.00    -0.144 C  
BRANCH   6   7
HETATM    7  C   UNL     1      -8.242  15.048  68.472  1.00  0.00    -0.151 C  
BRANCH   7   8
HETATM    8  N   UNL     1      -8.557  14.221  67.320  1.00  0.00    -0.205 N  
HETATM    9  C   UNL     1      -9.215  13.017  67.466  1.00  0.00    -0.195 C  
HETATM   10  H   UNL     1      -8.288  14.537  66.388  1.00  0.00     0.000 HD 
HETATM   11  O   UNL     1      -9.542  12.565  68.556  1.00  0.00    -0.194 OA 
BRANCH   9  12
HETATM   12  C   UNL     1      -9.617  12.323  66.218  1.00  0.00    -0.248 A  
HETATM   13  C   UNL     1      -8.983  11.098  65.940  1.00  0.00    -0.210 A  
HETATM   14  C   UNL     1      -9.099  10.509  64.681  1.00  0.00    -0.218 A  
HETATM   15  C   UNL     1      -9.817  11.141  63.656  1.00  0.00    -0.345 A  
HETATM   16 CL   UNL     1      -8.242   9.037  64.381  1.00  0.00    -0.157 Cl 
HETATM   17  C   UNL     1     -10.524  12.308  63.971  1.00  0.00    -0.427 A  
HETATM   18  N   UNL     1      -9.995  10.545  62.394  1.00  0.00    -0.757 NA 
HETATM   19  H1  UNL     1     -10.517  11.005  61.648  1.00  0.00     0.000 HD 
HETATM   20  C   UNL     1     -10.421  12.917  65.234  1.00  0.00    -0.296 A  
HETATM   21  H2  UNL     1     -10.407   9.624  62.541  1.00  0.00     0.000 HD 
BRANCH  20  22
HETATM   22  O   UNL     1     -11.067  14.124  65.303  1.00  0.00    -0.307 OA 
HETATM   23  C   UNL     1     -12.443  14.085  65.669  1.00  0.00    -0.504 C  
ENDBRANCH  20  22
ENDBRANCH   9  12
ENDBRANCH   7   8
ENDBRANCH   6   7
ENDBRANCH   3   6
ENDBRANCH   2   3
TORSDOF 7
ENDMDL
MODEL      152
REMARK 921   NORMALIZED FREE ENERGY PREDICTED BY IDOCK:   -3.88 KCAL/MOL
REMARK 922        TOTAL FREE ENERGY PREDICTED BY IDOCK:   -6.18 KCAL/MOL
REMARK 923 INTER-LIGAND FREE ENERGY PREDICTED BY IDOCK:   -5.23 KCAL/MOL
REMARK 924 INTRA-LIGAND FREE ENERGY PREDICTED BY IDOCK:   -0.96 KCAL/MOL
REMARK 927      BINDING AFFINITY PREDICTED BY RF-SCORE:    0.00 PKD
ROOT
HETATM    1  C   UNL     1     -10.015  10.521  63.765  1.00  0.00    -0.324 C  
HETATM    2  C   UNL     1      -9.666  10.981  65.177  1.00  0.00    -0.254 C  
ENDROOT
BRANCH   2   3
HETATM    3  N   UNL     1      -9.849   9.958  66.222  1.00  0.00    -0.228 NA 
BRANCH   3   4
HETATM    4  C   UNL     1      -8.583   9.451  66.788  1.00  0.00    -0.127 C  
HETATM    5  C   UNL     1      -7.294  10.004  66.180  1.00  0.00    -0.109 C  
ENDBRANCH   3   4
BRANCH   3   6
HETATM    6  C   UNL     1     -10.751  10.429  67.301  1.00  0.00    -0.273 C  
BRANCH   6   7
HETATM    7  C   UNL     1     -10.049  11.050  68.520  1.00  0.00    -0.190 C  
BRANCH   7   8
HETATM    8  N   UNL     1     -10.296  12.476  68.643  1.00  0.00    -0.332 N  
HETATM    9  C   UNL     1      -9.398  13.400  68.147  1.00  0.00    -0.217 C  
HETATM   10  H   UNL     1     -11.146  12.800  69.104  1.00  0.00     0.000 HD 
HETATM   11  O   UNL     1      -8.346  13.083  67.609  1.00  0.00    -0.155 OA 
BRANCH   9  12
HETATM   12  C   UNL     1      -9.814  14.823  68.194  1.00  0.00    -0.221 A  
HETATM   13  C   UNL     1      -9.170  15.702  67.304  1.00  0.00    -0.214 A  
HETATM   14  C   UNL     1      -9.301  17.083  67.452  1.00  0.00    -0.239 A  
HETATM   15  C   UNL     1     -10.044  17.624  68.510  1.00  0.00    -0.375 A  
HETATM   16 CL   UNL     1      -8.432  18.111  66.366  1.00  0.00    -0.282 Cl 
HETATM   17  C   UNL     1     -10.759  16.743  69.330  1.00  0.00    -0.324 A  
HETATM   18  N   UNL     1     -10.236  19.011  68.652  1.00  0.00    -0.450 NA 
HETATM   19  H1  UNL     1     -10.776  19.405  69.423  1.00  0.00     0.000 HD 
HETATM   20  C   UNL     1     -10.642  15.349  69.198  1.00  0.00    -0.248 A  
HETATM   21  H2  UNL     1     -10.635  19.360  67.781  1.00  0.00     0.000 HD 
BRANCH  20  22
HETATM   22  O   UNL     1     -11.300  14.657  70.181  1.00  0.00    -0.257 OA 
HETATM   23  C   UNL     1     -11.527  15.356  71.401  1.00  0.00    -0.406 C  
ENDBRANCH  20  22
ENDBRANCH   9  12
ENDBRANCH   7   8
ENDBRANCH   6   7
ENDBRANCH   3   6
ENDBRANCH   2   3
TORSDOF 7
ENDMDL
MODEL      153
REMARK 921   NORMALIZED FREE ENERGY PREDICTED BY IDOCK:   -3.87 KCAL/MOL
REMARK 922        TOTAL FREE ENERGY PREDICTED BY IDOCK:   -6.17 KCAL/MOL
REMARK 923 INTER-LIGAND FREE ENERGY PREDICTED BY IDOCK:   -5.80 KCAL/MOL
REMARK 924 INTRA-LIGAND FREE ENERGY PREDICTED BY IDOCK:   -0.37 KCAL/MOL
REMARK 927      BINDING AFFINITY PREDICTED BY RF-SCORE:    0.00 PKD
ROOT
HETATM    1  C   UNL     1     -10.815   7.162  70.207  1.00  0.00    -0.271 C  
HETATM    2  C   UNL     1     -11.119   6.661  68.798  1.00  0.00    -0.227 C  
ENDROOT
BRANCH   2   3
HETATM    3  N   UNL     1     -10.058   6.923  67.808  1.00  0.00    -0.151 NA 
BRANCH   3   4
HETATM    4  C   UNL     1      -9.461   5.698  67.239  1.00  0.00    -0.115 C  
HETATM    5  C   UNL     1     -10.400   4.779  66.460  1.00  0.00    -0.284 C  
ENDBRANCH   3   4
BRANCH   3   6
HETATM    6  C   UNL     1     -10.524   7.827  66.728  1.00  0.00    -0.248 C  
BRANCH   6   7
HETATM    7  C   UNL     1      -9.546   8.950  66.345  1.00  0.00    -0.238 C  
BRANCH   7   8
HETATM    8  N   UNL     1      -9.792  10.181  67.076  1.00  0.00    -0.183 N  
HETATM    9  C   UNL     1     -10.366  11.274  66.459  1.00  0.00    -0.240 C  
HETATM   10  H   UNL     1      -9.536  10.239  68.062  1.00  0.00     0.000 HD 
HETATM   11  O   UNL     1     -10.672  11.284  65.273  1.00  0.00    -0.281 OA 
BRANCH   9  12
HETATM   12  C   UNL     1     -10.708  12.427  67.328  1.00  0.00    -0.259 A  
HETATM   13  C   UNL     1     -11.228  12.129  68.601  1.00  0.00    -0.318 A  
HETATM   14  C   UNL     1     -11.817  13.128  69.377  1.00  0.00    -0.326 A  
HETATM   15  C   UNL     1     -11.936  14.438  68.892  1.00  0.00    -0.302 A  
HETATM   16 CL   UNL     1     -12.497  12.685  70.905  1.00  0.00    -0.430 Cl 
HETATM   17  C   UNL     1     -11.328  14.744  67.669  1.00  0.00    -0.352 A  
HETATM   18  N   UNL     1     -12.476  15.475  69.675  1.00  0.00    -0.591 NA 
HETATM   19  H1  UNL     1     -12.563  16.428  69.322  1.00  0.00     0.000 HD 
HETATM   20  C   UNL     1     -10.730  13.753  66.871  1.00  0.00    -0.280 A  
HETATM   21  H2  UNL     1     -11.950  15.513  70.547  1.00  0.00     0.000 HD 
BRANCH  20  22
HETATM   22  O   UNL     1     -10.323  14.220  65.649  1.00  0.00    -0.303 OA 
HETATM   23  C   UNL     1     -11.352  14.621  64.750  1.00  0.00    -0.396 C  
ENDBRANCH  20  22
ENDBRANCH   9  12
ENDBRANCH   7   8
ENDBRANCH   6   7
ENDBRANCH   3   6
ENDBRANCH   2   3
TORSDOF 7
ENDMDL
MODEL      154
REMARK 921   NORMALIZED FREE ENERGY PREDICTED BY IDOCK:   -3.87 KCAL/MOL
REMARK 922        TOTAL FREE ENERGY PREDICTED BY IDOCK:   -6.16 KCAL/MOL
REMARK 923 INTER-LIGAND FREE ENERGY PREDICTED BY IDOCK:   -5.51 KCAL/MOL
REMARK 924 INTRA-LIGAND FREE ENERGY PREDICTED BY IDOCK:   -0.65 KCAL/MOL
REMARK 927      BINDING AFFINITY PREDICTED BY RF-SCORE:    0.00 PKD
ROOT
HETATM    1  C   UNL     1     -11.013  10.346  67.610  1.00  0.00    -0.374 C  
HETATM    2  C   UNL     1     -10.576  11.689  68.186  1.00  0.00    -0.201 C  
ENDROOT
BRANCH   2   3
HETATM    3  N   UNL     1     -11.230  12.058  69.455  1.00  0.00    -0.227 NA 
BRANCH   3   4
HETATM    4  C   UNL     1     -11.832  13.406  69.443  1.00  0.00    -0.335 C  
HETATM    5  C   UNL     1     -11.696  14.203  68.147  1.00  0.00    -0.390 C  
ENDBRANCH   3   4
BRANCH   3   6
HETATM    6  C   UNL     1     -12.228  11.044  69.875  1.00  0.00    -0.336 C  
BRANCH   6   7
HETATM    7  C   UNL     1     -11.965  10.390  71.241  1.00  0.00    -0.330 C  
BRANCH   7   8
HETATM    8  N   UNL     1     -11.192   9.165  71.137  1.00  0.00    -0.296 N  
HETATM    9  C   UNL     1     -11.787   7.931  71.307  1.00  0.00    -0.296 C  
HETATM   10  H   UNL     1     -10.193   9.217  70.935  1.00  0.00     0.000 HD 
HETATM   11  O   UNL     1     -12.973   7.795  71.579  1.00  0.00    -0.329 OA 
BRANCH   9  12
HETATM   12  C   UNL     1     -10.942   6.742  71.036  1.00  0.00    -0.297 A  
HETATM   13  C   UNL     1     -10.723   6.414  69.686  1.00  0.00    -0.339 A  
HETATM   14  C   UNL     1     -10.171   5.181  69.336  1.00  0.00    -0.223 A  
HETATM   15  C   UNL     1      -9.857   4.231  70.317  1.00  0.00    -0.193 A  
HETATM   16 CL   UNL     1      -9.987   4.811  67.656  1.00  0.00    -0.197 Cl 
HETATM   17  C   UNL     1      -9.987   4.604  71.660  1.00  0.00    -0.262 A  
HETATM   18  N   UNL     1      -9.250   3.002  69.997  1.00  0.00    -0.133 NA 
HETATM   19  H1  UNL     1      -9.022   2.310  70.711  1.00  0.00     0.000 HD 
HETATM   20  C   UNL     1     -10.541   5.841  72.034  1.00  0.00    -0.226 A  
HETATM   21  H2  UNL     1      -8.397   3.204  69.475  1.00  0.00     0.000 HD 
BRANCH  20  22
HETATM   22  O   UNL     1     -10.721   5.963  73.387  1.00  0.00    -0.248 OA 
HETATM   23  C   UNL     1     -10.524   4.783  74.160  1.00  0.00    -0.283 C  
ENDBRANCH  20  22
ENDBRANCH   9  12
ENDBRANCH   7   8
ENDBRANCH   6   7
ENDBRANCH   3   6
ENDBRANCH   2   3
TORSDOF 7
ENDMDL
MODEL      155
REMARK 921   NORMALIZED FREE ENERGY PREDICTED BY IDOCK:   -3.86 KCAL/MOL
REMARK 922        TOTAL FREE ENERGY PREDICTED BY IDOCK:   -6.16 KCAL/MOL
REMARK 923 INTER-LIGAND FREE ENERGY PREDICTED BY IDOCK:   -5.42 KCAL/MOL
REMARK 924 INTRA-LIGAND FREE ENERGY PREDICTED BY IDOCK:   -0.74 KCAL/MOL
REMARK 927      BINDING AFFINITY PREDICTED BY RF-SCORE:    0.00 PKD
ROOT
HETATM    1  C   UNL     1      -6.391   9.201  63.578  1.00  0.00    -0.090 C  
HETATM    2  C   UNL     1      -7.762   8.705  64.026  1.00  0.00    -0.134 C  
ENDROOT
BRANCH   2   3
HETATM    3  N   UNL     1      -8.691   9.766  64.458  1.00  0.00    -0.182 NA 
BRANCH   3   4
HETATM    4  C   UNL     1      -9.609  10.220  63.394  1.00  0.00    -0.264 C  
HETATM    5  C   UNL     1     -10.213  11.613  63.563  1.00  0.00    -0.474 C  
ENDBRANCH   3   4
BRANCH   3   6
HETATM    6  C   UNL     1      -9.450   9.373  65.670  1.00  0.00    -0.262 C  
BRANCH   6   7
HETATM    7  C   UNL     1      -8.867   9.875  67.001  1.00  0.00    -0.134 C  
BRANCH   7   8
HETATM    8  N   UNL     1      -9.722  10.849  67.657  1.00  0.00    -0.169 N  
HETATM    9  C   UNL     1      -9.479  12.203  67.543  1.00  0.00    -0.180 C  
HETATM   10  H   UNL     1     -10.516  10.526  68.211  1.00  0.00     0.000 HD 
HETATM   11  O   UNL     1      -8.530  12.658  66.919  1.00  0.00    -0.184 OA 
BRANCH   9  12
HETATM   12  C   UNL     1     -10.494  13.112  68.128  1.00  0.00    -0.255 A  
HETATM   13  C   UNL     1     -10.172  14.481  68.168  1.00  0.00    -0.230 A  
HETATM   14  C   UNL     1     -10.936  15.368  68.927  1.00  0.00    -0.261 A  
HETATM   15  C   UNL     1     -12.017  14.911  69.693  1.00  0.00    -0.320 A  
HETATM   16 CL   UNL     1     -10.449  17.027  68.987  1.00  0.00    -0.334 Cl 
HETATM   17  C   UNL     1     -12.388  13.567  69.570  1.00  0.00    -0.198 A  
HETATM   18  N   UNL     1     -12.836  15.790  70.424  1.00  0.00    -0.663 NA 
HETATM   19  H1  UNL     1     -13.622  15.457  70.983  1.00  0.00     0.000 HD 
HETATM   20  C   UNL     1     -11.632  12.656  68.811  1.00  0.00    -0.313 A  
HETATM   21  H2  UNL     1     -13.190  16.495  69.778  1.00  0.00     0.000 HD 
BRANCH  20  22
HETATM   22  O   UNL     1     -12.069  11.363  68.930  1.00  0.00    -0.424 OA 
HETATM   23  C   UNL     1     -12.269  10.883  70.256  1.00  0.00    -0.348 C  
ENDBRANCH  20  22
ENDBRANCH   9  12
ENDBRANCH   7   8
ENDBRANCH   6   7
ENDBRANCH   3   6
ENDBRANCH   2   3
TORSDOF 7
ENDMDL
MODEL      156
REMARK 921   NORMALIZED FREE ENERGY PREDICTED BY IDOCK:   -3.85 KCAL/MOL
REMARK 922        TOTAL FREE ENERGY PREDICTED BY IDOCK:   -6.14 KCAL/MOL
REMARK 923 INTER-LIGAND FREE ENERGY PREDICTED BY IDOCK:   -5.46 KCAL/MOL
REMARK 924 INTRA-LIGAND FREE ENERGY PREDICTED BY IDOCK:   -0.67 KCAL/MOL
REMARK 927      BINDING AFFINITY PREDICTED BY RF-SCORE:    0.00 PKD
ROOT
HETATM    1  C   UNL     1     -11.764  11.877  63.690  1.00  0.00    -0.572 C  
HETATM    2  C   UNL     1     -10.385  11.922  64.342  1.00  0.00    -0.299 C  
ENDROOT
BRANCH   2   3
HETATM    3  N   UNL     1      -9.831  10.605  64.703  1.00  0.00    -0.293 NA 
BRANCH   3   4
HETATM    4  C   UNL     1      -8.493  10.347  64.133  1.00  0.00    -0.163 C  
HETATM    5  C   UNL     1      -8.241   8.941  63.591  1.00  0.00    -0.172 C  
ENDBRANCH   3   4
BRANCH   3   6
HETATM    6  C   UNL     1      -9.822  10.395  66.171  1.00  0.00    -0.222 C  
BRANCH   6   7
HETATM    7  C   UNL     1     -10.456   9.078  66.650  1.00  0.00    -0.165 C  
BRANCH   7   8
HETATM    8  N   UNL     1     -10.388   8.915  68.092  1.00  0.00    -0.209 N  
HETATM    9  C   UNL     1     -10.660   7.698  68.685  1.00  0.00    -0.130 C  
HETATM   10  H   UNL     1     -10.136   9.712  68.676  1.00  0.00     0.000 HD 
HETATM   11  O   UNL     1     -10.995   6.708  68.048  1.00  0.00    -0.263 OA 
BRANCH   9  12
HETATM   12  C   UNL     1     -10.419   7.601  70.145  1.00  0.00    -0.227 A  
HETATM   13  C   UNL     1     -10.254   6.309  70.677  1.00  0.00    -0.240 A  
HETATM   14  C   UNL     1     -10.286   6.100  72.056  1.00  0.00    -0.199 A  
HETATM   15  C   UNL     1     -10.521   7.164  72.938  1.00  0.00    -0.266 A  
HETATM   16 CL   UNL     1     -10.142   4.480  72.643  1.00  0.00    -0.219 Cl 
HETATM   17  C   UNL     1     -10.586   8.457  72.406  1.00  0.00    -0.405 A  
HETATM   18  N   UNL     1     -10.505   6.991  74.334  1.00  0.00    -0.506 NA 
HETATM   19  H1  UNL     1     -10.676   7.765  74.976  1.00  0.00     0.000 HD 
HETATM   20  C   UNL     1     -10.555   8.690  71.020  1.00  0.00    -0.221 A  
HETATM   21  H2  UNL     1      -9.611   6.569  74.585  1.00  0.00     0.000 HD 
BRANCH  20  22
HETATM   22  O   UNL     1     -10.779  10.001  70.689  1.00  0.00    -0.303 OA 
HETATM   23  C   UNL     1     -12.071  10.518  70.993  1.00  0.00    -0.387 C  
ENDBRANCH  20  22
ENDBRANCH   9  12
ENDBRANCH   7   8
ENDBRANCH   6   7
ENDBRANCH   3   6
ENDBRANCH   2   3
TORSDOF 7
ENDMDL
MODEL      157
REMARK 921   NORMALIZED FREE ENERGY PREDICTED BY IDOCK:   -3.85 KCAL/MOL
REMARK 922        TOTAL FREE ENERGY PREDICTED BY IDOCK:   -6.13 KCAL/MOL
REMARK 923 INTER-LIGAND FREE ENERGY PREDICTED BY IDOCK:   -5.20 KCAL/MOL
REMARK 924 INTRA-LIGAND FREE ENERGY PREDICTED BY IDOCK:   -0.93 KCAL/MOL
REMARK 927      BINDING AFFINITY PREDICTED BY RF-SCORE:    0.00 PKD
ROOT
HETATM    1  C   UNL     1     -10.213   9.854  69.295  1.00  0.00    -0.222 C  
HETATM    2  C   UNL     1     -10.788   9.741  67.887  1.00  0.00    -0.242 C  
ENDROOT
BRANCH   2   3
HETATM    3  N   UNL     1      -9.863   9.178  66.886  1.00  0.00    -0.198 NA 
BRANCH   3   4
HETATM    4  C   UNL     1      -9.997   7.719  66.707  1.00  0.00    -0.261 C  
HETATM    5  C   UNL     1      -8.915   6.849  67.344  1.00  0.00    -0.116 C  
ENDBRANCH   3   4
BRANCH   3   6
HETATM    6  C   UNL     1      -9.971   9.876  65.582  1.00  0.00    -0.283 C  
BRANCH   6   7
HETATM    7  C   UNL     1      -8.914  10.964  65.329  1.00  0.00    -0.186 C  
BRANCH   7   8
HETATM    8  N   UNL     1      -9.391  12.297  65.651  1.00  0.00    -0.436 N  
HETATM    9  C   UNL     1      -9.033  12.916  66.831  1.00  0.00    -0.210 C  
HETATM   10  H   UNL     1     -10.002  12.783  64.994  1.00  0.00     0.000 HD 
HETATM   11  O   UNL     1      -8.327  12.381  67.676  1.00  0.00    -0.148 OA 
BRANCH   9  12
HETATM   12  C   UNL     1      -9.453  14.329  66.996  1.00  0.00    -0.259 A  
HETATM   13  C   UNL     1      -8.451  15.254  67.342  1.00  0.00    -0.197 A  
HETATM   14  C   UNL     1      -8.788  16.538  67.771  1.00  0.00    -0.197 A  
HETATM   15  C   UNL     1     -10.130  16.922  67.902  1.00  0.00    -0.288 A  
HETATM   16 CL   UNL     1      -7.513  17.606  68.245  1.00  0.00    -0.240 Cl 
HETATM   17  C   UNL     1     -11.115  16.030  67.462  1.00  0.00    -0.207 A  
HETATM   18  N   UNL     1     -10.498  18.226  68.280  1.00  0.00    -0.339 NA 
HETATM   19  H1  UNL     1     -11.474  18.506  68.376  1.00  0.00     0.000 HD 
HETATM   20  C   UNL     1     -10.797  14.732  67.026  1.00  0.00    -0.315 A  
HETATM   21  H2  UNL     1     -10.049  18.876  67.634  1.00  0.00     0.000 HD 
BRANCH  20  22
HETATM   22  O   UNL     1     -11.903  13.961  66.778  1.00  0.00    -0.377 OA 
HETATM   23  C   UNL     1     -12.559  14.180  65.533  1.00  0.00    -0.479 C  
ENDBRANCH  20  22
ENDBRANCH   9  12
ENDBRANCH   7   8
ENDBRANCH   6   7
ENDBRANCH   3   6
ENDBRANCH   2   3
TORSDOF 7
ENDMDL
MODEL      158
REMARK 921   NORMALIZED FREE ENERGY PREDICTED BY IDOCK:   -3.84 KCAL/MOL
REMARK 922        TOTAL FREE ENERGY PREDICTED BY IDOCK:   -6.13 KCAL/MOL
REMARK 923 INTER-LIGAND FREE ENERGY PREDICTED BY IDOCK:   -5.35 KCAL/MOL
REMARK 924 INTRA-LIGAND FREE ENERGY PREDICTED BY IDOCK:   -0.78 KCAL/MOL
REMARK 927      BINDING AFFINITY PREDICTED BY RF-SCORE:    0.00 PKD
ROOT
HETATM    1  C   UNL     1      -6.123  14.958  70.007  1.00  0.00    -0.148 C  
HETATM    2  C   UNL     1      -6.895  15.539  68.826  1.00  0.00    -0.116 C  
ENDROOT
BRANCH   2   3
HETATM    3  N   UNL     1      -7.958  16.493  69.194  1.00  0.00    -0.222 NA 
BRANCH   3   4
HETATM    4  C   UNL     1      -8.050  17.658  68.291  1.00  0.00    -0.278 C  
HETATM    5  C   UNL     1      -6.735  18.179  67.712  1.00  0.00    -0.204 C  
ENDBRANCH   3   4
BRANCH   3   6
HETATM    6  C   UNL     1      -9.276  15.826  69.321  1.00  0.00    -0.266 C  
BRANCH   6   7
HETATM    7  C   UNL     1     -10.025  15.593  67.998  1.00  0.00    -0.222 C  
BRANCH   7   8
HETATM    8  N   UNL     1      -9.903  14.227  67.518  1.00  0.00    -0.228 N  
HETATM    9  C   UNL     1     -10.864  13.281  67.811  1.00  0.00    -0.252 C  
HETATM   10  H   UNL     1      -9.094  13.964  66.955  1.00  0.00     0.000 HD 
HETATM   11  O   UNL     1     -11.844  13.520  68.503  1.00  0.00    -0.329 OA 
BRANCH   9  12
HETATM   12  C   UNL     1     -10.719  11.960  67.151  1.00  0.00    -0.280 A  
HETATM   13  C   UNL     1     -10.680  10.832  67.992  1.00  0.00    -0.270 A  
HETATM   14  C   UNL     1     -10.288   9.590  67.493  1.00  0.00    -0.248 A  
HETATM   15  C   UNL     1      -9.889   9.445  66.157  1.00  0.00    -0.285 A  
HETATM   16 CL   UNL     1     -10.198   8.256  68.591  1.00  0.00    -0.216 Cl 
HETATM   17  C   UNL     1     -10.025  10.549  65.308  1.00  0.00    -0.364 A  
HETATM   18  N   UNL     1      -9.540   8.195  65.615  1.00  0.00    -0.397 NA 
HETATM   19  H1  UNL     1      -9.249   8.090  64.643  1.00  0.00     0.000 HD 
HETATM   20  C   UNL     1     -10.418  11.810  65.789  1.00  0.00    -0.260 A  
HETATM   21  H2  UNL     1     -10.319   7.557  65.778  1.00  0.00     0.000 HD 
BRANCH  20  22
HETATM   22  O   UNL     1     -10.351  12.795  64.838  1.00  0.00    -0.298 OA 
HETATM   23  C   UNL     1     -11.201  12.640  63.706  1.00  0.00    -0.463 C  
ENDBRANCH  20  22
ENDBRANCH   9  12
ENDBRANCH   7   8
ENDBRANCH   6   7
ENDBRANCH   3   6
ENDBRANCH   2   3
TORSDOF 7
ENDMDL
MODEL      159
REMARK 921   NORMALIZED FREE ENERGY PREDICTED BY IDOCK:   -3.82 KCAL/MOL
REMARK 922        TOTAL FREE ENERGY PREDICTED BY IDOCK:   -6.10 KCAL/MOL
REMARK 923 INTER-LIGAND FREE ENERGY PREDICTED BY IDOCK:   -5.42 KCAL/MOL
REMARK 924 INTRA-LIGAND FREE ENERGY PREDICTED BY IDOCK:   -0.68 KCAL/MOL
REMARK 927      BINDING AFFINITY PREDICTED BY RF-SCORE:    0.00 PKD
ROOT
HETATM    1  C   UNL     1      -6.696   9.956  63.778  1.00  0.00    -0.125 C  
HETATM    2  C   UNL     1      -7.781   9.783  64.837  1.00  0.00    -0.127 C  
ENDROOT
BRANCH   2   3
HETATM    3  N   UNL     1      -8.688  10.935  64.984  1.00  0.00    -0.149 NA 
BRANCH   3   4
HETATM    4  C   UNL     1      -9.746  10.994  63.955  1.00  0.00    -0.292 C  
HETATM    5  C   UNL     1     -10.638  12.234  63.963  1.00  0.00    -0.434 C  
ENDBRANCH   3   4
BRANCH   3   6
HETATM    6  C   UNL     1      -9.279  11.001  66.343  1.00  0.00    -0.175 C  
BRANCH   6   7
HETATM    7  C   UNL     1      -8.850  12.211  67.188  1.00  0.00    -0.191 C  
BRANCH   7   8
HETATM    8  N   UNL     1      -9.767  12.486  68.281  1.00  0.00    -0.224 N  
HETATM    9  C   UNL     1     -10.277  13.753  68.481  1.00  0.00    -0.235 C  
HETATM   10  H   UNL     1     -10.037  11.731  68.911  1.00  0.00     0.000 HD 
HETATM   11  O   UNL     1      -9.974  14.711  67.782  1.00  0.00    -0.221 OA 
BRANCH   9  12
HETATM   12  C   UNL     1     -11.315  13.894  69.531  1.00  0.00    -0.293 A  
HETATM   13  C   UNL     1     -11.230  15.028  70.359  1.00  0.00    -0.290 A  
HETATM   14  C   UNL     1     -11.991  15.113  71.525  1.00  0.00    -0.360 A  
HETATM   15  C   UNL     1     -12.826  14.058  71.916  1.00  0.00    -0.335 A  
HETATM   16 CL   UNL     1     -11.793  16.504  72.534  1.00  0.00    -0.576 Cl 
HETATM   17  C   UNL     1     -12.977  12.979  71.038  1.00  0.00    -0.196 A  
HETATM   18  N   UNL     1     -13.644  14.139  73.059  1.00  0.00    -0.584 NA 
HETATM   19  H1  UNL     1     -14.252  13.371  73.344  1.00  0.00     0.000 HD 
HETATM   20  C   UNL     1     -12.221  12.873  69.858  1.00  0.00    -0.188 A  
HETATM   21  H2  UNL     1     -14.221  14.976  72.969  1.00  0.00     0.000 HD 
BRANCH  20  22
HETATM   22  O   UNL     1     -12.401  11.681  69.207  1.00  0.00    -0.208 OA 
HETATM   23  C   UNL     1     -12.299  10.504  70.004  1.00  0.00    -0.219 C  
ENDBRANCH  20  22
ENDBRANCH   9  12
ENDBRANCH   7   8
ENDBRANCH   6   7
ENDBRANCH   3   6
ENDBRANCH   2   3
TORSDOF 7
ENDMDL
MODEL      160
REMARK 921   NORMALIZED FREE ENERGY PREDICTED BY IDOCK:   -3.79 KCAL/MOL
REMARK 922        TOTAL FREE ENERGY PREDICTED BY IDOCK:   -6.06 KCAL/MOL
REMARK 923 INTER-LIGAND FREE ENERGY PREDICTED BY IDOCK:   -5.55 KCAL/MOL
REMARK 924 INTRA-LIGAND FREE ENERGY PREDICTED BY IDOCK:   -0.50 KCAL/MOL
REMARK 927      BINDING AFFINITY PREDICTED BY RF-SCORE:    0.00 PKD
ROOT
HETATM    1  C   UNL     1      -9.452   9.479  65.319  1.00  0.00    -0.326 C  
HETATM    2  C   UNL     1     -10.213  10.053  66.510  1.00  0.00    -0.224 C  
ENDROOT
BRANCH   2   3
HETATM    3  N   UNL     1     -10.627  11.460  66.357  1.00  0.00    -0.255 NA 
BRANCH   3   4
HETATM    4  C   UNL     1     -10.500  12.255  67.596  1.00  0.00    -0.214 C  
HETATM    5  C   UNL     1     -10.771  11.521  68.908  1.00  0.00    -0.245 C  
ENDBRANCH   3   4
BRANCH   3   6
HETATM    6  C   UNL     1      -9.917  12.125  65.237  1.00  0.00    -0.237 C  
BRANCH   6   7
HETATM    7  C   UNL     1     -10.551  13.435  64.743  1.00  0.00    -0.405 C  
BRANCH   7   8
HETATM    8  N   UNL     1      -9.705  14.592  64.977  1.00  0.00    -0.437 N  
HETATM    9  C   UNL     1     -10.033  15.533  65.931  1.00  0.00    -0.349 C  
HETATM   10  H   UNL     1      -8.854  14.710  64.427  1.00  0.00     0.000 HD 
HETATM   11  O   UNL     1     -11.051  15.469  66.607  1.00  0.00    -0.293 OA 
BRANCH   9  12
HETATM   12  C   UNL     1      -9.029  16.594  66.192  1.00  0.00    -0.321 A  
HETATM   13  C   UNL     1      -7.703  16.175  66.402  1.00  0.00    -0.129 A  
HETATM   14  C   UNL     1      -6.751  17.061  66.908  1.00  0.00    -0.217 A  
HETATM   15  C   UNL     1      -7.103  18.373  67.252  1.00  0.00    -0.200 A  
HETATM   16 CL   UNL     1      -5.153  16.467  67.205  1.00  0.00    -0.138 Cl 
HETATM   17  C   UNL     1      -8.398  18.808  66.948  1.00  0.00    -0.277 A  
HETATM   18  N   UNL     1      -6.152  19.303  67.714  1.00  0.00    -0.200 NA 
HETATM   19  H1  UNL     1      -6.408  20.258  67.965  1.00  0.00     0.000 HD 
HETATM   20  C   UNL     1      -9.372  17.932  66.438  1.00  0.00    -0.255 A  
HETATM   21  H2  UNL     1      -5.404  19.352  67.022  1.00  0.00     0.000 HD 
BRANCH  20  22
HETATM   22  O   UNL     1     -10.614  18.504  66.345  1.00  0.00    -0.393 OA 
HETATM   23  C   UNL     1     -10.909  19.533  67.284  1.00  0.00    -0.437 C  
ENDBRANCH  20  22
ENDBRANCH   9  12
ENDBRANCH   7   8
ENDBRANCH   6   7
ENDBRANCH   3   6
ENDBRANCH   2   3
TORSDOF 7
ENDMDL
MODEL      161
REMARK 921   NORMALIZED FREE ENERGY PREDICTED BY IDOCK:   -3.79 KCAL/MOL
REMARK 922        TOTAL FREE ENERGY PREDICTED BY IDOCK:   -6.06 KCAL/MOL
REMARK 923 INTER-LIGAND FREE ENERGY PREDICTED BY IDOCK:   -5.65 KCAL/MOL
REMARK 924 INTRA-LIGAND FREE ENERGY PREDICTED BY IDOCK:   -0.40 KCAL/MOL
REMARK 927      BINDING AFFINITY PREDICTED BY RF-SCORE:    0.00 PKD
ROOT
HETATM    1  C   UNL     1     -10.641   3.736  64.557  1.00  0.00    -0.168 C  
HETATM    2  C   UNL     1      -9.679   4.701  65.242  1.00  0.00    -0.136 C  
ENDROOT
BRANCH   2   3
HETATM    3  N   UNL     1      -9.989   4.980  66.656  1.00  0.00    -0.196 NA 
BRANCH   3   4
HETATM    4  C   UNL     1      -8.794   5.222  67.490  1.00  0.00    -0.105 C  
HETATM    5  C   UNL     1      -8.619   4.320  68.710  1.00  0.00    -0.105 C  
ENDBRANCH   3   4
BRANCH   3   6
HETATM    6  C   UNL     1     -10.959   6.093  66.798  1.00  0.00    -0.245 C  
BRANCH   6   7
HETATM    7  C   UNL     1     -10.338   7.497  66.894  1.00  0.00    -0.309 C  
BRANCH   7   8
HETATM    8  N   UNL     1     -10.855   8.264  68.013  1.00  0.00    -0.467 N  
HETATM    9  C   UNL     1     -10.187   9.377  68.483  1.00  0.00    -0.199 C  
HETATM   10  H   UNL     1     -11.725   7.976  68.460  1.00  0.00     0.000 HD 
HETATM   11  O   UNL     1      -9.124   9.763  68.014  1.00  0.00    -0.125 OA 
BRANCH   9  12
HETATM   12  C   UNL     1     -10.873  10.171  69.532  1.00  0.00    -0.289 A  
HETATM   13  C   UNL     1     -11.474   9.453  70.581  1.00  0.00    -0.344 A  
HETATM   14  C   UNL     1     -12.355  10.084  71.459  1.00  0.00    -0.419 A  
HETATM   15  C   UNL     1     -12.688  11.436  71.294  1.00  0.00    -0.393 A  
HETATM   16 CL   UNL     1     -13.113   9.131  72.688  1.00  0.00    -0.437 Cl 
HETATM   17  C   UNL     1     -12.010  12.164  70.310  1.00  0.00    -0.389 A  
HETATM   18  N   UNL     1     -13.531  12.111  72.196  1.00  0.00    -0.510 NA 
HETATM   19  H1  UNL     1     -13.774  13.094  72.076  1.00  0.00     0.000 HD 
HETATM   20  C   UNL     1     -11.119  11.548  69.414  1.00  0.00    -0.226 A  
HETATM   21  H2  UNL     1     -13.140  11.998  73.131  1.00  0.00     0.000 HD 
BRANCH  20  22
HETATM   22  O   UNL     1     -10.669  12.393  68.434  1.00  0.00    -0.220 OA 
HETATM   23  C   UNL     1     -11.661  12.957  67.582  1.00  0.00    -0.370 C  
ENDBRANCH  20  22
ENDBRANCH   9  12
ENDBRANCH   7   8
ENDBRANCH   6   7
ENDBRANCH   3   6
ENDBRANCH   2   3
TORSDOF 7
ENDMDL
MODEL      162
REMARK 921   NORMALIZED FREE ENERGY PREDICTED BY IDOCK:   -3.79 KCAL/MOL
REMARK 922        TOTAL FREE ENERGY PREDICTED BY IDOCK:   -6.05 KCAL/MOL
REMARK 923 INTER-LIGAND FREE ENERGY PREDICTED BY IDOCK:   -5.40 KCAL/MOL
REMARK 924 INTRA-LIGAND FREE ENERGY PREDICTED BY IDOCK:   -0.65 KCAL/MOL
REMARK 927      BINDING AFFINITY PREDICTED BY RF-SCORE:    0.00 PKD
ROOT
HETATM    1  C   UNL     1     -10.786  11.319  64.504  1.00  0.00    -0.390 C  
HETATM    2  C   UNL     1      -9.700  10.248  64.458  1.00  0.00    -0.329 C  
ENDROOT
BRANCH   2   3
HETATM    3  N   UNL     1      -9.074   9.949  65.759  1.00  0.00    -0.157 NA 
BRANCH   3   4
HETATM    4  C   UNL     1      -9.162   8.527  66.148  1.00  0.00    -0.211 C  
HETATM    5  C   UNL     1     -10.374   8.121  66.985  1.00  0.00    -0.403 C  
ENDBRANCH   3   4
BRANCH   3   6
HETATM    6  C   UNL     1      -7.669  10.419  65.816  1.00  0.00    -0.146 C  
BRANCH   6   7
HETATM    7  C   UNL     1      -7.387  11.523  66.848  1.00  0.00    -0.140 C  
BRANCH   7   8
HETATM    8  N   UNL     1      -8.580  12.266  67.216  1.00  0.00    -0.176 N  
HETATM    9  C   UNL     1      -9.298  11.946  68.350  1.00  0.00    -0.184 C  
HETATM   10  H   UNL     1      -8.892  13.037  66.625  1.00  0.00     0.000 HD 
HETATM   11  O   UNL     1      -8.997  11.016  69.088  1.00  0.00    -0.109 OA 
BRANCH   9  12
HETATM   12  C   UNL     1     -10.412  12.856  68.712  1.00  0.00    -0.183 A  
HETATM   13  C   UNL     1     -10.135  14.235  68.696  1.00  0.00    -0.238 A  
HETATM   14  C   UNL     1     -11.026  15.144  69.268  1.00  0.00    -0.258 A  
HETATM   15  C   UNL     1     -12.195  14.702  69.901  1.00  0.00    -0.316 A  
HETATM   16 CL   UNL     1     -10.597  16.820  69.274  1.00  0.00    -0.335 Cl 
HETATM   17  C   UNL     1     -12.509  13.340  69.825  1.00  0.00    -0.072 A  
HETATM   18  N   UNL     1     -13.137  15.599  70.438  1.00  0.00    -0.725 NA 
HETATM   19  H1  UNL     1     -13.987  15.277  70.900  1.00  0.00     0.000 HD 
HETATM   20  C   UNL     1     -11.626  12.407  69.254  1.00  0.00    -0.319 A  
HETATM   21  H2  UNL     1     -13.409  16.244  69.697  1.00  0.00     0.000 HD 
BRANCH  20  22
HETATM   22  O   UNL     1     -12.041  11.110  69.405  1.00  0.00    -0.333 OA 
HETATM   23  C   UNL     1     -12.507  10.742  70.700  1.00  0.00    -0.370 C  
ENDBRANCH  20  22
ENDBRANCH   9  12
ENDBRANCH   7   8
ENDBRANCH   6   7
ENDBRANCH   3   6
ENDBRANCH   2   3
TORSDOF 7
ENDMDL
MODEL      163
REMARK 921   NORMALIZED FREE ENERGY PREDICTED BY IDOCK:   -3.79 KCAL/MOL
REMARK 922        TOTAL FREE ENERGY PREDICTED BY IDOCK:   -6.05 KCAL/MOL
REMARK 923 INTER-LIGAND FREE ENERGY PREDICTED BY IDOCK:   -5.22 KCAL/MOL
REMARK 924 INTRA-LIGAND FREE ENERGY PREDICTED BY IDOCK:   -0.83 KCAL/MOL
REMARK 927      BINDING AFFINITY PREDICTED BY RF-SCORE:    0.00 PKD
ROOT
HETATM    1  C   UNL     1     -11.177   6.321  71.142  1.00  0.00    -0.365 C  
HETATM    2  C   UNL     1     -10.553   6.274  69.751  1.00  0.00    -0.264 C  
ENDROOT
BRANCH   2   3
HETATM    3  N   UNL     1      -9.093   6.072  69.736  1.00  0.00    -0.139 NA 
BRANCH   3   4
HETATM    4  C   UNL     1      -8.622   5.222  68.625  1.00  0.00    -0.087 C  
HETATM    5  C   UNL     1      -9.689   4.701  67.663  1.00  0.00    -0.207 C  
ENDBRANCH   3   4
BRANCH   3   6
HETATM    6  C   UNL     1      -8.359   7.361  69.754  1.00  0.00    -0.134 C  
BRANCH   6   7
HETATM    7  C   UNL     1      -8.126   8.003  68.376  1.00  0.00    -0.122 C  
BRANCH   7   8
HETATM    8  N   UNL     1      -8.881   9.231  68.194  1.00  0.00    -0.129 N  
HETATM    9  C   UNL     1      -9.605   9.457  67.041  1.00  0.00    -0.158 C  
HETATM   10  H   UNL     1      -8.875   9.937  68.930  1.00  0.00     0.000 HD 
HETATM   11  O   UNL     1      -9.634   8.667  66.107  1.00  0.00    -0.239 OA 
BRANCH   9  12
HETATM   12  C   UNL     1     -10.456  10.672  67.018  1.00  0.00    -0.295 A  
HETATM   13  C   UNL     1     -10.181  11.620  66.016  1.00  0.00    -0.270 A  
HETATM   14  C   UNL     1     -10.743  12.896  66.074  1.00  0.00    -0.277 A  
HETATM   15  C   UNL     1     -11.562  13.272  67.147  1.00  0.00    -0.357 A  
HETATM   16 CL   UNL     1     -10.313  14.038  64.847  1.00  0.00    -0.443 Cl 
HETATM   17  C   UNL     1     -11.908  12.292  68.084  1.00  0.00    -0.372 A  
HETATM   18  N   UNL     1     -12.185  14.533  67.202  1.00  0.00    -0.558 NA 
HETATM   19  H1  UNL     1     -12.781  14.806  67.983  1.00  0.00     0.000 HD 
HETATM   20  C   UNL     1     -11.354  11.001  68.045  1.00  0.00    -0.306 A  
HETATM   21  H2  UNL     1     -12.722  14.652  66.344  1.00  0.00     0.000 HD 
BRANCH  20  22
HETATM   22  O   UNL     1     -11.699  10.233  69.127  1.00  0.00    -0.160 OA 
HETATM   23  C   UNL     1     -11.540  10.837  70.407  1.00  0.00    -0.339 C  
ENDBRANCH  20  22
ENDBRANCH   9  12
ENDBRANCH   7   8
ENDBRANCH   6   7
ENDBRANCH   3   6
ENDBRANCH   2   3
TORSDOF 7
ENDMDL
MODEL      164
REMARK 921   NORMALIZED FREE ENERGY PREDICTED BY IDOCK:   -3.78 KCAL/MOL
REMARK 922        TOTAL FREE ENERGY PREDICTED BY IDOCK:   -6.05 KCAL/MOL
REMARK 923 INTER-LIGAND FREE ENERGY PREDICTED BY IDOCK:   -5.43 KCAL/MOL
REMARK 924 INTRA-LIGAND FREE ENERGY PREDICTED BY IDOCK:   -0.62 KCAL/MOL
REMARK 927      BINDING AFFINITY PREDICTED BY RF-SCORE:    0.00 PKD
ROOT
HETATM    1  C   UNL     1      -6.806   9.098  68.299  1.00  0.00    -0.065 C  
HETATM    2  C   UNL     1      -8.071   8.395  68.782  1.00  0.00    -0.121 C  
ENDROOT
BRANCH   2   3
HETATM    3  N   UNL     1      -9.024   8.038  67.715  1.00  0.00    -0.132 NA 
BRANCH   3   4
HETATM    4  C   UNL     1      -9.456   6.626  67.752  1.00  0.00    -0.120 C  
HETATM    5  C   UNL     1     -10.889   6.338  67.308  1.00  0.00    -0.457 C  
ENDBRANCH   3   4
BRANCH   3   6
HETATM    6  C   UNL     1     -10.199   8.942  67.701  1.00  0.00    -0.237 C  
BRANCH   6   7
HETATM    7  C   UNL     1     -10.289   9.883  66.488  1.00  0.00    -0.188 C  
BRANCH   7   8
HETATM    8  N   UNL     1     -10.179  11.284  66.855  1.00  0.00    -0.212 N  
HETATM    9  C   UNL     1     -11.212  11.936  67.497  1.00  0.00    -0.296 C  
HETATM   10  H   UNL     1      -9.324  11.795  66.634  1.00  0.00     0.000 HD 
HETATM   11  O   UNL     1     -12.276  11.393  67.767  1.00  0.00    -0.537 OA 
BRANCH   9  12
HETATM   12  C   UNL     1     -10.942  13.320  67.957  1.00  0.00    -0.266 A  
HETATM   13  C   UNL     1     -11.447  13.680  69.220  1.00  0.00    -0.344 A  
HETATM   14  C   UNL     1     -11.473  15.016  69.619  1.00  0.00    -0.294 A  
HETATM   15  C   UNL     1     -11.032  16.031  68.759  1.00  0.00    -0.320 A  
HETATM   16 CL   UNL     1     -12.167  15.400  71.156  1.00  0.00    -0.382 Cl 
HETATM   17  C   UNL     1     -10.441  15.655  67.547  1.00  0.00    -0.285 A  
HETATM   18  N   UNL     1     -10.996  17.381  69.156  1.00  0.00    -0.216 NA 
HETATM   19  H1  UNL     1     -10.676  18.120  68.530  1.00  0.00     0.000 HD 
HETATM   20  C   UNL     1     -10.405  14.315  67.125  1.00  0.00    -0.262 A  
HETATM   21  H2  UNL     1     -10.447  17.438  70.013  1.00  0.00     0.000 HD 
BRANCH  20  22
HETATM   22  O   UNL     1      -9.922  14.164  65.852  1.00  0.00    -0.298 OA 
HETATM   23  C   UNL     1     -10.800  14.537  64.794  1.00  0.00    -0.393 C  
ENDBRANCH  20  22
ENDBRANCH   9  12
ENDBRANCH   7   8
ENDBRANCH   6   7
ENDBRANCH   3   6
ENDBRANCH   2   3
TORSDOF 7
ENDMDL
MODEL      165
REMARK 921   NORMALIZED FREE ENERGY PREDICTED BY IDOCK:   -3.78 KCAL/MOL
REMARK 922        TOTAL FREE ENERGY PREDICTED BY IDOCK:   -6.04 KCAL/MOL
REMARK 923 INTER-LIGAND FREE ENERGY PREDICTED BY IDOCK:   -5.65 KCAL/MOL
REMARK 924 INTRA-LIGAND FREE ENERGY PREDICTED BY IDOCK:   -0.39 KCAL/MOL
REMARK 927      BINDING AFFINITY PREDICTED BY RF-SCORE:    0.00 PKD
ROOT
HETATM    1  C   UNL     1      -7.078  10.192  65.796  1.00  0.00    -0.127 C  
HETATM    2  C   UNL     1      -7.584   8.858  66.336  1.00  0.00    -0.092 C  
ENDROOT
BRANCH   2   3
HETATM    3  N   UNL     1      -9.046   8.678  66.263  1.00  0.00    -0.173 NA 
BRANCH   3   4
HETATM    4  C   UNL     1      -9.479   7.273  66.403  1.00  0.00    -0.127 C  
HETATM    5  C   UNL     1     -10.812   7.037  67.113  1.00  0.00    -0.427 C  
ENDBRANCH   3   4
BRANCH   3   6
HETATM    6  C   UNL     1      -9.757   9.543  67.235  1.00  0.00    -0.167 C  
BRANCH   6   7
HETATM    7  C   UNL     1     -10.521  10.728  66.623  1.00  0.00    -0.246 C  
BRANCH   7   8
HETATM    8  N   UNL     1     -11.140  11.576  67.628  1.00  0.00    -0.247 N  
HETATM    9  C   UNL     1     -10.429  12.586  68.244  1.00  0.00    -0.234 C  
HETATM   10  H   UNL     1     -12.116  11.422  67.882  1.00  0.00     0.000 HD 
HETATM   11  O   UNL     1      -9.248  12.808  68.009  1.00  0.00    -0.196 OA 
BRANCH   9  12
HETATM   12  C   UNL     1     -11.193  13.484  69.145  1.00  0.00    -0.310 A  
HETATM   13  C   UNL     1     -11.848  12.882  70.234  1.00  0.00    -0.291 A  
HETATM   14  C   UNL     1     -12.793  13.593  70.974  1.00  0.00    -0.287 A  
HETATM   15  C   UNL     1     -13.137  14.907  70.626  1.00  0.00    -0.315 A  
HETATM   16 CL   UNL     1     -13.612  12.776  72.260  1.00  0.00    -0.636 Cl 
HETATM   17  C   UNL     1     -12.410  15.528  69.604  1.00  0.00    -0.221 A  
HETATM   18  N   UNL     1     -14.047  15.665  71.386  1.00  0.00    -0.596 NA 
HETATM   19  H1  UNL     1     -14.297  16.621  71.133  1.00  0.00     0.000 HD 
HETATM   20  C   UNL     1     -11.453  14.830  68.846  1.00  0.00    -0.297 A  
HETATM   21  H2  UNL     1     -13.714  15.675  72.350  1.00  0.00     0.000 HD 
BRANCH  20  22
HETATM   22  O   UNL     1     -10.956  15.562  67.800  1.00  0.00    -0.301 OA 
HETATM   23  C   UNL     1     -10.713  16.942  68.054  1.00  0.00    -0.364 C  
ENDBRANCH  20  22
ENDBRANCH   9  12
ENDBRANCH   7   8
ENDBRANCH   6   7
ENDBRANCH   3   6
ENDBRANCH   2   3
TORSDOF 7
ENDMDL
MODEL      166
REMARK 921   NORMALIZED FREE ENERGY PREDICTED BY IDOCK:   -3.77 KCAL/MOL
REMARK 922        TOTAL FREE ENERGY PREDICTED BY IDOCK:   -6.03 KCAL/MOL
REMARK 923 INTER-LIGAND FREE ENERGY PREDICTED BY IDOCK:   -5.80 KCAL/MOL
REMARK 924 INTRA-LIGAND FREE ENERGY PREDICTED BY IDOCK:   -0.23 KCAL/MOL
REMARK 927      BINDING AFFINITY PREDICTED BY RF-SCORE:    0.00 PKD
ROOT
HETATM    1  C   UNL     1     -10.103  19.801  69.305  1.00  0.00    -0.302 C  
HETATM    2  C   UNL     1      -9.624  18.674  68.395  1.00  0.00    -0.359 C  
ENDROOT
BRANCH   2   3
HETATM    3  N   UNL     1     -10.669  18.089  67.535  1.00  0.00    -0.388 NA 
BRANCH   3   4
HETATM    4  C   UNL     1     -10.418  18.267  66.091  1.00  0.00    -0.383 C  
HETATM    5  C   UNL     1     -10.557  19.687  65.544  1.00  0.00    -0.331 C  
ENDBRANCH   3   4
BRANCH   3   6
HETATM    6  C   UNL     1     -10.906  16.660  67.851  1.00  0.00    -0.321 C  
BRANCH   6   7
HETATM    7  C   UNL     1     -10.221  16.147  69.128  1.00  0.00    -0.255 C  
BRANCH   7   8
HETATM    8  N   UNL     1     -10.126  14.698  69.171  1.00  0.00    -0.339 N  
HETATM    9  C   UNL     1     -11.257  13.912  69.263  1.00  0.00    -0.251 C  
HETATM   10  H   UNL     1      -9.208  14.254  69.132  1.00  0.00     0.000 HD 
HETATM   11  O   UNL     1     -12.386  14.377  69.341  1.00  0.00    -0.294 OA 
BRANCH   9  12
HETATM   12  C   UNL     1     -11.059  12.446  69.151  1.00  0.00    -0.260 A  
HETATM   13  C   UNL     1     -10.457  11.974  67.971  1.00  0.00    -0.224 A  
HETATM   14  C   UNL     1     -10.469  10.614  67.663  1.00  0.00    -0.227 A  
HETATM   15  C   UNL     1     -11.112   9.693  68.502  1.00  0.00    -0.041 A  
HETATM   16 CL   UNL     1      -9.769  10.105  66.165  1.00  0.00    -0.258 Cl 
HETATM   17  C   UNL     1     -11.621  10.158  69.720  1.00  0.00    -0.245 A  
HETATM   18  N   UNL     1     -11.093   8.310  68.244  1.00  0.00    -0.333 NA 
HETATM   19  H1  UNL     1     -11.561   7.640  68.854  1.00  0.00     0.000 HD 
HETATM   20  C   UNL     1     -11.619  11.525  70.050  1.00  0.00    -0.282 A  
HETATM   21  H2  UNL     1     -10.118   8.024  68.156  1.00  0.00     0.000 HD 
BRANCH  20  22
HETATM   22  O   UNL     1     -12.291  11.799  71.212  1.00  0.00    -0.276 OA 
HETATM   23  C   UNL     1     -12.941  10.699  71.842  1.00  0.00    -0.437 C  
ENDBRANCH  20  22
ENDBRANCH   9  12
ENDBRANCH   7   8
ENDBRANCH   6   7
ENDBRANCH   3   6
ENDBRANCH   2   3
TORSDOF 7
ENDMDL
MODEL      167
REMARK 921   NORMALIZED FREE ENERGY PREDICTED BY IDOCK:   -3.74 KCAL/MOL
REMARK 922        TOTAL FREE ENERGY PREDICTED BY IDOCK:   -5.98 KCAL/MOL
REMARK 923 INTER-LIGAND FREE ENERGY PREDICTED BY IDOCK:   -5.55 KCAL/MOL
REMARK 924 INTRA-LIGAND FREE ENERGY PREDICTED BY IDOCK:   -0.43 KCAL/MOL
REMARK 927      BINDING AFFINITY PREDICTED BY RF-SCORE:    0.00 PKD
ROOT
HETATM    1  C   UNL     1     -10.447  16.016  65.724  1.00  0.00    -0.391 C  
HETATM    2  C   UNL     1     -10.494  14.520  66.019  1.00  0.00    -0.308 C  
ENDROOT
BRANCH   2   3
HETATM    3  N   UNL     1     -10.921  14.174  67.387  1.00  0.00    -0.293 NA 
BRANCH   3   4
HETATM    4  C   UNL     1     -11.613  15.274  68.089  1.00  0.00    -0.330 C  
HETATM    5  C   UNL     1     -11.048  15.677  69.451  1.00  0.00    -0.303 C  
ENDBRANCH   3   4
BRANCH   3   6
HETATM    6  C   UNL     1     -11.744  12.940  67.413  1.00  0.00    -0.372 C  
BRANCH   6   7
HETATM    7  C   UNL     1     -11.054  11.680  66.866  1.00  0.00    -0.308 C  
BRANCH   7   8
HETATM    8  N   UNL     1     -11.313  10.502  67.676  1.00  0.00    -0.360 N  
HETATM    9  C   UNL     1     -10.402   9.467  67.740  1.00  0.00    -0.239 C  
HETATM   10  H   UNL     1     -12.183  10.439  68.206  1.00  0.00     0.000 HD 
HETATM   11  O   UNL     1      -9.353   9.464  67.110  1.00  0.00    -0.135 OA 
BRANCH   9  12
HETATM   12  C   UNL     1     -10.695   8.382  68.708  1.00  0.00    -0.086 A  
HETATM   13  C   UNL     1     -10.579   8.700  70.073  1.00  0.00    -0.233 A  
HETATM   14  C   UNL     1     -10.577   7.693  71.039  1.00  0.00    -0.217 A  
HETATM   15  C   UNL     1     -10.653   6.343  70.668  1.00  0.00    -0.237 A  
HETATM   16 CL   UNL     1     -10.364   8.145  72.695  1.00  0.00    -0.388 Cl 
HETATM   17  C   UNL     1     -10.867   6.043  69.318  1.00  0.00    -0.428 A  
HETATM   18  N   UNL     1     -10.706   5.311  71.623  1.00  0.00    -0.196 NA 
HETATM   19  H1  UNL     1     -10.761   4.329  71.354  1.00  0.00     0.000 HD 
HETATM   20  C   UNL     1     -10.873   7.042  68.329  1.00  0.00    -0.141 A  
HETATM   21  H2  UNL     1     -11.487   5.507  72.249  1.00  0.00     0.000 HD 
BRANCH  20  22
HETATM   22  O   UNL     1     -10.949   6.540  67.057  1.00  0.00    -0.368 OA 
HETATM   23  C   UNL     1     -10.483   5.207  66.875  1.00  0.00    -0.223 C  
ENDBRANCH  20  22
ENDBRANCH   9  12
ENDBRANCH   7   8
ENDBRANCH   6   7
ENDBRANCH   3   6
ENDBRANCH   2   3
TORSDOF 7
ENDMDL
MODEL      168
REMARK 921   NORMALIZED FREE ENERGY PREDICTED BY IDOCK:   -3.73 KCAL/MOL
REMARK 922        TOTAL FREE ENERGY PREDICTED BY IDOCK:   -5.97 KCAL/MOL
REMARK 923 INTER-LIGAND FREE ENERGY PREDICTED BY IDOCK:   -5.20 KCAL/MOL
REMARK 924 INTRA-LIGAND FREE ENERGY PREDICTED BY IDOCK:   -0.77 KCAL/MOL
REMARK 927      BINDING AFFINITY PREDICTED BY RF-SCORE:    0.00 PKD
ROOT
HETATM    1  C   UNL     1     -12.314   9.286  71.170  1.00  0.00    -0.363 C  
HETATM    2  C   UNL     1     -11.243  10.238  70.648  1.00  0.00    -0.325 C  
ENDROOT
BRANCH   2   3
HETATM    3  N   UNL     1     -10.464   9.723  69.507  1.00  0.00    -0.217 NA 
BRANCH   3   4
HETATM    4  C   UNL     1      -9.904   8.375  69.731  1.00  0.00    -0.187 C  
HETATM    5  C   UNL     1     -10.407   7.265  68.810  1.00  0.00    -0.209 C  
ENDBRANCH   3   4
BRANCH   3   6
HETATM    6  C   UNL     1     -11.242   9.762  68.245  1.00  0.00    -0.012 C  
BRANCH   6   7
HETATM    7  C   UNL     1     -10.662  10.664  67.144  1.00  0.00    -0.272 C  
BRANCH   7   8
HETATM    8  N   UNL     1     -10.923  12.074  67.378  1.00  0.00    -0.247 N  
HETATM    9  C   UNL     1      -9.930  12.915  67.836  1.00  0.00    -0.233 C  
HETATM   10  H   UNL     1     -11.856  12.447  67.200  1.00  0.00     0.000 HD 
HETATM   11  O   UNL     1      -8.798  12.529  68.096  1.00  0.00    -0.182 OA 
BRANCH   9  12
HETATM   12  C   UNL     1     -10.260  14.360  67.901  1.00  0.00    -0.232 A  
HETATM   13  C   UNL     1      -9.459  15.229  67.138  1.00  0.00    -0.223 A  
HETATM   14  C   UNL     1      -9.522  16.609  67.337  1.00  0.00    -0.232 A  
HETATM   15  C   UNL     1     -10.354  17.155  68.323  1.00  0.00    -0.354 A  
HETATM   16 CL   UNL     1      -8.464  17.619  66.413  1.00  0.00    -0.288 Cl 
HETATM   17  C   UNL     1     -11.217  16.292  69.007  1.00  0.00    -0.326 A  
HETATM   18  N   UNL     1     -10.477  18.545  68.508  1.00  0.00    -0.386 NA 
HETATM   19  H1  UNL     1     -11.082  18.943  69.226  1.00  0.00     0.000 HD 
HETATM   20  C   UNL     1     -11.171  14.899  68.823  1.00  0.00    -0.275 A  
HETATM   21  H2  UNL     1     -10.743  18.955  67.613  1.00  0.00     0.000 HD 
BRANCH  20  22
HETATM   22  O   UNL     1     -11.986  14.214  69.685  1.00  0.00    -0.295 OA 
HETATM   23  C   UNL     1     -11.993  14.661  71.038  1.00  0.00    -0.339 C  
ENDBRANCH  20  22
ENDBRANCH   9  12
ENDBRANCH   7   8
ENDBRANCH   6   7
ENDBRANCH   3   6
ENDBRANCH   2   3
TORSDOF 7
ENDMDL
MODEL      169
REMARK 921   NORMALIZED FREE ENERGY PREDICTED BY IDOCK:   -3.72 KCAL/MOL
REMARK 922        TOTAL FREE ENERGY PREDICTED BY IDOCK:   -5.96 KCAL/MOL
REMARK 923 INTER-LIGAND FREE ENERGY PREDICTED BY IDOCK:   -5.43 KCAL/MOL
REMARK 924 INTRA-LIGAND FREE ENERGY PREDICTED BY IDOCK:   -0.53 KCAL/MOL
REMARK 927      BINDING AFFINITY PREDICTED BY RF-SCORE:    0.00 PKD
ROOT
HETATM    1  C   UNL     1      -5.718  10.543  65.240  1.00  0.00    -0.141 C  
HETATM    2  C   UNL     1      -6.964   9.868  65.805  1.00  0.00    -0.109 C  
ENDROOT
BRANCH   2   3
HETATM    3  N   UNL     1      -8.145   9.919  64.924  1.00  0.00    -0.138 NA 
BRANCH   3   4
HETATM    4  C   UNL     1      -8.284   8.740  64.046  1.00  0.00    -0.161 C  
HETATM    5  C   UNL     1      -7.996   8.957  62.561  1.00  0.00    -0.143 C  
ENDBRANCH   3   4
BRANCH   3   6
HETATM    6  C   UNL     1      -9.394  10.148  65.691  1.00  0.00    -0.199 C  
BRANCH   6   7
HETATM    7  C   UNL     1     -10.391  11.126  65.047  1.00  0.00    -0.301 C  
BRANCH   7   8
HETATM    8  N   UNL     1     -10.404  12.424  65.698  1.00  0.00    -0.253 N  
HETATM    9  C   UNL     1     -11.586  13.108  65.900  1.00  0.00    -0.354 C  
HETATM   10  H   UNL     1      -9.525  12.838  66.010  1.00  0.00     0.000 HD 
HETATM   11  O   UNL     1     -12.672  12.685  65.526  1.00  0.00    -0.597 OA 
BRANCH   9  12
HETATM   12  C   UNL     1     -11.505  14.353  66.702  1.00  0.00    -0.372 A  
HETATM   13  C   UNL     1     -10.838  15.444  66.116  1.00  0.00    -0.313 A  
HETATM   14  C   UNL     1     -10.485  16.555  66.882  1.00  0.00    -0.282 A  
HETATM   15  C   UNL     1     -10.754  16.593  68.257  1.00  0.00    -0.351 A  
HETATM   16 CL   UNL     1      -9.607  17.834  66.117  1.00  0.00    -0.248 Cl 
HETATM   17  C   UNL     1     -11.504  15.549  68.810  1.00  0.00    -0.363 A  
HETATM   18  N   UNL     1     -10.458  17.722  69.043  1.00  0.00    -0.415 NA 
HETATM   19  H1  UNL     1     -10.653  17.750  70.044  1.00  0.00     0.000 HD 
HETATM   20  C   UNL     1     -11.870  14.420  68.055  1.00  0.00    -0.325 A  
HETATM   21  H2  UNL     1     -10.913  18.528  68.614  1.00  0.00     0.000 HD 
BRANCH  20  22
HETATM   22  O   UNL     1     -12.471  13.443  68.805  1.00  0.00    -0.072 OA 
HETATM   23  C   UNL     1     -11.828  13.101  70.029  1.00  0.00    -0.290 C  
ENDBRANCH  20  22
ENDBRANCH   9  12
ENDBRANCH   7   8
ENDBRANCH   6   7
ENDBRANCH   3   6
ENDBRANCH   2   3
TORSDOF 7
ENDMDL
MODEL      170
REMARK 921   NORMALIZED FREE ENERGY PREDICTED BY IDOCK:   -3.72 KCAL/MOL
REMARK 922        TOTAL FREE ENERGY PREDICTED BY IDOCK:   -5.96 KCAL/MOL
REMARK 923 INTER-LIGAND FREE ENERGY PREDICTED BY IDOCK:   -5.28 KCAL/MOL
REMARK 924 INTRA-LIGAND FREE ENERGY PREDICTED BY IDOCK:   -0.68 KCAL/MOL
REMARK 927      BINDING AFFINITY PREDICTED BY RF-SCORE:    0.00 PKD
ROOT
HETATM    1  C   UNL     1     -12.157  13.211  63.726  1.00  0.00    -0.563 C  
HETATM    2  C   UNL     1     -12.487  13.827  65.082  1.00  0.00    -0.450 C  
ENDROOT
BRANCH   2   3
HETATM    3  N   UNL     1     -11.399  13.752  66.075  1.00  0.00    -0.309 NA 
BRANCH   3   4
HETATM    4  C   UNL     1     -10.230  14.591  65.741  1.00  0.00    -0.335 C  
HETATM    5  C   UNL     1     -10.512  16.059  65.425  1.00  0.00    -0.415 C  
ENDBRANCH   3   4
BRANCH   3   6
HETATM    6  C   UNL     1     -11.881  14.051  67.445  1.00  0.00    -0.409 C  
BRANCH   6   7
HETATM    7  C   UNL     1     -11.989  12.838  68.383  1.00  0.00    -0.231 C  
BRANCH   7   8
HETATM    8  N   UNL     1     -11.434  11.628  67.802  1.00  0.00    -0.299 N  
HETATM    9  C   UNL     1     -10.145  11.226  68.090  1.00  0.00    -0.182 C  
HETATM   10  H   UNL     1     -12.006  11.067  67.171  1.00  0.00     0.000 HD 
HETATM   11  O   UNL     1      -9.395  11.865  68.815  1.00  0.00    -0.111 OA 
BRANCH   9  12
HETATM   12  C   UNL     1      -9.728   9.903  67.563  1.00  0.00    -0.193 A  
HETATM   13  C   UNL     1      -9.067   9.895  66.321  1.00  0.00    -0.187 A  
HETATM   14  C   UNL     1      -8.873   8.699  65.630  1.00  0.00    -0.187 A  
HETATM   15  C   UNL     1      -9.365   7.488  66.137  1.00  0.00    -0.069 A  
HETATM   16 CL   UNL     1      -8.112   8.763  64.077  1.00  0.00    -0.157 Cl 
HETATM   17  C   UNL     1      -9.933   7.494  67.416  1.00  0.00    -0.246 A  
HETATM   18  N   UNL     1      -9.137   6.261  65.486  1.00  0.00    -0.369 NA 
HETATM   19  H1  UNL     1      -9.495   5.380  65.855  1.00  0.00     0.000 HD 
HETATM   20  C   UNL     1     -10.137   8.687  68.130  1.00  0.00    -0.197 A  
HETATM   21  H2  UNL     1      -8.130   6.159  65.358  1.00  0.00     0.000 HD 
BRANCH  20  22
HETATM   22  O   UNL     1     -10.837   8.505  69.294  1.00  0.00    -0.175 OA 
HETATM   23  C   UNL     1     -10.072   8.488  70.496  1.00  0.00    -0.192 C  
ENDBRANCH  20  22
ENDBRANCH   9  12
ENDBRANCH   7   8
ENDBRANCH   6   7
ENDBRANCH   3   6
ENDBRANCH   2   3
TORSDOF 7
ENDMDL
MODEL      171
REMARK 921   NORMALIZED FREE ENERGY PREDICTED BY IDOCK:   -3.72 KCAL/MOL
REMARK 922        TOTAL FREE ENERGY PREDICTED BY IDOCK:   -5.96 KCAL/MOL
REMARK 923 INTER-LIGAND FREE ENERGY PREDICTED BY IDOCK:   -5.55 KCAL/MOL
REMARK 924 INTRA-LIGAND FREE ENERGY PREDICTED BY IDOCK:   -0.40 KCAL/MOL
REMARK 927      BINDING AFFINITY PREDICTED BY RF-SCORE:    0.00 PKD
ROOT
HETATM    1  C   UNL     1     -12.994   9.120  71.360  1.00  0.00    -0.366 C  
HETATM    2  C   UNL     1     -11.643   9.823  71.268  1.00  0.00    -0.390 C  
ENDROOT
BRANCH   2   3
HETATM    3  N   UNL     1     -10.803   9.399  70.133  1.00  0.00    -0.237 NA 
BRANCH   3   4
HETATM    4  C   UNL     1     -10.526   7.949  70.107  1.00  0.00    -0.231 C  
HETATM    5  C   UNL     1      -9.062   7.536  69.968  1.00  0.00    -0.148 C  
ENDBRANCH   3   4
BRANCH   3   6
HETATM    6  C   UNL     1     -11.365   9.846  68.835  1.00  0.00    -0.007 C  
BRANCH   6   7
HETATM    7  C   UNL     1     -10.340  10.393  67.829  1.00  0.00    -0.206 C  
BRANCH   7   8
HETATM    8  N   UNL     1     -10.020  11.792  68.057  1.00  0.00    -0.182 N  
HETATM    9  C   UNL     1     -10.945  12.785  67.805  1.00  0.00    -0.237 C  
HETATM   10  H   UNL     1      -9.097  12.044  68.410  1.00  0.00     0.000 HD 
HETATM   11  O   UNL     1     -12.061  12.556  67.356  1.00  0.00    -0.466 OA 
BRANCH   9  12
HETATM   12  C   UNL     1     -10.571  14.162  68.210  1.00  0.00    -0.254 A  
HETATM   13  C   UNL     1     -10.954  14.570  69.500  1.00  0.00    -0.253 A  
HETATM   14  C   UNL     1     -10.881  15.914  69.869  1.00  0.00    -0.333 A  
HETATM   15  C   UNL     1     -10.461  16.888  68.954  1.00  0.00    -0.346 A  
HETATM   16 CL   UNL     1     -11.429  16.362  71.448  1.00  0.00    -0.382 Cl 
HETATM   17  C   UNL     1      -9.989  16.459  67.708  1.00  0.00    -0.248 A  
HETATM   18  N   UNL     1     -10.326  18.242  69.315  1.00  0.00    -0.377 NA 
HETATM   19  H1  UNL     1     -10.021  18.951  68.649  1.00  0.00     0.000 HD 
HETATM   20  C   UNL     1     -10.053  15.111  67.315  1.00  0.00    -0.235 A  
HETATM   21  H2  UNL     1      -9.708  18.287  70.125  1.00  0.00     0.000 HD 
BRANCH  20  22
HETATM   22  O   UNL     1      -9.683  14.911  66.011  1.00  0.00    -0.294 OA 
HETATM   23  C   UNL     1     -10.453  15.589  65.024  1.00  0.00    -0.362 C  
ENDBRANCH  20  22
ENDBRANCH   9  12
ENDBRANCH   7   8
ENDBRANCH   6   7
ENDBRANCH   3   6
ENDBRANCH   2   3
TORSDOF 7
ENDMDL
MODEL      172
REMARK 921   NORMALIZED FREE ENERGY PREDICTED BY IDOCK:   -3.72 KCAL/MOL
REMARK 922        TOTAL FREE ENERGY PREDICTED BY IDOCK:   -5.95 KCAL/MOL
REMARK 923 INTER-LIGAND FREE ENERGY PREDICTED BY IDOCK:   -5.23 KCAL/MOL
REMARK 924 INTRA-LIGAND FREE ENERGY PREDICTED BY IDOCK:   -0.72 KCAL/MOL
REMARK 927      BINDING AFFINITY PREDICTED BY RF-SCORE:    0.00 PKD
ROOT
HETATM    1  C   UNL     1      -7.628  17.214  68.510  1.00  0.00    -0.245 C  
HETATM    2  C   UNL     1      -8.238  17.552  67.154  1.00  0.00    -0.212 C  
ENDROOT
BRANCH   2   3
HETATM    3  N   UNL     1      -9.682  17.848  67.184  1.00  0.00    -0.280 NA 
BRANCH   3   4
HETATM    4  C   UNL     1     -10.093  18.899  66.231  1.00  0.00    -0.414 C  
HETATM    5  C   UNL     1     -10.004  20.342  66.725  1.00  0.00    -0.587 C  
ENDBRANCH   3   4
BRANCH   3   6
HETATM    6  C   UNL     1     -10.499  16.625  66.996  1.00  0.00    -0.283 C  
BRANCH   6   7
HETATM    7  C   UNL     1     -10.134  15.773  65.769  1.00  0.00    -0.371 C  
BRANCH   7   8
HETATM    8  N   UNL     1      -9.495  14.518  66.127  1.00  0.00    -0.432 N  
HETATM    9  C   UNL     1     -10.243  13.397  66.425  1.00  0.00    -0.293 C  
HETATM   10  H   UNL     1      -8.476  14.466  66.160  1.00  0.00     0.000 HD 
HETATM   11  O   UNL     1     -11.467  13.397  66.433  1.00  0.00    -0.308 OA 
BRANCH   9  12
HETATM   12  C   UNL     1      -9.494  12.134  66.633  1.00  0.00    -0.226 A  
HETATM   13  C   UNL     1     -10.215  10.936  66.479  1.00  0.00    -0.282 A  
HETATM   14  C   UNL     1      -9.674   9.723  66.906  1.00  0.00    -0.192 A  
HETATM   15  C   UNL     1      -8.420   9.676  67.530  1.00  0.00    -0.125 A  
HETATM   16 CL   UNL     1     -10.637   8.294  66.748  1.00  0.00    -0.332 Cl 
HETATM   17  C   UNL     1      -7.671  10.856  67.590  1.00  0.00    -0.108 A  
HETATM   18  N   UNL     1      -7.828   8.460  67.921  1.00  0.00    -0.106 NA 
HETATM   19  H1  UNL     1      -6.916   8.426  68.376  1.00  0.00     0.000 HD 
HETATM   20  C   UNL     1      -8.196  12.089  67.165  1.00  0.00    -0.181 A  
HETATM   21  H2  UNL     1      -7.791   7.854  67.102  1.00  0.00     0.000 HD 
BRANCH  20  22
HETATM   22  O   UNL     1      -7.371  13.149  67.438  1.00  0.00    -0.151 OA 
HETATM   23  C   UNL     1      -7.094  13.396  68.813  1.00  0.00    -0.101 C  
ENDBRANCH  20  22
ENDBRANCH   9  12
ENDBRANCH   7   8
ENDBRANCH   6   7
ENDBRANCH   3   6
ENDBRANCH   2   3
TORSDOF 7
ENDMDL
MODEL      173
REMARK 921   NORMALIZED FREE ENERGY PREDICTED BY IDOCK:   -3.71 KCAL/MOL
REMARK 922        TOTAL FREE ENERGY PREDICTED BY IDOCK:   -5.95 KCAL/MOL
REMARK 923 INTER-LIGAND FREE ENERGY PREDICTED BY IDOCK:   -5.38 KCAL/MOL
REMARK 924 INTRA-LIGAND FREE ENERGY PREDICTED BY IDOCK:   -0.57 KCAL/MOL
REMARK 927      BINDING AFFINITY PREDICTED BY RF-SCORE:    0.00 PKD
ROOT
HETATM    1  C   UNL     1     -10.082  13.660  67.845  1.00  0.00    -0.244 C  
HETATM    2  C   UNL     1     -11.488  13.606  68.434  1.00  0.00    -0.311 C  
ENDROOT
BRANCH   2   3
HETATM    3  N   UNL     1     -11.590  12.897  69.723  1.00  0.00    -0.256 NA 
BRANCH   3   4
HETATM    4  C   UNL     1     -12.331  13.646  70.757  1.00  0.00    -0.371 C  
HETATM    5  C   UNL     1     -11.741  14.990  71.182  1.00  0.00    -0.385 C  
ENDBRANCH   3   4
BRANCH   3   6
HETATM    6  C   UNL     1     -12.156  11.535  69.559  1.00  0.00    -0.284 C  
BRANCH   6   7
HETATM    7  C   UNL     1     -11.574  10.465  70.498  1.00  0.00    -0.344 C  
BRANCH   7   8
HETATM    8  N   UNL     1     -11.177   9.258  69.794  1.00  0.00    -0.411 N  
HETATM    9  C   UNL     1     -11.109   8.043  70.447  1.00  0.00    -0.238 C  
HETATM   10  H   UNL     1     -10.945   9.309  68.802  1.00  0.00     0.000 HD 
HETATM   11  O   UNL     1     -11.346   7.915  71.641  1.00  0.00    -0.247 OA 
BRANCH   9  12
HETATM   12  C   UNL     1     -10.836   6.851  69.607  1.00  0.00    -0.294 A  
HETATM   13  C   UNL     1     -10.517   5.659  70.281  1.00  0.00    -0.363 A  
HETATM   14  C   UNL     1      -9.995   4.569  69.585  1.00  0.00    -0.181 A  
HETATM   15  C   UNL     1      -9.743   4.649  68.209  1.00  0.00    -0.131 A  
HETATM   16 CL   UNL     1      -9.561   3.154  70.482  1.00  0.00    -0.232 Cl 
HETATM   17  C   UNL     1     -10.155   5.802  67.532  1.00  0.00    -0.204 A  
HETATM   18  N   UNL     1      -9.267   3.548  67.473  1.00  0.00    -0.172 NA 
HETATM   19  H1  UNL     1      -9.084   3.606  66.471  1.00  0.00     0.000 HD 
HETATM   20  C   UNL     1     -10.684   6.912  68.213  1.00  0.00    -0.214 A  
HETATM   21  H2  UNL     1      -9.909   2.770  67.627  1.00  0.00     0.000 HD 
BRANCH  20  22
HETATM   22  O   UNL     1     -10.890   7.996  67.400  1.00  0.00    -0.231 OA 
HETATM   23  C   UNL     1      -9.799   8.378  66.568  1.00  0.00    -0.268 C  
ENDBRANCH  20  22
ENDBRANCH   9  12
ENDBRANCH   7   8
ENDBRANCH   6   7
ENDBRANCH   3   6
ENDBRANCH   2   3
TORSDOF 7
ENDMDL
MODEL      174
REMARK 921   NORMALIZED FREE ENERGY PREDICTED BY IDOCK:   -3.69 KCAL/MOL
REMARK 922        TOTAL FREE ENERGY PREDICTED BY IDOCK:   -5.92 KCAL/MOL
REMARK 923 INTER-LIGAND FREE ENERGY PREDICTED BY IDOCK:   -5.17 KCAL/MOL
REMARK 924 INTRA-LIGAND FREE ENERGY PREDICTED BY IDOCK:   -0.75 KCAL/MOL
REMARK 927      BINDING AFFINITY PREDICTED BY RF-SCORE:    0.00 PKD
ROOT
HETATM    1  C   UNL     1     -11.039  10.394  67.350  1.00  0.00    -0.297 C  
HETATM    2  C   UNL     1     -10.531  11.745  67.844  1.00  0.00    -0.196 C  
ENDROOT
BRANCH   2   3
HETATM    3  N   UNL     1     -11.327  12.343  68.932  1.00  0.00    -0.273 NA 
BRANCH   3   4
HETATM    4  C   UNL     1     -11.879  13.673  68.604  1.00  0.00    -0.374 C  
HETATM    5  C   UNL     1     -12.065  13.987  67.120  1.00  0.00    -0.436 C  
ENDBRANCH   3   4
BRANCH   3   6
HETATM    6  C   UNL     1     -12.402  11.431  69.393  1.00  0.00    -0.118 C  
BRANCH   6   7
HETATM    7  C   UNL     1     -12.170  10.783  70.768  1.00  0.00    -0.381 C  
BRANCH   7   8
HETATM    8  N   UNL     1     -11.975   9.346  70.686  1.00  0.00    -0.427 N  
HETATM    9  C   UNL     1     -10.711   8.794  70.749  1.00  0.00    -0.228 C  
HETATM   10  H   UNL     1     -12.785   8.735  70.580  1.00  0.00     0.000 HD 
HETATM   11  O   UNL     1      -9.694   9.469  70.847  1.00  0.00    -0.259 OA 
BRANCH   9  12
HETATM   12  C   UNL     1     -10.634   7.314  70.804  1.00  0.00    -0.237 A  
HETATM   13  C   UNL     1     -10.943   6.707  72.035  1.00  0.00    -0.274 A  
HETATM   14  C   UNL     1     -10.648   5.362  72.256  1.00  0.00    -0.225 A  
HETATM   15  C   UNL     1     -10.005   4.597  71.274  1.00  0.00    -0.198 A  
HETATM   16 CL   UNL     1     -10.994   4.692  73.813  1.00  0.00    -0.371 Cl 
HETATM   17  C   UNL     1      -9.790   5.182  70.020  1.00  0.00    -0.295 A  
HETATM   18  N   UNL     1      -9.744   3.225  71.450  1.00  0.00    -0.163 NA 
HETATM   19  H1  UNL     1      -9.275   2.668  70.736  1.00  0.00     0.000 HD 
HETATM   20  C   UNL     1     -10.081   6.535  69.776  1.00  0.00    -0.178 A  
HETATM   21  H2  UNL     1     -10.627   2.767  71.673  1.00  0.00     0.000 HD 
BRANCH  20  22
HETATM   22  O   UNL     1      -9.667   6.960  68.540  1.00  0.00    -0.138 OA 
HETATM   23  C   UNL     1      -8.849   6.057  67.802  1.00  0.00    -0.106 C  
ENDBRANCH  20  22
ENDBRANCH   9  12
ENDBRANCH   7   8
ENDBRANCH   6   7
ENDBRANCH   3   6
ENDBRANCH   2   3
TORSDOF 7
ENDMDL
MODEL      175
REMARK 921   NORMALIZED FREE ENERGY PREDICTED BY IDOCK:   -3.69 KCAL/MOL
REMARK 922        TOTAL FREE ENERGY PREDICTED BY IDOCK:   -5.92 KCAL/MOL
REMARK 923 INTER-LIGAND FREE ENERGY PREDICTED BY IDOCK:   -5.04 KCAL/MOL
REMARK 924 INTRA-LIGAND FREE ENERGY PREDICTED BY IDOCK:   -0.87 KCAL/MOL
REMARK 927      BINDING AFFINITY PREDICTED BY RF-SCORE:    0.00 PKD
ROOT
HETATM    1  C   UNL     1     -12.508  12.907  65.388  1.00  0.00    -0.511 C  
HETATM    2  C   UNL     1     -12.182  14.164  66.188  1.00  0.00    -0.442 C  
ENDROOT
BRANCH   2   3
HETATM    3  N   UNL     1     -10.869  14.146  66.858  1.00  0.00    -0.293 NA 
BRANCH   3   4
HETATM    4  C   UNL     1      -9.862  15.014  66.216  1.00  0.00    -0.285 C  
HETATM    5  C   UNL     1     -10.357  15.912  65.082  1.00  0.00    -0.284 C  
ENDBRANCH   3   4
BRANCH   3   6
HETATM    6  C   UNL     1     -10.984  14.460  68.303  1.00  0.00    -0.247 C  
BRANCH   6   7
HETATM    7  C   UNL     1     -10.814  13.261  69.251  1.00  0.00    -0.023 C  
BRANCH   7   8
HETATM    8  N   UNL     1     -10.130  12.143  68.625  1.00  0.00    -0.346 N  
HETATM    9  C   UNL     1     -10.838  11.108  68.048  1.00  0.00    -0.225 C  
HETATM   10  H   UNL     1      -9.110  12.122  68.613  1.00  0.00     0.000 HD 
HETATM   11  O   UNL     1     -12.061  11.054  68.051  1.00  0.00    -0.615 OA 
BRANCH   9  12
HETATM   12  C   UNL     1     -10.048  10.093  67.309  1.00  0.00    -0.254 A  
HETATM   13  C   UNL     1     -10.489   8.760  67.396  1.00  0.00    -0.349 A  
HETATM   14  C   UNL     1      -9.674   7.714  66.961  1.00  0.00    -0.195 A  
HETATM   15  C   UNL     1      -8.388   7.964  66.464  1.00  0.00    -0.127 A  
HETATM   16 CL   UNL     1     -10.247   6.093  67.154  1.00  0.00    -0.213 Cl 
HETATM   17  C   UNL     1      -7.998   9.297  66.291  1.00  0.00    -0.107 A  
HETATM   18  N   UNL     1      -7.567   6.934  65.969  1.00  0.00    -0.090 NA 
HETATM   19  H1  UNL     1      -6.631   7.116  65.608  1.00  0.00     0.000 HD 
HETATM   20  C   UNL     1      -8.803  10.366  66.722  1.00  0.00    -0.130 A  
HETATM   21  H2  UNL     1      -8.090   6.441  65.245  1.00  0.00     0.000 HD 
BRANCH  20  22
HETATM   22  O   UNL     1      -8.189  11.585  66.602  1.00  0.00    -0.165 OA 
HETATM   23  C   UNL     1      -6.835  11.657  67.037  1.00  0.00    -0.144 C  
ENDBRANCH  20  22
ENDBRANCH   9  12
ENDBRANCH   7   8
ENDBRANCH   6   7
ENDBRANCH   3   6
ENDBRANCH   2   3
TORSDOF 7
ENDMDL
MODEL      176
REMARK 921   NORMALIZED FREE ENERGY PREDICTED BY IDOCK:   -3.68 KCAL/MOL
REMARK 922        TOTAL FREE ENERGY PREDICTED BY IDOCK:   -5.90 KCAL/MOL
REMARK 923 INTER-LIGAND FREE ENERGY PREDICTED BY IDOCK:   -4.99 KCAL/MOL
REMARK 924 INTRA-LIGAND FREE ENERGY PREDICTED BY IDOCK:   -0.92 KCAL/MOL
REMARK 927      BINDING AFFINITY PREDICTED BY RF-SCORE:    0.00 PKD
ROOT
HETATM    1  C   UNL     1     -11.083  10.468  67.443  1.00  0.00    -0.322 C  
HETATM    2  C   UNL     1      -9.771  11.240  67.340  1.00  0.00    -0.173 C  
ENDROOT
BRANCH   2   3
HETATM    3  N   UNL     1      -9.473  11.773  65.998  1.00  0.00    -0.229 NA 
BRANCH   3   4
HETATM    4  C   UNL     1      -8.990  10.751  65.047  1.00  0.00    -0.194 C  
HETATM    5  C   UNL     1      -9.876  10.474  63.834  1.00  0.00    -0.373 C  
ENDBRANCH   3   4
BRANCH   3   6
HETATM    6  C   UNL     1     -10.627  12.511  65.429  1.00  0.00    -0.281 C  
BRANCH   6   7
HETATM    7  C   UNL     1     -10.329  13.951  64.982  1.00  0.00    -0.396 C  
BRANCH   7   8
HETATM    8  N   UNL     1      -9.432  14.647  65.889  1.00  0.00    -0.491 N  
HETATM    9  C   UNL     1      -9.892  15.658  66.709  1.00  0.00    -0.244 C  
HETATM   10  H   UNL     1      -8.447  14.383  65.920  1.00  0.00     0.000 HD 
HETATM   11  O   UNL     1     -11.053  16.043  66.703  1.00  0.00    -0.170 OA 
BRANCH   9  12
HETATM   12  C   UNL     1      -8.929  16.200  67.699  1.00  0.00    -0.194 A  
HETATM   13  C   UNL     1      -8.760  17.597  67.720  1.00  0.00    -0.232 A  
HETATM   14  C   UNL     1      -7.701  18.172  68.422  1.00  0.00    -0.295 A  
HETATM   15  C   UNL     1      -6.763  17.372  69.089  1.00  0.00    -0.243 A  
HETATM   16 CL   UNL     1      -7.510  19.890  68.356  1.00  0.00    -0.338 Cl 
HETATM   17  C   UNL     1      -6.995  15.993  69.144  1.00  0.00    -0.189 A  
HETATM   18  N   UNL     1      -5.716  17.927  69.849  1.00  0.00    -0.240 NA 
HETATM   19  H1  UNL     1      -5.033  17.345  70.333  1.00  0.00     0.000 HD 
HETATM   20  C   UNL     1      -8.056  15.393  68.444  1.00  0.00    -0.140 A  
HETATM   21  H2  UNL     1      -6.131  18.558  70.534  1.00  0.00     0.000 HD 
BRANCH  20  22
HETATM   22  O   UNL     1      -8.032  14.024  68.500  1.00  0.00    -0.135 OA 
HETATM   23  C   UNL     1      -6.811  13.430  68.929  1.00  0.00    -0.111 C  
ENDBRANCH  20  22
ENDBRANCH   9  12
ENDBRANCH   7   8
ENDBRANCH   6   7
ENDBRANCH   3   6
ENDBRANCH   2   3
TORSDOF 7
ENDMDL
MODEL      177
REMARK 921   NORMALIZED FREE ENERGY PREDICTED BY IDOCK:   -3.68 KCAL/MOL
REMARK 922        TOTAL FREE ENERGY PREDICTED BY IDOCK:   -5.90 KCAL/MOL
REMARK 923 INTER-LIGAND FREE ENERGY PREDICTED BY IDOCK:   -5.43 KCAL/MOL
REMARK 924 INTRA-LIGAND FREE ENERGY PREDICTED BY IDOCK:   -0.48 KCAL/MOL
REMARK 927      BINDING AFFINITY PREDICTED BY RF-SCORE:    0.00 PKD
ROOT
HETATM    1  C   UNL     1      -6.608  17.913  65.825  1.00  0.00    -0.264 C  
HETATM    2  C   UNL     1      -7.186  18.785  66.935  1.00  0.00    -0.212 C  
ENDROOT
BRANCH   2   3
HETATM    3  N   UNL     1      -7.550  18.058  68.164  1.00  0.00    -0.250 NA 
BRANCH   3   4
HETATM    4  C   UNL     1      -6.560  18.194  69.251  1.00  0.00    -0.234 C  
HETATM    5  C   UNL     1      -6.320  19.606  69.783  1.00  0.00    -0.366 C  
ENDBRANCH   3   4
BRANCH   3   6
HETATM    6  C   UNL     1      -8.904  18.429  68.643  1.00  0.00    -0.283 C  
BRANCH   6   7
HETATM    7  C   UNL     1     -10.054  17.571  68.090  1.00  0.00    -0.341 C  
BRANCH   7   8
HETATM    8  N   UNL     1     -10.286  16.371  68.875  1.00  0.00    -0.252 N  
HETATM    9  C   UNL     1     -11.564  15.897  69.091  1.00  0.00    -0.379 C  
HETATM   10  H   UNL     1      -9.491  15.870  69.273  1.00  0.00     0.000 HD 
HETATM   11  O   UNL     1     -12.564  16.462  68.668  1.00  0.00     0.740 OA 
BRANCH   9  12
HETATM   12  C   UNL     1     -11.681  14.588  69.778  1.00  0.00    -0.356 A  
HETATM   13  C   UNL     1     -11.418  13.440  69.008  1.00  0.00    -0.348 A  
HETATM   14  C   UNL     1     -11.754  12.173  69.486  1.00  0.00    -0.336 A  
HETATM   15  C   UNL     1     -12.391  12.018  70.724  1.00  0.00    -0.308 A  
HETATM   16 CL   UNL     1     -11.465  10.808  68.463  1.00  0.00    -0.363 Cl 
HETATM   17  C   UNL     1     -12.558  13.155  71.524  1.00  0.00    -0.292 A  
HETATM   18  N   UNL     1     -12.692  10.750  71.254  1.00  0.00    -0.408 NA 
HETATM   19  H1  UNL     1     -13.156  10.637  72.155  1.00  0.00     0.000 HD 
HETATM   20  C   UNL     1     -12.228  14.441  71.063  1.00  0.00    -0.351 A  
HETATM   21  H2  UNL     1     -11.826  10.211  71.280  1.00  0.00     0.000 HD 
BRANCH  20  22
HETATM   22  O   UNL     1     -12.599  15.436  71.928  1.00  0.00    -0.325 OA 
HETATM   23  C   UNL     1     -12.586  15.106  73.314  1.00  0.00    -0.499 C  
ENDBRANCH  20  22
ENDBRANCH   9  12
ENDBRANCH   7   8
ENDBRANCH   6   7
ENDBRANCH   3   6
ENDBRANCH   2   3
TORSDOF 7
ENDMDL
MODEL      178
REMARK 921   NORMALIZED FREE ENERGY PREDICTED BY IDOCK:   -3.66 KCAL/MOL
REMARK 922        TOTAL FREE ENERGY PREDICTED BY IDOCK:   -5.87 KCAL/MOL
REMARK 923 INTER-LIGAND FREE ENERGY PREDICTED BY IDOCK:   -5.75 KCAL/MOL
REMARK 924 INTRA-LIGAND FREE ENERGY PREDICTED BY IDOCK:   -0.12 KCAL/MOL
REMARK 927      BINDING AFFINITY PREDICTED BY RF-SCORE:    0.00 PKD
ROOT
HETATM    1  C   UNL     1     -10.499  14.760  67.412  1.00  0.00    -0.256 C  
HETATM    2  C   UNL     1     -11.079  15.655  68.503  1.00  0.00    -0.322 C  
ENDROOT
BRANCH   2   3
HETATM    3  N   UNL     1     -11.506  14.944  69.721  1.00  0.00    -0.278 NA 
BRANCH   3   4
HETATM    4  C   UNL     1     -12.376  15.747  70.604  1.00  0.00    -0.371 C  
HETATM    5  C   UNL     1     -11.869  15.990  72.025  1.00  0.00    -0.623 C  
ENDBRANCH   3   4
BRANCH   3   6
HETATM    6  C   UNL     1     -12.143  13.643  69.405  1.00  0.00    -0.314 C  
BRANCH   6   7
HETATM    7  C   UNL     1     -12.376  12.715  70.609  1.00  0.00    -0.290 C  
BRANCH   7   8
HETATM    8  N   UNL     1     -11.645  11.465  70.504  1.00  0.00    -0.472 N  
HETATM    9  C   UNL     1     -11.700  10.701  69.356  1.00  0.00    -0.273 C  
HETATM   10  H   UNL     1     -11.081  11.146  71.293  1.00  0.00     0.000 HD 
HETATM   11  O   UNL     1     -12.377  11.009  68.384  1.00  0.00    -0.528 OA 
BRANCH   9  12
HETATM   12  C   UNL     1     -10.803   9.521  69.298  1.00  0.00    -0.211 A  
HETATM   13  C   UNL     1      -9.965   9.416  68.173  1.00  0.00    -0.202 A  
HETATM   14  C   UNL     1      -9.287   8.227  67.902  1.00  0.00    -0.138 A  
HETATM   15  C   UNL     1      -9.455   7.102  68.722  1.00  0.00    -0.141 A  
HETATM   16 CL   UNL     1      -8.324   8.140  66.468  1.00  0.00    -0.109 Cl 
HETATM   17  C   UNL     1     -10.212   7.247  69.890  1.00  0.00    -0.210 A  
HETATM   18  N   UNL     1      -8.743   5.908  68.503  1.00  0.00    -0.113 NA 
HETATM   19  H1  UNL     1      -8.866   5.089  69.099  1.00  0.00     0.000 HD 
HETATM   20  C   UNL     1     -10.902   8.436  70.182  1.00  0.00    -0.236 A  
HETATM   21  H2  UNL     1      -7.749   6.137  68.488  1.00  0.00     0.000 HD 
BRANCH  20  22
HETATM   22  O   UNL     1     -11.703   8.336  71.290  1.00  0.00    -0.275 OA 
HETATM   23  C   UNL     1     -12.455   7.133  71.420  1.00  0.00    -0.388 C  
ENDBRANCH  20  22
ENDBRANCH   9  12
ENDBRANCH   7   8
ENDBRANCH   6   7
ENDBRANCH   3   6
ENDBRANCH   2   3
TORSDOF 7
ENDMDL
MODEL      179
REMARK 921   NORMALIZED FREE ENERGY PREDICTED BY IDOCK:   -3.66 KCAL/MOL
REMARK 922        TOTAL FREE ENERGY PREDICTED BY IDOCK:   -5.87 KCAL/MOL
REMARK 923 INTER-LIGAND FREE ENERGY PREDICTED BY IDOCK:   -5.22 KCAL/MOL
REMARK 924 INTRA-LIGAND FREE ENERGY PREDICTED BY IDOCK:   -0.65 KCAL/MOL
REMARK 927      BINDING AFFINITY PREDICTED BY RF-SCORE:    0.00 PKD
ROOT
HETATM    1  C   UNL     1      -7.070   8.697  65.405  1.00  0.00    -0.083 C  
HETATM    2  C   UNL     1      -7.150   8.570  66.923  1.00  0.00    -0.075 C  
ENDROOT
BRANCH   2   3
HETATM    3  N   UNL     1      -8.359   7.890  67.422  1.00  0.00    -0.122 NA 
BRANCH   3   4
HETATM    4  C   UNL     1      -8.077   6.643  68.161  1.00  0.00    -0.111 C  
HETATM    5  C   UNL     1      -6.806   6.624  69.010  1.00  0.00    -0.058 C  
ENDBRANCH   3   4
BRANCH   3   6
HETATM    6  C   UNL     1      -9.205   8.798  68.235  1.00  0.00    -0.140 C  
BRANCH   6   7
HETATM    7  C   UNL     1     -10.580   9.129  67.630  1.00  0.00    -0.242 C  
BRANCH   7   8
HETATM    8  N   UNL     1     -10.580  10.379  66.889  1.00  0.00    -0.246 N  
HETATM    9  C   UNL     1     -10.804  11.584  67.524  1.00  0.00    -0.237 C  
HETATM   10  H   UNL     1     -10.413  10.365  65.883  1.00  0.00     0.000 HD 
HETATM   11  O   UNL     1     -11.039  11.671  68.722  1.00  0.00    -0.198 OA 
BRANCH   9  12
HETATM   12  C   UNL     1     -10.638  12.809  66.704  1.00  0.00    -0.272 A  
HETATM   13  C   UNL     1     -10.734  14.040  67.376  1.00  0.00    -0.285 A  
HETATM   14  C   UNL     1     -10.854  15.232  66.660  1.00  0.00    -0.310 A  
HETATM   15  C   UNL     1     -10.918  15.225  65.260  1.00  0.00    -0.393 A  
HETATM   16 CL   UNL     1     -11.035  16.707  67.546  1.00  0.00    -0.214 Cl 
HETATM   17  C   UNL     1     -10.722  14.006  64.599  1.00  0.00    -0.416 A  
HETATM   18  N   UNL     1     -10.984  16.414  64.511  1.00  0.00    -1.022 NA 
HETATM   19  H1  UNL     1     -11.031  16.409  63.492  1.00  0.00     0.000 HD 
HETATM   20  C   UNL     1     -10.599  12.794  65.301  1.00  0.00    -0.290 A  
HETATM   21  H2  UNL     1     -10.193  16.998  64.784  1.00  0.00     0.000 HD 
BRANCH  20  22
HETATM   22  O   UNL     1     -10.564  11.698  64.480  1.00  0.00    -0.282 OA 
HETATM   23  C   UNL     1     -10.803  11.936  63.097  1.00  0.00    -0.223 C  
ENDBRANCH  20  22
ENDBRANCH   9  12
ENDBRANCH   7   8
ENDBRANCH   6   7
ENDBRANCH   3   6
ENDBRANCH   2   3
TORSDOF 7
ENDMDL
MODEL      180
REMARK 921   NORMALIZED FREE ENERGY PREDICTED BY IDOCK:   -3.66 KCAL/MOL
REMARK 922        TOTAL FREE ENERGY PREDICTED BY IDOCK:   -5.87 KCAL/MOL
REMARK 923 INTER-LIGAND FREE ENERGY PREDICTED BY IDOCK:   -5.37 KCAL/MOL
REMARK 924 INTRA-LIGAND FREE ENERGY PREDICTED BY IDOCK:   -0.50 KCAL/MOL
REMARK 927      BINDING AFFINITY PREDICTED BY RF-SCORE:    0.00 PKD
ROOT
HETATM    1  C   UNL     1     -12.251  11.545  70.233  1.00  0.00    -0.415 C  
HETATM    2  C   UNL     1     -12.055  13.032  70.508  1.00  0.00    -0.292 C  
ENDROOT
BRANCH   2   3
HETATM    3  N   UNL     1     -12.596  13.928  69.469  1.00  0.00    -0.092 NA 
BRANCH   3   4
HETATM    4  C   UNL     1     -12.637  15.348  69.871  1.00  0.00    -0.168 C  
HETATM    5  C   UNL     1     -12.032  15.691  71.231  1.00  0.00    -0.467 C  
ENDBRANCH   3   4
BRANCH   3   6
HETATM    6  C   UNL     1     -11.879  13.771  68.179  1.00  0.00    -0.376 C  
BRANCH   6   7
HETATM    7  C   UNL     1     -10.364  13.535  68.294  1.00  0.00    -0.252 C  
BRANCH   7   8
HETATM    8  N   UNL     1      -9.623  14.759  68.545  1.00  0.00    -0.212 N  
HETATM    9  C   UNL     1      -9.422  15.688  67.545  1.00  0.00    -0.214 C  
HETATM   10  H   UNL     1      -9.245  14.934  69.477  1.00  0.00     0.000 HD 
HETATM   11  O   UNL     1      -9.822  15.530  66.399  1.00  0.00    -0.247 OA 
BRANCH   9  12
HETATM   12  C   UNL     1      -8.781  16.966  67.942  1.00  0.00    -0.213 A  
HETATM   13  C   UNL     1      -9.470  18.149  67.618  1.00  0.00    -0.264 A  
HETATM   14  C   UNL     1      -8.835  19.387  67.712  1.00  0.00    -0.313 A  
HETATM   15  C   UNL     1      -7.490  19.478  68.094  1.00  0.00    -0.300 A  
HETATM   16 CL   UNL     1      -9.716  20.799  67.237  1.00  0.00    -0.590 Cl 
HETATM   17  C   UNL     1      -6.844  18.307  68.508  1.00  0.00    -0.255 A  
HETATM   18  N   UNL     1      -6.841  20.717  68.249  1.00  0.00    -0.222 NA 
HETATM   19  H1  UNL     1      -5.862  20.783  68.527  1.00  0.00     0.000 HD 
HETATM   20  C   UNL     1      -7.465  17.049  68.422  1.00  0.00    -0.213 A  
HETATM   21  H2  UNL     1      -7.389  21.275  68.904  1.00  0.00     0.000 HD 
BRANCH  20  22
HETATM   22  O   UNL     1      -6.625  16.011  68.733  1.00  0.00    -0.117 OA 
HETATM   23  C   UNL     1      -6.113  15.989  70.062  1.00  0.00    -0.143 C  
ENDBRANCH  20  22
ENDBRANCH   9  12
ENDBRANCH   7   8
ENDBRANCH   6   7
ENDBRANCH   3   6
ENDBRANCH   2   3
TORSDOF 7
ENDMDL
MODEL      181
REMARK 921   NORMALIZED FREE ENERGY PREDICTED BY IDOCK:   -3.66 KCAL/MOL
REMARK 922        TOTAL FREE ENERGY PREDICTED BY IDOCK:   -5.87 KCAL/MOL
REMARK 923 INTER-LIGAND FREE ENERGY PREDICTED BY IDOCK:   -5.40 KCAL/MOL
REMARK 924 INTRA-LIGAND FREE ENERGY PREDICTED BY IDOCK:   -0.47 KCAL/MOL
REMARK 927      BINDING AFFINITY PREDICTED BY RF-SCORE:    0.00 PKD
ROOT
HETATM    1  C   UNL     1      -6.669  18.096  65.863  1.00  0.00    -0.327 C  
HETATM    2  C   UNL     1      -6.883  18.647  67.269  1.00  0.00    -0.203 C  
ENDROOT
BRANCH   2   3
HETATM    3  N   UNL     1      -7.222  17.633  68.284  1.00  0.00    -0.218 NA 
BRANCH   3   4
HETATM    4  C   UNL     1      -6.385  17.704  69.498  1.00  0.00    -0.223 C  
HETATM    5  C   UNL     1      -5.658  19.024  69.751  1.00  0.00    -0.232 C  
ENDBRANCH   3   4
BRANCH   3   6
HETATM    6  C   UNL     1      -8.662  17.671  68.640  1.00  0.00    -0.266 C  
BRANCH   6   7
HETATM    7  C   UNL     1      -9.595  16.909  67.685  1.00  0.00    -0.248 C  
BRANCH   7   8
HETATM    8  N   UNL     1      -9.655  15.487  67.975  1.00  0.00    -0.202 N  
HETATM    9  C   UNL     1     -10.851  14.799  67.922  1.00  0.00    -0.269 C  
HETATM   10  H   UNL     1      -8.800  14.989  68.221  1.00  0.00     0.000 HD 
HETATM   11  O   UNL     1     -11.918  15.339  67.660  1.00  0.00    -0.185 OA 
BRANCH   9  12
HETATM   12  C   UNL     1     -10.780  13.327  68.091  1.00  0.00    -0.264 A  
HETATM   13  C   UNL     1     -10.167  12.599  67.055  1.00  0.00    -0.233 A  
HETATM   14  C   UNL     1     -10.286  11.210  66.999  1.00  0.00    -0.224 A  
HETATM   15  C   UNL     1     -11.047  10.515  67.949  1.00  0.00    -0.304 A  
HETATM   16 CL   UNL     1      -9.565  10.378  65.664  1.00  0.00    -0.260 Cl 
HETATM   17  C   UNL     1     -11.569  11.237  69.028  1.00  0.00    -0.386 A  
HETATM   18  N   UNL     1     -11.140   9.111  67.948  1.00  0.00    -0.489 NA 
HETATM   19  H1  UNL     1     -11.694   8.605  68.639  1.00  0.00     0.000 HD 
HETATM   20  C   UNL     1     -11.461  12.637  69.105  1.00  0.00    -0.304 A  
HETATM   21  H2  UNL     1     -10.191   8.737  67.974  1.00  0.00     0.000 HD 
BRANCH  20  22
HETATM   22  O   UNL     1     -12.160  13.175  70.154  1.00  0.00    -0.338 OA 
HETATM   23  C   UNL     1     -12.778  12.249  71.042  1.00  0.00    -0.225 C  
ENDBRANCH  20  22
ENDBRANCH   9  12
ENDBRANCH   7   8
ENDBRANCH   6   7
ENDBRANCH   3   6
ENDBRANCH   2   3
TORSDOF 7
ENDMDL
MODEL      182
REMARK 921   NORMALIZED FREE ENERGY PREDICTED BY IDOCK:   -3.65 KCAL/MOL
REMARK 922        TOTAL FREE ENERGY PREDICTED BY IDOCK:   -5.85 KCAL/MOL
REMARK 923 INTER-LIGAND FREE ENERGY PREDICTED BY IDOCK:   -5.01 KCAL/MOL
REMARK 924 INTRA-LIGAND FREE ENERGY PREDICTED BY IDOCK:   -0.84 KCAL/MOL
REMARK 927      BINDING AFFINITY PREDICTED BY RF-SCORE:    0.00 PKD
ROOT
HETATM    1  C   UNL     1      -6.717   7.286  66.565  1.00  0.00    -0.060 C  
HETATM    2  C   UNL     1      -7.329   6.944  67.920  1.00  0.00    -0.097 C  
ENDROOT
BRANCH   2   3
HETATM    3  N   UNL     1      -8.515   6.071  67.858  1.00  0.00    -0.115 NA 
BRANCH   3   4
HETATM    4  C   UNL     1      -8.236   4.663  68.207  1.00  0.00    -0.090 C  
HETATM    5  C   UNL     1      -9.273   3.632  67.766  1.00  0.00    -0.228 C  
ENDBRANCH   3   4
BRANCH   3   6
HETATM    6  C   UNL     1      -9.632   6.600  68.678  1.00  0.00    -0.130 C  
BRANCH   6   7
HETATM    7  C   UNL     1     -10.867   7.061  67.886  1.00  0.00    -0.183 C  
BRANCH   7   8
HETATM    8  N   UNL     1     -11.099   8.491  67.991  1.00  0.00    -0.379 N  
HETATM    9  C   UNL     1     -10.559   9.369  67.073  1.00  0.00    -0.201 C  
HETATM   10  H   UNL     1     -11.671   8.852  68.755  1.00  0.00     0.000 HD 
HETATM   11  O   UNL     1      -9.842   9.009  66.149  1.00  0.00    -0.271 OA 
BRANCH   9  12
HETATM   12  C   UNL     1     -10.977  10.788  67.185  1.00  0.00    -0.324 A  
HETATM   13  C   UNL     1     -10.788  11.596  66.049  1.00  0.00    -0.339 A  
HETATM   14  C   UNL     1     -10.903  12.984  66.139  1.00  0.00    -0.279 A  
HETATM   15  C   UNL     1     -11.170  13.604  67.367  1.00  0.00    -0.302 A  
HETATM   16 CL   UNL     1     -10.594  13.926  64.721  1.00  0.00    -0.428 Cl 
HETATM   17  C   UNL     1     -11.452  12.787  68.468  1.00  0.00    -0.344 A  
HETATM   18  N   UNL     1     -11.343  14.996  67.477  1.00  0.00    -0.331 NA 
HETATM   19  H1  UNL     1     -11.538  15.448  68.370  1.00  0.00     0.000 HD 
HETATM   20  C   UNL     1     -11.343  11.387  68.399  1.00  0.00    -0.281 A  
HETATM   21  H2  UNL     1     -12.077  15.270  66.823  1.00  0.00     0.000 HD 
BRANCH  20  22
HETATM   22  O   UNL     1     -11.515  10.773  69.612  1.00  0.00    -0.254 OA 
HETATM   23  C   UNL     1     -12.270  11.492  70.583  1.00  0.00    -0.378 C  
ENDBRANCH  20  22
ENDBRANCH   9  12
ENDBRANCH   7   8
ENDBRANCH   6   7
ENDBRANCH   3   6
ENDBRANCH   2   3
TORSDOF 7
ENDMDL
MODEL      183
REMARK 921   NORMALIZED FREE ENERGY PREDICTED BY IDOCK:   -3.62 KCAL/MOL
REMARK 922        TOTAL FREE ENERGY PREDICTED BY IDOCK:   -5.82 KCAL/MOL
REMARK 923 INTER-LIGAND FREE ENERGY PREDICTED BY IDOCK:   -5.25 KCAL/MOL
REMARK 924 INTRA-LIGAND FREE ENERGY PREDICTED BY IDOCK:   -0.57 KCAL/MOL
REMARK 927      BINDING AFFINITY PREDICTED BY RF-SCORE:    0.00 PKD
ROOT
HETATM    1  C   UNL     1      -6.927   8.251  65.512  1.00  0.00    -0.066 C  
HETATM    2  C   UNL     1      -7.013   7.911  66.996  1.00  0.00    -0.074 C  
ENDROOT
BRANCH   2   3
HETATM    3  N   UNL     1      -8.181   7.095  67.375  1.00  0.00    -0.115 NA 
BRANCH   3   4
HETATM    4  C   UNL     1      -7.832   5.745  67.861  1.00  0.00    -0.097 C  
HETATM    5  C   UNL     1      -8.992   4.775  68.075  1.00  0.00    -0.126 C  
ENDBRANCH   3   4
BRANCH   3   6
HETATM    6  C   UNL     1      -9.047   7.795  68.355  1.00  0.00    -0.131 C  
BRANCH   6   7
HETATM    7  C   UNL     1     -10.415   8.248  67.818  1.00  0.00    -0.215 C  
BRANCH   7   8
HETATM    8  N   UNL     1     -11.021   9.288  68.631  1.00  0.00    -0.450 N  
HETATM    9  C   UNL     1     -10.880  10.621  68.304  1.00  0.00    -0.241 C  
HETATM   10  H   UNL     1     -11.559   9.027  69.458  1.00  0.00     0.000 HD 
HETATM   11  O   UNL     1     -10.225  11.006  67.344  1.00  0.00    -0.185 OA 
BRANCH   9  12
HETATM   12  C   UNL     1     -11.658  11.591  69.114  1.00  0.00    -0.382 A  
HETATM   13  C   UNL     1     -11.547  12.947  68.760  1.00  0.00    -0.351 A  
HETATM   14  C   UNL     1     -12.023  13.944  69.612  1.00  0.00    -0.342 A  
HETATM   15  C   UNL     1     -12.588  13.619  70.852  1.00  0.00    -0.346 A  
HETATM   16 CL   UNL     1     -11.797  15.596  69.149  1.00  0.00    -0.389 Cl 
HETATM   17  C   UNL     1     -12.784  12.265  71.151  1.00  0.00    -0.340 A  
HETATM   18  N   UNL     1     -13.125  14.600  71.706  1.00  0.00    -0.322 NA 
HETATM   19  H1  UNL     1     -13.536  14.363  72.610  1.00  0.00     0.000 HD 
HETATM   20  C   UNL     1     -12.312  11.245  70.307  1.00  0.00    -0.307 A  
HETATM   21  H2  UNL     1     -13.819  15.127  71.177  1.00  0.00     0.000 HD 
BRANCH  20  22
HETATM   22  O   UNL     1     -12.466   9.992  70.839  1.00  0.00    -0.312 OA 
HETATM   23  C   UNL     1     -13.212   9.906  72.049  1.00  0.00    -0.456 C  
ENDBRANCH  20  22
ENDBRANCH   9  12
ENDBRANCH   7   8
ENDBRANCH   6   7
ENDBRANCH   3   6
ENDBRANCH   2   3
TORSDOF 7
ENDMDL
MODEL      184
REMARK 921   NORMALIZED FREE ENERGY PREDICTED BY IDOCK:   -3.62 KCAL/MOL
REMARK 922        TOTAL FREE ENERGY PREDICTED BY IDOCK:   -5.82 KCAL/MOL
REMARK 923 INTER-LIGAND FREE ENERGY PREDICTED BY IDOCK:   -5.39 KCAL/MOL
REMARK 924 INTRA-LIGAND FREE ENERGY PREDICTED BY IDOCK:   -0.42 KCAL/MOL
REMARK 927      BINDING AFFINITY PREDICTED BY RF-SCORE:    0.00 PKD
ROOT
HETATM    1  C   UNL     1     -11.820  15.466  69.232  1.00  0.00    -0.365 C  
HETATM    2  C   UNL     1     -10.694  16.475  69.030  1.00  0.00    -0.332 C  
ENDROOT
BRANCH   2   3
HETATM    3  N   UNL     1      -9.678  16.076  68.040  1.00  0.00    -0.216 NA 
BRANCH   3   4
HETATM    4  C   UNL     1      -9.180  17.195  67.215  1.00  0.00    -0.230 C  
HETATM    5  C   UNL     1     -10.061  18.441  67.151  1.00  0.00    -0.371 C  
ENDBRANCH   3   4
BRANCH   3   6
HETATM    6  C   UNL     1      -8.549  15.350  68.671  1.00  0.00    -0.179 C  
BRANCH   6   7
HETATM    7  C   UNL     1      -8.364  13.895  68.209  1.00  0.00    -0.163 C  
BRANCH   7   8
HETATM    8  N   UNL     1      -9.344  12.993  68.788  1.00  0.00    -0.407 N  
HETATM    9  C   UNL     1      -9.495  11.705  68.314  1.00  0.00    -0.191 C  
HETATM   10  H   UNL     1      -9.931  13.317  69.557  1.00  0.00     0.000 HD 
HETATM   11  O   UNL     1      -8.845  11.260  67.377  1.00  0.00    -0.142 OA 
BRANCH   9  12
HETATM   12  C   UNL     1     -10.418  10.822  69.069  1.00  0.00    -0.239 A  
HETATM   13  C   UNL     1     -11.324  11.450  69.943  1.00  0.00    -0.300 A  
HETATM   14  C   UNL     1     -12.040  10.703  70.878  1.00  0.00    -0.385 A  
HETATM   15  C   UNL     1     -11.847   9.319  70.992  1.00  0.00    -0.307 A  
HETATM   16 CL   UNL     1     -13.089  11.542  71.969  1.00  0.00    -0.549 Cl 
HETATM   17  C   UNL     1     -11.019   8.692  70.054  1.00  0.00    -0.208 A  
HETATM   18  N   UNL     1     -12.595   8.534  71.888  1.00  0.00    -0.334 NA 
HETATM   19  H1  UNL     1     -12.454   7.527  71.972  1.00  0.00     0.000 HD 
HETATM   20  C   UNL     1     -10.288   9.426  69.103  1.00  0.00    -0.211 A  
HETATM   21  H2  UNL     1     -13.583   8.695  71.694  1.00  0.00     0.000 HD 
BRANCH  20  22
HETATM   22  O   UNL     1      -9.425   8.651  68.373  1.00  0.00    -0.137 OA 
HETATM   23  C   UNL     1      -8.279   8.160  69.061  1.00  0.00    -0.127 C  
ENDBRANCH  20  22
ENDBRANCH   9  12
ENDBRANCH   7   8
ENDBRANCH   6   7
ENDBRANCH   3   6
ENDBRANCH   2   3
TORSDOF 7
ENDMDL
MODEL      185
REMARK 921   NORMALIZED FREE ENERGY PREDICTED BY IDOCK:   -3.62 KCAL/MOL
REMARK 922        TOTAL FREE ENERGY PREDICTED BY IDOCK:   -5.82 KCAL/MOL
REMARK 923 INTER-LIGAND FREE ENERGY PREDICTED BY IDOCK:   -5.16 KCAL/MOL
REMARK 924 INTRA-LIGAND FREE ENERGY PREDICTED BY IDOCK:   -0.66 KCAL/MOL
REMARK 927      BINDING AFFINITY PREDICTED BY RF-SCORE:    0.00 PKD
ROOT
HETATM    1  C   UNL     1      -7.877  12.917  68.118  1.00  0.00    -0.147 C  
HETATM    2  C   UNL     1      -8.314  12.970  66.657  1.00  0.00     0.176 C  
ENDROOT
BRANCH   2   3
HETATM    3  N   UNL     1      -9.397  13.929  66.372  1.00  0.00    -0.245 NA 
BRANCH   3   4
HETATM    4  C   UNL     1      -8.930  15.320  66.205  1.00  0.00    -0.216 C  
HETATM    5  C   UNL     1      -9.994  16.361  65.860  1.00  0.00    -0.358 C  
ENDBRANCH   3   4
BRANCH   3   6
HETATM    6  C   UNL     1     -10.211  13.509  65.205  1.00  0.00    -0.306 C  
BRANCH   6   7
HETATM    7  C   UNL     1     -11.710  13.316  65.487  1.00  0.00    -0.346 C  
BRANCH   7   8
HETATM    8  N   UNL     1     -12.059  13.575  66.873  1.00  0.00    -0.387 N  
HETATM    9  C   UNL     1     -11.807  12.642  67.858  1.00  0.00    -0.332 C  
HETATM   10  H   UNL     1     -12.498  14.462  67.122  1.00  0.00     0.000 HD 
HETATM   11  O   UNL     1     -11.309  11.548  67.627  1.00  0.00    -0.264 OA 
BRANCH   9  12
HETATM   12  C   UNL     1     -12.066  13.064  69.256  1.00  0.00    -0.251 A  
HETATM   13  C   UNL     1     -12.514  12.071  70.146  1.00  0.00    -0.122 A  
HETATM   14  C   UNL     1     -13.029  12.418  71.395  1.00  0.00    -0.250 A  
HETATM   15  C   UNL     1     -13.147  13.762  71.775  1.00  0.00    -0.379 A  
HETATM   16 CL   UNL     1     -13.624  11.155  72.417  1.00  0.00    -0.016 Cl 
HETATM   17  C   UNL     1     -12.609  14.735  70.925  1.00  0.00    -0.401 A  
HETATM   18  N   UNL     1     -13.612  14.138  73.049  1.00  0.00    -0.584 NA 
HETATM   19  H1  UNL     1     -13.698  15.116  73.325  1.00  0.00     0.000 HD 
HETATM   20  C   UNL     1     -12.084  14.407  69.662  1.00  0.00    -0.334 A  
HETATM   21  H2  UNL     1     -13.033  13.668  73.743  1.00  0.00     0.000 HD 
BRANCH  20  22
HETATM   22  O   UNL     1     -11.743  15.507  68.919  1.00  0.00    -0.349 OA 
HETATM   23  C   UNL     1     -11.248  16.629  69.642  1.00  0.00    -0.045 C  
ENDBRANCH  20  22
ENDBRANCH   9  12
ENDBRANCH   7   8
ENDBRANCH   6   7
ENDBRANCH   3   6
ENDBRANCH   2   3
TORSDOF 7
ENDMDL
MODEL      186
REMARK 921   NORMALIZED FREE ENERGY PREDICTED BY IDOCK:   -3.62 KCAL/MOL
REMARK 922        TOTAL FREE ENERGY PREDICTED BY IDOCK:   -5.81 KCAL/MOL
REMARK 923 INTER-LIGAND FREE ENERGY PREDICTED BY IDOCK:   -5.71 KCAL/MOL
REMARK 924 INTRA-LIGAND FREE ENERGY PREDICTED BY IDOCK:   -0.11 KCAL/MOL
REMARK 927      BINDING AFFINITY PREDICTED BY RF-SCORE:    0.00 PKD
ROOT
HETATM    1  C   UNL     1     -12.645  12.194  63.331  1.00  0.00    -0.584 C  
HETATM    2  C   UNL     1     -11.203  12.451  63.760  1.00  0.00    -0.453 C  
ENDROOT
BRANCH   2   3
HETATM    3  N   UNL     1     -10.427  11.237  64.072  1.00  0.00    -0.351 NA 
BRANCH   3   4
HETATM    4  C   UNL     1      -9.199  11.092  63.265  1.00  0.00    -0.253 C  
HETATM    5  C   UNL     1      -8.865   9.684  62.776  1.00  0.00    -0.251 C  
ENDBRANCH   3   4
BRANCH   3   6
HETATM    6  C   UNL     1     -10.115  11.140  65.519  1.00  0.00    -0.257 C  
BRANCH   6   7
HETATM    7  C   UNL     1     -11.274  11.493  66.466  1.00  0.00    -0.259 C  
BRANCH   7   8
HETATM    8  N   UNL     1     -11.038  11.051  67.830  1.00  0.00    -0.273 N  
HETATM    9  C   UNL     1     -10.754   9.730  68.111  1.00  0.00    -0.233 C  
HETATM   10  H   UNL     1     -11.084  11.728  68.591  1.00  0.00     0.000 HD 
HETATM   11  O   UNL     1     -10.711   8.860  67.251  1.00  0.00    -0.273 OA 
BRANCH   9  12
HETATM   12  C   UNL     1     -10.386   9.412  69.513  1.00  0.00    -0.223 A  
HETATM   13  C   UNL     1      -9.133   8.807  69.719  1.00  0.00    -0.151 A  
HETATM   14  C   UNL     1      -8.815   8.240  70.953  1.00  0.00    -0.150 A  
HETATM   15  C   UNL     1      -9.747   8.226  72.000  1.00  0.00    -0.252 A  
HETATM   16 CL   UNL     1      -7.283   7.453  71.123  1.00  0.00    -0.070 Cl 
HETATM   17  C   UNL     1     -10.951   8.916  71.817  1.00  0.00    -0.431 A  
HETATM   18  N   UNL     1      -9.433   7.708  73.270  1.00  0.00    -0.234 NA 
HETATM   19  H1  UNL     1     -10.111   7.698  74.032  1.00  0.00     0.000 HD 
HETATM   20  C   UNL     1     -11.292   9.495  70.582  1.00  0.00    -0.301 A  
HETATM   21  H2  UNL     1      -8.597   8.188  73.603  1.00  0.00     0.000 HD 
BRANCH  20  22
HETATM   22  O   UNL     1     -12.568   9.995  70.556  1.00  0.00    -0.244 OA 
HETATM   23  C   UNL     1     -13.044  10.577  71.765  1.00  0.00    -0.464 C  
ENDBRANCH  20  22
ENDBRANCH   9  12
ENDBRANCH   7   8
ENDBRANCH   6   7
ENDBRANCH   3   6
ENDBRANCH   2   3
TORSDOF 7
ENDMDL
MODEL      187
REMARK 921   NORMALIZED FREE ENERGY PREDICTED BY IDOCK:   -3.61 KCAL/MOL
REMARK 922        TOTAL FREE ENERGY PREDICTED BY IDOCK:   -5.80 KCAL/MOL
REMARK 923 INTER-LIGAND FREE ENERGY PREDICTED BY IDOCK:   -5.51 KCAL/MOL
REMARK 924 INTRA-LIGAND FREE ENERGY PREDICTED BY IDOCK:   -0.28 KCAL/MOL
REMARK 927      BINDING AFFINITY PREDICTED BY RF-SCORE:    0.00 PKD
ROOT
HETATM    1  C   UNL     1     -10.406   4.357  72.873  1.00  0.00    -0.240 C  
HETATM    2  C   UNL     1      -9.960   5.792  72.610  1.00  0.00    -0.176 C  
ENDROOT
BRANCH   2   3
HETATM    3  N   UNL     1      -9.962   6.188  71.190  1.00  0.00    -0.181 NA 
BRANCH   3   4
HETATM    4  C   UNL     1     -11.261   5.981  70.517  1.00  0.00    -0.292 C  
HETATM    5  C   UNL     1     -11.295   6.227  69.010  1.00  0.00    -0.319 C  
ENDBRANCH   3   4
BRANCH   3   6
HETATM    6  C   UNL     1      -9.496   7.584  71.007  1.00  0.00    -0.160 C  
BRANCH   6   7
HETATM    7  C   UNL     1     -10.307   8.651  71.761  1.00  0.00    -0.316 C  
BRANCH   7   8
HETATM    8  N   UNL     1     -10.885   9.647  70.875  1.00  0.00    -0.319 N  
HETATM    9  C   UNL     1     -10.120  10.275  69.913  1.00  0.00    -0.171 C  
HETATM   10  H   UNL     1     -11.873   9.885  70.966  1.00  0.00     0.000 HD 
HETATM   11  O   UNL     1      -8.924  10.058  69.767  1.00  0.00    -0.207 OA 
BRANCH   9  12
HETATM   12  C   UNL     1     -10.838  11.163  68.967  1.00  0.00    -0.276 A  
HETATM   13  C   UNL     1     -10.493  11.055  67.608  1.00  0.00    -0.239 A  
HETATM   14  C   UNL     1     -10.917  12.017  66.690  1.00  0.00    -0.287 A  
HETATM   15  C   UNL     1     -11.661  13.129  67.107  1.00  0.00    -0.361 A  
HETATM   16 CL   UNL     1     -10.404  11.863  65.045  1.00  0.00    -0.315 Cl 
HETATM   17  C   UNL     1     -12.081  13.176  68.441  1.00  0.00    -0.216 A  
HETATM   18  N   UNL     1     -12.146  14.086  66.196  1.00  0.00    -0.424 NA 
HETATM   19  H1  UNL     1     -12.687  14.895  66.499  1.00  0.00     0.000 HD 
HETATM   20  C   UNL     1     -11.667  12.217  69.382  1.00  0.00    -0.330 A  
HETATM   21  H2  UNL     1     -12.691  13.593  65.489  1.00  0.00     0.000 HD 
BRANCH  20  22
HETATM   22  O   UNL     1     -12.060  12.513  70.661  1.00  0.00    -0.356 OA 
HETATM   23  C   UNL     1     -12.735  13.754  70.844  1.00  0.00    -0.323 C  
ENDBRANCH  20  22
ENDBRANCH   9  12
ENDBRANCH   7   8
ENDBRANCH   6   7
ENDBRANCH   3   6
ENDBRANCH   2   3
TORSDOF 7
ENDMDL
MODEL      188
REMARK 921   NORMALIZED FREE ENERGY PREDICTED BY IDOCK:   -3.60 KCAL/MOL
REMARK 922        TOTAL FREE ENERGY PREDICTED BY IDOCK:   -5.79 KCAL/MOL
REMARK 923 INTER-LIGAND FREE ENERGY PREDICTED BY IDOCK:   -6.41 KCAL/MOL
REMARK 924 INTRA-LIGAND FREE ENERGY PREDICTED BY IDOCK:    0.62 KCAL/MOL
REMARK 927      BINDING AFFINITY PREDICTED BY RF-SCORE:    0.00 PKD
ROOT
HETATM    1  C   UNL     1     -11.550   6.557  72.231  1.00  0.00    -0.330 C  
HETATM    2  C   UNL     1     -10.983   7.873  72.754  1.00  0.00    -0.393 C  
ENDROOT
BRANCH   2   3
HETATM    3  N   UNL     1     -10.169   8.624  71.781  1.00  0.00    -0.279 NA 
BRANCH   3   4
HETATM    4  C   UNL     1      -8.734   8.277  71.811  1.00  0.00    -0.164 C  
HETATM    5  C   UNL     1      -8.252   7.471  73.017  1.00  0.00    -0.150 C  
ENDBRANCH   3   4
BRANCH   3   6
HETATM    6  C   UNL     1     -10.706   8.502  70.403  1.00  0.00    -0.228 C  
BRANCH   6   7
HETATM    7  C   UNL     1     -10.246   9.590  69.420  1.00  0.00    -0.206 C  
BRANCH   7   8
HETATM    8  N   UNL     1     -10.560  10.932  69.881  1.00  0.00    -0.451 N  
HETATM    9  C   UNL     1     -11.594  11.654  69.320  1.00  0.00    -0.320 C  
HETATM   10  H   UNL     1     -10.007  11.347  70.631  1.00  0.00     0.000 HD 
HETATM   11  O   UNL     1     -12.280  11.229  68.399  1.00  0.00    -0.604 OA 
BRANCH   9  12
HETATM   12  C   UNL     1     -11.924  12.951  69.960  1.00  0.00    -0.380 A  
HETATM   13  C   UNL     1     -11.546  14.115  69.267  1.00  0.00    -0.350 A  
HETATM   14  C   UNL     1     -11.574  15.358  69.900  1.00  0.00    -0.323 A  
HETATM   15  C   UNL     1     -11.944  15.469  71.248  1.00  0.00    -0.388 A  
HETATM   16 CL   UNL     1     -11.034  16.743  69.015  1.00  0.00    -0.281 Cl 
HETATM   17  C   UNL     1     -12.412  14.321  71.898  1.00  0.00    -0.364 A  
HETATM   18  N   UNL     1     -12.034  16.715  71.895  1.00  0.00    -0.563 NA 
HETATM   19  H1  UNL     1     -12.302  16.796  72.876  1.00  0.00     0.000 HD 
HETATM   20  C   UNL     1     -12.392  13.059  71.279  1.00  0.00    -0.099 A  
HETATM   21  H2  UNL     1     -12.663  17.305  71.350  1.00  0.00     0.000 HD 
BRANCH  20  22
HETATM   22  O   UNL     1     -12.750  12.040  72.122  1.00  0.00    -0.124 OA 
HETATM   23  C   UNL     1     -13.135  10.815  71.505  1.00  0.00    -0.414 C  
ENDBRANCH  20  22
ENDBRANCH   9  12
ENDBRANCH   7   8
ENDBRANCH   6   7
ENDBRANCH   3   6
ENDBRANCH   2   3
TORSDOF 7
ENDMDL
MODEL      189
REMARK 921   NORMALIZED FREE ENERGY PREDICTED BY IDOCK:   -3.60 KCAL/MOL
REMARK 922        TOTAL FREE ENERGY PREDICTED BY IDOCK:   -5.79 KCAL/MOL
REMARK 923 INTER-LIGAND FREE ENERGY PREDICTED BY IDOCK:   -4.95 KCAL/MOL
REMARK 924 INTRA-LIGAND FREE ENERGY PREDICTED BY IDOCK:   -0.84 KCAL/MOL
REMARK 927      BINDING AFFINITY PREDICTED BY RF-SCORE:    0.00 PKD
ROOT
HETATM    1  C   UNL     1      -7.356   4.850  73.134  1.00  0.00    -0.087 C  
HETATM    2  C   UNL     1      -8.541   4.548  72.222  1.00  0.00    -0.114 C  
ENDROOT
BRANCH   2   3
HETATM    3  N   UNL     1      -9.735   5.377  72.466  1.00  0.00    -0.152 NA 
BRANCH   3   4
HETATM    4  C   UNL     1     -10.977   4.596  72.635  1.00  0.00    -0.110 C  
HETATM    5  C   UNL     1     -10.983   3.558  73.757  1.00  0.00    -0.308 C  
ENDBRANCH   3   4
BRANCH   3   6
HETATM    6  C   UNL     1      -9.539   6.300  73.611  1.00  0.00    -0.159 C  
BRANCH   6   7
HETATM    7  C   UNL     1     -10.241   7.662  73.484  1.00  0.00    -0.272 C  
BRANCH   7   8
HETATM    8  N   UNL     1     -10.108   8.241  72.158  1.00  0.00    -0.246 N  
HETATM    9  C   UNL     1     -11.188   8.817  71.521  1.00  0.00    -0.307 C  
HETATM   10  H   UNL     1      -9.201   8.221  71.691  1.00  0.00     0.000 HD 
HETATM   11  O   UNL     1     -12.309   8.851  72.010  1.00  0.00    -0.344 OA 
BRANCH   9  12
HETATM   12  C   UNL     1     -10.912   9.507  70.237  1.00  0.00    -0.317 A  
HETATM   13  C   UNL     1     -11.420  10.812  70.096  1.00  0.00    -0.415 A  
HETATM   14  C   UNL     1     -11.439  11.433  68.847  1.00  0.00    -0.298 A  
HETATM   15  C   UNL     1     -10.990  10.760  67.702  1.00  0.00    -0.306 A  
HETATM   16 CL   UNL     1     -12.137  13.012  68.727  1.00  0.00    -0.279 Cl 
HETATM   17  C   UNL     1     -10.398   9.503  67.869  1.00  0.00    -0.276 A  
HETATM   18  N   UNL     1     -10.949  11.382  66.441  1.00  0.00    -0.282 NA 
HETATM   19  H1  UNL     1     -10.622  10.892  65.608  1.00  0.00     0.000 HD 
HETATM   20  C   UNL     1     -10.367   8.859  69.118  1.00  0.00    -0.220 A  
HETATM   21  H2  UNL     1     -10.402  12.238  66.533  1.00  0.00     0.000 HD 
BRANCH  20  22
HETATM   22  O   UNL     1      -9.880   7.580  69.052  1.00  0.00    -0.164 OA 
HETATM   23  C   UNL     1     -10.801   6.574  68.640  1.00  0.00    -0.295 C  
ENDBRANCH  20  22
ENDBRANCH   9  12
ENDBRANCH   7   8
ENDBRANCH   6   7
ENDBRANCH   3   6
ENDBRANCH   2   3
TORSDOF 7
ENDMDL
MODEL      190
REMARK 921   NORMALIZED FREE ENERGY PREDICTED BY IDOCK:   -3.60 KCAL/MOL
REMARK 922        TOTAL FREE ENERGY PREDICTED BY IDOCK:   -5.79 KCAL/MOL
REMARK 923 INTER-LIGAND FREE ENERGY PREDICTED BY IDOCK:   -4.83 KCAL/MOL
REMARK 924 INTRA-LIGAND FREE ENERGY PREDICTED BY IDOCK:   -0.95 KCAL/MOL
REMARK 927      BINDING AFFINITY PREDICTED BY RF-SCORE:    0.00 PKD
ROOT
HETATM    1  C   UNL     1     -12.317  12.549  63.593  1.00  0.00    -0.618 C  
HETATM    2  C   UNL     1     -12.563  13.117  64.987  1.00  0.00    -0.438 C  
ENDROOT
BRANCH   2   3
HETATM    3  N   UNL     1     -11.426  12.986  65.916  1.00  0.00    -0.323 NA 
BRANCH   3   4
HETATM    4  C   UNL     1     -10.278  13.852  65.577  1.00  0.00    -0.331 C  
HETATM    5  C   UNL     1     -10.569  15.345  65.432  1.00  0.00    -0.430 C  
ENDBRANCH   3   4
BRANCH   3   6
HETATM    6  C   UNL     1     -11.838  13.195  67.325  1.00  0.00    -0.367 C  
BRANCH   6   7
HETATM    7  C   UNL     1     -11.554  12.019  68.274  1.00  0.00    -0.334 C  
BRANCH   7   8
HETATM    8  N   UNL     1     -10.641  11.044  67.702  1.00  0.00    -0.203 N  
HETATM    9  C   UNL     1     -10.643   9.731  68.128  1.00  0.00    -0.231 C  
HETATM   10  H   UNL     1      -9.989  11.335  66.974  1.00  0.00     0.000 HD 
HETATM   11  O   UNL     1     -11.379   9.321  69.016  1.00  0.00     0.072 OA 
BRANCH   9  12
HETATM   12  C   UNL     1      -9.778   8.788  67.379  1.00  0.00    -0.225 A  
HETATM   13  C   UNL     1      -9.133   7.787  68.128  1.00  0.00    -0.129 A  
HETATM   14  C   UNL     1      -8.108   7.028  67.563  1.00  0.00    -0.113 A  
HETATM   15  C   UNL     1      -7.673   7.271  66.252  1.00  0.00    -0.097 A  
HETATM   16 CL   UNL     1      -7.310   5.857  68.556  1.00  0.00    -0.083 Cl 
HETATM   17  C   UNL     1      -8.385   8.199  65.485  1.00  0.00    -0.160 A  
HETATM   18  N   UNL     1      -6.679   6.485  65.640  1.00  0.00    -0.047 NA 
HETATM   19  H1  UNL     1      -6.362   6.662  64.687  1.00  0.00     0.000 HD 
HETATM   20  C   UNL     1      -9.422   8.975  66.034  1.00  0.00    -0.256 A  
HETATM   21  H2  UNL     1      -6.975   5.511  65.695  1.00  0.00     0.000 HD 
BRANCH  20  22
HETATM   22  O   UNL     1      -9.897   9.928  65.172  1.00  0.00    -0.306 OA 
HETATM   23  C   UNL     1      -8.939  10.532  64.308  1.00  0.00    -0.216 C  
ENDBRANCH  20  22
ENDBRANCH   9  12
ENDBRANCH   7   8
ENDBRANCH   6   7
ENDBRANCH   3   6
ENDBRANCH   2   3
TORSDOF 7
ENDMDL
MODEL      191
REMARK 921   NORMALIZED FREE ENERGY PREDICTED BY IDOCK:   -3.59 KCAL/MOL
REMARK 922        TOTAL FREE ENERGY PREDICTED BY IDOCK:   -5.78 KCAL/MOL
REMARK 923 INTER-LIGAND FREE ENERGY PREDICTED BY IDOCK:   -4.75 KCAL/MOL
REMARK 924 INTRA-LIGAND FREE ENERGY PREDICTED BY IDOCK:   -1.03 KCAL/MOL
REMARK 927      BINDING AFFINITY PREDICTED BY RF-SCORE:    0.00 PKD
ROOT
HETATM    1  C   UNL     1     -12.057  12.393  69.870  1.00  0.00    -0.317 C  
HETATM    2  C   UNL     1     -11.828  11.187  68.965  1.00  0.00    -0.348 C  
ENDROOT
BRANCH   2   3
HETATM    3  N   UNL     1     -11.323   9.985  69.654  1.00  0.00    -0.229 NA 
BRANCH   3   4
HETATM    4  C   UNL     1      -9.927   9.646  69.312  1.00  0.00    -0.191 C  
HETATM    5  C   UNL     1      -8.935   9.584  70.472  1.00  0.00    -0.265 C  
ENDBRANCH   3   4
BRANCH   3   6
HETATM    6  C   UNL     1     -11.491  10.083  71.124  1.00  0.00    -0.354 C  
BRANCH   6   7
HETATM    7  C   UNL     1     -12.366   8.990  71.760  1.00  0.00    -0.367 C  
BRANCH   7   8
HETATM    8  N   UNL     1     -11.585   7.913  72.343  1.00  0.00    -0.357 N  
HETATM    9  C   UNL     1     -11.238   6.801  71.602  1.00  0.00    -0.255 C  
HETATM   10  H   UNL     1     -11.287   7.980  73.317  1.00  0.00     0.000 HD 
HETATM   11  O   UNL     1     -11.584   6.643  70.439  1.00  0.00    -0.358 OA 
BRANCH   9  12
HETATM   12  C   UNL     1     -10.318   5.833  72.247  1.00  0.00    -0.244 A  
HETATM   13  C   UNL     1     -10.385   4.500  71.801  1.00  0.00    -0.175 A  
HETATM   14  C   UNL     1      -9.758   3.481  72.517  1.00  0.00    -0.147 A  
HETATM   15  C   UNL     1      -9.080   3.755  73.713  1.00  0.00    -0.090 A  
HETATM   16 CL   UNL     1      -9.933   1.854  71.953  1.00  0.00    -0.218 Cl 
HETATM   17  C   UNL     1      -8.936   5.093  74.094  1.00  0.00    -0.115 A  
HETATM   18  N   UNL     1      -8.394   2.754  74.426  1.00  0.00    -0.068 NA 
HETATM   19  H1  UNL     1      -7.901   2.954  75.296  1.00  0.00     0.000 HD 
HETATM   20  C   UNL     1      -9.559   6.136  73.388  1.00  0.00    -0.148 A  
HETATM   21  H2  UNL     1      -7.732   2.315  73.786  1.00  0.00     0.000 HD 
BRANCH  20  22
HETATM   22  O   UNL     1      -9.423   7.356  73.997  1.00  0.00    -0.262 OA 
HETATM   23  C   UNL     1      -8.100   7.875  74.085  1.00  0.00    -0.240 C  
ENDBRANCH  20  22
ENDBRANCH   9  12
ENDBRANCH   7   8
ENDBRANCH   6   7
ENDBRANCH   3   6
ENDBRANCH   2   3
TORSDOF 7
ENDMDL
MODEL      192
REMARK 921   NORMALIZED FREE ENERGY PREDICTED BY IDOCK:   -3.59 KCAL/MOL
REMARK 922        TOTAL FREE ENERGY PREDICTED BY IDOCK:   -5.77 KCAL/MOL
REMARK 923 INTER-LIGAND FREE ENERGY PREDICTED BY IDOCK:   -5.18 KCAL/MOL
REMARK 924 INTRA-LIGAND FREE ENERGY PREDICTED BY IDOCK:   -0.60 KCAL/MOL
REMARK 927      BINDING AFFINITY PREDICTED BY RF-SCORE:    0.00 PKD
ROOT
HETATM    1  C   UNL     1     -12.127  14.850  64.435  1.00  0.00    -0.417 C  
HETATM    2  C   UNL     1     -12.898  13.846  65.287  1.00  0.00    -0.398 C  
ENDROOT
BRANCH   2   3
HETATM    3  N   UNL     1     -12.547  12.435  65.047  1.00  0.00    -0.604 NA 
BRANCH   3   4
HETATM    4  C   UNL     1     -12.255  12.128  63.632  1.00  0.00    -0.562 C  
HETATM    5  C   UNL     1     -10.873  11.549  63.330  1.00  0.00    -0.423 C  
ENDBRANCH   3   4
BRANCH   3   6
HETATM    6  C   UNL     1     -11.433  11.988  65.918  1.00  0.00    -0.333 C  
BRANCH   6   7
HETATM    7  C   UNL     1     -11.582  12.341  67.407  1.00  0.00    -0.355 C  
BRANCH   7   8
HETATM    8  N   UNL     1     -10.569  13.275  67.867  1.00  0.00    -0.233 N  
HETATM    9  C   UNL     1      -9.237  12.914  67.917  1.00  0.00    -0.208 C  
HETATM   10  H   UNL     1     -10.846  14.213  68.157  1.00  0.00     0.000 HD 
HETATM   11  O   UNL     1      -8.839  11.798  67.611  1.00  0.00    -0.152 OA 
BRANCH   9  12
HETATM   12  C   UNL     1      -8.270  13.985  68.260  1.00  0.00    -0.153 A  
HETATM   13  C   UNL     1      -7.333  13.694  69.269  1.00  0.00     0.129 A  
HETATM   14  C   UNL     1      -6.565  14.711  69.837  1.00  0.00    -0.167 A  
HETATM   15  C   UNL     1      -6.736  16.046  69.443  1.00  0.00    -0.200 A  
HETATM   16 CL   UNL     1      -5.478  14.300  71.119  1.00  0.00    -0.163 Cl 
HETATM   17  C   UNL     1      -7.598  16.310  68.373  1.00  0.00    -0.166 A  
HETATM   18  N   UNL     1      -5.938  17.083  69.961  1.00  0.00    -0.226 NA 
HETATM   19  H1  UNL     1      -6.062  18.054  69.674  1.00  0.00     0.000 HD 
HETATM   20  C   UNL     1      -8.381  15.300  67.785  1.00  0.00    -0.153 A  
HETATM   21  H2  UNL     1      -4.962  16.833  69.801  1.00  0.00     0.000 HD 
BRANCH  20  22
HETATM   22  O   UNL     1      -9.267  15.778  66.855  1.00  0.00    -0.208 OA 
HETATM   23  C   UNL     1      -8.790  16.814  66.002  1.00  0.00    -0.183 C  
ENDBRANCH  20  22
ENDBRANCH   9  12
ENDBRANCH   7   8
ENDBRANCH   6   7
ENDBRANCH   3   6
ENDBRANCH   2   3
TORSDOF 7
ENDMDL
MODEL      193
REMARK 921   NORMALIZED FREE ENERGY PREDICTED BY IDOCK:   -3.58 KCAL/MOL
REMARK 922        TOTAL FREE ENERGY PREDICTED BY IDOCK:   -5.76 KCAL/MOL
REMARK 923 INTER-LIGAND FREE ENERGY PREDICTED BY IDOCK:   -4.96 KCAL/MOL
REMARK 924 INTRA-LIGAND FREE ENERGY PREDICTED BY IDOCK:   -0.80 KCAL/MOL
REMARK 927      BINDING AFFINITY PREDICTED BY RF-SCORE:    0.00 PKD
ROOT
HETATM    1  C   UNL     1      -8.605  13.255  68.126  1.00  0.00    -0.177 C  
HETATM    2  C   UNL     1      -8.675  14.036  66.818  1.00  0.00    -0.110 C  
ENDROOT
BRANCH   2   3
HETATM    3  N   UNL     1      -9.932  14.777  66.609  1.00  0.00    -0.256 NA 
BRANCH   3   4
HETATM    4  C   UNL     1      -9.797  16.238  66.779  1.00  0.00    -0.245 C  
HETATM    5  C   UNL     1      -8.408  16.828  66.537  1.00  0.00    -0.320 C  
ENDBRANCH   3   4
BRANCH   3   6
HETATM    6  C   UNL     1     -10.548  14.460  65.298  1.00  0.00    -0.382 C  
BRANCH   6   7
HETATM    7  C   UNL     1     -11.759  13.515  65.352  1.00  0.00    -0.332 C  
BRANCH   7   8
HETATM    8  N   UNL     1     -11.566  12.407  66.272  1.00  0.00    -0.379 N  
HETATM    9  C   UNL     1     -10.832  11.297  65.906  1.00  0.00    -0.202 C  
HETATM   10  H   UNL     1     -11.981  12.451  67.203  1.00  0.00     0.000 HD 
HETATM   11  O   UNL     1     -10.331  11.167  64.797  1.00  0.00    -0.287 OA 
BRANCH   9  12
HETATM   12  C   UNL     1     -10.573  10.292  66.966  1.00  0.00    -0.302 A  
HETATM   13  C   UNL     1      -9.779   9.186  66.611  1.00  0.00    -0.287 A  
HETATM   14  C   UNL     1      -9.700   8.073  67.449  1.00  0.00    -0.166 A  
HETATM   15  C   UNL     1     -10.436   8.016  68.640  1.00  0.00    -0.167 A  
HETATM   16 CL   UNL     1      -8.759   6.719  66.926  1.00  0.00    -0.115 Cl 
HETATM   17  C   UNL     1     -11.144   9.159  69.030  1.00  0.00     0.063 A  
HETATM   18  N   UNL     1     -10.333   6.930  69.528  1.00  0.00    -0.199 NA 
HETATM   19  H1  UNL     1     -10.870   6.888  70.395  1.00  0.00     0.000 HD 
HETATM   20  C   UNL     1     -11.237  10.292  68.202  1.00  0.00    -0.229 A  
HETATM   21  H2  UNL     1      -9.348   6.814  69.765  1.00  0.00     0.000 HD 
BRANCH  20  22
HETATM   22  O   UNL     1     -12.090  11.247  68.690  1.00  0.00    -0.543 OA 
HETATM   23  C   UNL     1     -12.223  11.312  70.106  1.00  0.00    -0.330 C  
ENDBRANCH  20  22
ENDBRANCH   9  12
ENDBRANCH   7   8
ENDBRANCH   6   7
ENDBRANCH   3   6
ENDBRANCH   2   3
TORSDOF 7
ENDMDL
MODEL      194
REMARK 921   NORMALIZED FREE ENERGY PREDICTED BY IDOCK:   -3.58 KCAL/MOL
REMARK 922        TOTAL FREE ENERGY PREDICTED BY IDOCK:   -5.76 KCAL/MOL
REMARK 923 INTER-LIGAND FREE ENERGY PREDICTED BY IDOCK:   -5.11 KCAL/MOL
REMARK 924 INTRA-LIGAND FREE ENERGY PREDICTED BY IDOCK:   -0.65 KCAL/MOL
REMARK 927      BINDING AFFINITY PREDICTED BY RF-SCORE:    0.00 PKD
ROOT
HETATM    1  C   UNL     1      -9.926   4.891  71.682  1.00  0.00    -0.255 C  
HETATM    2  C   UNL     1     -10.569   6.269  71.809  1.00  0.00    -0.225 C  
ENDROOT
BRANCH   2   3
HETATM    3  N   UNL     1     -10.459   7.114  70.606  1.00  0.00    -0.208 NA 
BRANCH   3   4
HETATM    4  C   UNL     1     -11.482   6.826  69.581  1.00  0.00    -0.230 C  
HETATM    5  C   UNL     1     -10.990   6.181  68.286  1.00  0.00    -0.397 C  
ENDBRANCH   3   4
BRANCH   3   6
HETATM    6  C   UNL     1     -10.453   8.558  70.946  1.00  0.00    -0.203 C  
BRANCH   6   7
HETATM    7  C   UNL     1     -11.485   9.414  70.194  1.00  0.00    -0.138 C  
BRANCH   7   8
HETATM    8  N   UNL     1     -10.896  10.587  69.572  1.00  0.00    -0.240 N  
HETATM    9  C   UNL     1     -10.591  10.603  68.226  1.00  0.00    -0.194 C  
HETATM   10  H   UNL     1     -10.704  11.412  70.140  1.00  0.00     0.000 HD 
HETATM   11  O   UNL     1     -10.769   9.640  67.492  1.00  0.00    -0.274 OA 
BRANCH   9  12
HETATM   12  C   UNL     1     -10.131  11.896  67.664  1.00  0.00    -0.202 A  
HETATM   13  C   UNL     1      -8.954  12.442  68.207  1.00  0.00    -0.178 A  
HETATM   14  C   UNL     1      -8.591  13.760  67.933  1.00  0.00    -0.183 A  
HETATM   15  C   UNL     1      -9.408  14.581  67.143  1.00  0.00    -0.218 A  
HETATM   16 CL   UNL     1      -7.166  14.393  68.684  1.00  0.00    -0.115 Cl 
HETATM   17  C   UNL     1     -10.524  14.000  66.528  1.00  0.00    -0.281 A  
HETATM   18  N   UNL     1      -9.040  15.897  66.807  1.00  0.00    -0.229 NA 
HETATM   19  H1  UNL     1      -9.635  16.494  66.232  1.00  0.00     0.000 HD 
HETATM   20  C   UNL     1     -10.907  12.674  66.790  1.00  0.00    -0.250 A  
HETATM   21  H2  UNL     1      -8.120  15.860  66.369  1.00  0.00     0.000 HD 
BRANCH  20  22
HETATM   22  O   UNL     1     -12.103  12.334  66.213  1.00  0.00    -0.626 OA 
HETATM   23  C   UNL     1     -12.658  13.282  65.306  1.00  0.00    -0.470 C  
ENDBRANCH  20  22
ENDBRANCH   9  12
ENDBRANCH   7   8
ENDBRANCH   6   7
ENDBRANCH   3   6
ENDBRANCH   2   3
TORSDOF 7
ENDMDL
MODEL      195
REMARK 921   NORMALIZED FREE ENERGY PREDICTED BY IDOCK:   -3.58 KCAL/MOL
REMARK 922        TOTAL FREE ENERGY PREDICTED BY IDOCK:   -5.76 KCAL/MOL
REMARK 923 INTER-LIGAND FREE ENERGY PREDICTED BY IDOCK:   -5.07 KCAL/MOL
REMARK 924 INTRA-LIGAND FREE ENERGY PREDICTED BY IDOCK:   -0.69 KCAL/MOL
REMARK 927      BINDING AFFINITY PREDICTED BY RF-SCORE:    0.00 PKD
ROOT
HETATM    1  C   UNL     1      -5.716  11.214  66.803  1.00  0.00    -0.106 C  
HETATM    2  C   UNL     1      -6.714  10.072  66.638  1.00  0.00    -0.081 C  
ENDROOT
BRANCH   2   3
HETATM    3  N   UNL     1      -8.087  10.385  67.074  1.00  0.00    -0.115 NA 
BRANCH   3   4
HETATM    4  C   UNL     1      -8.453  11.806  66.909  1.00  0.00    -0.174 C  
HETATM    5  C   UNL     1      -8.565  12.635  68.188  1.00  0.00    -0.188 C  
ENDBRANCH   3   4
BRANCH   3   6
HETATM    6  C   UNL     1      -9.087   9.508  66.417  1.00  0.00    -0.159 C  
BRANCH   6   7
HETATM    7  C   UNL     1     -10.459   9.445  67.108  1.00  0.00    -0.244 C  
BRANCH   7   8
HETATM    8  N   UNL     1     -10.367   9.053  68.504  1.00  0.00    -0.201 N  
HETATM    9  C   UNL     1     -10.858   9.866  69.506  1.00  0.00    -0.246 C  
HETATM   10  H   UNL     1      -9.932   8.163  68.747  1.00  0.00     0.000 HD 
HETATM   11  O   UNL     1     -11.367  10.958  69.287  1.00  0.00    -0.231 OA 
BRANCH   9  12
HETATM   12  C   UNL     1     -10.847   9.308  70.880  1.00  0.00    -0.365 A  
HETATM   13  C   UNL     1      -9.586   9.075  71.460  1.00  0.00    -0.340 A  
HETATM   14  C   UNL     1      -9.472   8.319  72.627  1.00  0.00    -0.284 A  
HETATM   15  C   UNL     1     -10.602   7.745  73.225  1.00  0.00    -0.287 A  
HETATM   16 CL   UNL     1      -7.888   8.013  73.253  1.00  0.00    -0.201 Cl 
HETATM   17  C   UNL     1     -11.858   8.064  72.697  1.00  0.00    -0.380 A  
HETATM   18  N   UNL     1     -10.521   7.024  74.430  1.00  0.00    -0.506 NA 
HETATM   19  H1  UNL     1     -11.344   6.606  74.865  1.00  0.00     0.000 HD 
HETATM   20  C   UNL     1     -11.997   8.825  71.522  1.00  0.00    -0.324 A  
HETATM   21  H2  UNL     1     -10.074   7.624  75.122  1.00  0.00     0.000 HD 
BRANCH  20  22
HETATM   22  O   UNL     1     -13.292   8.906  71.083  1.00  0.00    -0.216 OA 
HETATM   23  C   UNL     1     -14.305   8.654  72.052  1.00  0.00    -0.422 C  
ENDBRANCH  20  22
ENDBRANCH   9  12
ENDBRANCH   7   8
ENDBRANCH   6   7
ENDBRANCH   3   6
ENDBRANCH   2   3
TORSDOF 7
ENDMDL
MODEL      196
REMARK 921   NORMALIZED FREE ENERGY PREDICTED BY IDOCK:   -3.56 KCAL/MOL
REMARK 922        TOTAL FREE ENERGY PREDICTED BY IDOCK:   -5.73 KCAL/MOL
REMARK 923 INTER-LIGAND FREE ENERGY PREDICTED BY IDOCK:   -4.99 KCAL/MOL
REMARK 924 INTRA-LIGAND FREE ENERGY PREDICTED BY IDOCK:   -0.74 KCAL/MOL
REMARK 927      BINDING AFFINITY PREDICTED BY RF-SCORE:    0.00 PKD
ROOT
HETATM    1  C   UNL     1      -7.427  18.015  65.954  1.00  0.00    -0.213 C  
HETATM    2  C   UNL     1      -8.360  18.261  67.136  1.00  0.00    -0.245 C  
ENDROOT
BRANCH   2   3
HETATM    3  N   UNL     1      -8.441  17.149  68.100  1.00  0.00    -0.220 NA 
BRANCH   3   4
HETATM    4  C   UNL     1      -7.751  17.419  69.378  1.00  0.00     0.219 C  
HETATM    5  C   UNL     1      -6.224  17.374  69.353  1.00  0.00    -0.250 C  
ENDBRANCH   3   4
BRANCH   3   6
HETATM    6  C   UNL     1      -9.843  16.730  68.342  1.00  0.00    -0.253 C  
BRANCH   6   7
HETATM    7  C   UNL     1     -10.051  15.798  69.547  1.00  0.00    -0.279 C  
BRANCH   7   8
HETATM    8  N   UNL     1     -10.175  14.403  69.162  1.00  0.00    -0.382 N  
HETATM    9  C   UNL     1     -11.251  13.643  69.574  1.00  0.00    -0.146 C  
HETATM   10  H   UNL     1      -9.454  13.978  68.578  1.00  0.00     0.000 HD 
HETATM   11  O   UNL     1     -12.136  14.080  70.298  1.00  0.00    -0.312 OA 
BRANCH   9  12
HETATM   12  C   UNL     1     -11.356  12.276  69.007  1.00  0.00    -0.333 A  
HETATM   13  C   UNL     1     -11.406  11.211  69.924  1.00  0.00    -0.348 A  
HETATM   14  C   UNL     1     -11.241   9.895  69.491  1.00  0.00    -0.177 A  
HETATM   15  C   UNL     1     -10.987   9.608  68.143  1.00  0.00    -0.132 A  
HETATM   16 CL   UNL     1     -11.247   8.634  70.676  1.00  0.00    -0.277 Cl 
HETATM   17  C   UNL     1     -11.037  10.665  67.226  1.00  0.00    -0.313 A  
HETATM   18  N   UNL     1     -10.870   8.288  67.671  1.00  0.00    -0.506 NA 
HETATM   19  H1  UNL     1     -10.684   8.080  66.690  1.00  0.00     0.000 HD 
HETATM   20  C   UNL     1     -11.202  11.998  67.640  1.00  0.00    -0.282 A  
HETATM   21  H2  UNL     1     -11.715   7.785  67.941  1.00  0.00     0.000 HD 
BRANCH  20  22
HETATM   22  O   UNL     1     -11.078  12.899  66.616  1.00  0.00    -0.270 OA 
HETATM   23  C   UNL     1     -10.078  12.616  65.642  1.00  0.00    -0.272 C  
ENDBRANCH  20  22
ENDBRANCH   9  12
ENDBRANCH   7   8
ENDBRANCH   6   7
ENDBRANCH   3   6
ENDBRANCH   2   3
TORSDOF 7
ENDMDL
MODEL      197
REMARK 921   NORMALIZED FREE ENERGY PREDICTED BY IDOCK:   -3.55 KCAL/MOL
REMARK 922        TOTAL FREE ENERGY PREDICTED BY IDOCK:   -5.71 KCAL/MOL
REMARK 923 INTER-LIGAND FREE ENERGY PREDICTED BY IDOCK:   -5.35 KCAL/MOL
REMARK 924 INTRA-LIGAND FREE ENERGY PREDICTED BY IDOCK:   -0.36 KCAL/MOL
REMARK 927      BINDING AFFINITY PREDICTED BY RF-SCORE:    0.00 PKD
ROOT
HETATM    1  C   UNL     1     -12.361  12.533  63.704  1.00  0.00    -0.618 C  
HETATM    2  C   UNL     1     -12.442  12.878  65.188  1.00  0.00    -0.501 C  
ENDROOT
BRANCH   2   3
HETATM    3  N   UNL     1     -11.522  12.112  66.049  1.00  0.00    -0.363 NA 
BRANCH   3   4
HETATM    4  C   UNL     1     -10.275  11.704  65.373  1.00  0.00    -0.263 C  
HETATM    5  C   UNL     1      -9.976  10.206  65.338  1.00  0.00    -0.377 C  
ENDBRANCH   3   4
BRANCH   3   6
HETATM    6  C   UNL     1     -11.220  12.832  67.310  1.00  0.00    -0.295 C  
BRANCH   6   7
HETATM    7  C   UNL     1     -11.666  12.120  68.597  1.00  0.00    -0.330 C  
BRANCH   7   8
HETATM    8  N   UNL     1     -10.640  11.248  69.141  1.00  0.00    -0.312 N  
HETATM    9  C   UNL     1     -10.950  10.273  70.067  1.00  0.00    -0.311 C  
HETATM   10  H   UNL     1      -9.673  11.358  68.833  1.00  0.00     0.000 HD 
HETATM   11  O   UNL     1     -12.082  10.103  70.501  1.00  0.00    -0.283 OA 
BRANCH   9  12
HETATM   12  C   UNL     1      -9.858   9.344  70.447  1.00  0.00    -0.313 A  
HETATM   13  C   UNL     1      -8.554   9.709  70.067  1.00  0.00    -0.237 A  
HETATM   14  C   UNL     1      -7.509   8.788  70.145  1.00  0.00    -0.056 A  
HETATM   15  C   UNL     1      -7.741   7.471  70.567  1.00  0.00    -0.094 A  
HETATM   16 CL   UNL     1      -5.941   9.278  69.601  1.00  0.00    -0.036 Cl 
HETATM   17  C   UNL     1      -9.020   7.147  71.035  1.00  0.00    -0.150 A  
HETATM   18  N   UNL     1      -6.697   6.538  70.706  1.00  0.00    -0.056 NA 
HETATM   19  H1  UNL     1      -6.867   5.580  71.012  1.00  0.00     0.000 HD 
HETATM   20  C   UNL     1     -10.087   8.060  70.966  1.00  0.00    -0.186 A  
HETATM   21  H2  UNL     1      -5.997   6.945  71.326  1.00  0.00     0.000 HD 
BRANCH  20  22
HETATM   22  O   UNL     1     -11.288   7.513  71.333  1.00  0.00    -0.250 OA 
HETATM   23  C   UNL     1     -11.756   6.424  70.542  1.00  0.00    -0.317 C  
ENDBRANCH  20  22
ENDBRANCH   9  12
ENDBRANCH   7   8
ENDBRANCH   6   7
ENDBRANCH   3   6
ENDBRANCH   2   3
TORSDOF 7
ENDMDL
MODEL      198
REMARK 921   NORMALIZED FREE ENERGY PREDICTED BY IDOCK:   -3.54 KCAL/MOL
REMARK 922        TOTAL FREE ENERGY PREDICTED BY IDOCK:   -5.71 KCAL/MOL
REMARK 923 INTER-LIGAND FREE ENERGY PREDICTED BY IDOCK:   -5.32 KCAL/MOL
REMARK 924 INTRA-LIGAND FREE ENERGY PREDICTED BY IDOCK:   -0.39 KCAL/MOL
REMARK 927      BINDING AFFINITY PREDICTED BY RF-SCORE:    0.00 PKD
ROOT
HETATM    1  C   UNL     1     -10.865  19.412  67.332  1.00  0.00    -0.555 C  
HETATM    2  C   UNL     1     -10.450  18.887  65.961  1.00  0.00    -0.446 C  
ENDROOT
BRANCH   2   3
HETATM    3  N   UNL     1      -9.047  18.442  65.869  1.00  0.00    -0.445 NA 
BRANCH   3   4
HETATM    4  C   UNL     1      -8.066  19.518  66.115  1.00  0.00    -0.333 C  
HETATM    5  C   UNL     1      -7.174  19.911  64.937  1.00  0.00     0.269 C  
ENDBRANCH   3   4
BRANCH   3   6
HETATM    6  C   UNL     1      -8.779  17.280  66.751  1.00  0.00    -0.251 C  
BRANCH   6   7
HETATM    7  C   UNL     1      -8.704  15.919  66.040  1.00  0.00    -0.188 C  
BRANCH   7   8
HETATM    8  N   UNL     1      -9.672  14.965  66.551  1.00  0.00    -0.261 N  
HETATM    9  C   UNL     1      -9.345  13.634  66.711  1.00  0.00    -0.261 C  
HETATM   10  H   UNL     1     -10.610  15.284  66.795  1.00  0.00     0.000 HD 
HETATM   11  O   UNL     1      -8.249  13.178  66.413  1.00  0.00     0.326 OA 
BRANCH   9  12
HETATM   12  C   UNL     1     -10.356  12.775  67.375  1.00  0.00    -0.222 A  
HETATM   13  C   UNL     1     -10.913  13.261  68.572  1.00  0.00    -0.291 A  
HETATM   14  C   UNL     1     -11.664  12.422  69.396  1.00  0.00    -0.322 A  
HETATM   15  C   UNL     1     -11.848  11.072  69.070  1.00  0.00    -0.329 A  
HETATM   16 CL   UNL     1     -12.267  13.062  70.886  1.00  0.00    -0.395 Cl 
HETATM   17  C   UNL     1     -11.374  10.624  67.831  1.00  0.00    -0.342 A  
HETATM   18  N   UNL     1     -12.645  10.217  69.854  1.00  0.00    -0.550 NA 
HETATM   19  H1  UNL     1     -12.779   9.234  69.617  1.00  0.00     0.000 HD 
HETATM   20  C   UNL     1     -10.615  11.452  66.986  1.00  0.00    -0.248 A  
HETATM   21  H2  UNL     1     -13.567  10.645  69.941  1.00  0.00     0.000 HD 
BRANCH  20  22
HETATM   22  O   UNL     1     -10.118  10.794  65.892  1.00  0.00    -0.237 OA 
HETATM   23  C   UNL     1      -9.570   9.500  66.127  1.00  0.00    -0.239 C  
ENDBRANCH  20  22
ENDBRANCH   9  12
ENDBRANCH   7   8
ENDBRANCH   6   7
ENDBRANCH   3   6
ENDBRANCH   2   3
TORSDOF 7
ENDMDL
MODEL      199
REMARK 921   NORMALIZED FREE ENERGY PREDICTED BY IDOCK:   -3.52 KCAL/MOL
REMARK 922        TOTAL FREE ENERGY PREDICTED BY IDOCK:   -5.67 KCAL/MOL
REMARK 923 INTER-LIGAND FREE ENERGY PREDICTED BY IDOCK:   -4.61 KCAL/MOL
REMARK 924 INTRA-LIGAND FREE ENERGY PREDICTED BY IDOCK:   -1.06 KCAL/MOL
REMARK 927      BINDING AFFINITY PREDICTED BY RF-SCORE:    0.00 PKD
ROOT
HETATM    1  C   UNL     1     -11.368  12.548  69.126  1.00  0.00    -0.331 C  
HETATM    2  C   UNL     1     -11.584  11.326  68.239  1.00  0.00    -0.300 C  
ENDROOT
BRANCH   2   3
HETATM    3  N   UNL     1     -11.026  10.070  68.773  1.00  0.00    -0.220 NA 
BRANCH   3   4
HETATM    4  C   UNL     1      -9.858   9.571  68.021  1.00  0.00    -0.155 C  
HETATM    5  C   UNL     1      -9.973   8.164  67.435  1.00  0.00    -0.271 C  
ENDBRANCH   3   4
BRANCH   3   6
HETATM    6  C   UNL     1     -10.708  10.179  70.218  1.00  0.00    -0.293 C  
BRANCH   6   7
HETATM    7  C   UNL     1     -11.403   9.148  71.123  1.00  0.00    -0.322 C  
BRANCH   7   8
HETATM    8  N   UNL     1     -10.653   7.910  71.242  1.00  0.00    -0.210 N  
HETATM    9  C   UNL     1     -11.084   6.753  70.625  1.00  0.00    -0.291 C  
HETATM   10  H   UNL     1      -9.793   7.896  71.792  1.00  0.00     0.000 HD 
HETATM   11  O   UNL     1     -12.120   6.692  69.975  1.00  0.00    -0.280 OA 
BRANCH   9  12
HETATM   12  C   UNL     1     -10.172   5.586  70.688  1.00  0.00    -0.308 A  
HETATM   13  C   UNL     1      -9.982   4.863  69.496  1.00  0.00    -0.295 A  
HETATM   14  C   UNL     1      -9.361   3.614  69.515  1.00  0.00    -0.176 A  
HETATM   15  C   UNL     1      -8.946   3.036  70.723  1.00  0.00    -0.098 A  
HETATM   16 CL   UNL     1      -9.216   2.747  68.025  1.00  0.00    -0.234 Cl 
HETATM   17  C   UNL     1      -9.050   3.804  71.889  1.00  0.00    -0.163 A  
HETATM   18  N   UNL     1      -8.270   1.803  70.766  1.00  0.00    -0.048 NA 
HETATM   19  H1  UNL     1      -7.969   1.383  71.645  1.00  0.00     0.000 HD 
HETATM   20  C   UNL     1      -9.672   5.065  71.892  1.00  0.00    -0.160 A  
HETATM   21  H2  UNL     1      -7.453   1.876  70.159  1.00  0.00     0.000 HD 
BRANCH  20  22
HETATM   22  O   UNL     1      -9.809   5.595  73.148  1.00  0.00    -0.163 OA 
HETATM   23  C   UNL     1     -10.677   4.898  74.037  1.00  0.00    -0.294 C  
ENDBRANCH  20  22
ENDBRANCH   9  12
ENDBRANCH   7   8
ENDBRANCH   6   7
ENDBRANCH   3   6
ENDBRANCH   2   3
TORSDOF 7
ENDMDL
MODEL      200
REMARK 921   NORMALIZED FREE ENERGY PREDICTED BY IDOCK:   -3.52 KCAL/MOL
REMARK 922        TOTAL FREE ENERGY PREDICTED BY IDOCK:   -5.67 KCAL/MOL
REMARK 923 INTER-LIGAND FREE ENERGY PREDICTED BY IDOCK:   -5.26 KCAL/MOL
REMARK 924 INTRA-LIGAND FREE ENERGY PREDICTED BY IDOCK:   -0.41 KCAL/MOL
REMARK 927      BINDING AFFINITY PREDICTED BY RF-SCORE:    0.00 PKD
ROOT
HETATM    1  C   UNL     1     -13.859   8.943  71.697  1.00  0.00    -0.432 C  
HETATM    2  C   UNL     1     -12.738   9.978  71.696  1.00  0.00    -0.435 C  
ENDROOT
BRANCH   2   3
HETATM    3  N   UNL     1     -11.379   9.414  71.605  1.00  0.00    -0.389 NA 
BRANCH   3   4
HETATM    4  C   UNL     1     -11.197   8.172  72.383  1.00  0.00    -0.386 C  
HETATM    5  C   UNL     1     -11.085   6.875  71.583  1.00  0.00    -0.271 C  
ENDBRANCH   3   4
BRANCH   3   6
HETATM    6  C   UNL     1     -10.960   9.212  70.196  1.00  0.00    -0.239 C  
BRANCH   6   7
HETATM    7  C   UNL     1      -9.486   9.533  69.897  1.00  0.00    -0.222 C  
BRANCH   7   8
HETATM    8  N   UNL     1      -9.258  10.946  69.647  1.00  0.00    -0.335 N  
HETATM    9  C   UNL     1      -9.296  11.458  68.366  1.00  0.00    -0.194 C  
HETATM   10  H   UNL     1      -9.067  11.569  70.432  1.00  0.00     0.000 HD 
HETATM   11  O   UNL     1      -9.491  10.763  67.377  1.00  0.00    -0.154 OA 
BRANCH   9  12
HETATM   12  C   UNL     1      -9.196  12.932  68.235  1.00  0.00    -0.187 A  
HETATM   13  C   UNL     1      -7.929  13.504  68.450  1.00  0.00    -0.142 A  
HETATM   14  C   UNL     1      -7.792  14.883  68.608  1.00  0.00    -0.134 A  
HETATM   15  C   UNL     1      -8.914  15.724  68.593  1.00  0.00    -0.204 A  
HETATM   16 CL   UNL     1      -6.216  15.519  68.935  1.00  0.00    -0.101 Cl 
HETATM   17  C   UNL     1     -10.155  15.157  68.281  1.00  0.00    -0.223 A  
HETATM   18  N   UNL     1      -8.799  17.122  68.695  1.00  0.00    -0.270 NA 
HETATM   19  H1  UNL     1      -9.615  17.734  68.685  1.00  0.00     0.000 HD 
HETATM   20  C   UNL     1     -10.316  13.770  68.118  1.00  0.00    -0.252 A  
HETATM   21  H2  UNL     1      -8.164  17.437  67.961  1.00  0.00     0.000 HD 
BRANCH  20  22
HETATM   22  O   UNL     1     -11.625  13.394  67.964  1.00  0.00    -0.293 OA 
HETATM   23  C   UNL     1     -12.262  13.803  66.758  1.00  0.00    -0.397 C  
ENDBRANCH  20  22
ENDBRANCH   9  12
ENDBRANCH   7   8
ENDBRANCH   6   7
ENDBRANCH   3   6
ENDBRANCH   2   3
TORSDOF 7
ENDMDL
MODEL      201
REMARK 921   NORMALIZED FREE ENERGY PREDICTED BY IDOCK:   -3.51 KCAL/MOL
REMARK 922        TOTAL FREE ENERGY PREDICTED BY IDOCK:   -5.67 KCAL/MOL
REMARK 923 INTER-LIGAND FREE ENERGY PREDICTED BY IDOCK:   -5.05 KCAL/MOL
REMARK 924 INTRA-LIGAND FREE ENERGY PREDICTED BY IDOCK:   -0.62 KCAL/MOL
REMARK 927      BINDING AFFINITY PREDICTED BY RF-SCORE:    0.00 PKD
ROOT
HETATM    1  C   UNL     1      -6.971   4.595  73.118  1.00  0.00    -0.073 C  
HETATM    2  C   UNL     1      -7.397   4.957  71.699  1.00  0.00    -0.074 C  
ENDROOT
BRANCH   2   3
HETATM    3  N   UNL     1      -8.740   5.556  71.592  1.00  0.00    -0.135 NA 
BRANCH   3   4
HETATM    4  C   UNL     1      -9.637   4.842  70.662  1.00  0.00    -0.186 C  
HETATM    5  C   UNL     1      -9.513   3.320  70.627  1.00  0.00    -0.240 C  
ENDBRANCH   3   4
BRANCH   3   6
HETATM    6  C   UNL     1      -9.382   5.710  72.921  1.00  0.00    -0.141 C  
BRANCH   6   7
HETATM    7  C   UNL     1     -10.715   6.476  72.921  1.00  0.00    -0.251 C  
BRANCH   7   8
HETATM    8  N   UNL     1     -10.614   7.779  72.286  1.00  0.00    -0.239 N  
HETATM    9  C   UNL     1     -11.537   8.185  71.344  1.00  0.00    -0.278 C  
HETATM   10  H   UNL     1      -9.848   8.403  72.540  1.00  0.00     0.000 HD 
HETATM   11  O   UNL     1     -12.464   7.478  70.972  1.00  0.00    -0.293 OA 
BRANCH   9  12
HETATM   12  C   UNL     1     -11.428   9.585  70.866  1.00  0.00    -0.405 A  
HETATM   13  C   UNL     1     -12.176  10.553  71.561  1.00  0.00    -0.385 A  
HETATM   14  C   UNL     1     -12.343  11.833  71.033  1.00  0.00    -0.282 A  
HETATM   15  C   UNL     1     -11.803  12.172  69.785  1.00  0.00    -0.327 A  
HETATM   16 CL   UNL     1     -13.329  12.958  71.903  1.00  0.00    -0.560 Cl 
HETATM   17  C   UNL     1     -10.979  11.235  69.149  1.00  0.00    -0.292 A  
HETATM   18  N   UNL     1     -11.911  13.470  69.254  1.00  0.00    -0.323 NA 
HETATM   19  H1  UNL     1     -11.517  13.717  68.345  1.00  0.00     0.000 HD 
HETATM   20  C   UNL     1     -10.797   9.940  69.664  1.00  0.00    -0.253 A  
HETATM   21  H2  UNL     1     -11.533  14.121  69.943  1.00  0.00     0.000 HD 
BRANCH  20  22
HETATM   22  O   UNL     1     -10.079   9.124  68.829  1.00  0.00    -0.184 OA 
HETATM   23  C   UNL     1      -8.805   9.607  68.415  1.00  0.00    -0.123 C  
ENDBRANCH  20  22
ENDBRANCH   9  12
ENDBRANCH   7   8
ENDBRANCH   6   7
ENDBRANCH   3   6
ENDBRANCH   2   3
TORSDOF 7
ENDMDL
MODEL      202
REMARK 921   NORMALIZED FREE ENERGY PREDICTED BY IDOCK:   -3.51 KCAL/MOL
REMARK 922        TOTAL FREE ENERGY PREDICTED BY IDOCK:   -5.66 KCAL/MOL
REMARK 923 INTER-LIGAND FREE ENERGY PREDICTED BY IDOCK:   -5.04 KCAL/MOL
REMARK 924 INTRA-LIGAND FREE ENERGY PREDICTED BY IDOCK:   -0.62 KCAL/MOL
REMARK 927      BINDING AFFINITY PREDICTED BY RF-SCORE:    0.00 PKD
ROOT
HETATM    1  C   UNL     1     -12.235  12.937  65.172  1.00  0.00    -0.519 C  
HETATM    2  C   UNL     1     -12.252  13.660  66.515  1.00  0.00    -0.404 C  
ENDROOT
BRANCH   2   3
HETATM    3  N   UNL     1     -10.959  14.240  66.920  1.00  0.00    -0.299 NA 
BRANCH   3   4
HETATM    4  C   UNL     1     -10.844  15.686  66.644  1.00  0.00    -0.266 C  
HETATM    5  C   UNL     1      -9.490  16.179  66.134  1.00  0.00    -0.362 C  
ENDBRANCH   3   4
BRANCH   3   6
HETATM    6  C   UNL     1     -10.646  13.954  68.341  1.00  0.00    -0.255 C  
BRANCH   6   7
HETATM    7  C   UNL     1     -11.553  12.910  69.015  1.00  0.00    -0.322 C  
BRANCH   7   8
HETATM    8  N   UNL     1     -10.808  11.787  69.557  1.00  0.00    -0.462 N  
HETATM    9  C   UNL     1     -10.738  10.586  68.881  1.00  0.00    -0.220 C  
HETATM   10  H   UNL     1     -10.330  11.888  70.453  1.00  0.00     0.000 HD 
HETATM   11  O   UNL     1     -11.310  10.386  67.818  1.00  0.00    -0.353 OA 
BRANCH   9  12
HETATM   12  C   UNL     1      -9.834   9.555  69.448  1.00  0.00    -0.194 A  
HETATM   13  C   UNL     1      -8.465   9.680  69.153  1.00  0.00    -0.143 A  
HETATM   14  C   UNL     1      -7.584   8.630  69.416  1.00  0.00    -0.092 A  
HETATM   15  C   UNL     1      -8.049   7.418  69.943  1.00  0.00    -0.126 A  
HETATM   16 CL   UNL     1      -5.923   8.822  68.970  1.00  0.00    -0.043 Cl 
HETATM   17  C   UNL     1      -9.394   7.339  70.323  1.00  0.00    -0.158 A  
HETATM   18  N   UNL     1      -7.176   6.363  70.267  1.00  0.00    -0.078 NA 
HETATM   19  H1  UNL     1      -7.514   5.480  70.650  1.00  0.00     0.000 HD 
HETATM   20  C   UNL     1     -10.298   8.385  70.068  1.00  0.00    -0.211 A  
HETATM   21  H2  UNL     1      -6.469   6.729  70.905  1.00  0.00     0.000 HD 
BRANCH  20  22
HETATM   22  O   UNL     1     -11.594   8.064  70.378  1.00  0.00    -0.203 OA 
HETATM   23  C   UNL     1     -12.154   8.720  71.511  1.00  0.00    -0.329 C  
ENDBRANCH  20  22
ENDBRANCH   9  12
ENDBRANCH   7   8
ENDBRANCH   6   7
ENDBRANCH   3   6
ENDBRANCH   2   3
TORSDOF 7
ENDMDL
MODEL      203
REMARK 921   NORMALIZED FREE ENERGY PREDICTED BY IDOCK:   -3.50 KCAL/MOL
REMARK 922        TOTAL FREE ENERGY PREDICTED BY IDOCK:   -5.65 KCAL/MOL
REMARK 923 INTER-LIGAND FREE ENERGY PREDICTED BY IDOCK:   -4.98 KCAL/MOL
REMARK 924 INTRA-LIGAND FREE ENERGY PREDICTED BY IDOCK:   -0.66 KCAL/MOL
REMARK 927      BINDING AFFINITY PREDICTED BY RF-SCORE:    0.00 PKD
ROOT
HETATM    1  C   UNL     1      -6.690  13.062  67.985  1.00  0.00    -0.114 C  
HETATM    2  C   UNL     1      -6.661  11.700  68.671  1.00  0.00    -0.066 C  
ENDROOT
BRANCH   2   3
HETATM    3  N   UNL     1      -7.680  10.747  68.192  1.00  0.00    -0.099 NA 
BRANCH   3   4
HETATM    4  C   UNL     1      -8.485  11.255  67.063  1.00  0.00    -0.150 C  
HETATM    5  C   UNL     1      -9.884  10.664  66.902  1.00  0.00    -0.228 C  
ENDBRANCH   3   4
BRANCH   3   6
HETATM    6  C   UNL     1      -7.088   9.429  67.859  1.00  0.00    -0.081 C  
BRANCH   6   7
HETATM    7  C   UNL     1      -7.025   8.424  69.022  1.00  0.00    -0.061 C  
BRANCH   7   8
HETATM    8  N   UNL     1      -8.321   8.200  69.640  1.00  0.00    -0.123 N  
HETATM    9  C   UNL     1      -8.641   8.777  70.853  1.00  0.00    -0.192 C  
HETATM   10  H   UNL     1      -9.005   7.607  69.170  1.00  0.00     0.000 HD 
HETATM   11  O   UNL     1      -7.860   9.476  71.484  1.00  0.00    -0.243 OA 
BRANCH   9  12
HETATM   12  C   UNL     1     -10.037   8.604  71.323  1.00  0.00    -0.312 A  
HETATM   13  C   UNL     1     -10.958   9.604  70.960  1.00  0.00    -0.431 A  
HETATM   14  C   UNL     1     -12.213   9.666  71.567  1.00  0.00    -0.399 A  
HETATM   15  C   UNL     1     -12.569   8.759  72.574  1.00  0.00    -0.306 A  
HETATM   16 CL   UNL     1     -13.274  10.959  71.124  1.00  0.00    -0.317 Cl 
HETATM   17  C   UNL     1     -11.686   7.711  72.857  1.00  0.00    -0.204 A  
HETATM   18  N   UNL     1     -13.847   8.766  73.164  1.00  0.00    -1.118 NA 
HETATM   19  H1  UNL     1     -14.106   8.106  73.897  1.00  0.00     0.000 HD 
HETATM   20  C   UNL     1     -10.417   7.629  72.258  1.00  0.00    -0.237 A  
HETATM   21  H2  UNL     1     -14.535   8.687  72.416  1.00  0.00     0.000 HD 
BRANCH  20  22
HETATM   22  O   UNL     1      -9.644   6.620  72.770  1.00  0.00    -0.146 OA 
HETATM   23  C   UNL     1      -8.705   6.991  73.775  1.00  0.00    -0.159 C  
ENDBRANCH  20  22
ENDBRANCH   9  12
ENDBRANCH   7   8
ENDBRANCH   6   7
ENDBRANCH   3   6
ENDBRANCH   2   3
TORSDOF 7
ENDMDL
MODEL      204
REMARK 921   NORMALIZED FREE ENERGY PREDICTED BY IDOCK:   -3.50 KCAL/MOL
REMARK 922        TOTAL FREE ENERGY PREDICTED BY IDOCK:   -5.64 KCAL/MOL
REMARK 923 INTER-LIGAND FREE ENERGY PREDICTED BY IDOCK:   -4.91 KCAL/MOL
REMARK 924 INTRA-LIGAND FREE ENERGY PREDICTED BY IDOCK:   -0.73 KCAL/MOL
REMARK 927      BINDING AFFINITY PREDICTED BY RF-SCORE:    0.00 PKD
ROOT
HETATM    1  C   UNL     1      -7.953   7.799  72.875  1.00  0.00    -0.162 C  
HETATM    2  C   UNL     1      -9.451   7.536  72.996  1.00  0.00    -0.203 C  
ENDROOT
BRANCH   2   3
HETATM    3  N   UNL     1      -9.869   6.172  72.624  1.00  0.00    -0.167 NA 
BRANCH   3   4
HETATM    4  C   UNL     1     -10.700   5.505  73.646  1.00  0.00    -0.282 C  
HETATM    5  C   UNL     1      -9.997   4.485  74.539  1.00  0.00    -0.234 C  
ENDBRANCH   3   4
BRANCH   3   6
HETATM    6  C   UNL     1     -10.544   6.144  71.303  1.00  0.00    -0.243 C  
BRANCH   6   7
HETATM    7  C   UNL     1      -9.606   6.055  70.088  1.00  0.00    -0.162 C  
BRANCH   7   8
HETATM    8  N   UNL     1      -9.601   7.271  69.293  1.00  0.00    -0.156 N  
HETATM    9  C   UNL     1     -10.378   7.383  68.157  1.00  0.00    -0.192 C  
HETATM   10  H   UNL     1      -9.013   8.054  69.578  1.00  0.00     0.000 HD 
HETATM   11  O   UNL     1     -11.084   6.473  67.742  1.00  0.00    -0.313 OA 
BRANCH   9  12
HETATM   12  C   UNL     1     -10.411   8.713  67.503  1.00  0.00    -0.335 A  
HETATM   13  C   UNL     1      -9.869   8.798  66.208  1.00  0.00    -0.342 A  
HETATM   14  C   UNL     1      -9.619  10.039  65.623  1.00  0.00    -0.252 A  
HETATM   15  C   UNL     1      -9.867  11.227  66.325  1.00  0.00    -0.214 A  
HETATM   16 CL   UNL     1      -8.890  10.076  64.054  1.00  0.00    -0.219 Cl 
HETATM   17  C   UNL     1     -10.497  11.134  67.572  1.00  0.00    -0.239 A  
HETATM   18  N   UNL     1      -9.674  12.492  65.740  1.00  0.00    -0.369 NA 
HETATM   19  H1  UNL     1      -9.854  13.356  66.251  1.00  0.00     0.000 HD 
HETATM   20  C   UNL     1     -10.758   9.893  68.179  1.00  0.00    -0.233 A  
HETATM   21  H2  UNL     1     -10.217  12.521  64.877  1.00  0.00     0.000 HD 
BRANCH  20  22
HETATM   22  O   UNL     1     -11.242  10.010  69.456  1.00  0.00    -0.234 OA 
HETATM   23  C   UNL     1     -12.014  11.174  69.735  1.00  0.00    -0.357 C  
ENDBRANCH  20  22
ENDBRANCH   9  12
ENDBRANCH   7   8
ENDBRANCH   6   7
ENDBRANCH   3   6
ENDBRANCH   2   3
TORSDOF 7
ENDMDL
MODEL      205
REMARK 921   NORMALIZED FREE ENERGY PREDICTED BY IDOCK:   -3.46 KCAL/MOL
REMARK 922        TOTAL FREE ENERGY PREDICTED BY IDOCK:   -5.59 KCAL/MOL
REMARK 923 INTER-LIGAND FREE ENERGY PREDICTED BY IDOCK:   -5.00 KCAL/MOL
REMARK 924 INTRA-LIGAND FREE ENERGY PREDICTED BY IDOCK:   -0.59 KCAL/MOL
REMARK 927      BINDING AFFINITY PREDICTED BY RF-SCORE:    0.00 PKD
ROOT
HETATM    1  C   UNL     1     -11.900  15.378  69.353  1.00  0.00    -0.372 C  
HETATM    2  C   UNL     1     -11.052  16.644  69.292  1.00  0.00    -0.199 C  
ENDROOT
BRANCH   2   3
HETATM    3  N   UNL     1      -9.860  16.548  68.430  1.00  0.00    -0.229 NA 
BRANCH   3   4
HETATM    4  C   UNL     1      -9.538  17.801  67.718  1.00  0.00    -0.272 C  
HETATM    5  C   UNL     1      -9.813  19.103  68.469  1.00  0.00    -0.483 C  
ENDBRANCH   3   4
BRANCH   3   6
HETATM    6  C   UNL     1      -8.678  16.054  69.177  1.00  0.00    -0.248 C  
BRANCH   6   7
HETATM    7  C   UNL     1      -8.011  14.796  68.595  1.00  0.00    -0.143 C  
BRANCH   7   8
HETATM    8  N   UNL     1      -8.835  13.608  68.737  1.00  0.00    -0.373 N  
HETATM    9  C   UNL     1      -8.633  12.501  67.938  1.00  0.00    -0.179 C  
HETATM   10  H   UNL     1      -9.575  13.592  69.439  1.00  0.00     0.000 HD 
HETATM   11  O   UNL     1      -7.783  12.462  67.058  1.00  0.00    -0.144 OA 
BRANCH   9  12
HETATM   12  C   UNL     1      -9.428  11.292  68.262  1.00  0.00    -0.190 A  
HETATM   13  C   UNL     1      -9.272  10.757  69.554  1.00  0.00     0.103 A  
HETATM   14  C   UNL     1      -9.767   9.490  69.862  1.00  0.00    -0.224 A  
HETATM   15  C   UNL     1     -10.397   8.708  68.883  1.00  0.00    -0.211 A  
HETATM   16 CL   UNL     1      -9.486   8.862  71.449  1.00  0.00    -0.330 Cl 
HETATM   17  C   UNL     1     -10.634   9.287  67.631  1.00  0.00    -0.324 A  
HETATM   18  N   UNL     1     -10.953   7.450  69.180  1.00  0.00    -0.420 NA 
HETATM   19  H1  UNL     1     -11.411   6.881  68.468  1.00  0.00     0.000 HD 
HETATM   20  C   UNL     1     -10.144  10.562  67.300  1.00  0.00    -0.201 A  
HETATM   21  H2  UNL     1     -11.611   7.574  69.950  1.00  0.00     0.000 HD 
BRANCH  20  22
HETATM   22  O   UNL     1     -10.349  10.894  65.987  1.00  0.00    -0.243 OA 
HETATM   23  C   UNL     1      -9.677  10.093  65.020  1.00  0.00    -0.318 C  
ENDBRANCH  20  22
ENDBRANCH   9  12
ENDBRANCH   7   8
ENDBRANCH   6   7
ENDBRANCH   3   6
ENDBRANCH   2   3
TORSDOF 7
ENDMDL
MODEL      206
REMARK 921   NORMALIZED FREE ENERGY PREDICTED BY IDOCK:   -3.44 KCAL/MOL
REMARK 922        TOTAL FREE ENERGY PREDICTED BY IDOCK:   -5.56 KCAL/MOL
REMARK 923 INTER-LIGAND FREE ENERGY PREDICTED BY IDOCK:   -4.69 KCAL/MOL
REMARK 924 INTRA-LIGAND FREE ENERGY PREDICTED BY IDOCK:   -0.88 KCAL/MOL
REMARK 927      BINDING AFFINITY PREDICTED BY RF-SCORE:    0.00 PKD
ROOT
HETATM    1  C   UNL     1      -7.396  10.983  68.083  1.00  0.00    -0.086 C  
HETATM    2  C   UNL     1      -8.547  10.132  68.610  1.00  0.00    -0.123 C  
ENDROOT
BRANCH   2   3
HETATM    3  N   UNL     1      -9.786  10.210  67.815  1.00  0.00    -0.159 NA 
BRANCH   3   4
HETATM    4  C   UNL     1      -9.957   9.089  66.869  1.00  0.00    -0.246 C  
HETATM    5  C   UNL     1      -9.184   9.181  65.555  1.00  0.00    -0.287 C  
ENDBRANCH   3   4
BRANCH   3   6
HETATM    6  C   UNL     1     -10.985  10.354  68.677  1.00  0.00    -0.243 C  
BRANCH   6   7
HETATM    7  C   UNL     1     -11.862  11.582  68.383  1.00  0.00    -0.283 C  
BRANCH   7   8
HETATM    8  N   UNL     1     -11.157  12.610  67.638  1.00  0.00    -0.250 N  
HETATM    9  C   UNL     1     -10.783  13.795  68.238  1.00  0.00    -0.253 C  
HETATM   10  H   UNL     1     -10.934  12.453  66.654  1.00  0.00     0.000 HD 
HETATM   11  O   UNL     1     -11.042  14.061  69.404  1.00  0.00    -0.250 OA 
BRANCH   9  12
HETATM   12  C   UNL     1      -9.941  14.713  67.432  1.00  0.00    -0.231 A  
HETATM   13  C   UNL     1      -8.714  15.108  67.995  1.00  0.00    -0.165 A  
HETATM   14  C   UNL     1      -7.985  16.159  67.440  1.00  0.00    -0.160 A  
HETATM   15  C   UNL     1      -8.475  16.868  66.334  1.00  0.00    -0.290 A  
HETATM   16 CL   UNL     1      -6.516  16.640  68.218  1.00  0.00    -0.130 Cl 
HETATM   17  C   UNL     1      -9.646  16.405  65.723  1.00  0.00    -0.227 A  
HETATM   18  N   UNL     1      -7.735  17.897  65.722  1.00  0.00    -0.551 NA 
HETATM   19  H1  UNL     1      -8.092  18.413  64.918  1.00  0.00     0.000 HD 
HETATM   20  C   UNL     1     -10.396  15.347  66.266  1.00  0.00    -0.294 A  
HETATM   21  H2  UNL     1      -6.824  17.516  65.469  1.00  0.00     0.000 HD 
BRANCH  20  22
HETATM   22  O   UNL     1     -11.581  15.137  65.612  1.00  0.00    -0.259 OA 
HETATM   23  C   UNL     1     -11.741  15.803  64.363  1.00  0.00    -0.201 C  
ENDBRANCH  20  22
ENDBRANCH   9  12
ENDBRANCH   7   8
ENDBRANCH   6   7
ENDBRANCH   3   6
ENDBRANCH   2   3
TORSDOF 7
ENDMDL
MODEL      207
REMARK 921   NORMALIZED FREE ENERGY PREDICTED BY IDOCK:   -3.42 KCAL/MOL
REMARK 922        TOTAL FREE ENERGY PREDICTED BY IDOCK:   -5.53 KCAL/MOL
REMARK 923 INTER-LIGAND FREE ENERGY PREDICTED BY IDOCK:   -5.39 KCAL/MOL
REMARK 924 INTRA-LIGAND FREE ENERGY PREDICTED BY IDOCK:   -0.14 KCAL/MOL
REMARK 927      BINDING AFFINITY PREDICTED BY RF-SCORE:    0.00 PKD
ROOT
HETATM    1  C   UNL     1     -12.957  11.879  63.307  1.00  0.00    -0.166 C  
HETATM    2  C   UNL     1     -11.610  12.192  63.951  1.00  0.00    -0.448 C  
ENDROOT
BRANCH   2   3
HETATM    3  N   UNL     1     -10.574  11.164  63.742  1.00  0.00    -0.372 NA 
BRANCH   3   4
HETATM    4  C   UNL     1      -9.323  11.690  63.159  1.00  0.00    -0.173 C  
HETATM    5  C   UNL     1      -8.475  10.703  62.359  1.00  0.00    -0.277 C  
ENDBRANCH   3   4
BRANCH   3   6
HETATM    6  C   UNL     1     -10.291  10.407  64.986  1.00  0.00    -0.179 C  
BRANCH   6   7
HETATM    7  C   UNL     1      -9.672  11.228  66.129  1.00  0.00    -0.220 C  
BRANCH   7   8
HETATM    8  N   UNL     1      -9.668  10.516  67.395  1.00  0.00    -0.162 N  
HETATM    9  C   UNL     1     -10.789  10.487  68.200  1.00  0.00    -0.253 C  
HETATM   10  H   UNL     1      -8.823  10.028  67.693  1.00  0.00     0.000 HD 
HETATM   11  O   UNL     1     -11.826  11.073  67.917  1.00  0.00    -0.600 OA 
BRANCH   9  12
HETATM   12  C   UNL     1     -10.727   9.612  69.396  1.00  0.00    -0.248 A  
HETATM   13  C   UNL     1     -11.876   9.563  70.206  1.00  0.00    -0.109 A  
HETATM   14  C   UNL     1     -11.824   8.985  71.475  1.00  0.00    -0.345 A  
HETATM   15  C   UNL     1     -10.622   8.476  71.984  1.00  0.00    -0.338 A  
HETATM   16 CL   UNL     1     -13.254   9.015  72.449  1.00  0.00    -0.496 Cl 
HETATM   17  C   UNL     1      -9.511   8.440  71.133  1.00  0.00    -0.227 A  
HETATM   18  N   UNL     1     -10.554   7.840  73.237  1.00  0.00    -0.350 NA 
HETATM   19  H1  UNL     1      -9.678   7.469  73.607  1.00  0.00     0.000 HD 
HETATM   20  C   UNL     1      -9.541   9.017  69.851  1.00  0.00    -0.183 A  
HETATM   21  H2  UNL     1     -11.238   7.084  73.240  1.00  0.00     0.000 HD 
BRANCH  20  22
HETATM   22  O   UNL     1      -8.320   9.013  69.230  1.00  0.00    -0.117 OA 
HETATM   23  C   UNL     1      -7.483  10.140  69.473  1.00  0.00    -0.133 C  
ENDBRANCH  20  22
ENDBRANCH   9  12
ENDBRANCH   7   8
ENDBRANCH   6   7
ENDBRANCH   3   6
ENDBRANCH   2   3
TORSDOF 7
ENDMDL
MODEL      208
REMARK 921   NORMALIZED FREE ENERGY PREDICTED BY IDOCK:   -3.41 KCAL/MOL
REMARK 922        TOTAL FREE ENERGY PREDICTED BY IDOCK:   -5.52 KCAL/MOL
REMARK 923 INTER-LIGAND FREE ENERGY PREDICTED BY IDOCK:   -4.83 KCAL/MOL
REMARK 924 INTRA-LIGAND FREE ENERGY PREDICTED BY IDOCK:   -0.68 KCAL/MOL
REMARK 927      BINDING AFFINITY PREDICTED BY RF-SCORE:    0.00 PKD
ROOT
HETATM    1  C   UNL     1     -10.317  19.392  68.032  1.00  0.00    -0.536 C  
HETATM    2  C   UNL     1      -9.419  18.261  67.543  1.00  0.00    -0.266 C  
ENDROOT
BRANCH   2   3
HETATM    3  N   UNL     1      -9.999  16.912  67.675  1.00  0.00    -0.263 NA 
BRANCH   3   4
HETATM    4  C   UNL     1     -11.054  16.817  68.704  1.00  0.00    -0.247 C  
HETATM    5  C   UNL     1     -11.116  15.514  69.500  1.00  0.00    -0.286 C  
ENDBRANCH   3   4
BRANCH   3   6
HETATM    6  C   UNL     1     -10.490  16.393  66.375  1.00  0.00    -0.286 C  
BRANCH   6   7
HETATM    7  C   UNL     1      -9.647  15.265  65.758  1.00  0.00    -0.324 C  
BRANCH   7   8
HETATM    8  N   UNL     1      -9.854  13.986  66.415  1.00  0.00    -0.287 N  
HETATM    9  C   UNL     1      -8.877  13.429  67.215  1.00  0.00    -0.220 C  
HETATM   10  H   UNL     1     -10.737  13.492  66.284  1.00  0.00     0.000 HD 
HETATM   11  O   UNL     1      -7.785  13.954  67.394  1.00  0.00    -0.171 OA 
BRANCH   9  12
HETATM   12  C   UNL     1      -9.244  12.197  67.954  1.00  0.00    -0.188 A  
HETATM   13  C   UNL     1     -10.489  12.197  68.610  1.00  0.00    -0.237 A  
HETATM   14  C   UNL     1     -10.803  11.202  69.535  1.00  0.00    -0.188 A  
HETATM   15  C   UNL     1      -9.874  10.204  69.859  1.00  0.00    -0.177 A  
HETATM   16 CL   UNL     1     -12.323  11.294  70.355  1.00  0.00    -0.413 Cl 
HETATM   17  C   UNL     1      -8.679  10.156  69.131  1.00  0.00    -0.173 A  
HETATM   18  N   UNL     1     -10.184   9.158  70.748  1.00  0.00    -0.237 NA 
HETATM   19  H1  UNL     1      -9.508   8.432  70.985  1.00  0.00     0.000 HD 
HETATM   20  C   UNL     1      -8.343  11.148  68.194  1.00  0.00    -0.136 A  
HETATM   21  H2  UNL     1     -11.028   8.698  70.406  1.00  0.00     0.000 HD 
BRANCH  20  22
HETATM   22  O   UNL     1      -7.074  11.010  67.695  1.00  0.00    -0.083 OA 
HETATM   23  C   UNL     1      -6.966  10.444  66.392  1.00  0.00    -0.114 C  
ENDBRANCH  20  22
ENDBRANCH   9  12
ENDBRANCH   7   8
ENDBRANCH   6   7
ENDBRANCH   3   6
ENDBRANCH   2   3
TORSDOF 7
ENDMDL
MODEL      209
REMARK 921   NORMALIZED FREE ENERGY PREDICTED BY IDOCK:   -3.39 KCAL/MOL
REMARK 922        TOTAL FREE ENERGY PREDICTED BY IDOCK:   -5.49 KCAL/MOL
REMARK 923 INTER-LIGAND FREE ENERGY PREDICTED BY IDOCK:   -4.82 KCAL/MOL
REMARK 924 INTRA-LIGAND FREE ENERGY PREDICTED BY IDOCK:   -0.67 KCAL/MOL
REMARK 927      BINDING AFFINITY PREDICTED BY RF-SCORE:    0.00 PKD
ROOT
HETATM    1  C   UNL     1     -12.060  14.377  64.679  1.00  0.00    -0.485 C  
HETATM    2  C   UNL     1     -12.577  13.009  65.113  1.00  0.00    -0.469 C  
ENDROOT
BRANCH   2   3
HETATM    3  N   UNL     1     -11.547  12.104  65.656  1.00  0.00    -0.368 NA 
BRANCH   3   4
HETATM    4  C   UNL     1     -10.420  11.864  64.732  1.00  0.00    -0.289 C  
HETATM    5  C   UNL     1      -9.730  10.505  64.837  1.00  0.00    -0.360 C  
ENDBRANCH   3   4
BRANCH   3   6
HETATM    6  C   UNL     1     -11.051  12.564  66.976  1.00  0.00    -0.281 C  
BRANCH   6   7
HETATM    7  C   UNL     1     -11.765  11.956  68.195  1.00  0.00    -0.320 C  
BRANCH   7   8
HETATM    8  N   UNL     1     -10.910  11.066  68.960  1.00  0.00    -0.214 N  
HETATM    9  C   UNL     1     -10.616   9.796  68.505  1.00  0.00    -0.221 C  
HETATM   10  H   UNL     1     -10.521  11.384  69.847  1.00  0.00     0.000 HD 
HETATM   11  O   UNL     1     -11.070   9.340  67.464  1.00  0.00    -0.101 OA 
BRANCH   9  12
HETATM   12  C   UNL     1      -9.619   9.024  69.286  1.00  0.00    -0.162 A  
HETATM   13  C   UNL     1      -8.673   8.284  68.553  1.00  0.00    -0.133 A  
HETATM   14  C   UNL     1      -7.873   7.332  69.186  1.00  0.00    -0.117 A  
HETATM   15  C   UNL     1      -8.019   7.066  70.554  1.00  0.00    -0.113 A  
HETATM   16 CL   UNL     1      -6.775   6.410  68.218  1.00  0.00    -0.066 Cl 
HETATM   17  C   UNL     1      -8.892   7.874  71.291  1.00  0.00    -0.152 A  
HETATM   18  N   UNL     1      -7.190   6.150  71.228  1.00  0.00    -0.077 NA 
HETATM   19  H1  UNL     1      -7.297   5.955  72.223  1.00  0.00     0.000 HD 
HETATM   20  C   UNL     1      -9.707   8.839  70.675  1.00  0.00    -0.197 A  
HETATM   21  H2  UNL     1      -6.223   6.430  71.067  1.00  0.00     0.000 HD 
BRANCH  20  22
HETATM   22  O   UNL     1     -10.597   9.424  71.537  1.00  0.00    -0.341 OA 
HETATM   23  C   UNL     1     -11.699   8.621  71.950  1.00  0.00    -0.352 C  
ENDBRANCH  20  22
ENDBRANCH   9  12
ENDBRANCH   7   8
ENDBRANCH   6   7
ENDBRANCH   3   6
ENDBRANCH   2   3
TORSDOF 7
ENDMDL
MODEL      210
REMARK 921   NORMALIZED FREE ENERGY PREDICTED BY IDOCK:   -3.39 KCAL/MOL
REMARK 922        TOTAL FREE ENERGY PREDICTED BY IDOCK:   -5.49 KCAL/MOL
REMARK 923 INTER-LIGAND FREE ENERGY PREDICTED BY IDOCK:   -5.42 KCAL/MOL
REMARK 924 INTRA-LIGAND FREE ENERGY PREDICTED BY IDOCK:   -0.07 KCAL/MOL
REMARK 927      BINDING AFFINITY PREDICTED BY RF-SCORE:    0.00 PKD
ROOT
HETATM    1  C   UNL     1     -10.199   8.844  66.762  1.00  0.00    -0.348 C  
HETATM    2  C   UNL     1      -9.918   8.819  68.261  1.00  0.00    -0.176 C  
ENDROOT
BRANCH   2   3
HETATM    3  N   UNL     1     -11.106   8.998  69.115  1.00  0.00     0.005 NA 
BRANCH   3   4
HETATM    4  C   UNL     1     -11.466   7.796  69.893  1.00  0.00     0.116 C  
HETATM    5  C   UNL     1     -11.793   8.011  71.370  1.00  0.00    -0.326 C  
ENDBRANCH   3   4
BRANCH   3   6
HETATM    6  C   UNL     1     -10.972  10.176  70.006  1.00  0.00    -0.307 C  
BRANCH   6   7
HETATM    7  C   UNL     1     -11.997  11.297  69.772  1.00  0.00    -0.360 C  
BRANCH   7   8
HETATM    8  N   UNL     1     -11.396  12.504  69.232  1.00  0.00    -0.351 N  
HETATM    9  C   UNL     1     -11.590  12.870  67.916  1.00  0.00    -0.345 C  
HETATM   10  H   UNL     1     -10.820  13.091  69.836  1.00  0.00     0.000 HD 
HETATM   11  O   UNL     1     -12.245  12.200  67.128  1.00  0.00    -0.507 OA 
BRANCH   9  12
HETATM   12  C   UNL     1     -11.055  14.192  67.506  1.00  0.00    -0.304 A  
HETATM   13  C   UNL     1     -10.835  15.132  68.529  1.00  0.00    -0.247 A  
HETATM   14  C   UNL     1     -10.588  16.470  68.221  1.00  0.00    -0.326 A  
HETATM   15  C   UNL     1     -10.590  16.913  66.892  1.00  0.00    -0.214 A  
HETATM   16 CL   UNL     1     -10.390  17.589  69.526  1.00  0.00    -0.110 Cl 
HETATM   17  C   UNL     1     -10.713  15.954  65.879  1.00  0.00    -0.303 A  
HETATM   18  N   UNL     1     -10.291  18.245  66.550  1.00  0.00    -0.385 NA 
HETATM   19  H1  UNL     1     -10.294  18.568  65.582  1.00  0.00     0.000 HD 
HETATM   20  C   UNL     1     -10.962  14.601  66.167  1.00  0.00    -0.329 A  
HETATM   21  H2  UNL     1      -9.382  18.473  66.952  1.00  0.00     0.000 HD 
BRANCH  20  22
HETATM   22  O   UNL     1     -11.196  13.847  65.048  1.00  0.00    -0.317 OA 
HETATM   23  C   UNL     1     -10.227  12.848  64.744  1.00  0.00    -0.285 C  
ENDBRANCH  20  22
ENDBRANCH   9  12
ENDBRANCH   7   8
ENDBRANCH   6   7
ENDBRANCH   3   6
ENDBRANCH   2   3
TORSDOF 7
ENDMDL
MODEL      211
REMARK 921   NORMALIZED FREE ENERGY PREDICTED BY IDOCK:   -3.36 KCAL/MOL
REMARK 922        TOTAL FREE ENERGY PREDICTED BY IDOCK:   -5.45 KCAL/MOL
REMARK 923 INTER-LIGAND FREE ENERGY PREDICTED BY IDOCK:   -4.77 KCAL/MOL
REMARK 924 INTRA-LIGAND FREE ENERGY PREDICTED BY IDOCK:   -0.69 KCAL/MOL
REMARK 927      BINDING AFFINITY PREDICTED BY RF-SCORE:    0.00 PKD
ROOT
HETATM    1  C   UNL     1     -10.164  10.498  65.618  1.00  0.00    -0.315 C  
HETATM    2  C   UNL     1     -10.470  11.992  65.660  1.00  0.00    -0.256 C  
ENDROOT
BRANCH   2   3
HETATM    3  N   UNL     1     -10.820  12.512  66.995  1.00  0.00    -0.248 NA 
BRANCH   3   4
HETATM    4  C   UNL     1     -11.353  13.889  66.975  1.00  0.00    -0.326 C  
HETATM    5  C   UNL     1     -10.388  14.989  66.534  1.00  0.00    -0.287 C  
ENDBRANCH   3   4
BRANCH   3   6
HETATM    6  C   UNL     1     -11.746  11.604  67.715  1.00  0.00    -0.245 C  
BRANCH   6   7
HETATM    7  C   UNL     1     -11.636  11.635  69.248  1.00  0.00    -0.320 C  
BRANCH   7   8
HETATM    8  N   UNL     1     -10.606  10.745  69.755  1.00  0.00    -0.426 N  
HETATM    9  C   UNL     1     -10.905   9.759  70.673  1.00  0.00    -0.329 C  
HETATM   10  H   UNL     1      -9.646  10.851  69.427  1.00  0.00     0.000 HD 
HETATM   11  O   UNL     1     -12.029   9.594  71.130  1.00  0.00    -0.316 OA 
BRANCH   9  12
HETATM   12  C   UNL     1      -9.814   8.813  71.013  1.00  0.00    -0.293 A  
HETATM   13  C   UNL     1      -9.527   8.640  72.380  1.00  0.00    -0.295 A  
HETATM   14  C   UNL     1      -8.363   7.985  72.782  1.00  0.00    -0.167 A  
HETATM   15  C   UNL     1      -7.438   7.519  71.838  1.00  0.00    -0.080 A  
HETATM   16 CL   UNL     1      -8.035   7.862  74.477  1.00  0.00    -0.261 Cl 
HETATM   17  C   UNL     1      -7.780   7.608  70.484  1.00  0.00    -0.089 A  
HETATM   18  N   UNL     1      -6.284   6.808  72.215  1.00  0.00    -0.045 NA 
HETATM   19  H1  UNL     1      -5.610   6.469  71.528  1.00  0.00     0.000 HD 
HETATM   20  C   UNL     1      -8.947   8.264  70.056  1.00  0.00    -0.142 A  
HETATM   21  H2  UNL     1      -6.579   6.012  72.780  1.00  0.00     0.000 HD 
BRANCH  20  22
HETATM   22  O   UNL     1      -9.033   8.377  68.693  1.00  0.00    -0.139 OA 
HETATM   23  C   UNL     1     -10.092   7.661  68.065  1.00  0.00    -0.187 C  
ENDBRANCH  20  22
ENDBRANCH   9  12
ENDBRANCH   7   8
ENDBRANCH   6   7
ENDBRANCH   3   6
ENDBRANCH   2   3
TORSDOF 7
ENDMDL
MODEL      212
REMARK 921   NORMALIZED FREE ENERGY PREDICTED BY IDOCK:   -3.36 KCAL/MOL
REMARK 922        TOTAL FREE ENERGY PREDICTED BY IDOCK:   -5.45 KCAL/MOL
REMARK 923 INTER-LIGAND FREE ENERGY PREDICTED BY IDOCK:   -4.98 KCAL/MOL
REMARK 924 INTRA-LIGAND FREE ENERGY PREDICTED BY IDOCK:   -0.47 KCAL/MOL
REMARK 927      BINDING AFFINITY PREDICTED BY RF-SCORE:    0.00 PKD
ROOT
HETATM    1  C   UNL     1     -11.888  13.447  65.570  1.00  0.00    -0.394 C  
HETATM    2  C   UNL     1     -11.917  14.194  66.900  1.00  0.00    -0.449 C  
ENDROOT
BRANCH   2   3
HETATM    3  N   UNL     1     -10.593  14.418  67.510  1.00  0.00    -0.263 NA 
BRANCH   3   4
HETATM    4  C   UNL     1     -10.485  15.696  68.243  1.00  0.00    -0.252 C  
HETATM    5  C   UNL     1     -10.416  15.606  69.766  1.00  0.00    -0.312 C  
ENDBRANCH   3   4
BRANCH   3   6
HETATM    6  C   UNL     1     -10.187  13.285  68.376  1.00  0.00    -0.249 C  
BRANCH   6   7
HETATM    7  C   UNL     1     -11.341  12.422  68.914  1.00  0.00    -0.294 C  
BRANCH   7   8
HETATM    8  N   UNL     1     -10.886  11.160  69.472  1.00  0.00    -0.389 N  
HETATM    9  C   UNL     1     -10.791  10.028  68.688  1.00  0.00    -0.229 C  
HETATM   10  H   UNL     1     -10.632  11.110  70.459  1.00  0.00     0.000 HD 
HETATM   11  O   UNL     1     -11.104  10.010  67.505  1.00  0.00    -0.274 OA 
BRANCH   9  12
HETATM   12  C   UNL     1     -10.178   8.833  69.317  1.00  0.00    -0.215 A  
HETATM   13  C   UNL     1      -9.003   8.335  68.723  1.00  0.00    -0.144 A  
HETATM   14  C   UNL     1      -8.508   7.080  69.076  1.00  0.00    -0.129 A  
HETATM   15  C   UNL     1      -9.187   6.273  70.000  1.00  0.00    -0.152 A  
HETATM   16 CL   UNL     1      -7.096   6.497  68.263  1.00  0.00    -0.080 Cl 
HETATM   17  C   UNL     1     -10.297   6.817  70.656  1.00  0.00    -0.225 A  
HETATM   18  N   UNL     1      -8.681   5.027  70.414  1.00  0.00    -0.106 NA 
HETATM   19  H1  UNL     1      -9.176   4.440  71.085  1.00  0.00     0.000 HD 
HETATM   20  C   UNL     1     -10.813   8.080  70.316  1.00  0.00    -0.241 A  
HETATM   21  H2  UNL     1      -7.736   5.177  70.767  1.00  0.00     0.000 HD 
BRANCH  20  22
HETATM   22  O   UNL     1     -11.985   8.374  70.962  1.00  0.00    -0.287 OA 
HETATM   23  C   UNL     1     -11.867   8.867  72.293  1.00  0.00    -0.295 C  
ENDBRANCH  20  22
ENDBRANCH   9  12
ENDBRANCH   7   8
ENDBRANCH   6   7
ENDBRANCH   3   6
ENDBRANCH   2   3
TORSDOF 7
ENDMDL
MODEL      213
REMARK 921   NORMALIZED FREE ENERGY PREDICTED BY IDOCK:   -3.36 KCAL/MOL
REMARK 922        TOTAL FREE ENERGY PREDICTED BY IDOCK:   -5.45 KCAL/MOL
REMARK 923 INTER-LIGAND FREE ENERGY PREDICTED BY IDOCK:   -4.71 KCAL/MOL
REMARK 924 INTRA-LIGAND FREE ENERGY PREDICTED BY IDOCK:   -0.74 KCAL/MOL
REMARK 927      BINDING AFFINITY PREDICTED BY RF-SCORE:    0.00 PKD
ROOT
HETATM    1  C   UNL     1     -10.732  11.583  63.884  1.00  0.00    -0.458 C  
HETATM    2  C   UNL     1      -9.823  10.402  64.211  1.00  0.00    -0.322 C  
ENDROOT
BRANCH   2   3
HETATM    3  N   UNL     1      -9.433  10.298  65.629  1.00  0.00    -0.204 NA 
BRANCH   3   4
HETATM    4  C   UNL     1     -10.258   9.348  66.404  1.00  0.00    -0.230 C  
HETATM    5  C   UNL     1      -9.526   8.494  67.437  1.00  0.00    -0.188 C  
ENDBRANCH   3   4
BRANCH   3   6
HETATM    6  C   UNL     1      -7.992   9.983  65.783  1.00  0.00    -0.126 C  
BRANCH   6   7
HETATM    7  C   UNL     1      -7.135  11.106  66.389  1.00  0.00    -0.091 C  
BRANCH   7   8
HETATM    8  N   UNL     1      -7.879  12.340  66.577  1.00  0.00    -0.380 N  
HETATM    9  C   UNL     1      -8.115  12.844  67.839  1.00  0.00    -0.161 C  
HETATM   10  H   UNL     1      -8.232  12.842  65.761  1.00  0.00     0.000 HD 
HETATM   11  O   UNL     1      -7.745  12.280  68.861  1.00  0.00    -0.060 OA 
BRANCH   9  12
HETATM   12  C   UNL     1      -8.754  14.181  67.913  1.00  0.00    -0.182 A  
HETATM   13  C   UNL     1      -7.900  15.297  67.856  1.00  0.00    -0.149 A  
HETATM   14  C   UNL     1      -8.373  16.569  68.179  1.00  0.00    -0.186 A  
HETATM   15  C   UNL     1      -9.696  16.758  68.601  1.00  0.00    -0.259 A  
HETATM   16 CL   UNL     1      -7.256  17.890  68.153  1.00  0.00    -0.223 Cl 
HETATM   17  C   UNL     1     -10.562  15.659  68.560  1.00  0.00    -0.256 A  
HETATM   18  N   UNL     1     -10.213  18.036  68.881  1.00  0.00    -0.387 NA 
HETATM   19  H1  UNL     1     -11.176  18.173  69.189  1.00  0.00     0.000 HD 
HETATM   20  C   UNL     1     -10.106  14.369  68.238  1.00  0.00    -0.239 A  
HETATM   21  H2  UNL     1     -10.063  18.619  68.058  1.00  0.00     0.000 HD 
BRANCH  20  22
HETATM   22  O   UNL     1     -11.067  13.404  68.394  1.00  0.00    -0.249 OA 
HETATM   23  C   UNL     1     -11.809  13.056  67.230  1.00  0.00    -0.363 C  
ENDBRANCH  20  22
ENDBRANCH   9  12
ENDBRANCH   7   8
ENDBRANCH   6   7
ENDBRANCH   3   6
ENDBRANCH   2   3
TORSDOF 7
ENDMDL
MODEL      214
REMARK 921   NORMALIZED FREE ENERGY PREDICTED BY IDOCK:   -3.36 KCAL/MOL
REMARK 922        TOTAL FREE ENERGY PREDICTED BY IDOCK:   -5.45 KCAL/MOL
REMARK 923 INTER-LIGAND FREE ENERGY PREDICTED BY IDOCK:   -5.06 KCAL/MOL
REMARK 924 INTRA-LIGAND FREE ENERGY PREDICTED BY IDOCK:   -0.38 KCAL/MOL
REMARK 927      BINDING AFFINITY PREDICTED BY RF-SCORE:    0.00 PKD
ROOT
HETATM    1  C   UNL     1      -6.926   7.778  66.703  1.00  0.00    -0.071 C  
HETATM    2  C   UNL     1      -7.635   6.926  67.751  1.00  0.00    -0.107 C  
ENDROOT
BRANCH   2   3
HETATM    3  N   UNL     1      -8.664   6.017  67.213  1.00  0.00    -0.106 NA 
BRANCH   3   4
HETATM    4  C   UNL     1      -8.307   4.588  67.316  1.00  0.00    -0.104 C  
HETATM    5  C   UNL     1      -9.128   3.616  66.469  1.00  0.00    -0.168 C  
ENDBRANCH   3   4
BRANCH   3   6
HETATM    6  C   UNL     1      -9.993   6.268  67.821  1.00  0.00    -0.127 C  
BRANCH   6   7
HETATM    7  C   UNL     1     -10.821   7.379  67.156  1.00  0.00    -0.270 C  
BRANCH   7   8
HETATM    8  N   UNL     1     -11.029   8.523  68.027  1.00  0.00    -0.471 N  
HETATM    9  C   UNL     1     -10.430   9.738  67.762  1.00  0.00    -0.246 C  
HETATM   10  H   UNL     1     -11.628   8.426  68.847  1.00  0.00     0.000 HD 
HETATM   11  O   UNL     1      -9.679   9.917  66.812  1.00  0.00    -0.174 OA 
BRANCH   9  12
HETATM   12  C   UNL     1     -10.824  10.876  68.628  1.00  0.00    -0.258 A  
HETATM   13  C   UNL     1     -11.569  10.569  69.781  1.00  0.00    -0.368 A  
HETATM   14  C   UNL     1     -12.202  11.578  70.507  1.00  0.00    -0.377 A  
HETATM   15  C   UNL     1     -12.140  12.913  70.084  1.00  0.00    -0.302 A  
HETATM   16 CL   UNL     1     -13.157  11.128  71.877  1.00  0.00    -0.583 Cl 
HETATM   17  C   UNL     1     -11.317  13.220  68.995  1.00  0.00    -0.334 A  
HETATM   18  N   UNL     1     -12.723  13.957  70.826  1.00  0.00    -0.329 NA 
HETATM   19  H1  UNL     1     -12.679  14.929  70.518  1.00  0.00     0.000 HD 
HETATM   20  C   UNL     1     -10.670  12.219  68.250  1.00  0.00    -0.221 A  
HETATM   21  H2  UNL     1     -12.348  13.913  71.773  1.00  0.00     0.000 HD 
BRANCH  20  22
HETATM   22  O   UNL     1     -10.032  12.702  67.137  1.00  0.00    -0.213 OA 
HETATM   23  C   UNL     1      -9.216  13.854  67.327  1.00  0.00    -0.235 C  
ENDBRANCH  20  22
ENDBRANCH   9  12
ENDBRANCH   7   8
ENDBRANCH   6   7
ENDBRANCH   3   6
ENDBRANCH   2   3
TORSDOF 7
ENDMDL
MODEL      215
REMARK 921   NORMALIZED FREE ENERGY PREDICTED BY IDOCK:   -3.31 KCAL/MOL
REMARK 922        TOTAL FREE ENERGY PREDICTED BY IDOCK:   -5.38 KCAL/MOL
REMARK 923 INTER-LIGAND FREE ENERGY PREDICTED BY IDOCK:   -4.58 KCAL/MOL
REMARK 924 INTRA-LIGAND FREE ENERGY PREDICTED BY IDOCK:   -0.81 KCAL/MOL
REMARK 927      BINDING AFFINITY PREDICTED BY RF-SCORE:    0.00 PKD
ROOT
HETATM    1  C   UNL     1      -9.824   2.628  64.326  1.00  0.00    -0.105 C  
HETATM    2  C   UNL     1      -9.476   4.098  64.532  1.00  0.00    -0.165 C  
ENDROOT
BRANCH   2   3
HETATM    3  N   UNL     1      -8.163   4.340  65.156  1.00  0.00    -0.101 NA 
BRANCH   3   4
HETATM    4  C   UNL     1      -7.082   4.602  64.185  1.00  0.00    -0.050 C  
HETATM    5  C   UNL     1      -7.349   5.687  63.142  1.00  0.00    -0.055 C  
ENDBRANCH   3   4
BRANCH   3   6
HETATM    6  C   UNL     1      -8.225   5.419  66.171  1.00  0.00    -0.111 C  
BRANCH   6   7
HETATM    7  C   UNL     1      -9.617   6.035  66.391  1.00  0.00    -0.137 C  
BRANCH   7   8
HETATM    8  N   UNL     1      -9.732   7.373  65.839  1.00  0.00    -0.363 N  
HETATM    9  C   UNL     1     -10.037   8.452  66.644  1.00  0.00    -0.288 C  
HETATM   10  H   UNL     1      -9.586   7.518  64.839  1.00  0.00     0.000 HD 
HETATM   11  O   UNL     1     -10.252   8.347  67.844  1.00  0.00    -0.196 OA 
BRANCH   9  12
HETATM   12  C   UNL     1      -9.986   9.792  66.008  1.00  0.00    -0.342 A  
HETATM   13  C   UNL     1     -10.781  10.799  66.586  1.00  0.00    -0.268 A  
HETATM   14  C   UNL     1     -11.001  12.001  65.913  1.00  0.00    -0.298 A  
HETATM   15  C   UNL     1     -10.468  12.217  64.635  1.00  0.00    -0.303 A  
HETATM   16 CL   UNL     1     -12.041  13.173  66.648  1.00  0.00    -0.438 Cl 
HETATM   17  C   UNL     1      -9.600  11.251  64.113  1.00  0.00    -0.255 A  
HETATM   18  N   UNL     1     -10.629  13.440  63.958  1.00  0.00    -0.528 NA 
HETATM   19  H1  UNL     1     -10.242  13.597  63.028  1.00  0.00     0.000 HD 
HETATM   20  C   UNL     1      -9.364  10.033  64.774  1.00  0.00    -0.271 A  
HETATM   21  H2  UNL     1     -10.286  14.181  64.568  1.00  0.00     0.000 HD 
BRANCH  20  22
HETATM   22  O   UNL     1      -8.606   9.160  64.039  1.00  0.00    -0.193 OA 
HETATM   23  C   UNL     1      -7.257   9.545  63.794  1.00  0.00    -0.107 C  
ENDBRANCH  20  22
ENDBRANCH   9  12
ENDBRANCH   7   8
ENDBRANCH   6   7
ENDBRANCH   3   6
ENDBRANCH   2   3
TORSDOF 7
ENDMDL
MODEL      216
REMARK 921   NORMALIZED FREE ENERGY PREDICTED BY IDOCK:   -3.31 KCAL/MOL
REMARK 922        TOTAL FREE ENERGY PREDICTED BY IDOCK:   -5.38 KCAL/MOL
REMARK 923 INTER-LIGAND FREE ENERGY PREDICTED BY IDOCK:   -4.50 KCAL/MOL
REMARK 924 INTRA-LIGAND FREE ENERGY PREDICTED BY IDOCK:   -0.88 KCAL/MOL
REMARK 927      BINDING AFFINITY PREDICTED BY RF-SCORE:    0.00 PKD
ROOT
HETATM    1  C   UNL     1      -7.083  10.181  68.901  1.00  0.00    -0.069 C  
HETATM    2  C   UNL     1      -6.751   9.030  67.956  1.00  0.00    -0.068 C  
ENDROOT
BRANCH   2   3
HETATM    3  N   UNL     1      -7.911   8.466  67.241  1.00  0.00    -0.097 NA 
BRANCH   3   4
HETATM    4  C   UNL     1      -8.163   9.094  65.929  1.00  0.00    -0.113 C  
HETATM    5  C   UNL     1      -6.937   9.585  65.160  1.00  0.00    -0.100 C  
ENDBRANCH   3   4
BRANCH   3   6
HETATM    6  C   UNL     1      -7.809   6.992  67.103  1.00  0.00    -0.109 C  
BRANCH   6   7
HETATM    7  C   UNL     1      -8.070   6.192  68.389  1.00  0.00    -0.108 C  
BRANCH   7   8
HETATM    8  N   UNL     1      -9.324   6.551  69.029  1.00  0.00    -0.129 N  
HETATM    9  C   UNL     1      -9.343   7.161  70.267  1.00  0.00    -0.155 C  
HETATM   10  H   UNL     1     -10.204   6.349  68.555  1.00  0.00     0.000 HD 
HETATM   11  O   UNL     1      -8.327   7.407  70.904  1.00  0.00    -0.113 OA 
BRANCH   9  12
HETATM   12  C   UNL     1     -10.664   7.618  70.763  1.00  0.00    -0.231 A  
HETATM   13  C   UNL     1     -11.034   8.941  70.461  1.00  0.00    -0.280 A  
HETATM   14  C   UNL     1     -12.122   9.537  71.098  1.00  0.00    -0.347 A  
HETATM   15  C   UNL     1     -12.847   8.845  72.078  1.00  0.00    -0.397 A  
HETATM   16 CL   UNL     1     -12.485  11.188  70.731  1.00  0.00    -0.463 Cl 
HETATM   17  C   UNL     1     -12.534   7.499  72.300  1.00  0.00    -0.149 A  
HETATM   18  N   UNL     1     -13.981   9.403  72.698  1.00  0.00    -0.761 NA 
HETATM   19  H1  UNL     1     -14.509   8.899  73.411  1.00  0.00     0.000 HD 
HETATM   20  C   UNL     1     -11.442   6.879  71.669  1.00  0.00    -0.275 A  
HETATM   21  H2  UNL     1     -14.634   9.677  71.963  1.00  0.00     0.000 HD 
BRANCH  20  22
HETATM   22  O   UNL     1     -11.207   5.608  72.124  1.00  0.00    -0.257 OA 
HETATM   23  C   UNL     1     -10.700   5.494  73.450  1.00  0.00    -0.278 C  
ENDBRANCH  20  22
ENDBRANCH   9  12
ENDBRANCH   7   8
ENDBRANCH   6   7
ENDBRANCH   3   6
ENDBRANCH   2   3
TORSDOF 7
ENDMDL
MODEL      217
REMARK 921   NORMALIZED FREE ENERGY PREDICTED BY IDOCK:   -3.30 KCAL/MOL
REMARK 922        TOTAL FREE ENERGY PREDICTED BY IDOCK:   -5.37 KCAL/MOL
REMARK 923 INTER-LIGAND FREE ENERGY PREDICTED BY IDOCK:   -4.47 KCAL/MOL
REMARK 924 INTRA-LIGAND FREE ENERGY PREDICTED BY IDOCK:   -0.90 KCAL/MOL
REMARK 927      BINDING AFFINITY PREDICTED BY RF-SCORE:    0.00 PKD
ROOT
HETATM    1  C   UNL     1      -9.821  10.402  65.496  1.00  0.00    -0.332 C  
HETATM    2  C   UNL     1      -9.910  11.907  65.725  1.00  0.00    -0.238 C  
ENDROOT
BRANCH   2   3
HETATM    3  N   UNL     1     -10.266  12.301  67.101  1.00  0.00    -0.210 NA 
BRANCH   3   4
HETATM    4  C   UNL     1     -10.174  13.755  67.345  1.00  0.00    -0.252 C  
HETATM    5  C   UNL     1      -8.785  14.380  67.230  1.00  0.00    -0.228 C  
ENDBRANCH   3   4
BRANCH   3   6
HETATM    6  C   UNL     1     -11.602  11.790  67.492  1.00  0.00    -0.291 C  
BRANCH   6   7
HETATM    7  C   UNL     1     -11.623  10.899  68.746  1.00  0.00    -0.309 C  
BRANCH   7   8
HETATM    8  N   UNL     1     -11.307   9.512  68.453  1.00  0.00    -0.457 N  
HETATM    9  C   UNL     1     -10.093   8.965  68.820  1.00  0.00    -0.200 C  
HETATM   10  H   UNL     1     -11.993   8.932  67.970  1.00  0.00     0.000 HD 
HETATM   11  O   UNL     1      -9.214   9.609  69.377  1.00  0.00    -0.165 OA 
BRANCH   9  12
HETATM   12  C   UNL     1      -9.930   7.506  68.607  1.00  0.00    -0.178 A  
HETATM   13  C   UNL     1      -8.926   7.105  67.706  1.00  0.00    -0.122 A  
HETATM   14  C   UNL     1      -8.871   5.789  67.246  1.00  0.00    -0.106 A  
HETATM   15  C   UNL     1      -9.834   4.849  67.640  1.00  0.00    -0.161 A  
HETATM   16 CL   UNL     1      -7.654   5.375  66.089  1.00  0.00    -0.086 Cl 
HETATM   17  C   UNL     1     -10.767   5.232  68.610  1.00  0.00     0.008 A  
HETATM   18  N   UNL     1      -9.771   3.504  67.234  1.00  0.00    -0.318 NA 
HETATM   19  H1  UNL     1     -10.472   2.820  67.521  1.00  0.00     0.000 HD 
HETATM   20  C   UNL     1     -10.840   6.553  69.088  1.00  0.00    -0.302 A  
HETATM   21  H2  UNL     1      -8.856   3.141  67.499  1.00  0.00     0.000 HD 
BRANCH  20  22
HETATM   22  O   UNL     1     -11.908   6.766  69.920  1.00  0.00    -0.283 OA 
HETATM   23  C   UNL     1     -11.757   6.330  71.267  1.00  0.00    -0.237 C  
ENDBRANCH  20  22
ENDBRANCH   9  12
ENDBRANCH   7   8
ENDBRANCH   6   7
ENDBRANCH   3   6
ENDBRANCH   2   3
TORSDOF 7
ENDMDL
MODEL      218
REMARK 921   NORMALIZED FREE ENERGY PREDICTED BY IDOCK:   -3.30 KCAL/MOL
REMARK 922        TOTAL FREE ENERGY PREDICTED BY IDOCK:   -5.36 KCAL/MOL
REMARK 923 INTER-LIGAND FREE ENERGY PREDICTED BY IDOCK:   -4.74 KCAL/MOL
REMARK 924 INTRA-LIGAND FREE ENERGY PREDICTED BY IDOCK:   -0.62 KCAL/MOL
REMARK 927      BINDING AFFINITY PREDICTED BY RF-SCORE:    0.00 PKD
ROOT
HETATM    1  C   UNL     1     -11.482  13.988  69.277  1.00  0.00    -0.344 C  
HETATM    2  C   UNL     1     -12.139  12.621  69.116  1.00  0.00    -0.142 C  
ENDROOT
BRANCH   2   3
HETATM    3  N   UNL     1     -11.777  11.637  70.154  1.00  0.00    -0.321 NA 
BRANCH   3   4
HETATM    4  C   UNL     1     -12.875  11.335  71.094  1.00  0.00    -0.352 C  
HETATM    5  C   UNL     1     -13.182  12.396  72.150  1.00  0.00    -0.491 C  
ENDBRANCH   3   4
BRANCH   3   6
HETATM    6  C   UNL     1     -11.237  10.388  69.564  1.00  0.00    -0.269 C  
BRANCH   6   7
HETATM    7  C   UNL     1      -9.933   9.874  70.196  1.00  0.00    -0.238 C  
BRANCH   7   8
HETATM    8  N   UNL     1      -9.859   8.424  70.230  1.00  0.00    -0.179 N  
HETATM    9  C   UNL     1     -10.314   7.713  71.322  1.00  0.00    -0.198 C  
HETATM   10  H   UNL     1      -9.464   7.923  69.434  1.00  0.00     0.000 HD 
HETATM   11  O   UNL     1     -10.773   8.250  72.322  1.00  0.00    -0.279 OA 
BRANCH   9  12
HETATM   12  C   UNL     1     -10.328   6.235  71.195  1.00  0.00    -0.255 A  
HETATM   13  C   UNL     1     -10.395   5.495  72.390  1.00  0.00    -0.251 A  
HETATM   14  C   UNL     1     -10.151   4.122  72.388  1.00  0.00    -0.177 A  
HETATM   15  C   UNL     1      -9.798   3.457  71.206  1.00  0.00    -0.124 A  
HETATM   16 CL   UNL     1     -10.184   3.281  73.900  1.00  0.00    -0.190 Cl 
HETATM   17  C   UNL     1      -9.830   4.181  70.009  1.00  0.00    -0.245 A  
HETATM   18  N   UNL     1      -9.599   2.064  71.166  1.00  0.00    -0.140 NA 
HETATM   19  H1  UNL     1      -9.342   1.580  70.306  1.00  0.00     0.000 HD 
HETATM   20  C   UNL     1     -10.074   5.566  69.988  1.00  0.00    -0.241 A  
HETATM   21  H2  UNL     1     -10.439   1.619  71.535  1.00  0.00     0.000 HD 
BRANCH  20  22
HETATM   22  O   UNL     1      -9.919   6.121  68.745  1.00  0.00    -0.133 OA 
HETATM   23  C   UNL     1     -10.054   5.237  67.636  1.00  0.00    -0.171 C  
ENDBRANCH  20  22
ENDBRANCH   9  12
ENDBRANCH   7   8
ENDBRANCH   6   7
ENDBRANCH   3   6
ENDBRANCH   2   3
TORSDOF 7
ENDMDL
MODEL      219
REMARK 921   NORMALIZED FREE ENERGY PREDICTED BY IDOCK:   -3.29 KCAL/MOL
REMARK 922        TOTAL FREE ENERGY PREDICTED BY IDOCK:   -5.36 KCAL/MOL
REMARK 923 INTER-LIGAND FREE ENERGY PREDICTED BY IDOCK:   -4.42 KCAL/MOL
REMARK 924 INTRA-LIGAND FREE ENERGY PREDICTED BY IDOCK:   -0.94 KCAL/MOL
REMARK 927      BINDING AFFINITY PREDICTED BY RF-SCORE:    0.00 PKD
ROOT
HETATM    1  C   UNL     1     -12.189  12.304  69.974  1.00  0.00    -0.267 C  
HETATM    2  C   UNL     1     -11.426  13.383  69.212  1.00  0.00    -0.290 C  
ENDROOT
BRANCH   2   3
HETATM    3  N   UNL     1     -11.622  13.361  67.751  1.00  0.00    -0.319 NA 
BRANCH   3   4
HETATM    4  C   UNL     1     -10.552  14.045  66.997  1.00  0.00    -0.279 C  
HETATM    5  C   UNL     1      -9.602  14.927  67.808  1.00  0.00    -0.208 C  
ENDBRANCH   3   4
BRANCH   3   6
HETATM    6  C   UNL     1     -11.818  11.982  67.242  1.00  0.00    -0.187 C  
BRANCH   6   7
HETATM    7  C   UNL     1     -10.531  11.158  67.065  1.00  0.00    -0.235 C  
BRANCH   7   8
HETATM    8  N   UNL     1     -10.552   9.916  67.818  1.00  0.00    -0.243 N  
HETATM    9  C   UNL     1      -9.829   9.778  68.986  1.00  0.00    -0.181 C  
HETATM   10  H   UNL     1     -11.110   9.132  67.478  1.00  0.00     0.000 HD 
HETATM   11  O   UNL     1      -9.118  10.667  69.437  1.00  0.00    -0.152 OA 
BRANCH   9  12
HETATM   12  C   UNL     1     -10.035   8.525  69.752  1.00  0.00    -0.191 A  
HETATM   13  C   UNL     1     -10.012   8.628  71.155  1.00  0.00    -0.289 A  
HETATM   14  C   UNL     1      -9.933   7.483  71.948  1.00  0.00    -0.171 A  
HETATM   15  C   UNL     1      -9.838   6.211  71.367  1.00  0.00    -0.175 A  
HETATM   16 CL   UNL     1      -9.843   7.679  73.665  1.00  0.00    -0.350 Cl 
HETATM   17  C   UNL     1      -9.960   6.114  69.976  1.00  0.00    -0.217 A  
HETATM   18  N   UNL     1      -9.811   5.037  72.143  1.00  0.00    -0.164 NA 
HETATM   19  H1  UNL     1      -9.741   4.112  71.719  1.00  0.00     0.000 HD 
HETATM   20  C   UNL     1     -10.041   7.254  69.158  1.00  0.00    -0.183 A  
HETATM   21  H2  UNL     1     -10.635   5.044  72.744  1.00  0.00     0.000 HD 
BRANCH  20  22
HETATM   22  O   UNL     1     -10.006   6.960  67.820  1.00  0.00    -0.138 OA 
HETATM   23  C   UNL     1     -10.076   5.580  67.473  1.00  0.00    -0.180 C  
ENDBRANCH  20  22
ENDBRANCH   9  12
ENDBRANCH   7   8
ENDBRANCH   6   7
ENDBRANCH   3   6
ENDBRANCH   2   3
TORSDOF 7
ENDMDL
MODEL      220
REMARK 921   NORMALIZED FREE ENERGY PREDICTED BY IDOCK:   -3.29 KCAL/MOL
REMARK 922        TOTAL FREE ENERGY PREDICTED BY IDOCK:   -5.35 KCAL/MOL
REMARK 923 INTER-LIGAND FREE ENERGY PREDICTED BY IDOCK:   -4.51 KCAL/MOL
REMARK 924 INTRA-LIGAND FREE ENERGY PREDICTED BY IDOCK:   -0.84 KCAL/MOL
REMARK 927      BINDING AFFINITY PREDICTED BY RF-SCORE:    0.00 PKD
ROOT
HETATM    1  C   UNL     1      -5.916   4.414  73.204  1.00  0.00    -0.012 C  
HETATM    2  C   UNL     1      -6.104   4.952  71.789  1.00  0.00    -0.024 C  
ENDROOT
BRANCH   2   3
HETATM    3  N   UNL     1      -7.502   4.978  71.319  1.00  0.00    -0.079 NA 
BRANCH   3   4
HETATM    4  C   UNL     1      -7.795   3.980  70.271  1.00  0.00    -0.048 C  
HETATM    5  C   UNL     1      -8.046   4.520  68.864  1.00  0.00    -0.077 C  
ENDBRANCH   3   4
BRANCH   3   6
HETATM    6  C   UNL     1      -8.462   4.852  72.443  1.00  0.00    -0.120 C  
BRANCH   6   7
HETATM    7  C   UNL     1      -9.943   5.020  72.062  1.00  0.00    -0.184 C  
BRANCH   7   8
HETATM    8  N   UNL     1     -10.296   6.399  71.776  1.00  0.00    -0.201 N  
HETATM    9  C   UNL     1     -10.872   6.752  70.572  1.00  0.00    -0.258 C  
HETATM   10  H   UNL     1     -10.115   7.119  72.476  1.00  0.00     0.000 HD 
HETATM   11  O   UNL     1     -11.091   5.946  69.677  1.00  0.00    -0.378 OA 
BRANCH   9  12
HETATM   12  C   UNL     1     -11.327   8.157  70.439  1.00  0.00    -0.181 A  
HETATM   13  C   UNL     1     -10.630   8.966  69.523  1.00  0.00    -0.233 A  
HETATM   14  C   UNL     1     -10.809  10.350  69.519  1.00  0.00    -0.255 A  
HETATM   15  C   UNL     1     -11.657  10.967  70.450  1.00  0.00    -0.323 A  
HETATM   16 CL   UNL     1      -9.873  11.295  68.413  1.00  0.00    -0.193 Cl 
HETATM   17  C   UNL     1     -12.419  10.146  71.289  1.00  0.00    -0.510 A  
HETATM   18  N   UNL     1     -11.897  12.353  70.434  1.00  0.00    -0.541 NA 
HETATM   19  H1  UNL     1     -12.514  12.802  71.111  1.00  0.00     0.000 HD 
HETATM   20  C   UNL     1     -12.255   8.750  71.309  1.00  0.00    -0.287 A  
HETATM   21  H2  UNL     1     -12.226  12.601  69.500  1.00  0.00     0.000 HD 
BRANCH  20  22
HETATM   22  O   UNL     1     -12.980   8.136  72.297  1.00  0.00    -0.285 OA 
HETATM   23  C   UNL     1     -14.360   8.479  72.373  1.00  0.00    -0.320 C  
ENDBRANCH  20  22
ENDBRANCH   9  12
ENDBRANCH   7   8
ENDBRANCH   6   7
ENDBRANCH   3   6
ENDBRANCH   2   3
TORSDOF 7
ENDMDL
MODEL      221
REMARK 921   NORMALIZED FREE ENERGY PREDICTED BY IDOCK:   -3.29 KCAL/MOL
REMARK 922        TOTAL FREE ENERGY PREDICTED BY IDOCK:   -5.35 KCAL/MOL
REMARK 923 INTER-LIGAND FREE ENERGY PREDICTED BY IDOCK:   -4.68 KCAL/MOL
REMARK 924 INTRA-LIGAND FREE ENERGY PREDICTED BY IDOCK:   -0.67 KCAL/MOL
REMARK 927      BINDING AFFINITY PREDICTED BY RF-SCORE:    0.00 PKD
ROOT
HETATM    1  C   UNL     1      -9.538  14.990  68.369  1.00  0.00    -0.212 C  
HETATM    2  C   UNL     1      -9.091  14.127  67.194  1.00  0.00    -0.232 C  
ENDROOT
BRANCH   2   3
HETATM    3  N   UNL     1     -10.171  13.736  66.269  1.00  0.00    -0.290 NA 
BRANCH   3   4
HETATM    4  C   UNL     1     -10.213  14.541  65.032  1.00  0.00    -0.365 C  
HETATM    5  C   UNL     1     -11.471  15.377  64.804  1.00  0.00    -0.337 C  
ENDBRANCH   3   4
BRANCH   3   6
HETATM    6  C   UNL     1     -10.125  12.289  65.949  1.00  0.00    -0.251 C  
BRANCH   6   7
HETATM    7  C   UNL     1     -11.213  11.433  66.619  1.00  0.00    -0.231 C  
BRANCH   7   8
HETATM    8  N   UNL     1     -10.775  10.852  67.876  1.00  0.00    -0.212 N  
HETATM    9  C   UNL     1     -10.496   9.504  67.979  1.00  0.00    -0.230 C  
HETATM   10  H   UNL     1     -10.673  11.450  68.696  1.00  0.00     0.000 HD 
HETATM   11  O   UNL     1     -10.625   8.724  67.045  1.00  0.00    -0.282 OA 
BRANCH   9  12
HETATM   12  C   UNL     1      -9.918   9.041  69.264  1.00  0.00    -0.188 A  
HETATM   13  C   UNL     1     -10.767   8.311  70.116  1.00  0.00    -0.239 A  
HETATM   14  C   UNL     1     -10.402   8.064  71.439  1.00  0.00    -0.200 A  
HETATM   15  C   UNL     1      -9.201   8.567  71.959  1.00  0.00    -0.256 A  
HETATM   16 CL   UNL     1     -11.518   7.218  72.454  1.00  0.00    -0.317 Cl 
HETATM   17  C   UNL     1      -8.321   9.206  71.079  1.00  0.00    -0.205 A  
HETATM   18  N   UNL     1      -8.783   8.288  73.274  1.00  0.00    -0.279 NA 
HETATM   19  H1  UNL     1      -7.910   8.655  73.652  1.00  0.00     0.000 HD 
HETATM   20  C   UNL     1      -8.669   9.465  69.742  1.00  0.00    -0.181 A  
HETATM   21  H2  UNL     1      -8.771   7.274  73.387  1.00  0.00     0.000 HD 
BRANCH  20  22
HETATM   22  O   UNL     1      -7.740  10.227  69.081  1.00  0.00    -0.097 OA 
HETATM   23  C   UNL     1      -6.941   9.552  68.115  1.00  0.00    -0.078 C  
ENDBRANCH  20  22
ENDBRANCH   9  12
ENDBRANCH   7   8
ENDBRANCH   6   7
ENDBRANCH   3   6
ENDBRANCH   2   3
TORSDOF 7
ENDMDL
MODEL      222
REMARK 921   NORMALIZED FREE ENERGY PREDICTED BY IDOCK:   -3.29 KCAL/MOL
REMARK 922        TOTAL FREE ENERGY PREDICTED BY IDOCK:   -5.35 KCAL/MOL
REMARK 923 INTER-LIGAND FREE ENERGY PREDICTED BY IDOCK:   -4.60 KCAL/MOL
REMARK 924 INTRA-LIGAND FREE ENERGY PREDICTED BY IDOCK:   -0.75 KCAL/MOL
REMARK 927      BINDING AFFINITY PREDICTED BY RF-SCORE:    0.00 PKD
ROOT
HETATM    1  C   UNL     1     -12.142  14.406  64.591  1.00  0.00    -0.485 C  
HETATM    2  C   UNL     1     -12.705  13.064  65.048  1.00  0.00    -0.410 C  
ENDROOT
BRANCH   2   3
HETATM    3  N   UNL     1     -11.690  12.082  65.472  1.00  0.00    -0.364 NA 
BRANCH   3   4
HETATM    4  C   UNL     1     -10.565  11.944  64.526  1.00  0.00    -0.311 C  
HETATM    5  C   UNL     1      -9.807  10.618  64.555  1.00  0.00    -0.388 C  
ENDBRANCH   3   4
BRANCH   3   6
HETATM    6  C   UNL     1     -11.190  12.363  66.840  1.00  0.00    -0.305 C  
BRANCH   6   7
HETATM    7  C   UNL     1     -11.673  11.390  67.928  1.00  0.00    -0.228 C  
BRANCH   7   8
HETATM    8  N   UNL     1     -10.788  10.252  68.097  1.00  0.00    -0.246 N  
HETATM    9  C   UNL     1     -10.791   9.512  69.263  1.00  0.00    -0.191 C  
HETATM   10  H   UNL     1     -10.152   9.994  67.341  1.00  0.00     0.000 HD 
HETATM   11  O   UNL     1     -11.507   9.781  70.219  1.00  0.00    -0.253 OA 
BRANCH   9  12
HETATM   12  C   UNL     1      -9.957   8.286  69.276  1.00  0.00    -0.192 A  
HETATM   13  C   UNL     1     -10.358   7.255  70.145  1.00  0.00    -0.221 A  
HETATM   14  C   UNL     1      -9.503   6.187  70.418  1.00  0.00    -0.161 A  
HETATM   15  C   UNL     1      -8.217   6.136  69.865  1.00  0.00    -0.120 A  
HETATM   16 CL   UNL     1     -10.029   4.984  71.546  1.00  0.00    -0.243 Cl 
HETATM   17  C   UNL     1      -7.866   7.113  68.927  1.00  0.00    -0.115 A  
HETATM   18  N   UNL     1      -7.355   5.044  70.081  1.00  0.00    -0.057 NA 
HETATM   19  H1  UNL     1      -6.419   5.008  69.679  1.00  0.00     0.000 HD 
HETATM   20  C   UNL     1      -8.711   8.198  68.636  1.00  0.00    -0.134 A  
HETATM   21  H2  UNL     1      -7.849   4.198  69.799  1.00  0.00     0.000 HD 
BRANCH  20  22
HETATM   22  O   UNL     1      -8.133   9.124  67.807  1.00  0.00    -0.104 OA 
HETATM   23  C   UNL     1      -6.803   9.517  68.128  1.00  0.00    -0.070 C  
ENDBRANCH  20  22
ENDBRANCH   9  12
ENDBRANCH   7   8
ENDBRANCH   6   7
ENDBRANCH   3   6
ENDBRANCH   2   3
TORSDOF 7
ENDMDL
MODEL      223
REMARK 921   NORMALIZED FREE ENERGY PREDICTED BY IDOCK:   -3.28 KCAL/MOL
REMARK 922        TOTAL FREE ENERGY PREDICTED BY IDOCK:   -5.34 KCAL/MOL
REMARK 923 INTER-LIGAND FREE ENERGY PREDICTED BY IDOCK:   -4.45 KCAL/MOL
REMARK 924 INTRA-LIGAND FREE ENERGY PREDICTED BY IDOCK:   -0.88 KCAL/MOL
REMARK 927      BINDING AFFINITY PREDICTED BY RF-SCORE:    0.00 PKD
ROOT
HETATM    1  C   UNL     1     -12.481  12.291  63.710  1.00  0.00    -0.619 C  
HETATM    2  C   UNL     1     -11.915  12.504  65.110  1.00  0.00    -0.434 C  
ENDROOT
BRANCH   2   3
HETATM    3  N   UNL     1     -11.034  11.425  65.590  1.00  0.00    -0.235 NA 
BRANCH   3   4
HETATM    4  C   UNL     1     -10.032  10.989  64.596  1.00  0.00    -0.301 C  
HETATM    5  C   UNL     1      -9.579   9.532  64.676  1.00  0.00    -0.026 C  
ENDBRANCH   3   4
BRANCH   3   6
HETATM    6  C   UNL     1     -10.376  11.779  66.872  1.00  0.00    -0.217 C  
BRANCH   6   7
HETATM    7  C   UNL     1     -11.005  11.153  68.128  1.00  0.00    -0.238 C  
BRANCH   7   8
HETATM    8  N   UNL     1     -10.816   9.714  68.192  1.00  0.00    -0.413 N  
HETATM    9  C   UNL     1      -9.623   9.171  68.623  1.00  0.00    -0.152 C  
HETATM   10  H   UNL     1     -11.579   9.096  67.915  1.00  0.00     0.000 HD 
HETATM   11  O   UNL     1      -8.658   9.853  68.943  1.00  0.00    -0.122 OA 
BRANCH   9  12
HETATM   12  C   UNL     1      -9.585   7.697  68.791  1.00  0.00    -0.153 A  
HETATM   13  C   UNL     1      -8.610   7.000  68.055  1.00  0.00    -0.124 A  
HETATM   14  C   UNL     1      -8.665   5.610  67.944  1.00  0.00    -0.107 A  
HETATM   15  C   UNL     1      -9.711   4.884  68.530  1.00  0.00    -0.155 A  
HETATM   16 CL   UNL     1      -7.474   4.817  66.972  1.00  0.00    -0.085 Cl 
HETATM   17  C   UNL     1     -10.618   5.576  69.340  1.00  0.00    -0.349 A  
HETATM   18  N   UNL     1      -9.761   3.478  68.479  1.00  0.00    -0.065 NA 
HETATM   19  H1  UNL     1     -10.523   2.950  68.905  1.00  0.00     0.000 HD 
HETATM   20  C   UNL     1     -10.581   6.976  69.466  1.00  0.00    -0.234 A  
HETATM   21  H2  UNL     1      -8.884   3.122  68.858  1.00  0.00     0.000 HD 
BRANCH  20  22
HETATM   22  O   UNL     1     -11.636   7.481  70.180  1.00  0.00    -0.166 OA 
HETATM   23  C   UNL     1     -11.438   7.628  71.582  1.00  0.00    -0.260 C  
ENDBRANCH  20  22
ENDBRANCH   9  12
ENDBRANCH   7   8
ENDBRANCH   6   7
ENDBRANCH   3   6
ENDBRANCH   2   3
TORSDOF 7
ENDMDL
MODEL      224
REMARK 921   NORMALIZED FREE ENERGY PREDICTED BY IDOCK:   -3.23 KCAL/MOL
REMARK 922        TOTAL FREE ENERGY PREDICTED BY IDOCK:   -5.27 KCAL/MOL
REMARK 923 INTER-LIGAND FREE ENERGY PREDICTED BY IDOCK:   -4.94 KCAL/MOL
REMARK 924 INTRA-LIGAND FREE ENERGY PREDICTED BY IDOCK:   -0.33 KCAL/MOL
REMARK 927      BINDING AFFINITY PREDICTED BY RF-SCORE:    0.00 PKD
ROOT
HETATM    1  C   UNL     1     -13.091  11.772  71.733  1.00  0.00    -0.480 C  
HETATM    2  C   UNL     1     -12.291  11.770  70.434  1.00  0.00    -0.277 C  
ENDROOT
BRANCH   2   3
HETATM    3  N   UNL     1     -11.645  10.486  70.109  1.00  0.00    -0.300 NA 
BRANCH   3   4
HETATM    4  C   UNL     1     -10.545  10.604  69.130  1.00  0.00    -0.226 C  
HETATM    5  C   UNL     1     -10.914  10.402  67.661  1.00  0.00    -0.374 C  
ENDBRANCH   3   4
BRANCH   3   6
HETATM    6  C   UNL     1     -11.185   9.777  71.328  1.00  0.00    -0.347 C  
BRANCH   6   7
HETATM    7  C   UNL     1     -11.654   8.318  71.456  1.00  0.00    -0.279 C  
BRANCH   7   8
HETATM    8  N   UNL     1     -10.914   7.413  70.595  1.00  0.00    -0.251 N  
HETATM    9  C   UNL     1     -10.860   6.060  70.862  1.00  0.00    -0.285 C  
HETATM   10  H   UNL     1     -10.426   7.783  69.779  1.00  0.00     0.000 HD 
HETATM   11  O   UNL     1     -11.398   5.552  71.837  1.00  0.00    -0.193 OA 
BRANCH   9  12
HETATM   12  C   UNL     1     -10.203   5.206  69.843  1.00  0.00    -0.361 A  
HETATM   13  C   UNL     1     -10.405   5.556  68.495  1.00  0.00    -0.247 A  
HETATM   14  C   UNL     1     -10.052   4.675  67.473  1.00  0.00    -0.075 A  
HETATM   15  C   UNL     1      -9.524   3.410  67.766  1.00  0.00    -0.176 A  
HETATM   16 CL   UNL     1     -10.386   5.137  65.840  1.00  0.00    -0.195 Cl 
HETATM   17  C   UNL     1      -9.236   3.111  69.102  1.00  0.00    -0.222 A  
HETATM   18  N   UNL     1      -9.110   2.523  66.754  1.00  0.00    -0.251 NA 
HETATM   19  H1  UNL     1      -8.727   1.602  66.967  1.00  0.00     0.000 HD 
HETATM   20  C   UNL     1      -9.583   3.984  70.148  1.00  0.00    -0.200 A  
HETATM   21  H2  UNL     1      -8.435   3.014  66.168  1.00  0.00     0.000 HD 
BRANCH  20  22
HETATM   22  O   UNL     1      -9.355   3.454  71.391  1.00  0.00    -0.113 OA 
HETATM   23  C   UNL     1      -9.057   2.062  71.439  1.00  0.00    -0.092 C  
ENDBRANCH  20  22
ENDBRANCH   9  12
ENDBRANCH   7   8
ENDBRANCH   6   7
ENDBRANCH   3   6
ENDBRANCH   2   3
TORSDOF 7
ENDMDL
MODEL      225
REMARK 921   NORMALIZED FREE ENERGY PREDICTED BY IDOCK:   -3.23 KCAL/MOL
REMARK 922        TOTAL FREE ENERGY PREDICTED BY IDOCK:   -5.27 KCAL/MOL
REMARK 923 INTER-LIGAND FREE ENERGY PREDICTED BY IDOCK:   -4.58 KCAL/MOL
REMARK 924 INTRA-LIGAND FREE ENERGY PREDICTED BY IDOCK:   -0.69 KCAL/MOL
REMARK 927      BINDING AFFINITY PREDICTED BY RF-SCORE:    0.00 PKD
ROOT
HETATM    1  C   UNL     1      -6.330  10.139  64.746  1.00  0.00    -0.131 C  
HETATM    2  C   UNL     1      -6.134   9.499  66.117  1.00  0.00    -0.063 C  
ENDROOT
BRANCH   2   3
HETATM    3  N   UNL     1      -6.870   8.238  66.320  1.00  0.00    -0.064 NA 
BRANCH   3   4
HETATM    4  C   UNL     1      -6.008   7.101  66.702  1.00  0.00    -0.035 C  
HETATM    5  C   UNL     1      -6.337   6.409  68.023  1.00  0.00    -0.036 C  
ENDBRANCH   3   4
BRANCH   3   6
HETATM    6  C   UNL     1      -7.981   8.398  67.289  1.00  0.00    -0.105 C  
BRANCH   6   7
HETATM    7  C   UNL     1      -9.389   8.442  66.672  1.00  0.00    -0.191 C  
BRANCH   7   8
HETATM    8  N   UNL     1      -9.759   9.770  66.213  1.00  0.00    -0.216 N  
HETATM    9  C   UNL     1     -10.492  10.622  67.013  1.00  0.00    -0.243 C  
HETATM   10  H   UNL     1      -9.472  10.077  65.283  1.00  0.00     0.000 HD 
HETATM   11  O   UNL     1     -10.894  10.309  68.126  1.00  0.00    -0.227 OA 
BRANCH   9  12
HETATM   12  C   UNL     1     -10.690  12.003  66.509  1.00  0.00    -0.293 A  
HETATM   13  C   UNL     1     -11.536  12.157  65.395  1.00  0.00    -0.387 A  
HETATM   14  C   UNL     1     -11.575  13.364  64.696  1.00  0.00    -0.355 A  
HETATM   15  C   UNL     1     -10.748  14.434  65.064  1.00  0.00    -0.423 A  
HETATM   16 CL   UNL     1     -12.586  13.469  63.296  1.00  0.00    -0.133 Cl 
HETATM   17  C   UNL     1      -9.985  14.304  66.230  1.00  0.00    -0.319 A  
HETATM   18  N   UNL     1     -10.806  15.679  64.411  1.00  0.00    -0.769 NA 
HETATM   19  H1  UNL     1     -10.204  16.458  64.678  1.00  0.00     0.000 HD 
HETATM   20  C   UNL     1      -9.931  13.098  66.949  1.00  0.00    -0.245 A  
HETATM   21  H2  UNL     1     -11.772  16.005  64.447  1.00  0.00     0.000 HD 
BRANCH  20  22
HETATM   22  O   UNL     1      -9.019  13.121  67.972  1.00  0.00    -0.181 OA 
HETATM   23  C   UNL     1      -7.648  13.026  67.599  1.00  0.00    -0.160 C  
ENDBRANCH  20  22
ENDBRANCH   9  12
ENDBRANCH   7   8
ENDBRANCH   6   7
ENDBRANCH   3   6
ENDBRANCH   2   3
TORSDOF 7
ENDMDL
MODEL      226
REMARK 921   NORMALIZED FREE ENERGY PREDICTED BY IDOCK:   -3.23 KCAL/MOL
REMARK 922        TOTAL FREE ENERGY PREDICTED BY IDOCK:   -5.27 KCAL/MOL
REMARK 923 INTER-LIGAND FREE ENERGY PREDICTED BY IDOCK:   -4.97 KCAL/MOL
REMARK 924 INTRA-LIGAND FREE ENERGY PREDICTED BY IDOCK:   -0.30 KCAL/MOL
REMARK 927      BINDING AFFINITY PREDICTED BY RF-SCORE:    0.00 PKD
ROOT
HETATM    1  C   UNL     1     -12.158   9.356  71.192  1.00  0.00    -0.406 C  
HETATM    2  C   UNL     1     -10.705   9.743  70.935  1.00  0.00    -0.305 C  
ENDROOT
BRANCH   2   3
HETATM    3  N   UNL     1      -9.922   8.739  70.192  1.00  0.00    -0.180 NA 
BRANCH   3   4
HETATM    4  C   UNL     1      -9.646   7.510  70.962  1.00  0.00    -0.160 C  
HETATM    5  C   UNL     1      -8.187   7.061  71.031  1.00  0.00    -0.117 C  
ENDBRANCH   3   4
BRANCH   3   6
HETATM    6  C   UNL     1     -10.547   8.408  68.888  1.00  0.00    -0.140 C  
BRANCH   6   7
HETATM    7  C   UNL     1      -9.701   8.745  67.649  1.00  0.00    -0.169 C  
BRANCH   7   8
HETATM    8  N   UNL     1      -9.613  10.174  67.401  1.00  0.00    -0.152 N  
HETATM    9  C   UNL     1     -10.749  10.953  67.310  1.00  0.00    -0.268 C  
HETATM   10  H   UNL     1      -8.696  10.609  67.293  1.00  0.00     0.000 HD 
HETATM   11  O   UNL     1     -11.880  10.493  67.402  1.00  0.00    -0.136 OA 
BRANCH   9  12
HETATM   12  C   UNL     1     -10.544  12.418  67.202  1.00  0.00    -0.247 A  
HETATM   13  C   UNL     1     -10.537  13.148  68.404  1.00  0.00    -0.264 A  
HETATM   14  C   UNL     1     -10.615  14.541  68.388  1.00  0.00    -0.244 A  
HETATM   15  C   UNL     1     -10.739  15.240  67.180  1.00  0.00    -0.316 A  
HETATM   16 CL   UNL     1     -10.668  15.377  69.902  1.00  0.00    -0.292 Cl 
HETATM   17  C   UNL     1     -10.646  14.512  65.988  1.00  0.00    -0.311 A  
HETATM   18  N   UNL     1     -10.765  16.646  67.131  1.00  0.00    -0.256 NA 
HETATM   19  H1  UNL     1     -10.856  17.154  66.252  1.00  0.00     0.000 HD 
HETATM   20  C   UNL     1     -10.567  13.109  65.981  1.00  0.00    -0.281 A  
HETATM   21  H2  UNL     1      -9.930  16.989  67.605  1.00  0.00     0.000 HD 
BRANCH  20  22
HETATM   22  O   UNL     1     -10.633  12.572  64.722  1.00  0.00    -0.282 OA 
HETATM   23  C   UNL     1     -11.807  12.864  63.970  1.00  0.00    -0.443 C  
ENDBRANCH  20  22
ENDBRANCH   9  12
ENDBRANCH   7   8
ENDBRANCH   6   7
ENDBRANCH   3   6
ENDBRANCH   2   3
TORSDOF 7
ENDMDL
MODEL      227
REMARK 921   NORMALIZED FREE ENERGY PREDICTED BY IDOCK:   -3.21 KCAL/MOL
REMARK 922        TOTAL FREE ENERGY PREDICTED BY IDOCK:   -5.24 KCAL/MOL
REMARK 923 INTER-LIGAND FREE ENERGY PREDICTED BY IDOCK:   -4.60 KCAL/MOL
REMARK 924 INTRA-LIGAND FREE ENERGY PREDICTED BY IDOCK:   -0.64 KCAL/MOL
REMARK 927      BINDING AFFINITY PREDICTED BY RF-SCORE:    0.00 PKD
ROOT
HETATM    1  C   UNL     1     -11.491   6.623  72.261  1.00  0.00    -0.319 C  
HETATM    2  C   UNL     1     -10.729   7.940  72.367  1.00  0.00    -0.305 C  
ENDROOT
BRANCH   2   3
HETATM    3  N   UNL     1      -9.651   8.111  71.376  1.00  0.00    -0.157 NA 
BRANCH   3   4
HETATM    4  C   UNL     1      -8.343   8.450  71.973  1.00  0.00    -0.171 C  
HETATM    5  C   UNL     1      -8.133   8.049  73.432  1.00  0.00    -0.247 C  
ENDBRANCH   3   4
BRANCH   3   6
HETATM    6  C   UNL     1      -9.527   6.929  70.488  1.00  0.00    -0.169 C  
BRANCH   6   7
HETATM    7  C   UNL     1      -8.602   7.114  69.274  1.00  0.00    -0.137 C  
BRANCH   7   8
HETATM    8  N   UNL     1      -8.952   8.275  68.473  1.00  0.00    -0.137 N  
HETATM    9  C   UNL     1      -9.008   8.200  67.096  1.00  0.00    -0.139 C  
HETATM   10  H   UNL     1      -9.161   9.159  68.937  1.00  0.00     0.000 HD 
HETATM   11  O   UNL     1      -8.743   7.180  66.474  1.00  0.00    -0.122 OA 
BRANCH   9  12
HETATM   12  C   UNL     1      -9.516   9.399  66.385  1.00  0.00    -0.259 A  
HETATM   13  C   UNL     1      -9.509   9.353  64.979  1.00  0.00    -0.204 A  
HETATM   14  C   UNL     1      -9.716  10.512  64.231  1.00  0.00    -0.330 A  
HETATM   15  C   UNL     1      -9.899  11.750  64.861  1.00  0.00    -0.223 A  
HETATM   16 CL   UNL     1      -9.630  10.401  62.506  1.00  0.00    -0.285 Cl 
HETATM   17  C   UNL     1     -10.003  11.769  66.256  1.00  0.00    -0.246 A  
HETATM   18  N   UNL     1     -10.164  12.925  64.132  1.00  0.00    -0.569 NA 
HETATM   19  H1  UNL     1     -10.297  13.826  64.591  1.00  0.00     0.000 HD 
HETATM   20  C   UNL     1      -9.797  10.613  67.030  1.00  0.00    -0.185 A  
HETATM   21  H2  UNL     1     -10.980  12.750  63.546  1.00  0.00     0.000 HD 
BRANCH  20  22
HETATM   22  O   UNL     1      -9.795  10.860  68.377  1.00  0.00    -0.164 OA 
HETATM   23  C   UNL     1     -10.952  11.500  68.905  1.00  0.00    -0.229 C  
ENDBRANCH  20  22
ENDBRANCH   9  12
ENDBRANCH   7   8
ENDBRANCH   6   7
ENDBRANCH   3   6
ENDBRANCH   2   3
TORSDOF 7
ENDMDL
MODEL      228
REMARK 921   NORMALIZED FREE ENERGY PREDICTED BY IDOCK:   -3.21 KCAL/MOL
REMARK 922        TOTAL FREE ENERGY PREDICTED BY IDOCK:   -5.23 KCAL/MOL
REMARK 923 INTER-LIGAND FREE ENERGY PREDICTED BY IDOCK:   -4.66 KCAL/MOL
REMARK 924 INTRA-LIGAND FREE ENERGY PREDICTED BY IDOCK:   -0.57 KCAL/MOL
REMARK 927      BINDING AFFINITY PREDICTED BY RF-SCORE:    0.00 PKD
ROOT
HETATM    1  C   UNL     1      -6.918   8.286  65.504  1.00  0.00    -0.066 C  
HETATM    2  C   UNL     1      -6.981   8.222  67.027  1.00  0.00    -0.071 C  
ENDROOT
BRANCH   2   3
HETATM    3  N   UNL     1      -8.210   7.613  67.568  1.00  0.00    -0.120 NA 
BRANCH   3   4
HETATM    4  C   UNL     1      -7.969   6.386  68.354  1.00  0.00    -0.106 C  
HETATM    5  C   UNL     1      -9.204   5.588  68.770  1.00  0.00    -0.142 C  
ENDBRANCH   3   4
BRANCH   3   6
HETATM    6  C   UNL     1      -9.007   8.587  68.353  1.00  0.00    -0.139 C  
BRANCH   6   7
HETATM    7  C   UNL     1     -10.369   8.961  67.746  1.00  0.00    -0.242 C  
BRANCH   7   8
HETATM    8  N   UNL     1     -10.841  10.262  68.186  1.00  0.00    -0.246 N  
HETATM    9  C   UNL     1     -11.568  10.400  69.351  1.00  0.00    -0.202 C  
HETATM   10  H   UNL     1     -10.633  11.088  67.624  1.00  0.00     0.000 HD 
HETATM   11  O   UNL     1     -11.878   9.450  70.058  1.00  0.00    -0.047 OA 
BRANCH   9  12
HETATM   12  C   UNL     1     -11.875  11.785  69.785  1.00  0.00    -0.420 A  
HETATM   13  C   UNL     1     -12.506  11.934  71.033  1.00  0.00    -0.390 A  
HETATM   14  C   UNL     1     -13.064  13.158  71.403  1.00  0.00    -0.266 A  
HETATM   15  C   UNL     1     -13.042  14.252  70.527  1.00  0.00    -0.112 A  
HETATM   16 CL   UNL     1     -13.884  13.259  72.923  1.00  0.00    -0.092 Cl 
HETATM   17  C   UNL     1     -12.327  14.122  69.331  1.00  0.00    -0.246 A  
HETATM   18  N   UNL     1     -13.550  15.512  70.896  1.00  0.00    -0.818 NA 
HETATM   19  H1  UNL     1     -13.534  16.308  70.258  1.00  0.00     0.000 HD 
HETATM   20  C   UNL     1     -11.756  12.898  68.939  1.00  0.00    -0.327 A  
HETATM   21  H2  UNL     1     -13.085  15.794  71.759  1.00  0.00     0.000 HD 
BRANCH  20  22
HETATM   22  O   UNL     1     -11.228  12.931  67.675  1.00  0.00    -0.252 OA 
HETATM   23  C   UNL     1     -11.463  14.117  66.922  1.00  0.00    -0.357 C  
ENDBRANCH  20  22
ENDBRANCH   9  12
ENDBRANCH   7   8
ENDBRANCH   6   7
ENDBRANCH   3   6
ENDBRANCH   2   3
TORSDOF 7
ENDMDL
MODEL      229
REMARK 921   NORMALIZED FREE ENERGY PREDICTED BY IDOCK:   -3.21 KCAL/MOL
REMARK 922        TOTAL FREE ENERGY PREDICTED BY IDOCK:   -5.23 KCAL/MOL
REMARK 923 INTER-LIGAND FREE ENERGY PREDICTED BY IDOCK:   -4.69 KCAL/MOL
REMARK 924 INTRA-LIGAND FREE ENERGY PREDICTED BY IDOCK:   -0.54 KCAL/MOL
REMARK 927      BINDING AFFINITY PREDICTED BY RF-SCORE:    0.00 PKD
ROOT
HETATM    1  C   UNL     1     -11.671  12.007  69.627  1.00  0.00    -0.405 C  
HETATM    2  C   UNL     1     -11.380  13.504  69.675  1.00  0.00    -0.152 C  
ENDROOT
BRANCH   2   3
HETATM    3  N   UNL     1     -12.071  14.299  68.643  1.00  0.00    -0.302 NA 
BRANCH   3   4
HETATM    4  C   UNL     1     -11.516  15.657  68.469  1.00  0.00    -0.375 C  
HETATM    5  C   UNL     1     -10.889  16.302  69.704  1.00  0.00    -0.345 C  
ENDBRANCH   3   4
BRANCH   3   6
HETATM    6  C   UNL     1     -12.126  13.587  67.343  1.00  0.00    -0.318 C  
BRANCH   6   7
HETATM    7  C   UNL     1     -10.768  13.372  66.655  1.00  0.00    -0.282 C  
BRANCH   7   8
HETATM    8  N   UNL     1     -10.573  12.001  66.214  1.00  0.00    -0.244 N  
HETATM    9  C   UNL     1      -9.414  11.314  66.514  1.00  0.00    -0.193 C  
HETATM   10  H   UNL     1     -11.305  11.539  65.674  1.00  0.00     0.000 HD 
HETATM   11  O   UNL     1      -8.485  11.816  67.133  1.00  0.00    -0.156 OA 
BRANCH   9  12
HETATM   12  C   UNL     1      -9.377   9.878  66.145  1.00  0.00    -0.232 A  
HETATM   13  C   UNL     1     -10.157   9.003  66.924  1.00  0.00    -0.338 A  
HETATM   14  C   UNL     1      -9.985   7.622  66.824  1.00  0.00    -0.247 A  
HETATM   15  C   UNL     1      -9.010   7.079  65.976  1.00  0.00    -0.107 A  
HETATM   16 CL   UNL     1     -10.928   6.602  67.855  1.00  0.00    -0.340 Cl 
HETATM   17  C   UNL     1      -8.310   7.952  65.135  1.00  0.00    -0.128 A  
HETATM   18  N   UNL     1      -8.853   5.690  65.816  1.00  0.00    -0.153 NA 
HETATM   19  H1  UNL     1      -8.143   5.294  65.199  1.00  0.00     0.000 HD 
HETATM   20  C   UNL     1      -8.467   9.346  65.219  1.00  0.00    -0.149 A  
HETATM   21  H2  UNL     1      -9.756   5.304  65.539  1.00  0.00     0.000 HD 
BRANCH  20  22
HETATM   22  O   UNL     1      -7.592  10.036  64.421  1.00  0.00    -0.139 OA 
HETATM   23  C   UNL     1      -6.761   9.252  63.570  1.00  0.00    -0.092 C  
ENDBRANCH  20  22
ENDBRANCH   9  12
ENDBRANCH   7   8
ENDBRANCH   6   7
ENDBRANCH   3   6
ENDBRANCH   2   3
TORSDOF 7
ENDMDL
MODEL      230
REMARK 921   NORMALIZED FREE ENERGY PREDICTED BY IDOCK:   -3.20 KCAL/MOL
REMARK 922        TOTAL FREE ENERGY PREDICTED BY IDOCK:   -5.23 KCAL/MOL
REMARK 923 INTER-LIGAND FREE ENERGY PREDICTED BY IDOCK:   -4.38 KCAL/MOL
REMARK 924 INTRA-LIGAND FREE ENERGY PREDICTED BY IDOCK:   -0.85 KCAL/MOL
REMARK 927      BINDING AFFINITY PREDICTED BY RF-SCORE:    0.00 PKD
ROOT
HETATM    1  C   UNL     1      -7.914   8.237  72.781  1.00  0.00    -0.194 C  
HETATM    2  C   UNL     1      -9.187   7.639  72.192  1.00  0.00    -0.141 C  
ENDROOT
BRANCH   2   3
HETATM    3  N   UNL     1      -9.042   6.265  71.676  1.00  0.00    -0.145 NA 
BRANCH   3   4
HETATM    4  C   UNL     1      -9.610   5.233  72.566  1.00  0.00    -0.149 C  
HETATM    5  C   UNL     1     -11.009   5.500  73.117  1.00  0.00    -0.340 C  
ENDBRANCH   3   4
BRANCH   3   6
HETATM    6  C   UNL     1      -9.592   6.131  70.305  1.00  0.00    -0.163 C  
BRANCH   6   7
HETATM    7  C   UNL     1      -8.777   6.822  69.199  1.00  0.00    -0.131 C  
BRANCH   7   8
HETATM    8  N   UNL     1      -9.463   7.967  68.628  1.00  0.00    -0.146 N  
HETATM    9  C   UNL     1      -8.977   9.248  68.800  1.00  0.00    -0.132 C  
HETATM   10  H   UNL     1     -10.318   7.823  68.091  1.00  0.00     0.000 HD 
HETATM   11  O   UNL     1      -7.974   9.496  69.455  1.00  0.00    -0.090 OA 
BRANCH   9  12
HETATM   12  C   UNL     1      -9.669  10.328  68.055  1.00  0.00    -0.167 A  
HETATM   13  C   UNL     1     -10.301  11.324  68.821  1.00  0.00    -0.223 A  
HETATM   14  C   UNL     1     -11.187  12.221  68.226  1.00  0.00    -0.267 A  
HETATM   15  C   UNL     1     -11.496  12.128  66.862  1.00  0.00    -0.351 A  
HETATM   16 CL   UNL     1     -11.982  13.381  69.234  1.00  0.00    -0.372 Cl 
HETATM   17  C   UNL     1     -10.790  11.198  66.090  1.00  0.00    -0.247 A  
HETATM   18  N   UNL     1     -12.345  13.052  66.225  1.00  0.00    -0.452 NA 
HETATM   19  H1  UNL     1     -12.570  12.984  65.232  1.00  0.00     0.000 HD 
HETATM   20  C   UNL     1      -9.892  10.284  66.670  1.00  0.00    -0.204 A  
HETATM   21  H2  UNL     1     -11.972  13.986  66.396  1.00  0.00     0.000 HD 
BRANCH  20  22
HETATM   22  O   UNL     1      -9.412   9.361  65.778  1.00  0.00    -0.221 OA 
HETATM   23  C   UNL     1      -9.234   9.810  64.438  1.00  0.00    -0.245 C  
ENDBRANCH  20  22
ENDBRANCH   9  12
ENDBRANCH   7   8
ENDBRANCH   6   7
ENDBRANCH   3   6
ENDBRANCH   2   3
TORSDOF 7
ENDMDL
MODEL      231
REMARK 921   NORMALIZED FREE ENERGY PREDICTED BY IDOCK:   -3.20 KCAL/MOL
REMARK 922        TOTAL FREE ENERGY PREDICTED BY IDOCK:   -5.23 KCAL/MOL
REMARK 923 INTER-LIGAND FREE ENERGY PREDICTED BY IDOCK:   -4.59 KCAL/MOL
REMARK 924 INTRA-LIGAND FREE ENERGY PREDICTED BY IDOCK:   -0.64 KCAL/MOL
REMARK 927      BINDING AFFINITY PREDICTED BY RF-SCORE:    0.00 PKD
ROOT
HETATM    1  C   UNL     1     -11.279   3.361  73.242  1.00  0.00    -0.197 C  
HETATM    2  C   UNL     1     -10.750   4.630  72.582  1.00  0.00    -0.181 C  
ENDROOT
BRANCH   2   3
HETATM    3  N   UNL     1     -10.931   5.859  73.375  1.00  0.00    -0.243 NA 
BRANCH   3   4
HETATM    4  C   UNL     1      -9.709   6.297  74.079  1.00  0.00    -0.210 C  
HETATM    5  C   UNL     1      -8.438   5.493  73.807  1.00  0.00    -0.114 C  
ENDBRANCH   3   4
BRANCH   3   6
HETATM    6  C   UNL     1     -11.488   6.965  72.559  1.00  0.00    -0.230 C  
BRANCH   6   7
HETATM    7  C   UNL     1     -10.608   8.223  72.470  1.00  0.00    -0.337 C  
BRANCH   7   8
HETATM    8  N   UNL     1     -10.244   8.558  71.104  1.00  0.00    -0.201 N  
HETATM    9  C   UNL     1     -11.074   9.329  70.314  1.00  0.00    -0.251 C  
HETATM   10  H   UNL     1      -9.361   8.219  70.723  1.00  0.00     0.000 HD 
HETATM   11  O   UNL     1     -12.159   9.745  70.697  1.00  0.00    -0.274 OA 
BRANCH   9  12
HETATM   12  C   UNL     1     -10.543   9.734  68.990  1.00  0.00    -0.238 A  
HETATM   13  C   UNL     1     -11.244  10.746  68.308  1.00  0.00    -0.358 A  
HETATM   14  C   UNL     1     -10.982  11.007  66.963  1.00  0.00    -0.272 A  
HETATM   15  C   UNL     1     -10.043  10.245  66.253  1.00  0.00    -0.236 A  
HETATM   16 CL   UNL     1     -11.923  12.218  66.164  1.00  0.00    -0.406 Cl 
HETATM   17  C   UNL     1      -9.283   9.309  66.964  1.00  0.00    -0.169 A  
HETATM   18  N   UNL     1      -9.721  10.521  64.911  1.00  0.00    -0.273 NA 
HETATM   19  H1  UNL     1      -9.038   9.966  64.395  1.00  0.00     0.000 HD 
HETATM   20  C   UNL     1      -9.531   9.030  68.320  1.00  0.00    -0.146 A  
HETATM   21  H2  UNL     1      -9.435  11.498  64.856  1.00  0.00     0.000 HD 
BRANCH  20  22
HETATM   22  O   UNL     1      -8.786   7.985  68.799  1.00  0.00    -0.131 OA 
HETATM   23  C   UNL     1      -9.179   6.683  68.378  1.00  0.00    -0.122 C  
ENDBRANCH  20  22
ENDBRANCH   9  12
ENDBRANCH   7   8
ENDBRANCH   6   7
ENDBRANCH   3   6
ENDBRANCH   2   3
TORSDOF 7
ENDMDL
MODEL      232
REMARK 921   NORMALIZED FREE ENERGY PREDICTED BY IDOCK:   -3.20 KCAL/MOL
REMARK 922        TOTAL FREE ENERGY PREDICTED BY IDOCK:   -5.22 KCAL/MOL
REMARK 923 INTER-LIGAND FREE ENERGY PREDICTED BY IDOCK:   -4.49 KCAL/MOL
REMARK 924 INTRA-LIGAND FREE ENERGY PREDICTED BY IDOCK:   -0.73 KCAL/MOL
REMARK 927      BINDING AFFINITY PREDICTED BY RF-SCORE:    0.00 PKD
ROOT
HETATM    1  C   UNL     1      -9.538   2.379  64.255  1.00  0.00    -0.135 C  
HETATM    2  C   UNL     1      -9.598   3.724  64.973  1.00  0.00    -0.177 C  
ENDROOT
BRANCH   2   3
HETATM    3  N   UNL     1      -8.538   3.936  65.975  1.00  0.00    -0.110 NA 
BRANCH   3   4
HETATM    4  C   UNL     1      -7.356   4.648  65.448  1.00  0.00    -0.076 C  
HETATM    5  C   UNL     1      -7.630   5.845  64.538  1.00  0.00    -0.087 C  
ENDBRANCH   3   4
BRANCH   3   6
HETATM    6  C   UNL     1      -9.055   4.611  67.190  1.00  0.00    -0.122 C  
BRANCH   6   7
HETATM    7  C   UNL     1     -10.519   5.076  67.110  1.00  0.00    -0.117 C  
BRANCH   7   8
HETATM    8  N   UNL     1     -10.715   6.408  67.654  1.00  0.00    -0.273 N  
HETATM    9  C   UNL     1     -10.829   6.613  69.015  1.00  0.00    -0.277 C  
HETATM   10  H   UNL     1     -10.770   7.206  67.020  1.00  0.00     0.000 HD 
HETATM   11  O   UNL     1     -10.800   5.700  69.830  1.00  0.00    -0.336 OA 
BRANCH   9  12
HETATM   12  C   UNL     1     -10.879   8.022  69.474  1.00  0.00    -0.135 A  
HETATM   13  C   UNL     1     -11.687   8.297  70.592  1.00  0.00    -0.153 A  
HETATM   14  C   UNL     1     -12.003   9.613  70.932  1.00  0.00    -0.309 A  
HETATM   15  C   UNL     1     -11.555  10.685  70.148  1.00  0.00    -0.330 A  
HETATM   16 CL   UNL     1     -13.055   9.882  72.280  1.00  0.00    -0.478 Cl 
HETATM   17  C   UNL     1     -10.673  10.407  69.098  1.00  0.00    -0.266 A  
HETATM   18  N   UNL     1     -11.814  12.023  70.499  1.00  0.00    -0.510 NA 
HETATM   19  H1  UNL     1     -11.488  12.803  69.928  1.00  0.00     0.000 HD 
HETATM   20  C   UNL     1     -10.341   9.089  68.738  1.00  0.00    -0.215 A  
HETATM   21  H2  UNL     1     -11.472  12.167  71.448  1.00  0.00     0.000 HD 
BRANCH  20  22
HETATM   22  O   UNL     1      -9.585   9.017  67.598  1.00  0.00    -0.144 OA 
HETATM   23  C   UNL     1     -10.092   9.704  66.458  1.00  0.00    -0.244 C  
ENDBRANCH  20  22
ENDBRANCH   9  12
ENDBRANCH   7   8
ENDBRANCH   6   7
ENDBRANCH   3   6
ENDBRANCH   2   3
TORSDOF 7
ENDMDL
MODEL      233
REMARK 921   NORMALIZED FREE ENERGY PREDICTED BY IDOCK:   -3.18 KCAL/MOL
REMARK 922        TOTAL FREE ENERGY PREDICTED BY IDOCK:   -5.20 KCAL/MOL
REMARK 923 INTER-LIGAND FREE ENERGY PREDICTED BY IDOCK:   -5.66 KCAL/MOL
REMARK 924 INTRA-LIGAND FREE ENERGY PREDICTED BY IDOCK:    0.46 KCAL/MOL
REMARK 927      BINDING AFFINITY PREDICTED BY RF-SCORE:    0.00 PKD
ROOT
HETATM    1  C   UNL     1     -10.771  11.169  64.661  1.00  0.00    -0.350 C  
HETATM    2  C   UNL     1      -9.621  11.572  65.578  1.00  0.00    -0.227 C  
ENDROOT
BRANCH   2   3
HETATM    3  N   UNL     1      -8.780  10.453  66.041  1.00  0.00    -0.147 NA 
BRANCH   3   4
HETATM    4  C   UNL     1      -7.759  10.847  67.033  1.00  0.00    -0.129 C  
HETATM    5  C   UNL     1      -6.341  11.061  66.505  1.00  0.00    -0.132 C  
ENDBRANCH   3   4
BRANCH   3   6
HETATM    6  C   UNL     1      -9.597   9.326  66.554  1.00  0.00    -0.224 C  
BRANCH   6   7
HETATM    7  C   UNL     1     -10.248   9.557  67.927  1.00  0.00    -0.205 C  
BRANCH   7   8
HETATM    8  N   UNL     1     -10.504  10.962  68.197  1.00  0.00    -0.173 N  
HETATM    9  C   UNL     1     -11.718  11.380  68.703  1.00  0.00    -0.329 C  
HETATM   10  H   UNL     1      -9.775  11.650  68.010  1.00  0.00     0.000 HD 
HETATM   11  O   UNL     1     -12.647  10.613  68.924  1.00  0.00    -0.200 OA 
BRANCH   9  12
HETATM   12  C   UNL     1     -11.825  12.811  69.080  1.00  0.00    -0.344 A  
HETATM   13  C   UNL     1     -11.254  13.744  68.195  1.00  0.00    -0.298 A  
HETATM   14  C   UNL     1     -11.074  15.071  68.585  1.00  0.00    -0.264 A  
HETATM   15  C   UNL     1     -11.421  15.495  69.875  1.00  0.00    -0.327 A  
HETATM   16 CL   UNL     1     -10.306  16.155  67.475  1.00  0.00    -0.280 Cl 
HETATM   17  C   UNL     1     -12.077  14.584  70.711  1.00  0.00    -0.398 A  
HETATM   18  N   UNL     1     -11.299  16.838  70.276  1.00  0.00    -0.354 NA 
HETATM   19  H1  UNL     1     -11.552  17.146  71.215  1.00  0.00     0.000 HD 
HETATM   20  C   UNL     1     -12.270  13.242  70.339  1.00  0.00    -0.332 A  
HETATM   21  H2  UNL     1     -11.819  17.410  69.610  1.00  0.00     0.000 HD 
BRANCH  20  22
HETATM   22  O   UNL     1     -12.796  12.474  71.344  1.00  0.00    -0.366 OA 
HETATM   23  C   UNL     1     -13.644  13.143  72.272  1.00  0.00    -0.581 C  
ENDBRANCH  20  22
ENDBRANCH   9  12
ENDBRANCH   7   8
ENDBRANCH   6   7
ENDBRANCH   3   6
ENDBRANCH   2   3
TORSDOF 7
ENDMDL
MODEL      234
REMARK 921   NORMALIZED FREE ENERGY PREDICTED BY IDOCK:   -3.18 KCAL/MOL
REMARK 922        TOTAL FREE ENERGY PREDICTED BY IDOCK:   -5.20 KCAL/MOL
REMARK 923 INTER-LIGAND FREE ENERGY PREDICTED BY IDOCK:   -4.62 KCAL/MOL
REMARK 924 INTRA-LIGAND FREE ENERGY PREDICTED BY IDOCK:   -0.58 KCAL/MOL
REMARK 927      BINDING AFFINITY PREDICTED BY RF-SCORE:    0.00 PKD
ROOT
HETATM    1  C   UNL     1     -10.194  10.638  65.534  1.00  0.00    -0.329 C  
HETATM    2  C   UNL     1     -10.537  12.125  65.526  1.00  0.00    -0.277 C  
ENDROOT
BRANCH   2   3
HETATM    3  N   UNL     1     -10.943  12.671  66.834  1.00  0.00    -0.254 NA 
BRANCH   3   4
HETATM    4  C   UNL     1     -11.666  13.955  66.743  1.00  0.00    -0.399 C  
HETATM    5  C   UNL     1     -10.891  15.136  66.160  1.00  0.00    -0.330 C  
ENDBRANCH   3   4
BRANCH   3   6
HETATM    6  C   UNL     1     -11.723  11.688  67.623  1.00  0.00    -0.228 C  
BRANCH   6   7
HETATM    7  C   UNL     1     -11.288  11.528  69.089  1.00  0.00    -0.286 C  
BRANCH   7   8
HETATM    8  N   UNL     1     -10.354  10.432  69.281  1.00  0.00    -0.217 N  
HETATM    9  C   UNL     1     -10.439   9.607  70.384  1.00  0.00    -0.293 C  
HETATM   10  H   UNL     1      -9.623  10.269  68.588  1.00  0.00     0.000 HD 
HETATM   11  O   UNL     1     -11.273   9.762  71.267  1.00  0.00    -0.361 OA 
BRANCH   9  12
HETATM   12  C   UNL     1      -9.533   8.433  70.410  1.00  0.00    -0.179 A  
HETATM   13  C   UNL     1     -10.119   7.175  70.183  1.00  0.00    -0.195 A  
HETATM   14  C   UNL     1      -9.406   6.004  70.444  1.00  0.00    -0.160 A  
HETATM   15  C   UNL     1      -8.109   6.055  70.973  1.00  0.00    -0.121 A  
HETATM   16 CL   UNL     1     -10.205   4.488  70.207  1.00  0.00    -0.237 Cl 
HETATM   17  C   UNL     1      -7.501   7.309  71.102  1.00  0.00    -0.079 A  
HETATM   18  N   UNL     1      -7.349   4.892  71.195  1.00  0.00    -0.066 NA 
HETATM   19  H1  UNL     1      -6.405   4.929  71.580  1.00  0.00     0.000 HD 
HETATM   20  C   UNL     1      -8.200   8.501  70.844  1.00  0.00    -0.133 A  
HETATM   21  H2  UNL     1      -7.307   4.375  70.317  1.00  0.00     0.000 HD 
BRANCH  20  22
HETATM   22  O   UNL     1      -7.486   9.625  71.167  1.00  0.00    -0.328 OA 
HETATM   23  C   UNL     1      -6.746  10.230  70.111  1.00  0.00    -0.146 C  
ENDBRANCH  20  22
ENDBRANCH   9  12
ENDBRANCH   7   8
ENDBRANCH   6   7
ENDBRANCH   3   6
ENDBRANCH   2   3
TORSDOF 7
ENDMDL
MODEL      235
REMARK 921   NORMALIZED FREE ENERGY PREDICTED BY IDOCK:   -3.18 KCAL/MOL
REMARK 922        TOTAL FREE ENERGY PREDICTED BY IDOCK:   -5.19 KCAL/MOL
REMARK 923 INTER-LIGAND FREE ENERGY PREDICTED BY IDOCK:   -4.80 KCAL/MOL
REMARK 924 INTRA-LIGAND FREE ENERGY PREDICTED BY IDOCK:   -0.39 KCAL/MOL
REMARK 927      BINDING AFFINITY PREDICTED BY RF-SCORE:    0.00 PKD
ROOT
HETATM    1  C   UNL     1      -6.531   7.073  64.050  1.00  0.00    -0.043 C  
HETATM    2  C   UNL     1      -6.619   7.360  65.546  1.00  0.00    -0.045 C  
ENDROOT
BRANCH   2   3
HETATM    3  N   UNL     1      -7.691   8.296  65.931  1.00  0.00    -0.084 NA 
BRANCH   3   4
HETATM    4  C   UNL     1      -7.506   8.893  67.270  1.00  0.00    -0.084 C  
HETATM    5  C   UNL     1      -6.839   8.010  68.324  1.00  0.00    -0.072 C  
ENDBRANCH   3   4
BRANCH   3   6
HETATM    6  C   UNL     1      -7.891   9.355  64.912  1.00  0.00    -0.117 C  
BRANCH   6   7
HETATM    7  C   UNL     1      -9.352   9.607  64.505  1.00  0.00    -0.182 C  
BRANCH   7   8
HETATM    8  N   UNL     1      -9.867  10.867  65.012  1.00  0.00    -0.258 N  
HETATM    9  C   UNL     1     -10.489  10.939  66.242  1.00  0.00    -0.245 C  
HETATM   10  H   UNL     1      -9.767  11.712  64.449  1.00  0.00     0.000 HD 
HETATM   11  O   UNL     1     -10.668   9.961  66.956  1.00  0.00    -0.231 OA 
BRANCH   9  12
HETATM   12  C   UNL     1     -10.845  12.295  66.729  1.00  0.00    -0.291 A  
HETATM   13  C   UNL     1     -10.149  13.377  66.160  1.00  0.00    -0.304 A  
HETATM   14  C   UNL     1     -10.224  14.647  66.731  1.00  0.00    -0.268 A  
HETATM   15  C   UNL     1     -10.963  14.865  67.902  1.00  0.00    -0.286 A  
HETATM   16 CL   UNL     1      -9.293  15.922  66.023  1.00  0.00    -0.377 Cl 
HETATM   17  C   UNL     1     -11.729  13.806  68.403  1.00  0.00    -0.393 A  
HETATM   18  N   UNL     1     -11.099  16.146  68.469  1.00  0.00    -0.341 NA 
HETATM   19  H1  UNL     1     -11.636  16.305  69.322  1.00  0.00     0.000 HD 
HETATM   20  C   UNL     1     -11.668  12.518  67.843  1.00  0.00    -0.359 A  
HETATM   21  H2  UNL     1     -11.467  16.767  67.749  1.00  0.00     0.000 HD 
BRANCH  20  22
HETATM   22  O   UNL     1     -12.373  11.586  68.558  1.00  0.00    -0.459 OA 
HETATM   23  C   UNL     1     -11.930  11.345  69.891  1.00  0.00    -0.359 C  
ENDBRANCH  20  22
ENDBRANCH   9  12
ENDBRANCH   7   8
ENDBRANCH   6   7
ENDBRANCH   3   6
ENDBRANCH   2   3
TORSDOF 7
ENDMDL
MODEL      236
REMARK 921   NORMALIZED FREE ENERGY PREDICTED BY IDOCK:   -3.17 KCAL/MOL
REMARK 922        TOTAL FREE ENERGY PREDICTED BY IDOCK:   -5.18 KCAL/MOL
REMARK 923 INTER-LIGAND FREE ENERGY PREDICTED BY IDOCK:   -4.72 KCAL/MOL
REMARK 924 INTRA-LIGAND FREE ENERGY PREDICTED BY IDOCK:   -0.47 KCAL/MOL
REMARK 927      BINDING AFFINITY PREDICTED BY RF-SCORE:    0.00 PKD
ROOT
HETATM    1  C   UNL     1     -12.302  12.568  63.515  1.00  0.00    -0.623 C  
HETATM    2  C   UNL     1     -12.468  13.038  64.957  1.00  0.00    -0.477 C  
ENDROOT
BRANCH   2   3
HETATM    3  N   UNL     1     -11.250  12.937  65.781  1.00  0.00    -0.287 NA 
BRANCH   3   4
HETATM    4  C   UNL     1     -10.287  14.033  65.556  1.00  0.00    -0.339 C  
HETATM    5  C   UNL     1     -10.831  15.456  65.680  1.00  0.00    -0.363 C  
ENDBRANCH   3   4
BRANCH   3   6
HETATM    6  C   UNL     1     -11.571  12.812  67.224  1.00  0.00    -0.360 C  
BRANCH   6   7
HETATM    7  C   UNL     1     -11.140  11.491  67.881  1.00  0.00    -0.256 C  
BRANCH   7   8
HETATM    8  N   UNL     1     -10.165  10.761  67.088  1.00  0.00    -0.204 N  
HETATM    9  C   UNL     1     -10.168   9.382  67.049  1.00  0.00    -0.255 C  
HETATM   10  H   UNL     1      -9.468  11.278  66.552  1.00  0.00     0.000 HD 
HETATM   11  O   UNL     1     -10.957   8.699  67.690  1.00  0.00    -0.096 OA 
BRANCH   9  12
HETATM   12  C   UNL     1      -9.228   8.741  66.097  1.00  0.00    -0.273 A  
HETATM   13  C   UNL     1      -8.992   9.418  64.887  1.00  0.00    -0.256 A  
HETATM   14  C   UNL     1      -8.340   8.778  63.832  1.00  0.00    -0.141 A  
HETATM   15  C   UNL     1      -7.940   7.439  63.941  1.00  0.00    -0.082 A  
HETATM   16 CL   UNL     1      -8.138   9.642  62.347  1.00  0.00    -0.131 Cl 
HETATM   17  C   UNL     1      -8.092   6.807  65.181  1.00  0.00    -0.132 A  
HETATM   18  N   UNL     1      -7.234   6.786  62.914  1.00  0.00    -0.058 NA 
HETATM   19  H1  UNL     1      -6.944   5.812  62.993  1.00  0.00     0.000 HD 
HETATM   20  C   UNL     1      -8.745   7.433  66.257  1.00  0.00    -0.149 A  
HETATM   21  H2  UNL     1      -6.405   7.342  62.705  1.00  0.00     0.000 HD 
BRANCH  20  22
HETATM   22  O   UNL     1      -8.925   6.605  67.334  1.00  0.00    -0.115 OA 
HETATM   23  C   UNL     1      -9.197   5.238  67.041  1.00  0.00    -0.116 C  
ENDBRANCH  20  22
ENDBRANCH   9  12
ENDBRANCH   7   8
ENDBRANCH   6   7
ENDBRANCH   3   6
ENDBRANCH   2   3
TORSDOF 7
ENDMDL
MODEL      237
REMARK 921   NORMALIZED FREE ENERGY PREDICTED BY IDOCK:   -3.17 KCAL/MOL
REMARK 922        TOTAL FREE ENERGY PREDICTED BY IDOCK:   -5.18 KCAL/MOL
REMARK 923 INTER-LIGAND FREE ENERGY PREDICTED BY IDOCK:   -4.74 KCAL/MOL
REMARK 924 INTRA-LIGAND FREE ENERGY PREDICTED BY IDOCK:   -0.44 KCAL/MOL
REMARK 927      BINDING AFFINITY PREDICTED BY RF-SCORE:    0.00 PKD
ROOT
HETATM    1  C   UNL     1      -7.599  16.177  68.493  1.00  0.00    -0.170 C  
HETATM    2  C   UNL     1      -8.296  16.957  67.382  1.00  0.00    -0.186 C  
ENDROOT
BRANCH   2   3
HETATM    3  N   UNL     1      -9.548  16.350  66.894  1.00  0.00    -0.237 NA 
BRANCH   3   4
HETATM    4  C   UNL     1     -10.297  17.207  65.955  1.00  0.00    -0.284 C  
HETATM    5  C   UNL     1     -10.373  18.694  66.299  1.00  0.00    -0.483 C  
ENDBRANCH   3   4
BRANCH   3   6
HETATM    6  C   UNL     1      -9.317  15.008  66.305  1.00  0.00    -0.307 C  
BRANCH   6   7
HETATM    7  C   UNL     1     -10.566  14.120  66.184  1.00  0.00    -0.293 C  
BRANCH   7   8
HETATM    8  N   UNL     1     -10.251  12.702  66.205  1.00  0.00    -0.246 N  
HETATM    9  C   UNL     1     -10.361  11.931  65.066  1.00  0.00    -0.289 C  
HETATM   10  H   UNL     1      -9.943  12.270  67.076  1.00  0.00     0.000 HD 
HETATM   11  O   UNL     1     -10.750  12.378  63.995  1.00  0.00    -0.338 OA 
BRANCH   9  12
HETATM   12  C   UNL     1      -9.876  10.532  65.160  1.00  0.00    -0.359 A  
HETATM   13  C   UNL     1     -10.445   9.730  66.166  1.00  0.00    -0.128 A  
HETATM   14  C   UNL     1      -9.874   8.501  66.499  1.00  0.00    -0.272 A  
HETATM   15  C   UNL     1      -8.705   8.057  65.867  1.00  0.00    -0.157 A  
HETATM   16 CL   UNL     1     -10.581   7.592  67.790  1.00  0.00    -0.288 Cl 
HETATM   17  C   UNL     1      -8.205   8.815  64.802  1.00  0.00    -0.163 A  
HETATM   18  N   UNL     1      -8.140   6.799  66.146  1.00  0.00    -0.110 NA 
HETATM   19  H1  UNL     1      -7.288   6.475  65.686  1.00  0.00     0.000 HD 
HETATM   20  C   UNL     1      -8.764  10.055  64.449  1.00  0.00    -0.199 A  
HETATM   21  H2  UNL     1      -8.861   6.093  65.997  1.00  0.00     0.000 HD 
BRANCH  20  22
HETATM   22  O   UNL     1      -8.050  10.713  63.482  1.00  0.00    -0.105 OA 
HETATM   23  C   UNL     1      -6.842  10.090  63.056  1.00  0.00    -0.128 C  
ENDBRANCH  20  22
ENDBRANCH   9  12
ENDBRANCH   7   8
ENDBRANCH   6   7
ENDBRANCH   3   6
ENDBRANCH   2   3
TORSDOF 7
ENDMDL
MODEL      238
REMARK 921   NORMALIZED FREE ENERGY PREDICTED BY IDOCK:   -3.17 KCAL/MOL
REMARK 922        TOTAL FREE ENERGY PREDICTED BY IDOCK:   -5.18 KCAL/MOL
REMARK 923 INTER-LIGAND FREE ENERGY PREDICTED BY IDOCK:   -4.42 KCAL/MOL
REMARK 924 INTRA-LIGAND FREE ENERGY PREDICTED BY IDOCK:   -0.76 KCAL/MOL
REMARK 927      BINDING AFFINITY PREDICTED BY RF-SCORE:    0.00 PKD
ROOT
HETATM    1  C   UNL     1      -9.667   3.242  70.129  1.00  0.00    -0.096 C  
HETATM    2  C   UNL     1      -8.980   4.487  70.680  1.00  0.00    -0.106 C  
ENDROOT
BRANCH   2   3
HETATM    3  N   UNL     1      -8.981   5.646  69.770  1.00  0.00    -0.126 NA 
BRANCH   3   4
HETATM    4  C   UNL     1     -10.131   5.673  68.843  1.00  0.00    -0.192 C  
HETATM    5  C   UNL     1      -9.851   6.162  67.423  1.00  0.00    -0.151 C  
ENDBRANCH   3   4
BRANCH   3   6
HETATM    6  C   UNL     1      -8.879   6.928  70.510  1.00  0.00    -0.155 C  
BRANCH   6   7
HETATM    7  C   UNL     1     -10.215   7.644  70.771  1.00  0.00    -0.201 C  
BRANCH   7   8
HETATM    8  N   UNL     1     -10.306   8.926  70.095  1.00  0.00    -0.199 N  
HETATM    9  C   UNL     1     -11.300   9.830  70.413  1.00  0.00    -0.297 C  
HETATM   10  H   UNL     1      -9.624   9.162  69.374  1.00  0.00     0.000 HD 
HETATM   11  O   UNL     1     -12.166   9.601  71.247  1.00  0.00    -0.316 OA 
BRANCH   9  12
HETATM   12  C   UNL     1     -11.216  11.164  69.770  1.00  0.00    -0.318 A  
HETATM   13  C   UNL     1     -11.845  12.231  70.437  1.00  0.00    -0.259 A  
HETATM   14  C   UNL     1     -12.045  13.451  69.792  1.00  0.00    -0.310 A  
HETATM   15  C   UNL     1     -11.659  13.630  68.457  1.00  0.00    -0.335 A  
HETATM   16 CL   UNL     1     -12.883  14.702  70.645  1.00  0.00    -0.405 Cl 
HETATM   17  C   UNL     1     -10.947  12.597  67.835  1.00  0.00    -0.262 A  
HETATM   18  N   UNL     1     -11.800  14.866  67.799  1.00  0.00    -0.471 NA 
HETATM   19  H1  UNL     1     -11.519  14.996  66.827  1.00  0.00     0.000 HD 
HETATM   20  C   UNL     1     -10.734  11.360  68.466  1.00  0.00    -0.201 A  
HETATM   21  H2  UNL     1     -11.321  15.572  68.359  1.00  0.00     0.000 HD 
BRANCH  20  22
HETATM   22  O   UNL     1     -10.150  10.430  67.647  1.00  0.00    -0.175 OA 
HETATM   23  C   UNL     1     -10.966   9.904  66.604  1.00  0.00     0.149 C  
ENDBRANCH  20  22
ENDBRANCH   9  12
ENDBRANCH   7   8
ENDBRANCH   6   7
ENDBRANCH   3   6
ENDBRANCH   2   3
TORSDOF 7
ENDMDL
MODEL      239
REMARK 921   NORMALIZED FREE ENERGY PREDICTED BY IDOCK:   -3.17 KCAL/MOL
REMARK 922        TOTAL FREE ENERGY PREDICTED BY IDOCK:   -5.18 KCAL/MOL
REMARK 923 INTER-LIGAND FREE ENERGY PREDICTED BY IDOCK:   -4.48 KCAL/MOL
REMARK 924 INTRA-LIGAND FREE ENERGY PREDICTED BY IDOCK:   -0.70 KCAL/MOL
REMARK 927      BINDING AFFINITY PREDICTED BY RF-SCORE:    0.00 PKD
ROOT
HETATM    1  C   UNL     1      -9.162   7.981  73.416  1.00  0.00    -0.332 C  
HETATM    2  C   UNL     1     -10.611   7.522  73.285  1.00  0.00    -0.384 C  
ENDROOT
BRANCH   2   3
HETATM    3  N   UNL     1     -11.233   7.811  71.980  1.00  0.00    -0.263 NA 
BRANCH   3   4
HETATM    4  C   UNL     1     -11.468   9.249  71.739  1.00  0.00    -0.378 C  
HETATM    5  C   UNL     1     -12.905   9.743  71.901  1.00  0.00    -0.520 C  
ENDBRANCH   3   4
BRANCH   3   6
HETATM    6  C   UNL     1     -10.467   7.213  70.859  1.00  0.00    -0.210 C  
BRANCH   6   7
HETATM    7  C   UNL     1     -11.318   6.573  69.750  1.00  0.00    -0.393 C  
BRANCH   7   8
HETATM    8  N   UNL     1     -10.528   5.776  68.827  1.00  0.00    -0.228 N  
HETATM    9  C   UNL     1     -10.536   6.038  67.472  1.00  0.00    -0.273 C  
HETATM   10  H   UNL     1      -9.959   5.010  69.186  1.00  0.00     0.000 HD 
HETATM   11  O   UNL     1     -11.217   6.923  66.969  1.00  0.00    -0.369 OA 
BRANCH   9  12
HETATM   12  C   UNL     1      -9.586   5.263  66.638  1.00  0.00    -0.160 A  
HETATM   13  C   UNL     1     -10.098   4.686  65.462  1.00  0.00    -0.204 A  
HETATM   14  C   UNL     1      -9.359   3.733  64.760  1.00  0.00    -0.155 A  
HETATM   15  C   UNL     1      -8.110   3.304  65.229  1.00  0.00    -0.093 A  
HETATM   16 CL   UNL     1     -10.071   3.013  63.357  1.00  0.00    -0.141 Cl 
HETATM   17  C   UNL     1      -7.568   3.955  66.343  1.00  0.00    -0.088 A  
HETATM   18  N   UNL     1      -7.320   2.385  64.513  1.00  0.00    -0.057 NA 
HETATM   19  H1  UNL     1      -6.412   2.073  64.854  1.00  0.00     0.000 HD 
HETATM   20  C   UNL     1      -8.295   4.917  67.065  1.00  0.00    -0.106 A  
HETATM   21  H2  UNL     1      -7.189   2.756  63.572  1.00  0.00     0.000 HD 
BRANCH  20  22
HETATM   22  O   UNL     1      -7.656   5.331  68.205  1.00  0.00    -0.078 OA 
HETATM   23  C   UNL     1      -6.904   4.343  68.902  1.00  0.00    -0.047 C  
ENDBRANCH  20  22
ENDBRANCH   9  12
ENDBRANCH   7   8
ENDBRANCH   6   7
ENDBRANCH   3   6
ENDBRANCH   2   3
TORSDOF 7
ENDMDL
MODEL      240
REMARK 921   NORMALIZED FREE ENERGY PREDICTED BY IDOCK:   -3.16 KCAL/MOL
REMARK 922        TOTAL FREE ENERGY PREDICTED BY IDOCK:   -5.17 KCAL/MOL
REMARK 923 INTER-LIGAND FREE ENERGY PREDICTED BY IDOCK:   -5.13 KCAL/MOL
REMARK 924 INTRA-LIGAND FREE ENERGY PREDICTED BY IDOCK:   -0.04 KCAL/MOL
REMARK 927      BINDING AFFINITY PREDICTED BY RF-SCORE:    0.00 PKD
ROOT
HETATM    1  C   UNL     1      -8.349   6.783  68.992  1.00  0.00    -0.124 C  
HETATM    2  C   UNL     1      -9.501   6.363  69.900  1.00  0.00    -0.154 C  
ENDROOT
BRANCH   2   3
HETATM    3  N   UNL     1     -10.615   7.327  69.968  1.00  0.00    -0.228 NA 
BRANCH   3   4
HETATM    4  C   UNL     1     -11.094   7.586  71.341  1.00  0.00    -0.238 C  
HETATM    5  C   UNL     1     -12.053   6.556  71.936  1.00  0.00    -0.388 C  
ENDBRANCH   3   4
BRANCH   3   6
HETATM    6  C   UNL     1     -10.285   8.600  69.283  1.00  0.00    -0.211 C  
BRANCH   6   7
HETATM    7  C   UNL     1     -10.442   9.867  70.139  1.00  0.00    -0.285 C  
BRANCH   7   8
HETATM    8  N   UNL     1     -10.490  11.081  69.342  1.00  0.00    -0.386 N  
HETATM    9  C   UNL     1      -9.504  11.366  68.419  1.00  0.00    -0.194 C  
HETATM   10  H   UNL     1     -11.264  11.733  69.468  1.00  0.00     0.000 HD 
HETATM   11  O   UNL     1      -8.534  10.643  68.237  1.00  0.00    -0.117 OA 
BRANCH   9  12
HETATM   12  C   UNL     1      -9.724  12.553  67.556  1.00  0.00    -0.196 A  
HETATM   13  C   UNL     1     -10.111  13.742  68.200  1.00  0.00    -0.245 A  
HETATM   14  C   UNL     1     -10.590  14.825  67.462  1.00  0.00    -0.259 A  
HETATM   15  C   UNL     1     -10.730  14.739  66.070  1.00  0.00    -0.312 A  
HETATM   16 CL   UNL     1     -11.112  16.235  68.318  1.00  0.00    -0.352 Cl 
HETATM   17  C   UNL     1     -10.251  13.590  65.431  1.00  0.00    -0.316 A  
HETATM   18  N   UNL     1     -11.159  15.833  65.296  1.00  0.00    -0.309 NA 
HETATM   19  H1  UNL     1     -11.262  15.770  64.283  1.00  0.00     0.000 HD 
HETATM   20  C   UNL     1      -9.765  12.487  66.155  1.00  0.00    -0.254 A  
HETATM   21  H2  UNL     1     -10.542  16.618  65.498  1.00  0.00     0.000 HD 
BRANCH  20  22
HETATM   22  O   UNL     1      -9.481  11.406  65.364  1.00  0.00    -0.221 OA 
HETATM   23  C   UNL     1     -10.512  10.984  64.476  1.00  0.00    -0.342 C  
ENDBRANCH  20  22
ENDBRANCH   9  12
ENDBRANCH   7   8
ENDBRANCH   6   7
ENDBRANCH   3   6
ENDBRANCH   2   3
TORSDOF 7
ENDMDL
MODEL      241
REMARK 921   NORMALIZED FREE ENERGY PREDICTED BY IDOCK:   -3.16 KCAL/MOL
REMARK 922        TOTAL FREE ENERGY PREDICTED BY IDOCK:   -5.16 KCAL/MOL
REMARK 923 INTER-LIGAND FREE ENERGY PREDICTED BY IDOCK:   -4.48 KCAL/MOL
REMARK 924 INTRA-LIGAND FREE ENERGY PREDICTED BY IDOCK:   -0.68 KCAL/MOL
REMARK 927      BINDING AFFINITY PREDICTED BY RF-SCORE:    0.00 PKD
ROOT
HETATM    1  C   UNL     1     -11.436  12.383  67.821  1.00  0.00    -0.383 C  
HETATM    2  C   UNL     1     -10.123  11.695  67.462  1.00  0.00    -0.191 C  
ENDROOT
BRANCH   2   3
HETATM    3  N   UNL     1     -10.263  10.519  66.583  1.00  0.00    -0.225 NA 
BRANCH   3   4
HETATM    4  C   UNL     1     -10.419  10.861  65.155  1.00  0.00    -0.246 C  
HETATM    5  C   UNL     1      -9.171  10.738  64.282  1.00  0.00    -0.246 C  
ENDBRANCH   3   4
BRANCH   3   6
HETATM    6  C   UNL     1      -9.150   9.556  66.770  1.00  0.00    -0.146 C  
BRANCH   6   7
HETATM    7  C   UNL     1      -8.480   9.588  68.153  1.00  0.00    -0.119 C  
BRANCH   7   8
HETATM    8  N   UNL     1      -9.073   8.645  69.086  1.00  0.00    -0.142 N  
HETATM    9  C   UNL     1      -8.787   8.703  70.435  1.00  0.00    -0.157 C  
HETATM   10  H   UNL     1      -9.711   7.930  68.738  1.00  0.00     0.000 HD 
HETATM   11  O   UNL     1      -8.009   9.516  70.917  1.00  0.00    -0.297 OA 
BRANCH   9  12
HETATM   12  C   UNL     1      -9.556   7.791  71.318  1.00  0.00    -0.178 A  
HETATM   13  C   UNL     1      -8.828   6.787  71.981  1.00  0.00    -0.134 A  
HETATM   14  C   UNL     1      -9.489   5.734  72.615  1.00  0.00    -0.149 A  
HETATM   15  C   UNL     1     -10.886   5.635  72.574  1.00  0.00    -0.251 A  
HETATM   16 CL   UNL     1      -8.536   4.495  73.357  1.00  0.00    -0.102 Cl 
HETATM   17  C   UNL     1     -11.604   6.689  71.997  1.00  0.00    -0.341 A  
HETATM   18  N   UNL     1     -11.581   4.614  73.250  1.00  0.00    -0.309 NA 
HETATM   19  H1  UNL     1     -12.598   4.541  73.219  1.00  0.00     0.000 HD 
HETATM   20  C   UNL     1     -10.958   7.759  71.353  1.00  0.00    -0.235 A  
HETATM   21  H2  UNL     1     -11.300   4.643  74.229  1.00  0.00     0.000 HD 
BRANCH  20  22
HETATM   22  O   UNL     1     -11.827   8.613  70.725  1.00  0.00    -0.265 OA 
HETATM   23  C   UNL     1     -12.633   9.429  71.569  1.00  0.00    -0.362 C  
ENDBRANCH  20  22
ENDBRANCH   9  12
ENDBRANCH   7   8
ENDBRANCH   6   7
ENDBRANCH   3   6
ENDBRANCH   2   3
TORSDOF 7
ENDMDL
MODEL      242
REMARK 921   NORMALIZED FREE ENERGY PREDICTED BY IDOCK:   -3.15 KCAL/MOL
REMARK 922        TOTAL FREE ENERGY PREDICTED BY IDOCK:   -5.15 KCAL/MOL
REMARK 923 INTER-LIGAND FREE ENERGY PREDICTED BY IDOCK:   -4.66 KCAL/MOL
REMARK 924 INTRA-LIGAND FREE ENERGY PREDICTED BY IDOCK:   -0.49 KCAL/MOL
REMARK 927      BINDING AFFINITY PREDICTED BY RF-SCORE:    0.00 PKD
ROOT
HETATM    1  C   UNL     1      -6.818   6.548  63.866  1.00  0.00    -0.045 C  
HETATM    2  C   UNL     1      -7.552   6.056  65.109  1.00  0.00    -0.089 C  
ENDROOT
BRANCH   2   3
HETATM    3  N   UNL     1      -8.624   6.949  65.586  1.00  0.00    -0.138 NA 
BRANCH   3   4
HETATM    4  C   UNL     1      -9.231   6.520  66.862  1.00  0.00    -0.140 C  
HETATM    5  C   UNL     1      -9.365   5.014  67.083  1.00  0.00    -0.132 C  
ENDBRANCH   3   4
BRANCH   3   6
HETATM    6  C   UNL     1      -8.168   8.358  65.673  1.00  0.00    -0.132 C  
BRANCH   6   7
HETATM    7  C   UNL     1      -8.946   9.355  64.798  1.00  0.00    -0.194 C  
BRANCH   7   8
HETATM    8  N   UNL     1      -9.436  10.497  65.549  1.00  0.00    -0.200 N  
HETATM    9  C   UNL     1     -10.436  10.355  66.491  1.00  0.00    -0.196 C  
HETATM   10  H   UNL     1      -9.035  11.420  65.378  1.00  0.00     0.000 HD 
HETATM   11  O   UNL     1     -10.980   9.285  66.727  1.00  0.00    -0.026 OA 
BRANCH   9  12
HETATM   12  C   UNL     1     -10.760  11.553  67.303  1.00  0.00    -0.286 A  
HETATM   13  C   UNL     1     -11.387  11.329  68.542  1.00  0.00    -0.341 A  
HETATM   14  C   UNL     1     -11.961  12.387  69.247  1.00  0.00    -0.253 A  
HETATM   15  C   UNL     1     -11.959  13.686  68.722  1.00  0.00    -0.359 A  
HETATM   16 CL   UNL     1     -12.775  12.036  70.733  1.00  0.00    -0.288 Cl 
HETATM   17  C   UNL     1     -11.247  13.915  67.538  1.00  0.00    -0.323 A  
HETATM   18  N   UNL     1     -12.482  14.780  69.436  1.00  0.00    -0.573 NA 
HETATM   19  H1  UNL     1     -12.481  15.725  69.053  1.00  0.00     0.000 HD 
HETATM   20  C   UNL     1     -10.661  12.864  66.811  1.00  0.00    -0.261 A  
HETATM   21  H2  UNL     1     -12.018  14.810  70.343  1.00  0.00     0.000 HD 
BRANCH  20  22
HETATM   22  O   UNL     1     -10.139  13.266  65.610  1.00  0.00    -0.287 OA 
HETATM   23  C   UNL     1     -10.421  14.604  65.214  1.00  0.00    -0.398 C  
ENDBRANCH  20  22
ENDBRANCH   9  12
ENDBRANCH   7   8
ENDBRANCH   6   7
ENDBRANCH   3   6
ENDBRANCH   2   3
TORSDOF 7
ENDMDL
MODEL      243
REMARK 921   NORMALIZED FREE ENERGY PREDICTED BY IDOCK:   -3.14 KCAL/MOL
REMARK 922        TOTAL FREE ENERGY PREDICTED BY IDOCK:   -5.14 KCAL/MOL
REMARK 923 INTER-LIGAND FREE ENERGY PREDICTED BY IDOCK:   -4.18 KCAL/MOL
REMARK 924 INTRA-LIGAND FREE ENERGY PREDICTED BY IDOCK:   -0.96 KCAL/MOL
REMARK 927      BINDING AFFINITY PREDICTED BY RF-SCORE:    0.00 PKD
ROOT
HETATM    1  C   UNL     1      -8.102   8.040  65.323  1.00  0.00    -0.138 C  
HETATM    2  C   UNL     1      -7.654   6.981  66.326  1.00  0.00    -0.092 C  
ENDROOT
BRANCH   2   3
HETATM    3  N   UNL     1      -8.687   6.576  67.297  1.00  0.00    -0.110 NA 
BRANCH   3   4
HETATM    4  C   UNL     1      -8.960   5.125  67.304  1.00  0.00    -0.112 C  
HETATM    5  C   UNL     1     -10.037   4.628  66.341  1.00  0.00    -0.289 C  
ENDBRANCH   3   4
BRANCH   3   6
HETATM    6  C   UNL     1      -8.373   7.054  68.666  1.00  0.00    -0.122 C  
BRANCH   6   7
HETATM    7  C   UNL     1      -9.421   7.991  69.290  1.00  0.00    -0.155 C  
BRANCH   7   8
HETATM    8  N   UNL     1      -9.358   9.340  68.754  1.00  0.00    -0.138 N  
HETATM    9  C   UNL     1     -10.196   9.740  67.733  1.00  0.00    -0.208 C  
HETATM   10  H   UNL     1      -8.683  10.001  69.138  1.00  0.00     0.000 HD 
HETATM   11  O   UNL     1     -11.009   8.991  67.207  1.00  0.00    -0.137 OA 
BRANCH   9  12
HETATM   12  C   UNL     1     -10.152  11.175  67.360  1.00  0.00    -0.213 A  
HETATM   13  C   UNL     1     -11.322  11.722  66.802  1.00  0.00    -0.385 A  
HETATM   14  C   UNL     1     -11.295  12.973  66.185  1.00  0.00    -0.314 A  
HETATM   15  C   UNL     1     -10.099  13.694  66.075  1.00  0.00    -0.312 A  
HETATM   16 CL   UNL     1     -12.752  13.561  65.460  1.00  0.00    -0.529 Cl 
HETATM   17  C   UNL     1      -8.964  13.187  66.718  1.00  0.00    -0.183 A  
HETATM   18  N   UNL     1     -10.054  14.981  65.506  1.00  0.00    -0.354 NA 
HETATM   19  H1  UNL     1      -9.183  15.505  65.426  1.00  0.00     0.000 HD 
HETATM   20  C   UNL     1      -8.969  11.929  67.346  1.00  0.00    -0.173 A  
HETATM   21  H2  UNL     1     -10.725  15.565  66.005  1.00  0.00     0.000 HD 
BRANCH  20  22
HETATM   22  O   UNL     1      -7.731  11.543  67.788  1.00  0.00    -0.113 OA 
HETATM   23  C   UNL     1      -7.078  12.429  68.693  1.00  0.00    -0.103 C  
ENDBRANCH  20  22
ENDBRANCH   9  12
ENDBRANCH   7   8
ENDBRANCH   6   7
ENDBRANCH   3   6
ENDBRANCH   2   3
TORSDOF 7
ENDMDL
MODEL      244
REMARK 921   NORMALIZED FREE ENERGY PREDICTED BY IDOCK:   -3.14 KCAL/MOL
REMARK 922        TOTAL FREE ENERGY PREDICTED BY IDOCK:   -5.14 KCAL/MOL
REMARK 923 INTER-LIGAND FREE ENERGY PREDICTED BY IDOCK:   -4.45 KCAL/MOL
REMARK 924 INTRA-LIGAND FREE ENERGY PREDICTED BY IDOCK:   -0.69 KCAL/MOL
REMARK 927      BINDING AFFINITY PREDICTED BY RF-SCORE:    0.00 PKD
ROOT
HETATM    1  C   UNL     1      -9.207  17.730  68.371  1.00  0.00    -0.285 C  
HETATM    2  C   UNL     1      -8.748  16.341  68.803  1.00  0.00    -0.244 C  
ENDROOT
BRANCH   2   3
HETATM    3  N   UNL     1      -9.742  15.576  69.577  1.00  0.00    -0.274 NA 
BRANCH   3   4
HETATM    4  C   UNL     1     -10.969  16.338  69.887  1.00  0.00    -0.365 C  
HETATM    5  C   UNL     1     -12.213  15.520  70.229  1.00  0.00    -0.432 C  
ENDBRANCH   3   4
BRANCH   3   6
HETATM    6  C   UNL     1     -10.079  14.289  68.922  1.00  0.00    -0.175 C  
BRANCH   6   7
HETATM    7  C   UNL     1      -8.886  13.523  68.327  1.00  0.00    -0.179 C  
BRANCH   7   8
HETATM    8  N   UNL     1      -9.099  12.086  68.301  1.00  0.00    -0.193 N  
HETATM    9  C   UNL     1      -9.371  11.428  67.118  1.00  0.00    -0.172 C  
HETATM   10  H   UNL     1      -9.047  11.555  69.170  1.00  0.00     0.000 HD 
HETATM   11  O   UNL     1      -9.476  12.005  66.044  1.00  0.00    -0.234 OA 
BRANCH   9  12
HETATM   12  C   UNL     1      -9.426   9.947  67.179  1.00  0.00    -0.190 A  
HETATM   13  C   UNL     1      -8.766   9.245  66.154  1.00  0.00    -0.169 A  
HETATM   14  C   UNL     1      -8.981   7.878  65.979  1.00  0.00    -0.154 A  
HETATM   15  C   UNL     1      -9.884   7.182  66.795  1.00  0.00    -0.205 A  
HETATM   16 CL   UNL     1      -8.190   7.085  64.660  1.00  0.00    -0.074 Cl 
HETATM   17  C   UNL     1     -10.459   7.867  67.871  1.00  0.00    -0.261 A  
HETATM   18  N   UNL     1     -10.079   5.794  66.675  1.00  0.00    -0.180 NA 
HETATM   19  H1  UNL     1     -10.736   5.288  67.269  1.00  0.00     0.000 HD 
HETATM   20  C   UNL     1     -10.257   9.245  68.066  1.00  0.00    -0.209 A  
HETATM   21  H2  UNL     1      -9.168   5.343  66.765  1.00  0.00     0.000 HD 
BRANCH  20  22
HETATM   22  O   UNL     1     -11.017   9.763  69.081  1.00  0.00    -0.222 OA 
HETATM   23  C   UNL     1     -11.043   9.018  70.295  1.00  0.00    -0.235 C  
ENDBRANCH  20  22
ENDBRANCH   9  12
ENDBRANCH   7   8
ENDBRANCH   6   7
ENDBRANCH   3   6
ENDBRANCH   2   3
TORSDOF 7
ENDMDL
MODEL      245
REMARK 921   NORMALIZED FREE ENERGY PREDICTED BY IDOCK:   -3.13 KCAL/MOL
REMARK 922        TOTAL FREE ENERGY PREDICTED BY IDOCK:   -5.12 KCAL/MOL
REMARK 923 INTER-LIGAND FREE ENERGY PREDICTED BY IDOCK:   -4.37 KCAL/MOL
REMARK 924 INTRA-LIGAND FREE ENERGY PREDICTED BY IDOCK:   -0.74 KCAL/MOL
REMARK 927      BINDING AFFINITY PREDICTED BY RF-SCORE:    0.00 PKD
ROOT
HETATM    1  C   UNL     1      -8.348  13.042  67.917  1.00  0.00    -0.170 C  
HETATM    2  C   UNL     1      -8.566  12.166  66.687  1.00  0.00    -0.122 C  
ENDROOT
BRANCH   2   3
HETATM    3  N   UNL     1      -9.980  11.922  66.346  1.00  0.00    -0.209 NA 
BRANCH   3   4
HETATM    4  C   UNL     1     -10.534  12.892  65.381  1.00  0.00    -0.292 C  
HETATM    5  C   UNL     1     -11.973  13.348  65.621  1.00  0.00    -0.439 C  
ENDBRANCH   3   4
BRANCH   3   6
HETATM    6  C   UNL     1     -10.201  10.533  65.875  1.00  0.00    -0.245 C  
BRANCH   6   7
HETATM    7  C   UNL     1      -9.162   9.505  66.352  1.00  0.00    -0.166 C  
BRANCH   7   8
HETATM    8  N   UNL     1      -9.501   8.919  67.637  1.00  0.00    -0.136 N  
HETATM    9  C   UNL     1     -10.318   7.810  67.721  1.00  0.00    -0.221 C  
HETATM   10  H   UNL     1      -9.128   9.333  68.491  1.00  0.00     0.000 HD 
HETATM   11  O   UNL     1     -10.822   7.279  66.740  1.00  0.00    -0.311 OA 
BRANCH   9  12
HETATM   12  C   UNL     1     -10.482   7.204  69.065  1.00  0.00    -0.221 A  
HETATM   13  C   UNL     1     -11.781   7.200  69.605  1.00  0.00     0.116 A  
HETATM   14  C   UNL     1     -11.988   6.897  70.951  1.00  0.00    -0.381 A  
HETATM   15  C   UNL     1     -10.907   6.627  71.801  1.00  0.00    -0.233 A  
HETATM   16 CL   UNL     1     -13.602   6.973  71.571  1.00  0.00    -0.401 Cl 
HETATM   17  C   UNL     1      -9.631   6.537  71.233  1.00  0.00    -0.175 A  
HETATM   18  N   UNL     1     -11.091   6.266  73.149  1.00  0.00    -0.425 NA 
HETATM   19  H1  UNL     1     -10.304   6.070  73.768  1.00  0.00     0.000 HD 
HETATM   20  C   UNL     1      -9.400   6.838  69.880  1.00  0.00    -0.157 A  
HETATM   21  H2  UNL     1     -11.714   5.460  73.173  1.00  0.00     0.000 HD 
BRANCH  20  22
HETATM   22  O   UNL     1      -8.070   6.837  69.547  1.00  0.00    -0.122 OA 
HETATM   23  C   UNL     1      -7.226   7.693  70.311  1.00  0.00    -0.067 C  
ENDBRANCH  20  22
ENDBRANCH   9  12
ENDBRANCH   7   8
ENDBRANCH   6   7
ENDBRANCH   3   6
ENDBRANCH   2   3
TORSDOF 7
ENDMDL
MODEL      246
REMARK 921   NORMALIZED FREE ENERGY PREDICTED BY IDOCK:   -3.12 KCAL/MOL
REMARK 922        TOTAL FREE ENERGY PREDICTED BY IDOCK:   -5.11 KCAL/MOL
REMARK 923 INTER-LIGAND FREE ENERGY PREDICTED BY IDOCK:   -4.48 KCAL/MOL
REMARK 924 INTRA-LIGAND FREE ENERGY PREDICTED BY IDOCK:   -0.63 KCAL/MOL
REMARK 927      BINDING AFFINITY PREDICTED BY RF-SCORE:    0.00 PKD
ROOT
HETATM    1  C   UNL     1     -11.109   3.934  73.581  1.00  0.00    -0.328 C  
HETATM    2  C   UNL     1     -10.605   5.174  72.848  1.00  0.00    -0.232 C  
ENDROOT
BRANCH   2   3
HETATM    3  N   UNL     1     -10.387   6.352  73.707  1.00  0.00    -0.283 NA 
BRANCH   3   4
HETATM    4  C   UNL     1      -8.968   6.586  74.046  1.00  0.00    -0.153 C  
HETATM    5  C   UNL     1      -7.936   5.786  73.253  1.00  0.00    -0.110 C  
ENDBRANCH   3   4
BRANCH   3   6
HETATM    6  C   UNL     1     -10.994   7.575  73.129  1.00  0.00    -0.367 C  
BRANCH   6   7
HETATM    7  C   UNL     1     -10.007   8.545  72.459  1.00  0.00    -0.252 C  
BRANCH   7   8
HETATM    8  N   UNL     1      -9.860   8.300  71.035  1.00  0.00    -0.182 N  
HETATM    9  C   UNL     1     -10.644   8.965  70.113  1.00  0.00    -0.222 C  
HETATM   10  H   UNL     1      -9.166   7.626  70.711  1.00  0.00     0.000 HD 
HETATM   11  O   UNL     1     -11.514   9.765  70.433  1.00  0.00    -0.257 OA 
BRANCH   9  12
HETATM   12  C   UNL     1     -10.314   8.752  68.683  1.00  0.00    -0.230 A  
HETATM   13  C   UNL     1     -10.500   7.454  68.175  1.00  0.00    -0.241 A  
HETATM   14  C   UNL     1      -9.977   7.097  66.932  1.00  0.00    -0.224 A  
HETATM   15  C   UNL     1      -9.224   8.010  66.180  1.00  0.00    -0.163 A  
HETATM   16 CL   UNL     1     -10.184   5.466  66.392  1.00  0.00    -0.251 Cl 
HETATM   17  C   UNL     1      -9.129   9.325  66.649  1.00  0.00    -0.177 A  
HETATM   18  N   UNL     1      -8.731   7.694  64.901  1.00  0.00    -0.366 NA 
HETATM   19  H1  UNL     1      -8.183   8.358  64.354  1.00  0.00     0.000 HD 
HETATM   20  C   UNL     1      -9.649   9.706  67.898  1.00  0.00    -0.139 A  
HETATM   21  H2  UNL     1      -9.520   7.395  64.328  1.00  0.00     0.000 HD 
BRANCH  20  22
HETATM   22  O   UNL     1      -9.329  10.993  68.244  1.00  0.00    -0.159 OA 
HETATM   23  C   UNL     1      -7.961  11.243  68.554  1.00  0.00    -0.145 C  
ENDBRANCH  20  22
ENDBRANCH   9  12
ENDBRANCH   7   8
ENDBRANCH   6   7
ENDBRANCH   3   6
ENDBRANCH   2   3
TORSDOF 7
ENDMDL
MODEL      247
REMARK 921   NORMALIZED FREE ENERGY PREDICTED BY IDOCK:   -3.10 KCAL/MOL
REMARK 922        TOTAL FREE ENERGY PREDICTED BY IDOCK:   -5.08 KCAL/MOL
REMARK 923 INTER-LIGAND FREE ENERGY PREDICTED BY IDOCK:   -4.24 KCAL/MOL
REMARK 924 INTRA-LIGAND FREE ENERGY PREDICTED BY IDOCK:   -0.84 KCAL/MOL
REMARK 927      BINDING AFFINITY PREDICTED BY RF-SCORE:    0.00 PKD
ROOT
HETATM    1  C   UNL     1      -5.879   2.997  72.665  1.00  0.00    -0.008 C  
HETATM    2  C   UNL     1      -6.296   3.382  71.250  1.00  0.00    -0.018 C  
ENDROOT
BRANCH   2   3
HETATM    3  N   UNL     1      -7.752   3.388  71.016  1.00  0.00    -0.046 NA 
BRANCH   3   4
HETATM    4  C   UNL     1      -8.220   2.285  70.152  1.00  0.00    -0.041 C  
HETATM    5  C   UNL     1      -8.847   2.684  68.817  1.00  0.00    -0.154 C  
ENDBRANCH   3   4
BRANCH   3   6
HETATM    6  C   UNL     1      -8.514   3.411  72.289  1.00  0.00    -0.083 C  
BRANCH   6   7
HETATM    7  C   UNL     1      -9.983   3.847  72.167  1.00  0.00    -0.173 C  
BRANCH   7   8
HETATM    8  N   UNL     1     -10.127   5.204  71.669  1.00  0.00    -0.193 N  
HETATM    9  C   UNL     1     -10.442   6.245  72.518  1.00  0.00    -0.203 C  
HETATM   10  H   UNL     1      -9.992   5.390  70.675  1.00  0.00     0.000 HD 
HETATM   11  O   UNL     1     -10.644   6.089  73.715  1.00  0.00    -0.260 OA 
BRANCH   9  12
HETATM   12  C   UNL     1     -10.420   7.609  71.936  1.00  0.00    -0.256 A  
HETATM   13  C   UNL     1     -11.512   8.444  72.234  1.00  0.00    -0.454 A  
HETATM   14  C   UNL     1     -11.709   9.632  71.530  1.00  0.00    -0.400 A  
HETATM   15  C   UNL     1     -10.847  10.001  70.488  1.00  0.00    -0.314 A  
HETATM   16 CL   UNL     1     -13.107  10.583  71.899  1.00  0.00    -0.584 Cl 
HETATM   17  C   UNL     1      -9.711   9.215  70.266  1.00  0.00    -0.248 A  
HETATM   18  N   UNL     1     -10.991  11.219  69.798  1.00  0.00    -0.457 NA 
HETATM   19  H1  UNL     1     -10.364  11.487  69.039  1.00  0.00     0.000 HD 
HETATM   20  C   UNL     1      -9.493   8.014  70.964  1.00  0.00    -0.157 A  
HETATM   21  H2  UNL     1     -10.984  11.970  70.488  1.00  0.00     0.000 HD 
BRANCH  20  22
HETATM   22  O   UNL     1      -8.408   7.314  70.505  1.00  0.00    -0.129 OA 
HETATM   23  C   UNL     1      -7.240   7.353  71.319  1.00  0.00    -0.067 C  
ENDBRANCH  20  22
ENDBRANCH   9  12
ENDBRANCH   7   8
ENDBRANCH   6   7
ENDBRANCH   3   6
ENDBRANCH   2   3
TORSDOF 7
ENDMDL
MODEL      248
REMARK 921   NORMALIZED FREE ENERGY PREDICTED BY IDOCK:   -3.09 KCAL/MOL
REMARK 922        TOTAL FREE ENERGY PREDICTED BY IDOCK:   -5.07 KCAL/MOL
REMARK 923 INTER-LIGAND FREE ENERGY PREDICTED BY IDOCK:   -4.44 KCAL/MOL
REMARK 924 INTRA-LIGAND FREE ENERGY PREDICTED BY IDOCK:   -0.64 KCAL/MOL
REMARK 927      BINDING AFFINITY PREDICTED BY RF-SCORE:    0.00 PKD
ROOT
HETATM    1  C   UNL     1      -9.509  13.379  67.501  1.00  0.00    -0.219 C  
HETATM    2  C   UNL     1      -9.312  12.451  66.306  1.00  0.00    -0.189 C  
ENDROOT
BRANCH   2   3
HETATM    3  N   UNL     1     -10.560  11.996  65.668  1.00  0.00    -0.255 NA 
BRANCH   3   4
HETATM    4  C   UNL     1     -11.113  12.956  64.690  1.00  0.00    -0.324 C  
HETATM    5  C   UNL     1     -12.200  12.428  63.755  1.00  0.00    -0.626 C  
ENDBRANCH   3   4
BRANCH   3   6
HETATM    6  C   UNL     1     -10.407  10.655  65.052  1.00  0.00    -0.271 C  
BRANCH   6   7
HETATM    7  C   UNL     1      -9.120   9.902  65.430  1.00  0.00    -0.196 C  
BRANCH   7   8
HETATM    8  N   UNL     1      -9.333   8.475  65.596  1.00  0.00    -0.426 N  
HETATM    9  C   UNL     1      -8.821   7.800  66.685  1.00  0.00    -0.148 C  
HETATM   10  H   UNL     1      -9.870   7.963  64.895  1.00  0.00     0.000 HD 
HETATM   11  O   UNL     1      -8.146   8.344  67.548  1.00  0.00    -0.108 OA 
BRANCH   9  12
HETATM   12  C   UNL     1      -9.219   6.379  66.834  1.00  0.00    -0.144 A  
HETATM   13  C   UNL     1      -9.601   5.958  68.121  1.00  0.00    -0.130 A  
HETATM   14  C   UNL     1      -9.736   4.600  68.413  1.00  0.00    -0.134 A  
HETATM   15  C   UNL     1      -9.459   3.627  67.443  1.00  0.00    -0.195 A  
HETATM   16 CL   UNL     1     -10.143   4.145  70.031  1.00  0.00    -0.125 Cl 
HETATM   17  C   UNL     1      -9.176   4.057  66.141  1.00  0.00    -0.155 A  
HETATM   18  N   UNL     1      -9.638   2.254  67.693  1.00  0.00    -0.400 NA 
HETATM   19  H1  UNL     1      -9.436   1.545  66.988  1.00  0.00     0.000 HD 
HETATM   20  C   UNL     1      -9.036   5.420  65.826  1.00  0.00    -0.158 A  
HETATM   21  H2  UNL     1     -10.599   2.118  68.006  1.00  0.00     0.000 HD 
BRANCH  20  22
HETATM   22  O   UNL     1      -8.615   5.635  64.540  1.00  0.00    -0.110 OA 
HETATM   23  C   UNL     1      -8.546   4.488  63.698  1.00  0.00    -0.126 C  
ENDBRANCH  20  22
ENDBRANCH   9  12
ENDBRANCH   7   8
ENDBRANCH   6   7
ENDBRANCH   3   6
ENDBRANCH   2   3
TORSDOF 7
ENDMDL
MODEL      249
REMARK 921   NORMALIZED FREE ENERGY PREDICTED BY IDOCK:   -3.08 KCAL/MOL
REMARK 922        TOTAL FREE ENERGY PREDICTED BY IDOCK:   -5.05 KCAL/MOL
REMARK 923 INTER-LIGAND FREE ENERGY PREDICTED BY IDOCK:   -4.58 KCAL/MOL
REMARK 924 INTRA-LIGAND FREE ENERGY PREDICTED BY IDOCK:   -0.47 KCAL/MOL
REMARK 927      BINDING AFFINITY PREDICTED BY RF-SCORE:    0.00 PKD
ROOT
HETATM    1  C   UNL     1     -11.019  15.960  69.850  1.00  0.00    -0.343 C  
HETATM    2  C   UNL     1     -10.030  16.071  68.693  1.00  0.00    -0.220 C  
ENDROOT
BRANCH   2   3
HETATM    3  N   UNL     1     -10.537  15.577  67.400  1.00  0.00    -0.286 NA 
BRANCH   3   4
HETATM    4  C   UNL     1     -10.436  16.564  66.306  1.00  0.00    -0.281 C  
HETATM    5  C   UNL     1      -9.554  17.784  66.567  1.00  0.00    -0.315 C  
ENDBRANCH   3   4
BRANCH   3   6
HETATM    6  C   UNL     1      -9.897  14.297  67.009  1.00  0.00    -0.254 C  
BRANCH   6   7
HETATM    7  C   UNL     1     -10.818  13.067  67.037  1.00  0.00    -0.261 C  
BRANCH   7   8
HETATM    8  N   UNL     1     -10.101  11.836  67.324  1.00  0.00    -0.192 N  
HETATM    9  C   UNL     1     -10.689  10.823  68.054  1.00  0.00    -0.228 C  
HETATM   10  H   UNL     1      -9.148  11.719  66.980  1.00  0.00     0.000 HD 
HETATM   11  O   UNL     1     -11.818  10.907  68.520  1.00  0.00    -0.464 OA 
BRANCH   9  12
HETATM   12  C   UNL     1      -9.928   9.554  68.164  1.00  0.00    -0.191 A  
HETATM   13  C   UNL     1     -10.350   8.488  67.350  1.00  0.00    -0.356 A  
HETATM   14  C   UNL     1      -9.874   7.196  67.570  1.00  0.00    -0.151 A  
HETATM   15  C   UNL     1      -8.995   6.925  68.628  1.00  0.00    -0.129 A  
HETATM   16 CL   UNL     1     -10.481   5.916  66.576  1.00  0.00    -0.270 Cl 
HETATM   17  C   UNL     1      -8.506   8.007  69.370  1.00  0.00    -0.132 A  
HETATM   18  N   UNL     1      -8.457   5.642  68.841  1.00  0.00    -0.102 NA 
HETATM   19  H1  UNL     1      -7.819   5.445  69.611  1.00  0.00     0.000 HD 
HETATM   20  C   UNL     1      -8.973   9.317  69.164  1.00  0.00    -0.144 A  
HETATM   21  H2  UNL     1      -8.003   5.348  67.976  1.00  0.00     0.000 HD 
BRANCH  20  22
HETATM   22  O   UNL     1      -8.487  10.211  70.081  1.00  0.00    -0.112 OA 
HETATM   23  C   UNL     1      -7.070  10.296  70.193  1.00  0.00    -0.148 C  
ENDBRANCH  20  22
ENDBRANCH   9  12
ENDBRANCH   7   8
ENDBRANCH   6   7
ENDBRANCH   3   6
ENDBRANCH   2   3
TORSDOF 7
ENDMDL
MODEL      250
REMARK 921   NORMALIZED FREE ENERGY PREDICTED BY IDOCK:   -3.08 KCAL/MOL
REMARK 922        TOTAL FREE ENERGY PREDICTED BY IDOCK:   -5.05 KCAL/MOL
REMARK 923 INTER-LIGAND FREE ENERGY PREDICTED BY IDOCK:   -4.47 KCAL/MOL
REMARK 924 INTRA-LIGAND FREE ENERGY PREDICTED BY IDOCK:   -0.57 KCAL/MOL
REMARK 927      BINDING AFFINITY PREDICTED BY RF-SCORE:    0.00 PKD
ROOT
HETATM    1  C   UNL     1      -8.726  13.893  67.322  1.00  0.00    -0.225 C  
HETATM    2  C   UNL     1      -9.440  13.813  65.975  1.00  0.00    -0.101 C  
ENDROOT
BRANCH   2   3
HETATM    3  N   UNL     1     -10.898  13.616  66.061  1.00  0.00    -0.275 NA 
BRANCH   3   4
HETATM    4  C   UNL     1     -11.677  14.855  65.868  1.00  0.00    -0.175 C  
HETATM    5  C   UNL     1     -11.130  15.854  64.849  1.00  0.00    -0.400 C  
ENDBRANCH   3   4
BRANCH   3   6
HETATM    6  C   UNL     1     -11.367  12.556  65.136  1.00  0.00    -0.313 C  
BRANCH   6   7
HETATM    7  C   UNL     1     -10.455  11.321  65.036  1.00  0.00    -0.298 C  
BRANCH   7   8
HETATM    8  N   UNL     1     -10.618  10.412  66.157  1.00  0.00    -0.144 N  
HETATM    9  C   UNL     1      -9.845   9.273  66.269  1.00  0.00    -0.291 C  
HETATM   10  H   UNL     1     -11.315  10.618  66.873  1.00  0.00     0.000 HD 
HETATM   11  O   UNL     1      -9.012   8.950  65.433  1.00  0.00    -0.195 OA 
BRANCH   9  12
HETATM   12  C   UNL     1      -9.988   8.493  67.522  1.00  0.00    -0.258 A  
HETATM   13  C   UNL     1      -9.496   9.085  68.699  1.00  0.00    -0.149 A  
HETATM   14  C   UNL     1      -9.347   8.332  69.864  1.00  0.00    -0.159 A  
HETATM   15  C   UNL     1      -9.650   6.964  69.877  1.00  0.00    -0.156 A  
HETATM   16 CL   UNL     1      -8.675   9.103  71.259  1.00  0.00    -0.229 Cl 
HETATM   17  C   UNL     1     -10.230   6.407  68.732  1.00  0.00    -0.206 A  
HETATM   18  N   UNL     1      -9.560   6.193  71.051  1.00  0.00    -0.174 NA 
HETATM   19  H1  UNL     1      -9.780   5.197  71.061  1.00  0.00     0.000 HD 
HETATM   20  C   UNL     1     -10.389   7.148  67.548  1.00  0.00    -0.236 A  
HETATM   21  H2  UNL     1     -10.132   6.645  71.764  1.00  0.00     0.000 HD 
BRANCH  20  22
HETATM   22  O   UNL     1     -10.838   6.393  66.496  1.00  0.00    -0.215 OA 
HETATM   23  C   UNL     1     -10.426   5.029  66.476  1.00  0.00    -0.276 C  
ENDBRANCH  20  22
ENDBRANCH   9  12
ENDBRANCH   7   8
ENDBRANCH   6   7
ENDBRANCH   3   6
ENDBRANCH   2   3
TORSDOF 7
ENDMDL
MODEL      251
REMARK 921   NORMALIZED FREE ENERGY PREDICTED BY IDOCK:   -3.06 KCAL/MOL
REMARK 922        TOTAL FREE ENERGY PREDICTED BY IDOCK:   -5.02 KCAL/MOL
REMARK 923 INTER-LIGAND FREE ENERGY PREDICTED BY IDOCK:   -4.27 KCAL/MOL
REMARK 924 INTRA-LIGAND FREE ENERGY PREDICTED BY IDOCK:   -0.75 KCAL/MOL
REMARK 927      BINDING AFFINITY PREDICTED BY RF-SCORE:    0.00 PKD
ROOT
HETATM    1  C   UNL     1     -12.048  11.687  69.459  1.00  0.00    -0.336 C  
HETATM    2  C   UNL     1     -11.865  13.121  69.945  1.00  0.00    -0.308 C  
ENDROOT
BRANCH   2   3
HETATM    3  N   UNL     1     -12.240  14.157  68.966  1.00  0.00    -0.303 NA 
BRANCH   3   4
HETATM    4  C   UNL     1     -11.551  15.447  69.171  1.00  0.00    -0.339 C  
HETATM    5  C   UNL     1     -10.619  15.539  70.378  1.00  0.00    -0.294 C  
ENDBRANCH   3   4
BRANCH   3   6
HETATM    6  C   UNL     1     -12.061  13.687  67.570  1.00  0.00    -0.316 C  
BRANCH   6   7
HETATM    7  C   UNL     1     -10.623  13.758  67.032  1.00  0.00    -0.278 C  
BRANCH   7   8
HETATM    8  N   UNL     1     -10.216  12.540  66.354  1.00  0.00    -0.240 N  
HETATM    9  C   UNL     1      -8.929  12.056  66.469  1.00  0.00    -0.193 C  
HETATM   10  H   UNL     1     -10.893  12.034  65.782  1.00  0.00     0.000 HD 
HETATM   11  O   UNL     1      -8.059  12.626  67.115  1.00  0.00    -0.177 OA 
BRANCH   9  12
HETATM   12  C   UNL     1      -8.658  10.731  65.859  1.00  0.00    -0.182 A  
HETATM   13  C   UNL     1      -7.567  10.007  66.371  1.00  0.00    -0.104 A  
HETATM   14  C   UNL     1      -7.079   8.888  65.696  1.00  0.00    -0.084 A  
HETATM   15  C   UNL     1      -7.641   8.483  64.477  1.00  0.00    -0.115 A  
HETATM   16 CL   UNL     1      -5.693   8.079  66.342  1.00  0.00    -0.039 Cl 
HETATM   17  C   UNL     1      -8.786   9.150  64.027  1.00  0.00    -0.165 A  
HETATM   18  N   UNL     1      -7.204   7.327  63.803  1.00  0.00    -0.069 NA 
HETATM   19  H1  UNL     1      -7.612   7.033  62.916  1.00  0.00     0.000 HD 
HETATM   20  C   UNL     1      -9.294  10.279  64.692  1.00  0.00    -0.266 A  
HETATM   21  H2  UNL     1      -7.272   6.544  64.452  1.00  0.00     0.000 HD 
BRANCH  20  22
HETATM   22  O   UNL     1     -10.328  10.879  64.021  1.00  0.00    -0.347 OA 
HETATM   23  C   UNL     1     -10.020  11.420  62.740  1.00  0.00    -0.121 C  
ENDBRANCH  20  22
ENDBRANCH   9  12
ENDBRANCH   7   8
ENDBRANCH   6   7
ENDBRANCH   3   6
ENDBRANCH   2   3
TORSDOF 7
ENDMDL
MODEL      252
REMARK 921   NORMALIZED FREE ENERGY PREDICTED BY IDOCK:   -3.06 KCAL/MOL
REMARK 922        TOTAL FREE ENERGY PREDICTED BY IDOCK:   -5.02 KCAL/MOL
REMARK 923 INTER-LIGAND FREE ENERGY PREDICTED BY IDOCK:   -4.38 KCAL/MOL
REMARK 924 INTRA-LIGAND FREE ENERGY PREDICTED BY IDOCK:   -0.64 KCAL/MOL
REMARK 927      BINDING AFFINITY PREDICTED BY RF-SCORE:    0.00 PKD
ROOT
HETATM    1  C   UNL     1     -10.660   9.112  68.225  1.00  0.00    -0.223 C  
HETATM    2  C   UNL     1     -10.420   9.019  66.722  1.00  0.00    -0.200 C  
ENDROOT
BRANCH   2   3
HETATM    3  N   UNL     1     -10.040  10.289  66.078  1.00  0.00    -0.246 NA 
BRANCH   3   4
HETATM    4  C   UNL     1     -11.123  10.897  65.278  1.00  0.00     0.152 C  
HETATM    5  C   UNL     1     -10.826  11.139  63.799  1.00  0.00    -0.337 C  
ENDBRANCH   3   4
BRANCH   3   6
HETATM    6  C   UNL     1      -9.505  11.265  67.058  1.00  0.00    -0.171 C  
BRANCH   6   7
HETATM    7  C   UNL     1      -8.279  12.065  66.587  1.00  0.00    -0.056 C  
BRANCH   7   8
HETATM    8  N   UNL     1      -8.266  13.425  67.097  1.00  0.00    -0.336 N  
HETATM    9  C   UNL     1      -9.155  14.371  66.628  1.00  0.00    -0.240 C  
HETATM   10  H   UNL     1      -7.588  13.685  67.814  1.00  0.00     0.000 HD 
HETATM   11  O   UNL     1      -9.975  14.136  65.751  1.00  0.00    -0.309 OA 
BRANCH   9  12
HETATM   12  C   UNL     1      -9.155  15.684  67.318  1.00  0.00    -0.217 A  
HETATM   13  C   UNL     1      -9.570  16.797  66.564  1.00  0.00    -0.285 A  
HETATM   14  C   UNL     1      -9.356  18.092  67.036  1.00  0.00    -0.270 A  
HETATM   15  C   UNL     1      -8.692  18.314  68.250  1.00  0.00    -0.288 A  
HETATM   16 CL   UNL     1      -9.830  19.420  66.033  1.00  0.00    -0.420 Cl 
HETATM   17  C   UNL     1      -8.372  17.201  69.037  1.00  0.00    -0.108 A  
HETATM   18  N   UNL     1      -8.511  19.607  68.775  1.00  0.00    -0.294 NA 
HETATM   19  H1  UNL     1      -8.027  19.768  69.659  1.00  0.00     0.000 HD 
HETATM   20  C   UNL     1      -8.579  15.888  68.581  1.00  0.00    -0.198 A  
HETATM   21  H2  UNL     1      -9.428  20.049  68.837  1.00  0.00     0.000 HD 
BRANCH  20  22
HETATM   22  O   UNL     1      -8.069  14.938  69.427  1.00  0.00    -0.171 OA 
HETATM   23  C   UNL     1      -6.742  15.155  69.896  1.00  0.00    -0.165 C  
ENDBRANCH  20  22
ENDBRANCH   9  12
ENDBRANCH   7   8
ENDBRANCH   6   7
ENDBRANCH   3   6
ENDBRANCH   2   3
TORSDOF 7
ENDMDL
MODEL      253
REMARK 921   NORMALIZED FREE ENERGY PREDICTED BY IDOCK:   -3.03 KCAL/MOL
REMARK 922        TOTAL FREE ENERGY PREDICTED BY IDOCK:   -4.99 KCAL/MOL
REMARK 923 INTER-LIGAND FREE ENERGY PREDICTED BY IDOCK:   -4.13 KCAL/MOL
REMARK 924 INTRA-LIGAND FREE ENERGY PREDICTED BY IDOCK:   -0.86 KCAL/MOL
REMARK 927      BINDING AFFINITY PREDICTED BY RF-SCORE:    0.00 PKD
ROOT
HETATM    1  C   UNL     1      -8.944  10.297  64.534  1.00  0.00    -0.247 C  
HETATM    2  C   UNL     1      -8.934   9.975  66.025  1.00  0.00    -0.148 C  
ENDROOT
BRANCH   2   3
HETATM    3  N   UNL     1      -8.118   8.804  66.397  1.00  0.00    -0.102 NA 
BRANCH   3   4
HETATM    4  C   UNL     1      -7.835   7.895  65.268  1.00  0.00    -0.111 C  
HETATM    5  C   UNL     1      -8.368   6.468  65.391  1.00  0.00    -0.140 C  
ENDBRANCH   3   4
BRANCH   3   6
HETATM    6  C   UNL     1      -6.860   9.202  67.075  1.00  0.00    -0.080 C  
BRANCH   6   7
HETATM    7  C   UNL     1      -6.816   8.931  68.588  1.00  0.00    -0.063 C  
BRANCH   7   8
HETATM    8  N   UNL     1      -8.009   8.260  69.073  1.00  0.00    -0.110 N  
HETATM    9  C   UNL     1      -8.772   8.807  70.086  1.00  0.00    -0.149 C  
HETATM   10  H   UNL     1      -8.288   7.371  68.659  1.00  0.00     0.000 HD 
HETATM   11  O   UNL     1      -8.480   9.856  70.646  1.00  0.00    -0.150 OA 
BRANCH   9  12
HETATM   12  C   UNL     1     -10.046   8.118  70.405  1.00  0.00    -0.196 A  
HETATM   13  C   UNL     1     -11.048   8.891  71.020  1.00  0.00    -0.340 A  
HETATM   14  C   UNL     1     -12.165   8.279  71.590  1.00  0.00    -0.313 A  
HETATM   15  C   UNL     1     -12.295   6.884  71.595  1.00  0.00    -0.371 A  
HETATM   16 CL   UNL     1     -13.329   9.279  72.389  1.00  0.00    -0.525 Cl 
HETATM   17  C   UNL     1     -11.344   6.132  70.895  1.00  0.00    -0.355 A  
HETATM   18  N   UNL     1     -13.436   6.244  72.114  1.00  0.00    -0.222 NA 
HETATM   19  H1  UNL     1     -13.531   5.228  72.119  1.00  0.00     0.000 HD 
HETATM   20  C   UNL     1     -10.211   6.728  70.314  1.00  0.00    -0.195 A  
HETATM   21  H2  UNL     1     -14.252   6.631  71.641  1.00  0.00     0.000 HD 
BRANCH  20  22
HETATM   22  O   UNL     1      -9.325   5.816  69.804  1.00  0.00    -0.142 OA 
HETATM   23  C   UNL     1      -9.882   4.759  69.028  1.00  0.00    -0.168 C  
ENDBRANCH  20  22
ENDBRANCH   9  12
ENDBRANCH   7   8
ENDBRANCH   6   7
ENDBRANCH   3   6
ENDBRANCH   2   3
TORSDOF 7
ENDMDL
MODEL      254
REMARK 921   NORMALIZED FREE ENERGY PREDICTED BY IDOCK:   -3.03 KCAL/MOL
REMARK 922        TOTAL FREE ENERGY PREDICTED BY IDOCK:   -4.99 KCAL/MOL
REMARK 923 INTER-LIGAND FREE ENERGY PREDICTED BY IDOCK:   -4.35 KCAL/MOL
REMARK 924 INTRA-LIGAND FREE ENERGY PREDICTED BY IDOCK:   -0.64 KCAL/MOL
REMARK 927      BINDING AFFINITY PREDICTED BY RF-SCORE:    0.00 PKD
ROOT
HETATM    1  C   UNL     1     -11.793  12.603  66.562  1.00  0.00    -0.463 C  
HETATM    2  C   UNL     1     -10.391  12.153  66.163  1.00  0.00    -0.234 C  
ENDROOT
BRANCH   2   3
HETATM    3  N   UNL     1     -10.306  10.768  65.667  1.00  0.00    -0.250 NA 
BRANCH   3   4
HETATM    4  C   UNL     1      -9.696  10.653  64.326  1.00  0.00    -0.314 C  
HETATM    5  C   UNL     1      -8.619   9.583  64.155  1.00  0.00    -0.217 C  
ENDBRANCH   3   4
BRANCH   3   6
HETATM    6  C   UNL     1      -9.615   9.878  66.632  1.00  0.00    -0.184 C  
BRANCH   6   7
HETATM    7  C   UNL     1     -10.470   8.734  67.200  1.00  0.00    -0.283 C  
BRANCH   7   8
HETATM    8  N   UNL     1     -10.035   8.309  68.519  1.00  0.00    -0.185 N  
HETATM    9  C   UNL     1     -10.417   7.088  69.036  1.00  0.00    -0.207 C  
HETATM   10  H   UNL     1      -9.436   8.923  69.071  1.00  0.00     0.000 HD 
HETATM   11  O   UNL     1     -11.156   6.314  68.440  1.00  0.00    -0.323 OA 
BRANCH   9  12
HETATM   12  C   UNL     1      -9.800   6.688  70.325  1.00  0.00    -0.188 A  
HETATM   13  C   UNL     1     -10.601   5.941  71.207  1.00  0.00    -0.311 A  
HETATM   14  C   UNL     1     -10.207   5.747  72.531  1.00  0.00    -0.188 A  
HETATM   15  C   UNL     1      -9.026   6.323  73.020  1.00  0.00    -0.130 A  
HETATM   16 CL   UNL     1     -11.267   4.874  73.584  1.00  0.00    -0.370 Cl 
HETATM   17  C   UNL     1      -8.190   6.981  72.111  1.00  0.00    -0.101 A  
HETATM   18  N   UNL     1      -8.578   6.100  74.336  1.00  0.00    -0.120 NA 
HETATM   19  H1  UNL     1      -7.719   6.519  74.692  1.00  0.00     0.000 HD 
HETATM   20  C   UNL     1      -8.567   7.186  70.773  1.00  0.00    -0.146 A  
HETATM   21  H2  UNL     1      -8.514   5.092  74.475  1.00  0.00     0.000 HD 
BRANCH  20  22
HETATM   22  O   UNL     1      -7.686   7.975  70.080  1.00  0.00    -0.084 OA 
HETATM   23  C   UNL     1      -6.722   8.679  70.857  1.00  0.00    -0.052 C  
ENDBRANCH  20  22
ENDBRANCH   9  12
ENDBRANCH   7   8
ENDBRANCH   6   7
ENDBRANCH   3   6
ENDBRANCH   2   3
TORSDOF 7
ENDMDL
MODEL      255
REMARK 921   NORMALIZED FREE ENERGY PREDICTED BY IDOCK:   -3.03 KCAL/MOL
REMARK 922        TOTAL FREE ENERGY PREDICTED BY IDOCK:   -4.98 KCAL/MOL
REMARK 923 INTER-LIGAND FREE ENERGY PREDICTED BY IDOCK:   -4.56 KCAL/MOL
REMARK 924 INTRA-LIGAND FREE ENERGY PREDICTED BY IDOCK:   -0.42 KCAL/MOL
REMARK 927      BINDING AFFINITY PREDICTED BY RF-SCORE:    0.00 PKD
ROOT
HETATM    1  C   UNL     1      -5.145  17.802  71.464  1.00  0.00     0.046 C  
HETATM    2  C   UNL     1      -5.466  16.448  70.840  1.00  0.00    -0.002 C  
ENDROOT
BRANCH   2   3
HETATM    3  N   UNL     1      -6.523  16.478  69.812  1.00  0.00    -0.199 NA 
BRANCH   3   4
HETATM    4  C   UNL     1      -6.505  17.695  68.976  1.00  0.00    -0.228 C  
HETATM    5  C   UNL     1      -6.474  17.483  67.463  1.00  0.00    -0.164 C  
ENDBRANCH   3   4
BRANCH   3   6
HETATM    6  C   UNL     1      -6.500  15.261  68.964  1.00  0.00    -0.111 C  
BRANCH   6   7
HETATM    7  C   UNL     1      -7.773  14.400  69.016  1.00  0.00    -0.093 C  
BRANCH   7   8
HETATM    8  N   UNL     1      -8.381  14.216  67.710  1.00  0.00    -0.160 N  
HETATM    9  C   UNL     1      -9.267  13.184  67.475  1.00  0.00    -0.206 C  
HETATM   10  H   UNL     1      -8.149  14.861  66.954  1.00  0.00     0.000 HD 
HETATM   11  O   UNL     1      -9.568  12.359  68.327  1.00  0.00    -0.212 OA 
BRANCH   9  12
HETATM   12  C   UNL     1      -9.941  13.174  66.154  1.00  0.00    -0.291 A  
HETATM   13  C   UNL     1     -10.493  14.390  65.713  1.00  0.00    -0.329 A  
HETATM   14  C   UNL     1     -11.363  14.420  64.623  1.00  0.00    -0.371 A  
HETATM   15  C   UNL     1     -11.734  13.238  63.967  1.00  0.00    -0.430 A  
HETATM   16 CL   UNL     1     -12.060  15.938  64.171  1.00  0.00    -0.088 Cl 
HETATM   17  C   UNL     1     -11.104  12.049  64.350  1.00  0.00    -0.399 A  
HETATM   18  N   UNL     1     -12.567  13.246  62.833  1.00  0.00    -0.686 NA 
HETATM   19  H1  UNL     1     -12.837  12.386  62.356  1.00  0.00     0.000 HD 
HETATM   20  C   UNL     1     -10.224  11.996  65.445  1.00  0.00    -0.263 A  
HETATM   21  H2  UNL     1     -12.145  13.866  62.142  1.00  0.00     0.000 HD 
BRANCH  20  22
HETATM   22  O   UNL     1      -9.825  10.722  65.755  1.00  0.00    -0.216 OA 
HETATM   23  C   UNL     1      -8.528  10.340  65.308  1.00  0.00    -0.163 C  
ENDBRANCH  20  22
ENDBRANCH   9  12
ENDBRANCH   7   8
ENDBRANCH   6   7
ENDBRANCH   3   6
ENDBRANCH   2   3
TORSDOF 7
ENDMDL
MODEL      256
REMARK 921   NORMALIZED FREE ENERGY PREDICTED BY IDOCK:   -3.01 KCAL/MOL
REMARK 922        TOTAL FREE ENERGY PREDICTED BY IDOCK:   -4.96 KCAL/MOL
REMARK 923 INTER-LIGAND FREE ENERGY PREDICTED BY IDOCK:   -4.59 KCAL/MOL
REMARK 924 INTRA-LIGAND FREE ENERGY PREDICTED BY IDOCK:   -0.37 KCAL/MOL
REMARK 927      BINDING AFFINITY PREDICTED BY RF-SCORE:    0.00 PKD
ROOT
HETATM    1  C   UNL     1     -10.165   8.243  70.041  1.00  0.00    -0.202 C  
HETATM    2  C   UNL     1      -9.560   9.042  68.891  1.00  0.00    -0.156 C  
ENDROOT
BRANCH   2   3
HETATM    3  N   UNL     1      -8.088   9.132  68.910  1.00  0.00    -0.099 NA 
BRANCH   3   4
HETATM    4  C   UNL     1      -7.411   7.869  68.555  1.00  0.00    -0.097 C  
HETATM    5  C   UNL     1      -6.013   7.991  67.950  1.00  0.00    -0.042 C  
ENDBRANCH   3   4
BRANCH   3   6
HETATM    6  C   UNL     1      -7.593  10.246  68.065  1.00  0.00    -0.088 C  
BRANCH   6   7
HETATM    7  C   UNL     1      -8.222  10.337  66.665  1.00  0.00    -0.125 C  
BRANCH   7   8
HETATM    8  N   UNL     1      -8.426  11.707  66.229  1.00  0.00    -0.343 N  
HETATM    9  C   UNL     1      -9.546  12.417  66.611  1.00  0.00    -0.229 C  
HETATM   10  H   UNL     1      -7.730  12.152  65.631  1.00  0.00     0.000 HD 
HETATM   11  O   UNL     1     -10.434  11.937  67.304  1.00  0.00    -0.215 OA 
BRANCH   9  12
HETATM   12  C   UNL     1      -9.586  13.851  66.234  1.00  0.00    -0.274 A  
HETATM   13  C   UNL     1      -8.554  14.667  66.733  1.00  0.00    -0.195 A  
HETATM   14  C   UNL     1      -8.648  16.057  66.653  1.00  0.00    -0.281 A  
HETATM   15  C   UNL     1      -9.786  16.670  66.111  1.00  0.00    -0.303 A  
HETATM   16 CL   UNL     1      -7.377  17.006  67.343  1.00  0.00    -0.173 Cl 
HETATM   17  C   UNL     1     -10.760  15.850  65.530  1.00  0.00    -0.386 A  
HETATM   18  N   UNL     1      -9.884  18.067  65.969  1.00  0.00    -0.545 NA 
HETATM   19  H1  UNL     1     -10.712  18.513  65.575  1.00  0.00     0.000 HD 
HETATM   20  C   UNL     1     -10.685  14.448  65.598  1.00  0.00    -0.320 A  
HETATM   21  H2  UNL     1      -9.075  18.382  65.434  1.00  0.00     0.000 HD 
BRANCH  20  22
HETATM   22  O   UNL     1     -11.801  13.824  65.104  1.00  0.00    -0.326 OA 
HETATM   23  C   UNL     1     -12.276  14.284  63.843  1.00  0.00    -0.193 C  
ENDBRANCH  20  22
ENDBRANCH   9  12
ENDBRANCH   7   8
ENDBRANCH   6   7
ENDBRANCH   3   6
ENDBRANCH   2   3
TORSDOF 7
ENDMDL
MODEL      257
REMARK 921   NORMALIZED FREE ENERGY PREDICTED BY IDOCK:   -3.01 KCAL/MOL
REMARK 922        TOTAL FREE ENERGY PREDICTED BY IDOCK:   -4.96 KCAL/MOL
REMARK 923 INTER-LIGAND FREE ENERGY PREDICTED BY IDOCK:   -4.40 KCAL/MOL
REMARK 924 INTRA-LIGAND FREE ENERGY PREDICTED BY IDOCK:   -0.55 KCAL/MOL
REMARK 927      BINDING AFFINITY PREDICTED BY RF-SCORE:    0.00 PKD
ROOT
HETATM    1  C   UNL     1     -10.735   8.263  68.488  1.00  0.00    -0.065 C  
HETATM    2  C   UNL     1      -9.751   8.295  67.324  1.00  0.00    -0.177 C  
ENDROOT
BRANCH   2   3
HETATM    3  N   UNL     1      -9.177   9.623  67.038  1.00  0.00    -0.140 NA 
BRANCH   3   4
HETATM    4  C   UNL     1      -9.445  10.104  65.668  1.00  0.00    -0.220 C  
HETATM    5  C   UNL     1      -8.235  10.253  64.747  1.00  0.00    -0.163 C  
ENDBRANCH   3   4
BRANCH   3   6
HETATM    6  C   UNL     1      -9.601  10.633  68.038  1.00  0.00    -0.157 C  
BRANCH   6   7
HETATM    7  C   UNL     1      -8.587  11.757  68.307  1.00  0.00    -0.162 C  
BRANCH   7   8
HETATM    8  N   UNL     1      -9.146  13.081  68.091  1.00  0.00    -0.202 N  
HETATM    9  C   UNL     1      -8.390  14.091  67.532  1.00  0.00    -0.192 C  
HETATM   10  H   UNL     1     -10.113  13.266  68.359  1.00  0.00     0.000 HD 
HETATM   11  O   UNL     1      -7.217  13.946  67.214  1.00  0.00    -0.139 OA 
BRANCH   9  12
HETATM   12  C   UNL     1      -9.097  15.357  67.221  1.00  0.00    -0.218 A  
HETATM   13  C   UNL     1      -9.977  15.340  66.123  1.00  0.00    -0.325 A  
HETATM   14  C   UNL     1     -10.479  16.531  65.598  1.00  0.00    -0.324 A  
HETATM   15  C   UNL     1     -10.091  17.769  66.128  1.00  0.00    -0.304 A  
HETATM   16 CL   UNL     1     -11.503  16.447  64.207  1.00  0.00    -0.181 Cl 
HETATM   17  C   UNL     1      -9.295  17.771  67.280  1.00  0.00    -0.254 A  
HETATM   18  N   UNL     1     -10.623  18.982  65.653  1.00  0.00    -0.549 NA 
HETATM   19  H1  UNL     1     -10.340  19.884  66.039  1.00  0.00     0.000 HD 
HETATM   20  C   UNL     1      -8.778  16.583  67.825  1.00  0.00    -0.196 A  
HETATM   21  H2  UNL     1     -11.639  18.922  65.716  1.00  0.00     0.000 HD 
BRANCH  20  22
HETATM   22  O   UNL     1      -7.905  16.800  68.859  1.00  0.00    -0.241 OA 
HETATM   23  C   UNL     1      -6.669  17.422  68.523  1.00  0.00    -0.195 C  
ENDBRANCH  20  22
ENDBRANCH   9  12
ENDBRANCH   7   8
ENDBRANCH   6   7
ENDBRANCH   3   6
ENDBRANCH   2   3
TORSDOF 7
ENDMDL
MODEL      258
REMARK 921   NORMALIZED FREE ENERGY PREDICTED BY IDOCK:   -3.01 KCAL/MOL
REMARK 922        TOTAL FREE ENERGY PREDICTED BY IDOCK:   -4.95 KCAL/MOL
REMARK 923 INTER-LIGAND FREE ENERGY PREDICTED BY IDOCK:   -4.48 KCAL/MOL
REMARK 924 INTRA-LIGAND FREE ENERGY PREDICTED BY IDOCK:   -0.48 KCAL/MOL
REMARK 927      BINDING AFFINITY PREDICTED BY RF-SCORE:    0.00 PKD
ROOT
HETATM    1  C   UNL     1      -9.381   3.634  65.929  1.00  0.00    -0.166 C  
HETATM    2  C   UNL     1     -10.449   4.723  65.943  1.00  0.00    -0.274 C  
ENDROOT
BRANCH   2   3
HETATM    3  N   UNL     1     -10.637   5.386  67.247  1.00  0.00    -0.214 NA 
BRANCH   3   4
HETATM    4  C   UNL     1      -9.555   5.113  68.214  1.00  0.00    -0.135 C  
HETATM    5  C   UNL     1      -9.981   4.828  69.653  1.00  0.00    -0.297 C  
ENDBRANCH   3   4
BRANCH   3   6
HETATM    6  C   UNL     1     -10.847   6.846  67.097  1.00  0.00    -0.377 C  
BRANCH   6   7
HETATM    7  C   UNL     1      -9.716   7.603  66.382  1.00  0.00    -0.127 C  
BRANCH   7   8
HETATM    8  N   UNL     1      -9.892   9.044  66.421  1.00  0.00    -0.267 N  
HETATM    9  C   UNL     1      -9.450   9.787  67.497  1.00  0.00    -0.147 C  
HETATM   10  H   UNL     1     -10.350   9.515  65.640  1.00  0.00     0.000 HD 
HETATM   11  O   UNL     1      -8.918   9.286  68.478  1.00  0.00    -0.128 OA 
BRANCH   9  12
HETATM   12  C   UNL     1      -9.547  11.262  67.371  1.00  0.00    -0.182 A  
HETATM   13  C   UNL     1     -10.804  11.789  67.023  1.00  0.00    -0.306 A  
HETATM   14  C   UNL     1     -10.930  13.121  66.629  1.00  0.00    -0.283 A  
HETATM   15  C   UNL     1      -9.805  13.952  66.536  1.00  0.00    -0.290 A  
HETATM   16 CL   UNL     1     -12.492  13.691  66.151  1.00  0.00    -0.470 Cl 
HETATM   17  C   UNL     1      -8.577  13.447  66.977  1.00  0.00    -0.168 A  
HETATM   18  N   UNL     1      -9.911  15.313  66.193  1.00  0.00    -0.285 NA 
HETATM   19  H1  UNL     1      -9.092  15.917  66.125  1.00  0.00     0.000 HD 
HETATM   20  C   UNL     1      -8.427  12.108  67.379  1.00  0.00    -0.173 A  
HETATM   21  H2  UNL     1     -10.566  15.747  66.843  1.00  0.00     0.000 HD 
BRANCH  20  22
HETATM   22  O   UNL     1      -7.126  11.765  67.634  1.00  0.00    -0.091 OA 
HETATM   23  C   UNL     1      -6.328  11.424  66.505  1.00  0.00    -0.095 C  
ENDBRANCH  20  22
ENDBRANCH   9  12
ENDBRANCH   7   8
ENDBRANCH   6   7
ENDBRANCH   3   6
ENDBRANCH   2   3
TORSDOF 7
ENDMDL
MODEL      259
REMARK 921   NORMALIZED FREE ENERGY PREDICTED BY IDOCK:   -3.01 KCAL/MOL
REMARK 922        TOTAL FREE ENERGY PREDICTED BY IDOCK:   -4.95 KCAL/MOL
REMARK 923 INTER-LIGAND FREE ENERGY PREDICTED BY IDOCK:   -4.63 KCAL/MOL
REMARK 924 INTRA-LIGAND FREE ENERGY PREDICTED BY IDOCK:   -0.32 KCAL/MOL
REMARK 927      BINDING AFFINITY PREDICTED BY RF-SCORE:    0.00 PKD
ROOT
HETATM    1  C   UNL     1      -6.685  14.833  70.065  1.00  0.00    -0.148 C  
HETATM    2  C   UNL     1      -7.619  15.349  68.975  1.00  0.00    -0.177 C  
ENDROOT
BRANCH   2   3
HETATM    3  N   UNL     1      -8.734  16.182  69.462  1.00  0.00    -0.087 NA 
BRANCH   3   4
HETATM    4  C   UNL     1      -9.105  17.275  68.540  1.00  0.00    -0.269 C  
HETATM    5  C   UNL     1      -7.966  17.924  67.756  1.00  0.00    -0.230 C  
ENDBRANCH   3   4
BRANCH   3   6
HETATM    6  C   UNL     1      -9.922  15.365  69.808  1.00  0.00    -0.241 C  
BRANCH   6   7
HETATM    7  C   UNL     1     -10.661  14.741  68.612  1.00  0.00    -0.255 C  
BRANCH   7   8
HETATM    8  N   UNL     1     -10.282  13.359  68.377  1.00  0.00    -0.249 N  
HETATM    9  C   UNL     1     -11.005  12.319  68.925  1.00  0.00    -0.219 C  
HETATM   10  H   UNL     1      -9.468  13.153  67.798  1.00  0.00     0.000 HD 
HETATM   11  O   UNL     1     -11.975  12.493  69.652  1.00  0.00    -0.303 OA 
BRANCH   9  12
HETATM   12  C   UNL     1     -10.623  10.949  68.506  1.00  0.00    -0.219 A  
HETATM   13  C   UNL     1     -10.192  10.789  67.176  1.00  0.00    -0.255 A  
HETATM   14  C   UNL     1     -10.066   9.516  66.620  1.00  0.00    -0.252 A  
HETATM   15  C   UNL     1     -10.400   8.373  67.359  1.00  0.00    -0.285 A  
HETATM   16 CL   UNL     1      -9.595   9.389  64.960  1.00  0.00    -0.230 Cl 
HETATM   17  C   UNL     1     -10.732   8.537  68.708  1.00  0.00    -0.089 A  
HETATM   18  N   UNL     1     -10.231   7.075  66.841  1.00  0.00    -0.279 NA 
HETATM   19  H1  UNL     1     -10.474   6.243  67.378  1.00  0.00     0.000 HD 
HETATM   20  C   UNL     1     -10.865   9.810  69.289  1.00  0.00    -0.216 A  
HETATM   21  H2  UNL     1      -9.259   6.983  66.546  1.00  0.00     0.000 HD 
BRANCH  20  22
HETATM   22  O   UNL     1     -11.339   9.769  70.574  1.00  0.00    -0.269 OA 
HETATM   23  C   UNL     1     -10.519   9.101  71.529  1.00  0.00    -0.352 C  
ENDBRANCH  20  22
ENDBRANCH   9  12
ENDBRANCH   7   8
ENDBRANCH   6   7
ENDBRANCH   3   6
ENDBRANCH   2   3
TORSDOF 7
ENDMDL
MODEL      260
REMARK 921   NORMALIZED FREE ENERGY PREDICTED BY IDOCK:   -3.00 KCAL/MOL
REMARK 922        TOTAL FREE ENERGY PREDICTED BY IDOCK:   -4.95 KCAL/MOL
REMARK 923 INTER-LIGAND FREE ENERGY PREDICTED BY IDOCK:   -4.53 KCAL/MOL
REMARK 924 INTRA-LIGAND FREE ENERGY PREDICTED BY IDOCK:   -0.41 KCAL/MOL
REMARK 927      BINDING AFFINITY PREDICTED BY RF-SCORE:    0.00 PKD
ROOT
HETATM    1  C   UNL     1     -12.025  12.520  67.990  1.00  0.00    -0.281 C  
HETATM    2  C   UNL     1     -12.018  14.015  68.295  1.00  0.00    -0.349 C  
ENDROOT
BRANCH   2   3
HETATM    3  N   UNL     1     -11.142  14.818  67.422  1.00  0.00    -0.314 NA 
BRANCH   3   4
HETATM    4  C   UNL     1     -10.956  16.208  67.884  1.00  0.00    -0.318 C  
HETATM    5  C   UNL     1     -11.071  16.450  69.388  1.00  0.00    -0.300 C  
ENDBRANCH   3   4
BRANCH   3   6
HETATM    6  C   UNL     1      -9.830  14.161  67.204  1.00  0.00    -0.253 C  
BRANCH   6   7
HETATM    7  C   UNL     1      -9.663  13.461  65.845  1.00  0.00    -0.182 C  
BRANCH   7   8
HETATM    8  N   UNL     1      -9.071  12.140  65.962  1.00  0.00    -0.413 N  
HETATM    9  C   UNL     1      -9.680  11.034  65.404  1.00  0.00    -0.232 C  
HETATM   10  H   UNL     1      -8.191  12.028  66.466  1.00  0.00     0.000 HD 
HETATM   11  O   UNL     1     -10.749  11.091  64.812  1.00  0.00    -0.309 OA 
BRANCH   9  12
HETATM   12  C   UNL     1      -8.921   9.761  65.455  1.00  0.00    -0.229 A  
HETATM   13  C   UNL     1      -7.771   9.675  64.649  1.00  0.00    -0.130 A  
HETATM   14  C   UNL     1      -7.149   8.445  64.430  1.00  0.00    -0.081 A  
HETATM   15  C   UNL     1      -7.676   7.267  64.976  1.00  0.00    -0.115 A  
HETATM   16 CL   UNL     1      -5.778   8.396  63.377  1.00  0.00    -0.067 Cl 
HETATM   17  C   UNL     1      -8.760   7.376  65.854  1.00  0.00    -0.161 A  
HETATM   18  N   UNL     1      -7.039   6.022  64.815  1.00  0.00    -0.058 NA 
HETATM   19  H1  UNL     1      -7.423   5.164  65.212  1.00  0.00     0.000 HD 
HETATM   20  C   UNL     1      -9.402   8.605  66.089  1.00  0.00    -0.226 A  
HETATM   21  H2  UNL     1      -6.080   6.118  65.149  1.00  0.00     0.000 HD 
BRANCH  20  22
HETATM   22  O   UNL     1     -10.529   8.485  66.859  1.00  0.00    -0.308 OA 
HETATM   23  C   UNL     1     -10.347   8.601  68.267  1.00  0.00    -0.207 C  
ENDBRANCH  20  22
ENDBRANCH   9  12
ENDBRANCH   7   8
ENDBRANCH   6   7
ENDBRANCH   3   6
ENDBRANCH   2   3
TORSDOF 7
ENDMDL
MODEL      261
REMARK 921   NORMALIZED FREE ENERGY PREDICTED BY IDOCK:   -3.00 KCAL/MOL
REMARK 922        TOTAL FREE ENERGY PREDICTED BY IDOCK:   -4.94 KCAL/MOL
REMARK 923 INTER-LIGAND FREE ENERGY PREDICTED BY IDOCK:   -4.14 KCAL/MOL
REMARK 924 INTRA-LIGAND FREE ENERGY PREDICTED BY IDOCK:   -0.80 KCAL/MOL
REMARK 927      BINDING AFFINITY PREDICTED BY RF-SCORE:    0.00 PKD
ROOT
HETATM    1  C   UNL     1      -5.658  10.642  65.178  1.00  0.00    -0.128 C  
HETATM    2  C   UNL     1      -6.911  10.078  65.842  1.00  0.00    -0.108 C  
ENDROOT
BRANCH   2   3
HETATM    3  N   UNL     1      -7.952   9.619  64.904  1.00  0.00    -0.118 NA 
BRANCH   3   4
HETATM    4  C   UNL     1      -7.826   8.197  64.527  1.00  0.00    -0.138 C  
HETATM    5  C   UNL     1      -7.708   7.894  63.034  1.00  0.00    -0.132 C  
ENDBRANCH   3   4
BRANCH   3   6
HETATM    6  C   UNL     1      -9.316   9.906  65.412  1.00  0.00    -0.239 C  
BRANCH   6   7
HETATM    7  C   UNL     1      -9.374  10.617  66.773  1.00  0.00    -0.157 C  
BRANCH   7   8
HETATM    8  N   UNL     1     -10.015   9.814  67.800  1.00  0.00    -0.160 N  
HETATM    9  C   UNL     1      -9.299   9.327  68.875  1.00  0.00    -0.150 C  
HETATM   10  H   UNL     1     -11.011   9.606  67.724  1.00  0.00     0.000 HD 
HETATM   11  O   UNL     1      -8.098   9.514  69.014  1.00  0.00    -0.094 OA 
BRANCH   9  12
HETATM   12  C   UNL     1     -10.077   8.644  69.938  1.00  0.00    -0.197 A  
HETATM   13  C   UNL     1      -9.920   7.250  70.043  1.00  0.00    -0.184 A  
HETATM   14  C   UNL     1     -10.795   6.496  70.825  1.00  0.00    -0.261 A  
HETATM   15  C   UNL     1     -11.868   7.103  71.492  1.00  0.00    -0.313 A  
HETATM   16 CL   UNL     1     -10.589   4.778  70.861  1.00  0.00    -0.102 Cl 
HETATM   17  C   UNL     1     -11.956   8.499  71.460  1.00  0.00    -0.354 A  
HETATM   18  N   UNL     1     -12.732   6.374  72.329  1.00  0.00    -0.540 NA 
HETATM   19  H1  UNL     1     -13.514   6.815  72.814  1.00  0.00     0.000 HD 
HETATM   20  C   UNL     1     -11.085   9.279  70.679  1.00  0.00    -0.276 A  
HETATM   21  H2  UNL     1     -12.161   5.898  73.028  1.00  0.00     0.000 HD 
BRANCH  20  22
HETATM   22  O   UNL     1     -11.421  10.607  70.662  1.00  0.00    -0.324 OA 
HETATM   23  C   UNL     1     -12.693  10.931  70.109  1.00  0.00    -0.161 C  
ENDBRANCH  20  22
ENDBRANCH   9  12
ENDBRANCH   7   8
ENDBRANCH   6   7
ENDBRANCH   3   6
ENDBRANCH   2   3
TORSDOF 7
ENDMDL
MODEL      262
REMARK 921   NORMALIZED FREE ENERGY PREDICTED BY IDOCK:   -3.00 KCAL/MOL
REMARK 922        TOTAL FREE ENERGY PREDICTED BY IDOCK:   -4.93 KCAL/MOL
REMARK 923 INTER-LIGAND FREE ENERGY PREDICTED BY IDOCK:   -4.73 KCAL/MOL
REMARK 924 INTRA-LIGAND FREE ENERGY PREDICTED BY IDOCK:   -0.21 KCAL/MOL
REMARK 927      BINDING AFFINITY PREDICTED BY RF-SCORE:    0.00 PKD
ROOT
HETATM    1  C   UNL     1     -11.989  13.559  64.025  1.00  0.00    -0.501 C  
HETATM    2  C   UNL     1     -11.448  14.821  64.689  1.00  0.00    -0.381 C  
ENDROOT
BRANCH   2   3
HETATM    3  N   UNL     1     -10.526  14.579  65.814  1.00  0.00    -0.306 NA 
BRANCH   3   4
HETATM    4  C   UNL     1      -9.559  15.673  66.036  1.00  0.00    -0.351 C  
HETATM    5  C   UNL     1      -8.246  15.296  66.720  1.00  0.00    -0.215 C  
ENDBRANCH   3   4
BRANCH   3   6
HETATM    6  C   UNL     1     -11.256  14.266  67.067  1.00  0.00    -0.323 C  
BRANCH   6   7
HETATM    7  C   UNL     1     -12.035  12.941  67.059  1.00  0.00    -0.325 C  
BRANCH   7   8
HETATM    8  N   UNL     1     -11.337  11.875  67.757  1.00  0.00    -0.269 N  
HETATM    9  C   UNL     1     -10.473  11.031  67.088  1.00  0.00    -0.232 C  
HETATM   10  H   UNL     1     -11.487  11.748  68.758  1.00  0.00     0.000 HD 
HETATM   11  O   UNL     1     -10.268  11.108  65.883  1.00  0.00    -0.236 OA 
BRANCH   9  12
HETATM   12  C   UNL     1      -9.702  10.074  67.918  1.00  0.00    -0.168 A  
HETATM   13  C   UNL     1      -8.643  10.603  68.678  1.00  0.00    -0.144 A  
HETATM   14  C   UNL     1      -7.708   9.757  69.275  1.00  0.00    -0.101 A  
HETATM   15  C   UNL     1      -7.781   8.368  69.101  1.00  0.00    -0.092 A  
HETATM   16 CL   UNL     1      -6.392  10.472  70.142  1.00  0.00    -0.117 Cl 
HETATM   17  C   UNL     1      -8.891   7.848  68.426  1.00  0.00    -0.130 A  
HETATM   18  N   UNL     1      -6.883   7.490  69.735  1.00  0.00    -0.046 NA 
HETATM   19  H1  UNL     1      -6.936   6.479  69.608  1.00  0.00     0.000 HD 
HETATM   20  C   UNL     1      -9.845   8.682  67.817  1.00  0.00    -0.175 A  
HETATM   21  H2  UNL     1      -6.917   7.680  70.737  1.00  0.00     0.000 HD 
BRANCH  20  22
HETATM   22  O   UNL     1     -10.773   7.991  67.083  1.00  0.00    -0.322 OA 
HETATM   23  C   UNL     1     -11.118   6.693  67.559  1.00  0.00    -0.292 C  
ENDBRANCH  20  22
ENDBRANCH   9  12
ENDBRANCH   7   8
ENDBRANCH   6   7
ENDBRANCH   3   6
ENDBRANCH   2   3
TORSDOF 7
ENDMDL
MODEL      263
REMARK 921   NORMALIZED FREE ENERGY PREDICTED BY IDOCK:   -2.98 KCAL/MOL
REMARK 922        TOTAL FREE ENERGY PREDICTED BY IDOCK:   -4.92 KCAL/MOL
REMARK 923 INTER-LIGAND FREE ENERGY PREDICTED BY IDOCK:   -4.49 KCAL/MOL
REMARK 924 INTRA-LIGAND FREE ENERGY PREDICTED BY IDOCK:   -0.43 KCAL/MOL
REMARK 927      BINDING AFFINITY PREDICTED BY RF-SCORE:    0.00 PKD
ROOT
HETATM    1  C   UNL     1     -10.303  19.881  66.923  1.00  0.00    -0.596 C  
HETATM    2  C   UNL     1     -10.986  18.739  66.177  1.00  0.00     0.122 C  
ENDROOT
BRANCH   2   3
HETATM    3  N   UNL     1     -10.320  17.430  66.309  1.00  0.00    -0.347 NA 
BRANCH   3   4
HETATM    4  C   UNL     1      -9.576  17.267  67.574  1.00  0.00    -0.259 C  
HETATM    5  C   UNL     1      -8.099  16.891  67.455  1.00  0.00    -0.193 C  
ENDBRANCH   3   4
BRANCH   3   6
HETATM    6  C   UNL     1     -11.269  16.307  66.114  1.00  0.00     0.284 C  
BRANCH   6   7
HETATM    7  C   UNL     1     -11.365  15.317  67.287  1.00  0.00    -0.269 C  
BRANCH   7   8
HETATM    8  N   UNL     1     -10.660  14.074  67.031  1.00  0.00    -0.278 N  
HETATM    9  C   UNL     1     -11.028  13.246  65.990  1.00  0.00    -0.279 C  
HETATM   10  H   UNL     1      -9.879  13.808  67.632  1.00  0.00     0.000 HD 
HETATM   11  O   UNL     1     -11.972  13.489  65.249  1.00  0.00    -0.339 OA 
BRANCH   9  12
HETATM   12  C   UNL     1     -10.153  12.078  65.726  1.00  0.00    -0.267 A  
HETATM   13  C   UNL     1     -10.056  11.646  64.391  1.00  0.00    -0.322 A  
HETATM   14  C   UNL     1      -9.476  10.415  64.084  1.00  0.00    -0.300 A  
HETATM   15  C   UNL     1      -9.013   9.566  65.099  1.00  0.00    -0.209 A  
HETATM   16 CL   UNL     1      -9.446   9.912  62.429  1.00  0.00    -0.262 Cl 
HETATM   17  C   UNL     1      -9.025  10.047  66.414  1.00  0.00    -0.164 A  
HETATM   18  N   UNL     1      -8.377   8.344  64.816  1.00  0.00    -0.243 NA 
HETATM   19  H1  UNL     1      -8.040   7.726  65.554  1.00  0.00     0.000 HD 
HETATM   20  C   UNL     1      -9.604  11.284  66.745  1.00  0.00    -0.193 A  
HETATM   21  H2  UNL     1      -7.594   8.538  64.192  1.00  0.00     0.000 HD 
BRANCH  20  22
HETATM   22  O   UNL     1      -9.651  11.513  68.095  1.00  0.00    -0.174 OA 
HETATM   23  C   UNL     1     -10.184  10.462  68.896  1.00  0.00    -0.205 C  
ENDBRANCH  20  22
ENDBRANCH   9  12
ENDBRANCH   7   8
ENDBRANCH   6   7
ENDBRANCH   3   6
ENDBRANCH   2   3
TORSDOF 7
ENDMDL
MODEL      264
REMARK 921   NORMALIZED FREE ENERGY PREDICTED BY IDOCK:   -2.96 KCAL/MOL
REMARK 922        TOTAL FREE ENERGY PREDICTED BY IDOCK:   -4.89 KCAL/MOL
REMARK 923 INTER-LIGAND FREE ENERGY PREDICTED BY IDOCK:   -4.23 KCAL/MOL
REMARK 924 INTRA-LIGAND FREE ENERGY PREDICTED BY IDOCK:   -0.66 KCAL/MOL
REMARK 927      BINDING AFFINITY PREDICTED BY RF-SCORE:    0.00 PKD
ROOT
HETATM    1  C   UNL     1     -11.990  13.376  63.912  1.00  0.00    -0.520 C  
HETATM    2  C   UNL     1     -11.699  13.554  65.399  1.00  0.00    -0.332 C  
ENDROOT
BRANCH   2   3
HETATM    3  N   UNL     1     -10.294  13.327  65.783  1.00  0.00    -0.283 NA 
BRANCH   3   4
HETATM    4  C   UNL     1      -9.599  14.546  66.245  1.00  0.00    -0.304 C  
HETATM    5  C   UNL     1      -9.583  14.793  67.753  1.00  0.00    -0.209 C  
ENDBRANCH   3   4
BRANCH   3   6
HETATM    6  C   UNL     1     -10.166  12.242  66.787  1.00  0.00    -0.211 C  
BRANCH   6   7
HETATM    7  C   UNL     1     -11.193  11.106  66.660  1.00  0.00    -0.114 C  
BRANCH   7   8
HETATM    8  N   UNL     1     -10.800   9.910  67.385  1.00  0.00    -0.285 N  
HETATM    9  C   UNL     1     -10.002   8.950  66.798  1.00  0.00    -0.267 C  
HETATM   10  H   UNL     1     -11.120   9.778  68.345  1.00  0.00     0.000 HD 
HETATM   11  O   UNL     1      -9.606   9.030  65.642  1.00  0.00    -0.247 OA 
BRANCH   9  12
HETATM   12  C   UNL     1      -9.539   7.843  67.671  1.00  0.00    -0.183 A  
HETATM   13  C   UNL     1      -9.732   6.535  67.193  1.00  0.00    -0.176 A  
HETATM   14  C   UNL     1      -9.575   5.439  68.042  1.00  0.00    -0.127 A  
HETATM   15  C   UNL     1      -9.258   5.619  69.395  1.00  0.00    -0.121 A  
HETATM   16 CL   UNL     1      -9.890   3.860  67.411  1.00  0.00    -0.164 Cl 
HETATM   17  C   UNL     1      -8.972   6.916  69.836  1.00  0.00    -0.142 A  
HETATM   18  N   UNL     1      -9.040   4.531  70.261  1.00  0.00    -0.094 NA 
HETATM   19  H1  UNL     1      -8.810   4.662  71.246  1.00  0.00     0.000 HD 
HETATM   20  C   UNL     1      -9.124   8.034  68.998  1.00  0.00    -0.144 A  
HETATM   21  H2  UNL     1      -8.316   3.945  69.847  1.00  0.00     0.000 HD 
BRANCH  20  22
HETATM   22  O   UNL     1      -8.941   9.226  69.650  1.00  0.00    -0.140 OA 
HETATM   23  C   UNL     1      -8.463   9.146  70.989  1.00  0.00    -0.165 C  
ENDBRANCH  20  22
ENDBRANCH   9  12
ENDBRANCH   7   8
ENDBRANCH   6   7
ENDBRANCH   3   6
ENDBRANCH   2   3
TORSDOF 7
ENDMDL
MODEL      265
REMARK 921   NORMALIZED FREE ENERGY PREDICTED BY IDOCK:   -2.96 KCAL/MOL
REMARK 922        TOTAL FREE ENERGY PREDICTED BY IDOCK:   -4.89 KCAL/MOL
REMARK 923 INTER-LIGAND FREE ENERGY PREDICTED BY IDOCK:   -3.97 KCAL/MOL
REMARK 924 INTRA-LIGAND FREE ENERGY PREDICTED BY IDOCK:   -0.92 KCAL/MOL
REMARK 927      BINDING AFFINITY PREDICTED BY RF-SCORE:    0.00 PKD
ROOT
HETATM    1  C   UNL     1      -7.225   4.709  72.229  1.00  0.00    -0.079 C  
HETATM    2  C   UNL     1      -8.463   4.910  71.360  1.00  0.00    -0.117 C  
ENDROOT
BRANCH   2   3
HETATM    3  N   UNL     1      -9.421   5.906  71.874  1.00  0.00    -0.151 NA 
BRANCH   3   4
HETATM    4  C   UNL     1     -10.750   5.344  72.190  1.00  0.00    -0.227 C  
HETATM    5  C   UNL     1     -11.954   6.247  71.924  1.00  0.00    -0.342 C  
ENDBRANCH   3   4
BRANCH   3   6
HETATM    6  C   UNL     1      -8.877   6.644  73.039  1.00  0.00    -0.127 C  
BRANCH   6   7
HETATM    7  C   UNL     1      -8.991   8.176  72.958  1.00  0.00    -0.266 C  
BRANCH   7   8
HETATM    8  N   UNL     1      -8.595   8.700  71.662  1.00  0.00    -0.185 N  
HETATM    9  C   UNL     1      -9.497   9.363  70.856  1.00  0.00    -0.209 C  
HETATM   10  H   UNL     1      -7.634   8.575  71.343  1.00  0.00     0.000 HD 
HETATM   11  O   UNL     1     -10.671   9.524  71.163  1.00  0.00    -0.316 OA 
BRANCH   9  12
HETATM   12  C   UNL     1      -8.956   9.985  69.622  1.00  0.00    -0.221 A  
HETATM   13  C   UNL     1      -9.754   9.902  68.467  1.00  0.00    -0.163 A  
HETATM   14  C   UNL     1      -9.225  10.219  67.216  1.00  0.00    -0.141 A  
HETATM   15  C   UNL     1      -7.880  10.589  67.077  1.00  0.00    -0.114 A  
HETATM   16 CL   UNL     1     -10.239  10.034  65.826  1.00  0.00    -0.312 Cl 
HETATM   17  C   UNL     1      -7.123  10.763  68.242  1.00  0.00    -0.078 A  
HETATM   18  N   UNL     1      -7.335  10.965  65.836  1.00  0.00    -0.316 NA 
HETATM   19  H1  UNL     1      -6.357  11.234  65.735  1.00  0.00     0.000 HD 
HETATM   20  C   UNL     1      -7.637  10.450  69.512  1.00  0.00    -0.156 A  
HETATM   21  H2  UNL     1      -7.907  11.722  65.462  1.00  0.00     0.000 HD 
BRANCH  20  22
HETATM   22  O   UNL     1      -6.701  10.545  70.509  1.00  0.00    -0.292 OA 
HETATM   23  C   UNL     1      -5.746  11.594  70.382  1.00  0.00    -0.158 C  
ENDBRANCH  20  22
ENDBRANCH   9  12
ENDBRANCH   7   8
ENDBRANCH   6   7
ENDBRANCH   3   6
ENDBRANCH   2   3
TORSDOF 7
ENDMDL
MODEL      266
REMARK 921   NORMALIZED FREE ENERGY PREDICTED BY IDOCK:   -2.95 KCAL/MOL
REMARK 922        TOTAL FREE ENERGY PREDICTED BY IDOCK:   -4.88 KCAL/MOL
REMARK 923 INTER-LIGAND FREE ENERGY PREDICTED BY IDOCK:   -4.64 KCAL/MOL
REMARK 924 INTRA-LIGAND FREE ENERGY PREDICTED BY IDOCK:   -0.23 KCAL/MOL
REMARK 927      BINDING AFFINITY PREDICTED BY RF-SCORE:    0.00 PKD
ROOT
HETATM    1  C   UNL     1     -12.412  11.730  63.315  1.00  0.00    -0.411 C  
HETATM    2  C   UNL     1     -11.107  11.503  64.072  1.00  0.00    -0.365 C  
ENDROOT
BRANCH   2   3
HETATM    3  N   UNL     1     -10.549  12.708  64.713  1.00  0.00    -0.302 NA 
BRANCH   3   4
HETATM    4  C   UNL     1     -11.370  13.920  64.518  1.00  0.00    -0.372 C  
HETATM    5  C   UNL     1     -10.645  15.260  64.626  1.00  0.00    -0.152 C  
ENDBRANCH   3   4
BRANCH   3   6
HETATM    6  C   UNL     1     -10.278  12.488  66.155  1.00  0.00    -0.252 C  
BRANCH   6   7
HETATM    7  C   UNL     1     -11.082  11.353  66.809  1.00  0.00    -0.281 C  
BRANCH   7   8
HETATM    8  N   UNL     1     -10.307  10.606  67.785  1.00  0.00    -0.193 N  
HETATM    9  C   UNL     1     -10.757  10.444  69.079  1.00  0.00    -0.228 C  
HETATM   10  H   UNL     1      -9.415  10.195  67.508  1.00  0.00     0.000 HD 
HETATM   11  O   UNL     1     -11.802  10.933  69.487  1.00  0.00    -0.288 OA 
BRANCH   9  12
HETATM   12  C   UNL     1      -9.964   9.543  69.951  1.00  0.00    -0.259 A  
HETATM   13  C   UNL     1      -8.921   8.824  69.340  1.00  0.00    -0.145 A  
HETATM   14  C   UNL     1      -8.299   7.770  70.010  1.00  0.00    -0.130 A  
HETATM   15  C   UNL     1      -8.722   7.382  71.288  1.00  0.00    -0.126 A  
HETATM   16 CL   UNL     1      -7.068   6.882  69.179  1.00  0.00    -0.081 Cl 
HETATM   17  C   UNL     1      -9.691   8.165  71.926  1.00  0.00    -0.268 A  
HETATM   18  N   UNL     1      -8.078   6.359  72.008  1.00  0.00    -0.108 NA 
HETATM   19  H1  UNL     1      -8.386   6.076  72.938  1.00  0.00     0.000 HD 
HETATM   20  C   UNL     1     -10.331   9.231  71.269  1.00  0.00    -0.327 A  
HETATM   21  H2  UNL     1      -7.088   6.596  72.066  1.00  0.00     0.000 HD 
BRANCH  20  22
HETATM   22  O   UNL     1     -11.350   9.781  72.002  1.00  0.00    -0.021 OA 
HETATM   23  C   UNL     1     -12.428   8.913  72.338  1.00  0.00    -0.335 C  
ENDBRANCH  20  22
ENDBRANCH   9  12
ENDBRANCH   7   8
ENDBRANCH   6   7
ENDBRANCH   3   6
ENDBRANCH   2   3
TORSDOF 7
ENDMDL
MODEL      267
REMARK 921   NORMALIZED FREE ENERGY PREDICTED BY IDOCK:   -2.95 KCAL/MOL
REMARK 922        TOTAL FREE ENERGY PREDICTED BY IDOCK:   -4.88 KCAL/MOL
REMARK 923 INTER-LIGAND FREE ENERGY PREDICTED BY IDOCK:   -4.24 KCAL/MOL
REMARK 924 INTRA-LIGAND FREE ENERGY PREDICTED BY IDOCK:   -0.64 KCAL/MOL
REMARK 927      BINDING AFFINITY PREDICTED BY RF-SCORE:    0.00 PKD
ROOT
HETATM    1  C   UNL     1     -11.762  13.448  67.462  1.00  0.00    -0.406 C  
HETATM    2  C   UNL     1     -10.563  13.196  66.554  1.00  0.00    -0.284 C  
ENDROOT
BRANCH   2   3
HETATM    3  N   UNL     1     -10.669  11.990  65.712  1.00  0.00    -0.269 NA 
BRANCH   3   4
HETATM    4  C   UNL     1     -10.498  12.256  64.269  1.00  0.00    -0.346 C  
HETATM    5  C   UNL     1     -11.748  12.682  63.500  1.00  0.00    -0.604 C  
ENDBRANCH   3   4
BRANCH   3   6
HETATM    6  C   UNL     1      -9.743  10.922  66.159  1.00  0.00    -0.210 C  
BRANCH   6   7
HETATM    7  C   UNL     1     -10.416   9.682  66.770  1.00  0.00    -0.186 C  
BRANCH   7   8
HETATM    8  N   UNL     1      -9.669   8.460  66.526  1.00  0.00    -0.245 N  
HETATM    9  C   UNL     1     -10.241   7.222  66.735  1.00  0.00    -0.235 C  
HETATM   10  H   UNL     1      -8.706   8.519  66.195  1.00  0.00     0.000 HD 
HETATM   11  O   UNL     1     -11.381   7.078  67.158  1.00  0.00    -0.240 OA 
BRANCH   9  12
HETATM   12  C   UNL     1      -9.445   6.042  66.317  1.00  0.00    -0.153 A  
HETATM   13  C   UNL     1      -9.714   4.829  66.976  1.00  0.00    -0.205 A  
HETATM   14  C   UNL     1      -8.851   3.742  66.841  1.00  0.00    -0.126 A  
HETATM   15  C   UNL     1      -7.679   3.845  66.078  1.00  0.00    -0.089 A  
HETATM   16 CL   UNL     1      -9.202   2.299  67.729  1.00  0.00    -0.222 Cl 
HETATM   17  C   UNL     1      -7.472   5.022  65.348  1.00  0.00    -0.073 A  
HETATM   18  N   UNL     1      -6.819   2.749  65.881  1.00  0.00    -0.043 NA 
HETATM   19  H1  UNL     1      -5.967   2.825  65.326  1.00  0.00     0.000 HD 
HETATM   20  C   UNL     1      -8.330   6.129  65.469  1.00  0.00    -0.147 A  
HETATM   21  H2  UNL     1      -7.373   1.984  65.498  1.00  0.00     0.000 HD 
BRANCH  20  22
HETATM   22  O   UNL     1      -7.882   7.234  64.794  1.00  0.00    -0.114 OA 
HETATM   23  C   UNL     1      -6.539   7.185  64.323  1.00  0.00    -0.040 C  
ENDBRANCH  20  22
ENDBRANCH   9  12
ENDBRANCH   7   8
ENDBRANCH   6   7
ENDBRANCH   3   6
ENDBRANCH   2   3
TORSDOF 7
ENDMDL
MODEL      268
REMARK 921   NORMALIZED FREE ENERGY PREDICTED BY IDOCK:   -2.95 KCAL/MOL
REMARK 922        TOTAL FREE ENERGY PREDICTED BY IDOCK:   -4.87 KCAL/MOL
REMARK 923 INTER-LIGAND FREE ENERGY PREDICTED BY IDOCK:   -4.38 KCAL/MOL
REMARK 924 INTRA-LIGAND FREE ENERGY PREDICTED BY IDOCK:   -0.50 KCAL/MOL
REMARK 927      BINDING AFFINITY PREDICTED BY RF-SCORE:    0.00 PKD
ROOT
HETATM    1  C   UNL     1      -9.946  10.751  62.925  1.00  0.00    -0.229 C  
HETATM    2  C   UNL     1     -10.061  11.170  64.387  1.00  0.00    -0.320 C  
ENDROOT
BRANCH   2   3
HETATM    3  N   UNL     1      -9.873  10.077  65.358  1.00  0.00    -0.301 NA 
BRANCH   3   4
HETATM    4  C   UNL     1      -8.789   9.141  64.998  1.00  0.00    -0.189 C  
HETATM    5  C   UNL     1      -8.654   7.887  65.860  1.00  0.00    -0.171 C  
ENDBRANCH   3   4
BRANCH   3   6
HETATM    6  C   UNL     1      -9.682  10.591  66.736  1.00  0.00    -0.179 C  
BRANCH   6   7
HETATM    7  C   UNL     1      -8.482  11.534  66.924  1.00  0.00    -0.165 C  
BRANCH   7   8
HETATM    8  N   UNL     1      -8.869  12.841  67.427  1.00  0.00    -0.181 N  
HETATM    9  C   UNL     1      -7.934  13.704  67.962  1.00  0.00    -0.154 C  
HETATM   10  H   UNL     1      -9.847  13.125  67.383  1.00  0.00     0.000 HD 
HETATM   11  O   UNL     1      -6.749  13.417  68.071  1.00  0.00    -0.098 OA 
BRANCH   9  12
HETATM   12  C   UNL     1      -8.407  15.066  68.310  1.00  0.00    -0.145 A  
HETATM   13  C   UNL     1      -9.499  15.152  69.192  1.00  0.00    -0.221 A  
HETATM   14  C   UNL     1     -10.174  16.360  69.369  1.00  0.00    -0.273 A  
HETATM   15  C   UNL     1      -9.804  17.502  68.646  1.00  0.00    -0.338 A  
HETATM   16 CL   UNL     1     -11.550  16.385  70.418  1.00  0.00    -0.181 Cl 
HETATM   17  C   UNL     1      -8.658  17.431  67.846  1.00  0.00    -0.232 A  
HETATM   18  N   UNL     1     -10.433  18.745  68.844  1.00  0.00    -0.402 NA 
HETATM   19  H1  UNL     1     -10.164  19.576  68.318  1.00  0.00     0.000 HD 
HETATM   20  C   UNL     1      -7.963  16.224  67.654  1.00  0.00    -0.144 A  
HETATM   21  H2  UNL     1     -10.369  18.971  69.837  1.00  0.00     0.000 HD 
BRANCH  20  22
HETATM   22  O   UNL     1      -6.960  16.322  66.726  1.00  0.00    -0.208 OA 
HETATM   23  C   UNL     1      -6.846  17.570  66.048  1.00  0.00    -0.246 C  
ENDBRANCH  20  22
ENDBRANCH   9  12
ENDBRANCH   7   8
ENDBRANCH   6   7
ENDBRANCH   3   6
ENDBRANCH   2   3
TORSDOF 7
ENDMDL
MODEL      269
REMARK 921   NORMALIZED FREE ENERGY PREDICTED BY IDOCK:   -2.94 KCAL/MOL
REMARK 922        TOTAL FREE ENERGY PREDICTED BY IDOCK:   -4.86 KCAL/MOL
REMARK 923 INTER-LIGAND FREE ENERGY PREDICTED BY IDOCK:   -4.16 KCAL/MOL
REMARK 924 INTRA-LIGAND FREE ENERGY PREDICTED BY IDOCK:   -0.71 KCAL/MOL
REMARK 927      BINDING AFFINITY PREDICTED BY RF-SCORE:    0.00 PKD
ROOT
HETATM    1  C   UNL     1      -8.874   1.835  64.035  1.00  0.00    -0.093 C  
HETATM    2  C   UNL     1      -8.417   3.287  63.941  1.00  0.00    -0.090 C  
ENDROOT
BRANCH   2   3
HETATM    3  N   UNL     1      -7.517   3.722  65.025  1.00  0.00    -0.072 NA 
BRANCH   3   4
HETATM    4  C   UNL     1      -6.424   4.605  64.571  1.00  0.00    -0.039 C  
HETATM    5  C   UNL     1      -5.177   3.918  64.017  1.00  0.00    -0.009 C  
ENDBRANCH   3   4
BRANCH   3   6
HETATM    6  C   UNL     1      -8.264   4.349  66.142  1.00  0.00    -0.102 C  
BRANCH   6   7
HETATM    7  C   UNL     1      -9.509   5.153  65.732  1.00  0.00    -0.141 C  
BRANCH   7   8
HETATM    8  N   UNL     1      -9.449   6.539  66.163  1.00  0.00    -0.353 N  
HETATM    9  C   UNL     1     -10.495   7.115  66.855  1.00  0.00    -0.294 C  
HETATM   10  H   UNL     1      -8.621   7.095  65.951  1.00  0.00     0.000 HD 
HETATM   11  O   UNL     1     -11.529   6.515  67.119  1.00  0.00    -0.221 OA 
BRANCH   9  12
HETATM   12  C   UNL     1     -10.274   8.486  67.376  1.00  0.00    -0.329 A  
HETATM   13  C   UNL     1     -10.640   8.725  68.713  1.00  0.00    -0.174 A  
HETATM   14  C   UNL     1     -10.715  10.028  69.206  1.00  0.00    -0.224 A  
HETATM   15  C   UNL     1     -10.464  11.126  68.373  1.00  0.00    -0.188 A  
HETATM   16 CL   UNL     1     -11.235  10.258  70.840  1.00  0.00    -0.385 Cl 
HETATM   17  C   UNL     1     -10.006  10.876  67.074  1.00  0.00    -0.227 A  
HETATM   18  N   UNL     1     -10.480  12.448  68.857  1.00  0.00    -0.402 NA 
HETATM   19  H1  UNL     1     -10.298  13.247  68.251  1.00  0.00     0.000 HD 
HETATM   20  C   UNL     1      -9.922   9.571  66.557  1.00  0.00    -0.261 A  
HETATM   21  H2  UNL     1      -9.832  12.498  69.643  1.00  0.00     0.000 HD 
BRANCH  20  22
HETATM   22  O   UNL     1      -9.595   9.538  65.227  1.00  0.00    -0.283 OA 
HETATM   23  C   UNL     1      -9.642  10.782  64.534  1.00  0.00    -0.270 C  
ENDBRANCH  20  22
ENDBRANCH   9  12
ENDBRANCH   7   8
ENDBRANCH   6   7
ENDBRANCH   3   6
ENDBRANCH   2   3
TORSDOF 7
ENDMDL
MODEL      270
REMARK 921   NORMALIZED FREE ENERGY PREDICTED BY IDOCK:   -2.93 KCAL/MOL
REMARK 922        TOTAL FREE ENERGY PREDICTED BY IDOCK:   -4.85 KCAL/MOL
REMARK 923 INTER-LIGAND FREE ENERGY PREDICTED BY IDOCK:   -4.39 KCAL/MOL
REMARK 924 INTRA-LIGAND FREE ENERGY PREDICTED BY IDOCK:   -0.46 KCAL/MOL
REMARK 927      BINDING AFFINITY PREDICTED BY RF-SCORE:    0.00 PKD
ROOT
HETATM    1  C   UNL     1     -10.107  13.703  67.857  1.00  0.00    -0.244 C  
HETATM    2  C   UNL     1     -11.587  13.667  68.224  1.00  0.00    -0.339 C  
ENDROOT
BRANCH   2   3
HETATM    3  N   UNL     1     -11.877  13.129  69.566  1.00  0.00    -0.316 NA 
BRANCH   3   4
HETATM    4  C   UNL     1     -12.983  13.821  70.258  1.00  0.00     0.102 C  
HETATM    5  C   UNL     1     -12.668  14.408  71.633  1.00  0.00    -0.419 C  
ENDBRANCH   3   4
BRANCH   3   6
HETATM    6  C   UNL     1     -12.116  11.666  69.533  1.00  0.00    -0.270 C  
BRANCH   6   7
HETATM    7  C   UNL     1     -11.987  10.949  70.887  1.00  0.00    -0.311 C  
BRANCH   7   8
HETATM    8  N   UNL     1     -10.880  10.009  70.921  1.00  0.00    -0.350 N  
HETATM    9  C   UNL     1     -10.851   8.974  71.834  1.00  0.00    -0.343 C  
HETATM   10  H   UNL     1     -10.111  10.116  70.260  1.00  0.00     0.000 HD 
HETATM   11  O   UNL     1     -11.726   8.803  72.674  1.00  0.00    -0.267 OA 
BRANCH   9  12
HETATM   12  C   UNL     1      -9.752   7.989  71.689  1.00  0.00    -0.222 A  
HETATM   13  C   UNL     1      -8.468   8.407  72.084  1.00  0.00    -0.245 A  
HETATM   14  C   UNL     1      -7.343   7.656  71.744  1.00  0.00    -0.065 A  
HETATM   15  C   UNL     1      -7.462   6.492  70.973  1.00  0.00    -0.085 A  
HETATM   16 CL   UNL     1      -5.787   8.258  72.202  1.00  0.00    -0.044 Cl 
HETATM   17  C   UNL     1      -8.749   6.033  70.670  1.00  0.00    -0.138 A  
HETATM   18  N   UNL     1      -6.350   5.687  70.662  1.00  0.00    -0.030 NA 
HETATM   19  H1  UNL     1      -6.436   4.840  70.100  1.00  0.00     0.000 HD 
HETATM   20  C   UNL     1      -9.896   6.773  71.002  1.00  0.00    -0.182 A  
HETATM   21  H2  UNL     1      -5.894   5.435  71.539  1.00  0.00     0.000 HD 
BRANCH  20  22
HETATM   22  O   UNL     1     -11.050   6.236  70.495  1.00  0.00    -0.286 OA 
HETATM   23  C   UNL     1     -11.073   5.999  69.090  1.00  0.00    -0.335 C  
ENDBRANCH  20  22
ENDBRANCH   9  12
ENDBRANCH   7   8
ENDBRANCH   6   7
ENDBRANCH   3   6
ENDBRANCH   2   3
TORSDOF 7
ENDMDL
MODEL      271
REMARK 921   NORMALIZED FREE ENERGY PREDICTED BY IDOCK:   -2.93 KCAL/MOL
REMARK 922        TOTAL FREE ENERGY PREDICTED BY IDOCK:   -4.85 KCAL/MOL
REMARK 923 INTER-LIGAND FREE ENERGY PREDICTED BY IDOCK:   -4.37 KCAL/MOL
REMARK 924 INTRA-LIGAND FREE ENERGY PREDICTED BY IDOCK:   -0.47 KCAL/MOL
REMARK 927      BINDING AFFINITY PREDICTED BY RF-SCORE:    0.00 PKD
ROOT
HETATM    1  C   UNL     1      -5.851   9.095  65.090  1.00  0.00    -0.058 C  
HETATM    2  C   UNL     1      -5.855   8.263  66.369  1.00  0.00    -0.041 C  
ENDROOT
BRANCH   2   3
HETATM    3  N   UNL     1      -6.629   7.011  66.287  1.00  0.00    -0.051 NA 
BRANCH   3   4
HETATM    4  C   UNL     1      -5.828   5.799  66.553  1.00  0.00    -0.018 C  
HETATM    5  C   UNL     1      -6.438   4.468  66.118  1.00  0.00    -0.041 C  
ENDBRANCH   3   4
BRANCH   3   6
HETATM    6  C   UNL     1      -7.827   7.046  67.161  1.00  0.00    -0.109 C  
BRANCH   6   7
HETATM    7  C   UNL     1      -9.172   6.857  66.439  1.00  0.00    -0.152 C  
BRANCH   7   8
HETATM    8  N   UNL     1      -9.603   8.052  65.735  1.00  0.00    -0.413 N  
HETATM    9  C   UNL     1      -9.819   9.237  66.408  1.00  0.00    -0.277 C  
HETATM   10  H   UNL     1      -9.748   8.014  64.725  1.00  0.00     0.000 HD 
HETATM   11  O   UNL     1      -9.691   9.347  67.620  1.00  0.00    -0.147 OA 
BRANCH   9  12
HETATM   12  C   UNL     1     -10.114  10.430  65.577  1.00  0.00    -0.352 A  
HETATM   13  C   UNL     1     -11.140  11.280  66.028  1.00  0.00    -0.181 A  
HETATM   14  C   UNL     1     -11.661  12.268  65.192  1.00  0.00    -0.361 A  
HETATM   15  C   UNL     1     -11.202  12.411  63.876  1.00  0.00    -0.422 A  
HETATM   16 CL   UNL     1     -12.967  13.237  65.783  1.00  0.00    -0.154 Cl 
HETATM   17  C   UNL     1     -10.115  11.628  63.471  1.00  0.00    -0.455 A  
HETATM   18  N   UNL     1     -11.671  13.433  63.030  1.00  0.00    -0.566 NA 
HETATM   19  H1  UNL     1     -11.337  13.537  62.072  1.00  0.00     0.000 HD 
HETATM   20  C   UNL     1      -9.574  10.627  64.297  1.00  0.00    -0.296 A  
HETATM   21  H2  UNL     1     -11.529  14.322  63.508  1.00  0.00     0.000 HD 
BRANCH  20  22
HETATM   22  O   UNL     1      -8.617   9.871  63.672  1.00  0.00    -0.165 OA 
HETATM   23  C   UNL     1      -9.026   9.182  62.494  1.00  0.00    -0.114 C  
ENDBRANCH  20  22
ENDBRANCH   9  12
ENDBRANCH   7   8
ENDBRANCH   6   7
ENDBRANCH   3   6
ENDBRANCH   2   3
TORSDOF 7
ENDMDL
MODEL      272
REMARK 921   NORMALIZED FREE ENERGY PREDICTED BY IDOCK:   -2.93 KCAL/MOL
REMARK 922        TOTAL FREE ENERGY PREDICTED BY IDOCK:   -4.84 KCAL/MOL
REMARK 923 INTER-LIGAND FREE ENERGY PREDICTED BY IDOCK:   -4.03 KCAL/MOL
REMARK 924 INTRA-LIGAND FREE ENERGY PREDICTED BY IDOCK:   -0.81 KCAL/MOL
REMARK 927      BINDING AFFINITY PREDICTED BY RF-SCORE:    0.00 PKD
ROOT
HETATM    1  C   UNL     1      -8.655   6.034  71.172  1.00  0.00    -0.129 C  
HETATM    2  C   UNL     1      -9.933   5.866  70.356  1.00  0.00    -0.192 C  
ENDROOT
BRANCH   2   3
HETATM    3  N   UNL     1     -10.859   7.012  70.418  1.00  0.00    -0.245 NA 
BRANCH   3   4
HETATM    4  C   UNL     1     -11.888   6.888  71.470  1.00  0.00    -0.324 C  
HETATM    5  C   UNL     1     -11.664   7.703  72.743  1.00  0.00    -0.276 C  
ENDBRANCH   3   4
BRANCH   3   6
HETATM    6  C   UNL     1     -10.134   8.299  70.546  1.00  0.00    -0.195 C  
BRANCH   6   7
HETATM    7  C   UNL     1     -10.691   9.454  69.697  1.00  0.00    -0.235 C  
BRANCH   7   8
HETATM    8  N   UNL     1      -9.796   9.841  68.620  1.00  0.00    -0.154 N  
HETATM    9  C   UNL     1      -9.885   9.253  67.374  1.00  0.00    -0.178 C  
HETATM   10  H   UNL     1      -9.091  10.559  68.787  1.00  0.00     0.000 HD 
HETATM   11  O   UNL     1     -10.688   8.367  67.112  1.00  0.00    -0.291 OA 
BRANCH   9  12
HETATM   12  C   UNL     1      -9.026   9.822  66.307  1.00  0.00    -0.180 A  
HETATM   13  C   UNL     1      -9.573   9.876  65.012  1.00  0.00    -0.364 A  
HETATM   14  C   UNL     1      -8.762  10.145  63.910  1.00  0.00    -0.210 A  
HETATM   15  C   UNL     1      -7.381  10.331  64.063  1.00  0.00    -0.063 A  
HETATM   16 CL   UNL     1      -9.483  10.132  62.337  1.00  0.00    -0.297 Cl 
HETATM   17  C   UNL     1      -6.864  10.373  65.363  1.00  0.00    -0.120 A  
HETATM   18  N   UNL     1      -6.548  10.656  62.976  1.00  0.00    -0.341 NA 
HETATM   19  H1  UNL     1      -5.543  10.791  63.088  1.00  0.00     0.000 HD 
HETATM   20  C   UNL     1      -7.663  10.105  66.487  1.00  0.00    -0.108 A  
HETATM   21  H2  UNL     1      -6.928  11.493  62.533  1.00  0.00     0.000 HD 
BRANCH  20  22
HETATM   22  O   UNL     1      -6.949  10.049  67.655  1.00  0.00    -0.083 OA 
HETATM   23  C   UNL     1      -6.226  11.224  68.011  1.00  0.00    -0.049 C  
ENDBRANCH  20  22
ENDBRANCH   9  12
ENDBRANCH   7   8
ENDBRANCH   6   7
ENDBRANCH   3   6
ENDBRANCH   2   3
TORSDOF 7
ENDMDL
MODEL      273
REMARK 921   NORMALIZED FREE ENERGY PREDICTED BY IDOCK:   -2.91 KCAL/MOL
REMARK 922        TOTAL FREE ENERGY PREDICTED BY IDOCK:   -4.82 KCAL/MOL
REMARK 923 INTER-LIGAND FREE ENERGY PREDICTED BY IDOCK:   -3.85 KCAL/MOL
REMARK 924 INTRA-LIGAND FREE ENERGY PREDICTED BY IDOCK:   -0.96 KCAL/MOL
REMARK 927      BINDING AFFINITY PREDICTED BY RF-SCORE:    0.00 PKD
ROOT
HETATM    1  C   UNL     1     -11.293   9.618  71.287  1.00  0.00    -0.458 C  
HETATM    2  C   UNL     1     -11.783  10.485  70.132  1.00  0.00    -0.326 C  
ENDROOT
BRANCH   2   3
HETATM    3  N   UNL     1     -10.989  10.371  68.895  1.00  0.00    -0.232 NA 
BRANCH   3   4
HETATM    4  C   UNL     1     -11.432  11.280  67.818  1.00  0.00    -0.275 C  
HETATM    5  C   UNL     1     -10.716  12.627  67.724  1.00  0.00    -0.239 C  
ENDBRANCH   3   4
BRANCH   3   6
HETATM    6  C   UNL     1      -9.538  10.537  69.154  1.00  0.00    -0.199 C  
BRANCH   6   7
HETATM    7  C   UNL     1      -8.640   9.419  68.600  1.00  0.00    -0.123 C  
BRANCH   7   8
HETATM    8  N   UNL     1      -9.081   8.094  69.001  1.00  0.00    -0.148 N  
HETATM    9  C   UNL     1      -8.639   7.522  70.177  1.00  0.00    -0.141 C  
HETATM   10  H   UNL     1      -9.728   7.579  68.404  1.00  0.00     0.000 HD 
HETATM   11  O   UNL     1      -7.842   8.071  70.926  1.00  0.00    -0.083 OA 
BRANCH   9  12
HETATM   12  C   UNL     1      -9.261   6.233  70.564  1.00  0.00    -0.164 A  
HETATM   13  C   UNL     1      -9.726   6.124  71.888  1.00  0.00    -0.169 A  
HETATM   14  C   UNL     1     -10.081   4.883  72.415  1.00  0.00    -0.187 A  
HETATM   15  C   UNL     1      -9.948   3.714  71.653  1.00  0.00    -0.126 A  
HETATM   16 CL   UNL     1     -10.582   4.807  74.070  1.00  0.00    -0.324 Cl 
HETATM   17  C   UNL     1      -9.580   3.844  70.309  1.00  0.00    -0.271 A  
HETATM   18  N   UNL     1     -10.349   2.457  72.141  1.00  0.00    -0.106 NA 
HETATM   19  H1  UNL     1     -10.252   1.606  71.587  1.00  0.00     0.000 HD 
HETATM   20  C   UNL     1      -9.218   5.086  69.757  1.00  0.00    -0.118 A  
HETATM   21  H2  UNL     1     -11.325   2.532  72.429  1.00  0.00     0.000 HD 
BRANCH  20  22
HETATM   22  O   UNL     1      -8.748   4.988  68.474  1.00  0.00    -0.097 OA 
HETATM   23  C   UNL     1      -7.577   4.198  68.287  1.00  0.00    -0.067 C  
ENDBRANCH  20  22
ENDBRANCH   9  12
ENDBRANCH   7   8
ENDBRANCH   6   7
ENDBRANCH   3   6
ENDBRANCH   2   3
TORSDOF 7
ENDMDL
MODEL      274
REMARK 921   NORMALIZED FREE ENERGY PREDICTED BY IDOCK:   -2.91 KCAL/MOL
REMARK 922        TOTAL FREE ENERGY PREDICTED BY IDOCK:   -4.81 KCAL/MOL
REMARK 923 INTER-LIGAND FREE ENERGY PREDICTED BY IDOCK:   -4.48 KCAL/MOL
REMARK 924 INTRA-LIGAND FREE ENERGY PREDICTED BY IDOCK:   -0.34 KCAL/MOL
REMARK 927      BINDING AFFINITY PREDICTED BY RF-SCORE:    0.00 PKD
ROOT
HETATM    1  C   UNL     1      -9.004   1.963  64.211  1.00  0.00    -0.108 C  
HETATM    2  C   UNL     1      -8.850   3.453  64.495  1.00  0.00    -0.114 C  
ENDROOT
BRANCH   2   3
HETATM    3  N   UNL     1      -8.303   3.774  65.826  1.00  0.00    -0.105 NA 
BRANCH   3   4
HETATM    4  C   UNL     1      -7.231   4.789  65.799  1.00  0.00    -0.076 C  
HETATM    5  C   UNL     1      -6.993   5.566  67.094  1.00  0.00    -0.065 C  
ENDBRANCH   3   4
BRANCH   3   6
HETATM    6  C   UNL     1      -9.369   4.166  66.780  1.00  0.00    -0.176 C  
BRANCH   6   7
HETATM    7  C   UNL     1     -10.537   4.959  66.170  1.00  0.00    -0.271 C  
BRANCH   7   8
HETATM    8  N   UNL     1     -10.483   6.375  66.492  1.00  0.00    -0.460 N  
HETATM    9  C   UNL     1     -10.860   6.838  67.736  1.00  0.00    -0.264 C  
HETATM   10  H   UNL     1     -10.161   7.037  65.786  1.00  0.00     0.000 HD 
HETATM   11  O   UNL     1     -11.282   6.103  68.620  1.00  0.00    -0.356 OA 
BRANCH   9  12
HETATM   12  C   UNL     1     -10.628   8.277  68.009  1.00  0.00    -0.188 A  
HETATM   13  C   UNL     1     -10.363   9.099  66.898  1.00  0.00    -0.321 A  
HETATM   14  C   UNL     1      -9.879  10.395  67.075  1.00  0.00    -0.191 A  
HETATM   15  C   UNL     1      -9.611  10.894  68.357  1.00  0.00    -0.177 A  
HETATM   16 CL   UNL     1      -9.511  11.332  65.668  1.00  0.00    -0.245 Cl 
HETATM   17  C   UNL     1      -9.970  10.105  69.457  1.00  0.00    -0.257 A  
HETATM   18  N   UNL     1      -9.174  12.215  68.567  1.00  0.00    -0.348 NA 
HETATM   19  H1  UNL     1      -8.979  12.577  69.500  1.00  0.00     0.000 HD 
HETATM   20  C   UNL     1     -10.460   8.797  69.301  1.00  0.00    -0.219 A  
HETATM   21  H2  UNL     1      -9.848  12.839  68.125  1.00  0.00     0.000 HD 
BRANCH  20  22
HETATM   22  O   UNL     1     -10.614   8.135  70.491  1.00  0.00    -0.212 OA 
HETATM   23  C   UNL     1     -10.183   8.826  71.660  1.00  0.00    -0.324 C  
ENDBRANCH  20  22
ENDBRANCH   9  12
ENDBRANCH   7   8
ENDBRANCH   6   7
ENDBRANCH   3   6
ENDBRANCH   2   3
TORSDOF 7
ENDMDL
MODEL      275
REMARK 921   NORMALIZED FREE ENERGY PREDICTED BY IDOCK:   -2.89 KCAL/MOL
REMARK 922        TOTAL FREE ENERGY PREDICTED BY IDOCK:   -4.79 KCAL/MOL
REMARK 923 INTER-LIGAND FREE ENERGY PREDICTED BY IDOCK:   -3.82 KCAL/MOL
REMARK 924 INTRA-LIGAND FREE ENERGY PREDICTED BY IDOCK:   -0.97 KCAL/MOL
REMARK 927      BINDING AFFINITY PREDICTED BY RF-SCORE:    0.00 PKD
ROOT
HETATM    1  C   UNL     1     -12.483  14.287  64.454  1.00  0.00    -0.328 C  
HETATM    2  C   UNL     1     -12.452  12.781  64.209  1.00  0.00    -0.382 C  
ENDROOT
BRANCH   2   3
HETATM    3  N   UNL     1     -11.243  12.100  64.707  1.00  0.00    -0.314 NA 
BRANCH   3   4
HETATM    4  C   UNL     1     -10.269  11.768  63.648  1.00  0.00    -0.428 C  
HETATM    5  C   UNL     1      -9.501  10.457  63.813  1.00  0.00    -0.353 C  
ENDBRANCH   3   4
BRANCH   3   6
HETATM    6  C   UNL     1     -10.589  12.866  65.796  1.00  0.00    -0.275 C  
BRANCH   6   7
HETATM    7  C   UNL     1     -10.726  12.258  67.201  1.00  0.00    -0.233 C  
BRANCH   7   8
HETATM    8  N   UNL     1      -9.657  11.325  67.516  1.00  0.00    -0.169 N  
HETATM    9  C   UNL     1      -9.824   9.966  67.344  1.00  0.00    -0.179 C  
HETATM   10  H   UNL     1      -8.769  11.682  67.871  1.00  0.00     0.000 HD 
HETATM   11  O   UNL     1     -10.870   9.468  66.950  1.00  0.00    -0.161 OA 
BRANCH   9  12
HETATM   12  C   UNL     1      -8.626   9.117  67.555  1.00  0.00    -0.116 A  
HETATM   13  C   UNL     1      -8.280   8.237  66.513  1.00  0.00    -0.106 A  
HETATM   14  C   UNL     1      -7.341   7.227  66.721  1.00  0.00    -0.088 A  
HETATM   15  C   UNL     1      -6.751   7.042  67.979  1.00  0.00    -0.065 A  
HETATM   16 CL   UNL     1      -7.008   6.136  65.420  1.00  0.00    -0.055 Cl 
HETATM   17  C   UNL     1      -7.027   7.982  68.979  1.00  0.00    -0.058 A  
HETATM   18  N   UNL     1      -5.762   6.066  68.202  1.00  0.00    -0.008 NA 
HETATM   19  H1  UNL     1      -5.333   5.931  69.117  1.00  0.00     0.000 HD 
HETATM   20  C   UNL     1      -7.970   9.008  68.791  1.00  0.00    -0.101 A  
HETATM   21  H2  UNL     1      -5.014   6.221  67.526  1.00  0.00     0.000 HD 
BRANCH  20  22
HETATM   22  O   UNL     1      -8.210   9.734  69.928  1.00  0.00    -0.152 OA 
HETATM   23  C   UNL     1      -9.258   9.262  70.769  1.00  0.00    -0.253 C  
ENDBRANCH  20  22
ENDBRANCH   9  12
ENDBRANCH   7   8
ENDBRANCH   6   7
ENDBRANCH   3   6
ENDBRANCH   2   3
TORSDOF 7
ENDMDL
MODEL      276
REMARK 921   NORMALIZED FREE ENERGY PREDICTED BY IDOCK:   -2.87 KCAL/MOL
REMARK 922        TOTAL FREE ENERGY PREDICTED BY IDOCK:   -4.76 KCAL/MOL
REMARK 923 INTER-LIGAND FREE ENERGY PREDICTED BY IDOCK:   -4.02 KCAL/MOL
REMARK 924 INTRA-LIGAND FREE ENERGY PREDICTED BY IDOCK:   -0.74 KCAL/MOL
REMARK 927      BINDING AFFINITY PREDICTED BY RF-SCORE:    0.00 PKD
ROOT
HETATM    1  C   UNL     1     -12.516  12.024  63.506  1.00  0.00    -0.654 C  
HETATM    2  C   UNL     1     -11.006  12.226  63.577  1.00  0.00    -0.459 C  
ENDROOT
BRANCH   2   3
HETATM    3  N   UNL     1     -10.222  10.982  63.684  1.00  0.00    -0.358 NA 
BRANCH   3   4
HETATM    4  C   UNL     1      -9.222  10.815  62.610  1.00  0.00    -0.324 C  
HETATM    5  C   UNL     1      -8.123   9.783  62.855  1.00  0.00    -0.139 C  
ENDBRANCH   3   4
BRANCH   3   6
HETATM    6  C   UNL     1      -9.584  10.846  65.016  1.00  0.00    -0.251 C  
BRANCH   6   7
HETATM    7  C   UNL     1     -10.247   9.831  65.962  1.00  0.00    -0.193 C  
BRANCH   7   8
HETATM    8  N   UNL     1      -9.343   8.769  66.368  1.00  0.00    -0.187 N  
HETATM    9  C   UNL     1      -9.824   7.577  66.871  1.00  0.00    -0.226 C  
HETATM   10  H   UNL     1      -8.336   8.906  66.280  1.00  0.00     0.000 HD 
HETATM   11  O   UNL     1     -11.018   7.356  67.030  1.00  0.00    -0.332 OA 
BRANCH   9  12
HETATM   12  C   UNL     1      -8.827   6.508  67.117  1.00  0.00    -0.110 A  
HETATM   13  C   UNL     1      -9.219   5.192  66.812  1.00  0.00    -0.123 A  
HETATM   14  C   UNL     1      -8.460   4.106  67.249  1.00  0.00    -0.100 A  
HETATM   15  C   UNL     1      -7.313   4.300  68.031  1.00  0.00    -0.064 A  
HETATM   16 CL   UNL     1      -9.030   2.511  66.897  1.00  0.00    -0.153 Cl 
HETATM   17  C   UNL     1      -6.878   5.613  68.246  1.00  0.00    -0.063 A  
HETATM   18  N   UNL     1      -6.500   3.227  68.440  1.00  0.00    -0.036 NA 
HETATM   19  H1  UNL     1      -5.666   3.368  69.010  1.00  0.00     0.000 HD 
HETATM   20  C   UNL     1      -7.628   6.721  67.814  1.00  0.00    -0.107 A  
HETATM   21  H2  UNL     1      -6.223   2.711  67.605  1.00  0.00     0.000 HD 
BRANCH  20  22
HETATM   22  O   UNL     1      -7.117   7.918  68.245  1.00  0.00    -0.083 OA 
HETATM   23  C   UNL     1      -7.278   8.213  69.629  1.00  0.00    -0.065 C  
ENDBRANCH  20  22
ENDBRANCH   9  12
ENDBRANCH   7   8
ENDBRANCH   6   7
ENDBRANCH   3   6
ENDBRANCH   2   3
TORSDOF 7
ENDMDL
MODEL      277
REMARK 921   NORMALIZED FREE ENERGY PREDICTED BY IDOCK:   -2.87 KCAL/MOL
REMARK 922        TOTAL FREE ENERGY PREDICTED BY IDOCK:   -4.76 KCAL/MOL
REMARK 923 INTER-LIGAND FREE ENERGY PREDICTED BY IDOCK:   -3.90 KCAL/MOL
REMARK 924 INTRA-LIGAND FREE ENERGY PREDICTED BY IDOCK:   -0.86 KCAL/MOL
REMARK 927      BINDING AFFINITY PREDICTED BY RF-SCORE:    0.00 PKD
ROOT
HETATM    1  C   UNL     1      -6.787   7.600  66.626  1.00  0.00    -0.066 C  
HETATM    2  C   UNL     1      -7.912   7.998  65.677  1.00  0.00    -0.114 C  
ENDROOT
BRANCH   2   3
HETATM    3  N   UNL     1      -8.655   6.867  65.092  1.00  0.00    -0.015 NA 
BRANCH   3   4
HETATM    4  C   UNL     1      -7.877   6.091  64.106  1.00  0.00    -0.117 C  
HETATM    5  C   UNL     1      -8.493   4.775  63.634  1.00  0.00    -0.128 C  
ENDBRANCH   3   4
BRANCH   3   6
HETATM    6  C   UNL     1      -9.211   5.974  66.138  1.00  0.00    -0.138 C  
BRANCH   6   7
HETATM    7  C   UNL     1     -10.470   6.498  66.848  1.00  0.00    -0.277 C  
BRANCH   7   8
HETATM    8  N   UNL     1     -10.299   6.607  68.286  1.00  0.00    -0.174 N  
HETATM    9  C   UNL     1      -9.967   7.810  68.876  1.00  0.00    -0.182 C  
HETATM   10  H   UNL     1     -10.427   5.780  68.871  1.00  0.00     0.000 HD 
HETATM   11  O   UNL     1      -9.772   8.834  68.234  1.00  0.00    -0.152 OA 
BRANCH   9  12
HETATM   12  C   UNL     1      -9.961   7.846  70.358  1.00  0.00    -0.192 A  
HETATM   13  C   UNL     1      -8.761   8.239  70.979  1.00  0.00    -0.169 A  
HETATM   14  C   UNL     1      -8.577   8.053  72.349  1.00  0.00    -0.163 A  
HETATM   15  C   UNL     1      -9.566   7.438  73.129  1.00  0.00    -0.210 A  
HETATM   16 CL   UNL     1      -7.055   8.496  73.041  1.00  0.00    -0.099 Cl 
HETATM   17  C   UNL     1     -10.792   7.141  72.522  1.00  0.00    -0.299 A  
HETATM   18  N   UNL     1      -9.429   7.286  74.522  1.00  0.00    -0.424 NA 
HETATM   19  H1  UNL     1     -10.148   6.838  75.089  1.00  0.00     0.000 HD 
HETATM   20  C   UNL     1     -10.998   7.321  71.144  1.00  0.00    -0.247 A  
HETATM   21  H2  UNL     1      -9.248   8.208  74.918  1.00  0.00     0.000 HD 
BRANCH  20  22
HETATM   22  O   UNL     1     -12.206   6.837  70.712  1.00  0.00    -0.390 OA 
HETATM   23  C   UNL     1     -13.340   7.167  71.509  1.00  0.00    -0.344 C  
ENDBRANCH  20  22
ENDBRANCH   9  12
ENDBRANCH   7   8
ENDBRANCH   6   7
ENDBRANCH   3   6
ENDBRANCH   2   3
TORSDOF 7
ENDMDL
MODEL      278
REMARK 921   NORMALIZED FREE ENERGY PREDICTED BY IDOCK:   -2.84 KCAL/MOL
REMARK 922        TOTAL FREE ENERGY PREDICTED BY IDOCK:   -4.72 KCAL/MOL
REMARK 923 INTER-LIGAND FREE ENERGY PREDICTED BY IDOCK:   -4.22 KCAL/MOL
REMARK 924 INTRA-LIGAND FREE ENERGY PREDICTED BY IDOCK:   -0.50 KCAL/MOL
REMARK 927      BINDING AFFINITY PREDICTED BY RF-SCORE:    0.00 PKD
ROOT
HETATM    1  C   UNL     1      -7.722   4.609  67.330  1.00  0.00    -0.090 C  
HETATM    2  C   UNL     1      -9.167   5.096  67.289  1.00  0.00    -0.115 C  
ENDROOT
BRANCH   2   3
HETATM    3  N   UNL     1      -9.940   4.836  68.517  1.00  0.00    -0.125 NA 
BRANCH   3   4
HETATM    4  C   UNL     1      -9.127   4.307  69.631  1.00  0.00    -0.115 C  
HETATM    5  C   UNL     1      -9.493   2.914  70.142  1.00  0.00    -0.198 C  
ENDBRANCH   3   4
BRANCH   3   6
HETATM    6  C   UNL     1     -10.704   6.031  68.951  1.00  0.00    -0.317 C  
BRANCH   6   7
HETATM    7  C   UNL     1      -9.854   7.191  69.497  1.00  0.00    -0.162 C  
BRANCH   7   8
HETATM    8  N   UNL     1     -10.375   8.494  69.122  1.00  0.00    -0.216 N  
HETATM    9  C   UNL     1      -9.716   9.654  69.477  1.00  0.00    -0.203 C  
HETATM   10  H   UNL     1     -11.242   8.552  68.587  1.00  0.00     0.000 HD 
HETATM   11  O   UNL     1      -8.689   9.659  70.141  1.00  0.00    -0.211 OA 
BRANCH   9  12
HETATM   12  C   UNL     1     -10.252  10.920  68.920  1.00  0.00    -0.213 A  
HETATM   13  C   UNL     1     -11.048  11.703  69.775  1.00  0.00    -0.116 A  
HETATM   14  C   UNL     1     -11.802  12.762  69.269  1.00  0.00    -0.303 A  
HETATM   15  C   UNL     1     -11.812  13.046  67.897  1.00  0.00    -0.343 A  
HETATM   16 CL   UNL     1     -12.812  13.645  70.362  1.00  0.00    -0.185 Cl 
HETATM   17  C   UNL     1     -10.942  12.325  67.071  1.00  0.00    -0.314 A  
HETATM   18  N   UNL     1     -12.521  14.140  67.367  1.00  0.00    -0.510 NA 
HETATM   19  H1  UNL     1     -12.528  14.346  66.368  1.00  0.00     0.000 HD 
HETATM   20  C   UNL     1     -10.174  11.254  67.559  1.00  0.00    -0.189 A  
HETATM   21  H2  UNL     1     -12.208  14.979  67.856  1.00  0.00     0.000 HD 
BRANCH  20  22
HETATM   22  O   UNL     1      -9.499  10.581  66.574  1.00  0.00    -0.160 OA 
HETATM   23  C   UNL     1      -8.077  10.616  66.644  1.00  0.00    -0.136 C  
ENDBRANCH  20  22
ENDBRANCH   9  12
ENDBRANCH   7   8
ENDBRANCH   6   7
ENDBRANCH   3   6
ENDBRANCH   2   3
TORSDOF 7
ENDMDL
MODEL      279
REMARK 921   NORMALIZED FREE ENERGY PREDICTED BY IDOCK:   -2.84 KCAL/MOL
REMARK 922        TOTAL FREE ENERGY PREDICTED BY IDOCK:   -4.72 KCAL/MOL
REMARK 923 INTER-LIGAND FREE ENERGY PREDICTED BY IDOCK:   -4.08 KCAL/MOL
REMARK 924 INTRA-LIGAND FREE ENERGY PREDICTED BY IDOCK:   -0.64 KCAL/MOL
REMARK 927      BINDING AFFINITY PREDICTED BY RF-SCORE:    0.00 PKD
ROOT
HETATM    1  C   UNL     1     -12.882  11.194  71.531  1.00  0.00    -0.542 C  
HETATM    2  C   UNL     1     -12.350  11.328  70.107  1.00  0.00    -0.276 C  
ENDROOT
BRANCH   2   3
HETATM    3  N   UNL     1     -11.376  10.293  69.714  1.00  0.00    -0.261 NA 
BRANCH   3   4
HETATM    4  C   UNL     1     -10.350  10.773  68.766  1.00  0.00    -0.192 C  
HETATM    5  C   UNL     1     -10.852  11.566  67.560  1.00  0.00    -0.285 C  
ENDBRANCH   3   4
BRANCH   3   6
HETATM    6  C   UNL     1     -10.740   9.658  70.893  1.00  0.00    -0.332 C  
BRANCH   6   7
HETATM    7  C   UNL     1     -10.687   8.122  70.863  1.00  0.00    -0.221 C  
BRANCH   7   8
HETATM    8  N   UNL     1      -9.921   7.609  69.740  1.00  0.00    -0.182 N  
HETATM    9  C   UNL     1     -10.244   6.404  69.149  1.00  0.00    -0.182 C  
HETATM   10  H   UNL     1      -9.133   8.148  69.382  1.00  0.00     0.000 HD 
HETATM   11  O   UNL     1     -11.158   5.693  69.543  1.00  0.00    -0.310 OA 
BRANCH   9  12
HETATM   12  C   UNL     1      -9.494   6.043  67.921  1.00  0.00    -0.112 A  
HETATM   13  C   UNL     1     -10.215   5.389  66.906  1.00  0.00    -0.279 A  
HETATM   14  C   UNL     1      -9.549   4.783  65.840  1.00  0.00    -0.180 A  
HETATM   15  C   UNL     1      -8.149   4.781  65.776  1.00  0.00    -0.111 A  
HETATM   16 CL   UNL     1     -10.489   3.937  64.659  1.00  0.00    -0.229 Cl 
HETATM   17  C   UNL     1      -7.446   5.518  66.736  1.00  0.00    -0.087 A  
HETATM   18  N   UNL     1      -7.454   4.225  64.687  1.00  0.00    -0.071 NA 
HETATM   19  H1  UNL     1      -6.435   4.224  64.640  1.00  0.00     0.000 HD 
HETATM   20  C   UNL     1      -8.098   6.136  67.818  1.00  0.00    -0.113 A  
HETATM   21  H2  UNL     1      -7.803   4.667  63.836  1.00  0.00     0.000 HD 
BRANCH  20  22
HETATM   22  O   UNL     1      -7.231   6.683  68.728  1.00  0.00    -0.079 OA 
HETATM   23  C   UNL     1      -6.148   7.439  68.194  1.00  0.00    -0.035 C  
ENDBRANCH  20  22
ENDBRANCH   9  12
ENDBRANCH   7   8
ENDBRANCH   6   7
ENDBRANCH   3   6
ENDBRANCH   2   3
TORSDOF 7
ENDMDL
MODEL      280
REMARK 921   NORMALIZED FREE ENERGY PREDICTED BY IDOCK:   -2.82 KCAL/MOL
REMARK 922        TOTAL FREE ENERGY PREDICTED BY IDOCK:   -4.69 KCAL/MOL
REMARK 923 INTER-LIGAND FREE ENERGY PREDICTED BY IDOCK:   -4.20 KCAL/MOL
REMARK 924 INTRA-LIGAND FREE ENERGY PREDICTED BY IDOCK:   -0.50 KCAL/MOL
REMARK 927      BINDING AFFINITY PREDICTED BY RF-SCORE:    0.00 PKD
ROOT
HETATM    1  C   UNL     1      -9.488  13.382  67.499  1.00  0.00    -0.219 C  
HETATM    2  C   UNL     1      -9.208  12.555  66.248  1.00  0.00    -0.132 C  
ENDROOT
BRANCH   2   3
HETATM    3  N   UNL     1     -10.412  12.115  65.519  1.00  0.00    -0.256 NA 
BRANCH   3   4
HETATM    4  C   UNL     1     -10.992  13.154  64.645  1.00  0.00    -0.356 C  
HETATM    5  C   UNL     1     -12.347  13.721  65.065  1.00  0.00    -0.456 C  
ENDBRANCH   3   4
BRANCH   3   6
HETATM    6  C   UNL     1     -10.166  10.868  64.753  1.00  0.00    -0.333 C  
BRANCH   6   7
HETATM    7  C   UNL     1      -8.873  10.119  65.116  1.00  0.00    -0.183 C  
BRANCH   7   8
HETATM    8  N   UNL     1      -9.003   8.678  64.980  1.00  0.00    -0.414 N  
HETATM    9  C   UNL     1      -8.451   7.822  65.912  1.00  0.00    -0.142 C  
HETATM   10  H   UNL     1      -9.510   8.293  64.183  1.00  0.00     0.000 HD 
HETATM   11  O   UNL     1      -7.807   8.214  66.876  1.00  0.00    -0.094 OA 
BRANCH   9  12
HETATM   12  C   UNL     1      -8.765   6.381  65.759  1.00  0.00    -0.135 A  
HETATM   13  C   UNL     1      -8.260   5.738  64.615  1.00  0.00    -0.126 A  
HETATM   14  C   UNL     1      -8.715   4.470  64.254  1.00  0.00    -0.146 A  
HETATM   15  C   UNL     1      -9.711   3.825  65.000  1.00  0.00    -0.183 A  
HETATM   16 CL   UNL     1      -8.103   3.761  62.799  1.00  0.00    -0.074 Cl 
HETATM   17  C   UNL     1     -10.135   4.429  66.190  1.00  0.00    -0.257 A  
HETATM   18  N   UNL     1     -10.150   2.525  64.690  1.00  0.00    -0.353 NA 
HETATM   19  H1  UNL     1     -10.875   2.056  65.233  1.00  0.00     0.000 HD 
HETATM   20  C   UNL     1      -9.689   5.706  66.572  1.00  0.00    -0.160 A  
HETATM   21  H2  UNL     1      -9.332   1.916  64.672  1.00  0.00     0.000 HD 
BRANCH  20  22
HETATM   22  O   UNL     1     -10.327   6.188  67.685  1.00  0.00    -0.153 OA 
HETATM   23  C   UNL     1     -10.629   5.238  68.702  1.00  0.00    -0.026 C  
ENDBRANCH  20  22
ENDBRANCH   9  12
ENDBRANCH   7   8
ENDBRANCH   6   7
ENDBRANCH   3   6
ENDBRANCH   2   3
TORSDOF 7
ENDMDL
MODEL      281
REMARK 921   NORMALIZED FREE ENERGY PREDICTED BY IDOCK:   -2.82 KCAL/MOL
REMARK 922        TOTAL FREE ENERGY PREDICTED BY IDOCK:   -4.69 KCAL/MOL
REMARK 923 INTER-LIGAND FREE ENERGY PREDICTED BY IDOCK:   -3.77 KCAL/MOL
REMARK 924 INTRA-LIGAND FREE ENERGY PREDICTED BY IDOCK:   -0.92 KCAL/MOL
REMARK 927      BINDING AFFINITY PREDICTED BY RF-SCORE:    0.00 PKD
ROOT
HETATM    1  C   UNL     1      -9.899  10.372  64.481  1.00  0.00    -0.405 C  
HETATM    2  C   UNL     1      -8.689   9.541  64.066  1.00  0.00    -0.216 C  
ENDROOT
BRANCH   2   3
HETATM    3  N   UNL     1      -7.872   9.040  65.187  1.00  0.00    -0.104 NA 
BRANCH   3   4
HETATM    4  C   UNL     1      -7.638   7.582  65.145  1.00  0.00    -0.096 C  
HETATM    5  C   UNL     1      -6.876   7.047  63.934  1.00  0.00    -0.051 C  
ENDBRANCH   3   4
BRANCH   3   6
HETATM    6  C   UNL     1      -6.587   9.771  65.302  1.00  0.00    -0.098 C  
BRANCH   6   7
HETATM    7  C   UNL     1      -6.372  10.514  66.631  1.00  0.00    -0.084 C  
BRANCH   7   8
HETATM    8  N   UNL     1      -7.217  11.688  66.761  1.00  0.00    -0.287 N  
HETATM    9  C   UNL     1      -8.283  11.705  67.638  1.00  0.00    -0.141 C  
HETATM   10  H   UNL     1      -7.020  12.514  66.195  1.00  0.00     0.000 HD 
HETATM   11  O   UNL     1      -8.595  10.741  68.326  1.00  0.00    -0.124 OA 
BRANCH   9  12
HETATM   12  C   UNL     1      -8.991  12.999  67.801  1.00  0.00    -0.191 A  
HETATM   13  C   UNL     1     -10.225  13.135  67.139  1.00  0.00    -0.244 A  
HETATM   14  C   UNL     1     -10.829  14.387  67.017  1.00  0.00    -0.297 A  
HETATM   15  C   UNL     1     -10.205  15.537  67.517  1.00  0.00    -0.254 A  
HETATM   16 CL   UNL     1     -12.313  14.498  66.135  1.00  0.00    -0.301 Cl 
HETATM   17  C   UNL     1      -9.028  15.378  68.258  1.00  0.00    -0.185 A  
HETATM   18  N   UNL     1     -10.816  16.803  67.455  1.00  0.00    -0.270 NA 
HETATM   19  H1  UNL     1     -10.362  17.641  67.819  1.00  0.00     0.000 HD 
HETATM   20  C   UNL     1      -8.402  14.126  68.394  1.00  0.00    -0.161 A  
HETATM   21  H2  UNL     1     -11.732  16.728  67.899  1.00  0.00     0.000 HD 
BRANCH  20  22
HETATM   22  O   UNL     1      -7.189  14.196  69.027  1.00  0.00    -0.116 OA 
HETATM   23  C   UNL     1      -6.647  15.500  69.212  1.00  0.00    -0.147 C  
ENDBRANCH  20  22
ENDBRANCH   9  12
ENDBRANCH   7   8
ENDBRANCH   6   7
ENDBRANCH   3   6
ENDBRANCH   2   3
TORSDOF 7
ENDMDL
MODEL      282
REMARK 921   NORMALIZED FREE ENERGY PREDICTED BY IDOCK:   -2.81 KCAL/MOL
REMARK 922        TOTAL FREE ENERGY PREDICTED BY IDOCK:   -4.68 KCAL/MOL
REMARK 923 INTER-LIGAND FREE ENERGY PREDICTED BY IDOCK:   -4.19 KCAL/MOL
REMARK 924 INTRA-LIGAND FREE ENERGY PREDICTED BY IDOCK:   -0.49 KCAL/MOL
REMARK 927      BINDING AFFINITY PREDICTED BY RF-SCORE:    0.00 PKD
ROOT
HETATM    1  C   UNL     1     -10.986   2.611  62.545  1.00  0.00    -0.169 C  
HETATM    2  C   UNL     1     -10.540   3.544  63.666  1.00  0.00    -0.272 C  
ENDROOT
BRANCH   2   3
HETATM    3  N   UNL     1      -9.566   2.958  64.604  1.00  0.00    -0.148 NA 
BRANCH   3   4
HETATM    4  C   UNL     1      -8.296   2.552  63.967  1.00  0.00    -0.082 C  
HETATM    5  C   UNL     1      -7.311   1.778  64.841  1.00  0.00    -0.057 C  
ENDBRANCH   3   4
BRANCH   3   6
HETATM    6  C   UNL     1      -9.307   3.853  65.759  1.00  0.00    -0.162 C  
BRANCH   6   7
HETATM    7  C   UNL     1     -10.468   4.785  66.141  1.00  0.00    -0.290 C  
BRANCH   7   8
HETATM    8  N   UNL     1     -10.084   6.186  66.148  1.00  0.00    -0.406 N  
HETATM    9  C   UNL     1     -10.427   7.013  67.198  1.00  0.00    -0.312 C  
HETATM   10  H   UNL     1      -9.552   6.564  65.364  1.00  0.00     0.000 HD 
HETATM   11  O   UNL     1     -11.088   6.634  68.156  1.00  0.00    -0.257 OA 
BRANCH   9  12
HETATM   12  C   UNL     1      -9.862   8.385  67.177  1.00  0.00    -0.279 A  
HETATM   13  C   UNL     1     -10.277   9.226  66.128  1.00  0.00    -0.229 A  
HETATM   14  C   UNL     1      -9.611  10.425  65.876  1.00  0.00    -0.206 A  
HETATM   15  C   UNL     1      -8.493  10.800  66.635  1.00  0.00    -0.142 A  
HETATM   16 CL   UNL     1     -10.127  11.383  64.531  1.00  0.00    -0.314 Cl 
HETATM   17  C   UNL     1      -8.150  10.006  67.735  1.00  0.00    -0.109 A  
HETATM   18  N   UNL     1      -7.836  12.028  66.437  1.00  0.00    -0.375 NA 
HETATM   19  H1  UNL     1      -7.023  12.300  66.989  1.00  0.00     0.000 HD 
HETATM   20  C   UNL     1      -8.809   8.794  68.008  1.00  0.00    -0.141 A  
HETATM   21  H2  UNL     1      -8.531  12.770  66.519  1.00  0.00     0.000 HD 
BRANCH  20  22
HETATM   22  O   UNL     1      -8.236   8.090  69.035  1.00  0.00    -0.124 OA 
HETATM   23  C   UNL     1      -8.051   8.795  70.259  1.00  0.00    -0.116 C  
ENDBRANCH  20  22
ENDBRANCH   9  12
ENDBRANCH   7   8
ENDBRANCH   6   7
ENDBRANCH   3   6
ENDBRANCH   2   3
TORSDOF 7
ENDMDL
MODEL      283
REMARK 921   NORMALIZED FREE ENERGY PREDICTED BY IDOCK:   -2.80 KCAL/MOL
REMARK 922        TOTAL FREE ENERGY PREDICTED BY IDOCK:   -4.66 KCAL/MOL
REMARK 923 INTER-LIGAND FREE ENERGY PREDICTED BY IDOCK:   -4.09 KCAL/MOL
REMARK 924 INTRA-LIGAND FREE ENERGY PREDICTED BY IDOCK:   -0.57 KCAL/MOL
REMARK 927      BINDING AFFINITY PREDICTED BY RF-SCORE:    0.00 PKD
ROOT
HETATM    1  C   UNL     1     -14.362   7.313  71.499  1.00  0.00    -0.558 C  
HETATM    2  C   UNL     1     -12.902   7.272  71.941  1.00  0.00    -0.262 C  
ENDROOT
BRANCH   2   3
HETATM    3  N   UNL     1     -11.937   7.723  70.922  1.00  0.00    -0.256 NA 
BRANCH   3   4
HETATM    4  C   UNL     1     -11.301   9.018  71.236  1.00  0.00    -0.319 C  
HETATM    5  C   UNL     1      -9.819   9.153  70.889  1.00  0.00    -0.359 C  
ENDBRANCH   3   4
BRANCH   3   6
HETATM    6  C   UNL     1     -10.909   6.691  70.643  1.00  0.00    -0.253 C  
BRANCH   6   7
HETATM    7  C   UNL     1     -11.033   5.991  69.280  1.00  0.00    -0.366 C  
BRANCH   7   8
HETATM    8  N   UNL     1     -10.040   6.447  68.322  1.00  0.00    -0.143 N  
HETATM    9  C   UNL     1     -10.389   6.748  67.022  1.00  0.00    -0.268 C  
HETATM   10  H   UNL     1      -9.068   6.546  68.617  1.00  0.00     0.000 HD 
HETATM   11  O   UNL     1     -11.530   6.626  66.594  1.00  0.00    -0.011 OA 
BRANCH   9  12
HETATM   12  C   UNL     1      -9.332   7.343  66.169  1.00  0.00    -0.111 A  
HETATM   13  C   UNL     1      -8.256   6.508  65.816  1.00  0.00    -0.135 A  
HETATM   14  C   UNL     1      -7.101   7.042  65.246  1.00  0.00    -0.068 A  
HETATM   15  C   UNL     1      -6.970   8.424  65.048  1.00  0.00    -0.074 A  
HETATM   16 CL   UNL     1      -5.788   5.971  64.895  1.00  0.00    -0.024 Cl 
HETATM   17  C   UNL     1      -8.081   9.233  65.311  1.00  0.00    -0.121 A  
HETATM   18  N   UNL     1      -5.838   8.984  64.427  1.00  0.00    -0.068 NA 
HETATM   19  H1  UNL     1      -5.743   9.989  64.283  1.00  0.00     0.000 HD 
HETATM   20  C   UNL     1      -9.256   8.715  65.885  1.00  0.00    -0.202 A  
HETATM   21  H2  UNL     1      -5.722   8.527  63.522  1.00  0.00     0.000 HD 
BRANCH  20  22
HETATM   22  O   UNL     1     -10.172   9.683  66.202  1.00  0.00    -0.266 OA 
HETATM   23  C   UNL     1      -9.782  11.030  65.953  1.00  0.00    -0.224 C  
ENDBRANCH  20  22
ENDBRANCH   9  12
ENDBRANCH   7   8
ENDBRANCH   6   7
ENDBRANCH   3   6
ENDBRANCH   2   3
TORSDOF 7
ENDMDL
MODEL      284
REMARK 921   NORMALIZED FREE ENERGY PREDICTED BY IDOCK:   -2.80 KCAL/MOL
REMARK 922        TOTAL FREE ENERGY PREDICTED BY IDOCK:   -4.66 KCAL/MOL
REMARK 923 INTER-LIGAND FREE ENERGY PREDICTED BY IDOCK:   -4.18 KCAL/MOL
REMARK 924 INTRA-LIGAND FREE ENERGY PREDICTED BY IDOCK:   -0.48 KCAL/MOL
REMARK 927      BINDING AFFINITY PREDICTED BY RF-SCORE:    0.00 PKD
ROOT
HETATM    1  C   UNL     1     -10.550   8.266  67.057  1.00  0.00    -0.328 C  
HETATM    2  C   UNL     1     -10.366   7.492  68.359  1.00  0.00    -0.195 C  
ENDROOT
BRANCH   2   3
HETATM    3  N   UNL     1     -10.232   8.332  69.562  1.00  0.00    -0.206 NA 
BRANCH   3   4
HETATM    4  C   UNL     1      -9.171   7.883  70.486  1.00  0.00    -0.158 C  
HETATM    5  C   UNL     1      -9.443   8.064  71.979  1.00  0.00    -0.257 C  
ENDBRANCH   3   4
BRANCH   3   6
HETATM    6  C   UNL     1     -10.052   9.764  69.218  1.00  0.00    -0.198 C  
BRANCH   6   7
HETATM    7  C   UNL     1      -8.611  10.182  68.882  1.00  0.00    -0.141 C  
BRANCH   7   8
HETATM    8  N   UNL     1      -8.361  11.590  69.141  1.00  0.00    -0.372 N  
HETATM    9  C   UNL     1      -8.537  12.538  68.153  1.00  0.00    -0.189 C  
HETATM   10  H   UNL     1      -8.051  11.882  70.068  1.00  0.00     0.000 HD 
HETATM   11  O   UNL     1      -8.880  12.255  67.013  1.00  0.00    -0.192 OA 
BRANCH   9  12
HETATM   12  C   UNL     1      -8.397  13.957  68.561  1.00  0.00    -0.132 A  
HETATM   13  C   UNL     1      -9.397  14.845  68.125  1.00  0.00    -0.193 A  
HETATM   14  C   UNL     1      -9.217  16.224  68.232  1.00  0.00    -0.197 A  
HETATM   15  C   UNL     1      -8.024  16.755  68.741  1.00  0.00    -0.250 A  
HETATM   16 CL   UNL     1     -10.457  17.263  67.618  1.00  0.00    -0.356 Cl 
HETATM   17  C   UNL     1      -7.078  15.865  69.262  1.00  0.00    -0.206 A  
HETATM   18  N   UNL     1      -7.838  18.140  68.910  1.00  0.00    -0.241 NA 
HETATM   19  H1  UNL     1      -6.970  18.527  69.280  1.00  0.00     0.000 HD 
HETATM   20  C   UNL     1      -7.239  14.472  69.165  1.00  0.00    -0.138 A  
HETATM   21  H2  UNL     1      -8.605  18.489  69.485  1.00  0.00     0.000 HD 
BRANCH  20  22
HETATM   22  O   UNL     1      -6.144  13.772  69.597  1.00  0.00    -0.105 OA 
HETATM   23  C   UNL     1      -5.935  13.732  71.006  1.00  0.00    -0.123 C  
ENDBRANCH  20  22
ENDBRANCH   9  12
ENDBRANCH   7   8
ENDBRANCH   6   7
ENDBRANCH   3   6
ENDBRANCH   2   3
TORSDOF 7
ENDMDL
MODEL      285
REMARK 921   NORMALIZED FREE ENERGY PREDICTED BY IDOCK:   -2.79 KCAL/MOL
REMARK 922        TOTAL FREE ENERGY PREDICTED BY IDOCK:   -4.65 KCAL/MOL
REMARK 923 INTER-LIGAND FREE ENERGY PREDICTED BY IDOCK:   -3.99 KCAL/MOL
REMARK 924 INTRA-LIGAND FREE ENERGY PREDICTED BY IDOCK:   -0.65 KCAL/MOL
REMARK 927      BINDING AFFINITY PREDICTED BY RF-SCORE:    0.00 PKD
ROOT
HETATM    1  C   UNL     1     -11.211  13.020  64.212  1.00  0.00    -0.411 C  
HETATM    2  C   UNL     1     -11.390  13.281  65.705  1.00  0.00    -0.304 C  
ENDROOT
BRANCH   2   3
HETATM    3  N   UNL     1     -10.139  13.547  66.438  1.00  0.00    -0.287 NA 
BRANCH   3   4
HETATM    4  C   UNL     1     -10.042  14.922  66.969  1.00  0.00    -0.244 C  
HETATM    5  C   UNL     1      -9.376  15.958  66.064  1.00  0.00    -0.385 C  
ENDBRANCH   3   4
BRANCH   3   6
HETATM    6  C   UNL     1      -9.910  12.555  67.516  1.00  0.00    -0.198 C  
BRANCH   6   7
HETATM    7  C   UNL     1     -10.085  11.084  67.103  1.00  0.00    -0.193 C  
BRANCH   7   8
HETATM    8  N   UNL     1      -9.670  10.156  68.141  1.00  0.00    -0.139 N  
HETATM    9  C   UNL     1     -10.048   8.829  68.103  1.00  0.00    -0.190 C  
HETATM   10  H   UNL     1      -9.089  10.491  68.909  1.00  0.00     0.000 HD 
HETATM   11  O   UNL     1     -10.767   8.367  67.227  1.00  0.00    -0.285 OA 
BRANCH   9  12
HETATM   12  C   UNL     1      -9.451   7.938  69.128  1.00  0.00    -0.155 A  
HETATM   13  C   UNL     1     -10.335   7.102  69.835  1.00  0.00    -0.224 A  
HETATM   14  C   UNL     1      -9.910   6.431  70.982  1.00  0.00    -0.180 A  
HETATM   15  C   UNL     1      -8.610   6.602  71.475  1.00  0.00    -0.124 A  
HETATM   16 CL   UNL     1     -11.063   5.470  71.843  1.00  0.00    -0.273 Cl 
HETATM   17  C   UNL     1      -7.712   7.356  70.711  1.00  0.00    -0.088 A  
HETATM   18  N   UNL     1      -8.140   5.897  72.598  1.00  0.00    -0.105 NA 
HETATM   19  H1  UNL     1      -7.193   6.022  72.957  1.00  0.00     0.000 HD 
HETATM   20  C   UNL     1      -8.118   8.041  69.552  1.00  0.00    -0.120 A  
HETATM   21  H2  UNL     1      -8.276   4.902  72.419  1.00  0.00     0.000 HD 
BRANCH  20  22
HETATM   22  O   UNL     1      -7.136   8.840  69.027  1.00  0.00    -0.063 OA 
HETATM   23  C   UNL     1      -5.899   8.869  69.733  1.00  0.00    -0.028 C  
ENDBRANCH  20  22
ENDBRANCH   9  12
ENDBRANCH   7   8
ENDBRANCH   6   7
ENDBRANCH   3   6
ENDBRANCH   2   3
TORSDOF 7
ENDMDL
MODEL      286
REMARK 921   NORMALIZED FREE ENERGY PREDICTED BY IDOCK:   -2.79 KCAL/MOL
REMARK 922        TOTAL FREE ENERGY PREDICTED BY IDOCK:   -4.64 KCAL/MOL
REMARK 923 INTER-LIGAND FREE ENERGY PREDICTED BY IDOCK:   -4.05 KCAL/MOL
REMARK 924 INTRA-LIGAND FREE ENERGY PREDICTED BY IDOCK:   -0.59 KCAL/MOL
REMARK 927      BINDING AFFINITY PREDICTED BY RF-SCORE:    0.00 PKD
ROOT
HETATM    1  C   UNL     1     -12.419   8.595  71.648  1.00  0.00    -0.382 C  
HETATM    2  C   UNL     1     -11.379   9.174  70.693  1.00  0.00    -0.273 C  
ENDROOT
BRANCH   2   3
HETATM    3  N   UNL     1     -10.304   8.239  70.312  1.00  0.00    -0.204 NA 
BRANCH   3   4
HETATM    4  C   UNL     1      -9.925   7.299  71.386  1.00  0.00    -0.187 C  
HETATM    5  C   UNL     1      -8.585   6.582  71.224  1.00  0.00    -0.127 C  
ENDBRANCH   3   4
BRANCH   3   6
HETATM    6  C   UNL     1     -10.631   7.502  69.066  1.00  0.00    -0.180 C  
BRANCH   6   7
HETATM    7  C   UNL     1     -10.229   8.208  67.761  1.00  0.00    -0.228 C  
BRANCH   7   8
HETATM    8  N   UNL     1      -9.778   9.572  67.976  1.00  0.00    -0.144 N  
HETATM    9  C   UNL     1     -10.549  10.648  67.585  1.00  0.00    -0.246 C  
HETATM   10  H   UNL     1      -8.876   9.737  68.424  1.00  0.00     0.000 HD 
HETATM   11  O   UNL     1     -11.626  10.523  67.017  1.00  0.00    -0.174 OA 
BRANCH   9  12
HETATM   12  C   UNL     1     -10.065  11.993  67.982  1.00  0.00    -0.199 A  
HETATM   13  C   UNL     1     -11.032  13.010  68.086  1.00  0.00    -0.269 A  
HETATM   14  C   UNL     1     -10.646  14.346  68.193  1.00  0.00    -0.236 A  
HETATM   15  C   UNL     1      -9.292  14.707  68.163  1.00  0.00    -0.197 A  
HETATM   16 CL   UNL     1     -11.883  15.554  68.251  1.00  0.00    -0.282 Cl 
HETATM   17  C   UNL     1      -8.338  13.683  68.159  1.00  0.00    -0.166 A  
HETATM   18  N   UNL     1      -8.873  16.041  68.324  1.00  0.00    -0.178 NA 
HETATM   19  H1  UNL     1      -7.888  16.304  68.302  1.00  0.00     0.000 HD 
HETATM   20  C   UNL     1      -8.705  12.330  68.051  1.00  0.00    -0.181 A  
HETATM   21  H2  UNL     1      -9.269  16.388  69.198  1.00  0.00     0.000 HD 
BRANCH  20  22
HETATM   22  O   UNL     1      -7.631  11.490  67.915  1.00  0.00    -0.103 OA 
HETATM   23  C   UNL     1      -6.728  11.435  69.015  1.00  0.00    -0.092 C  
ENDBRANCH  20  22
ENDBRANCH   9  12
ENDBRANCH   7   8
ENDBRANCH   6   7
ENDBRANCH   3   6
ENDBRANCH   2   3
TORSDOF 7
ENDMDL
MODEL      287
REMARK 921   NORMALIZED FREE ENERGY PREDICTED BY IDOCK:   -2.77 KCAL/MOL
REMARK 922        TOTAL FREE ENERGY PREDICTED BY IDOCK:   -4.61 KCAL/MOL
REMARK 923 INTER-LIGAND FREE ENERGY PREDICTED BY IDOCK:   -4.03 KCAL/MOL
REMARK 924 INTRA-LIGAND FREE ENERGY PREDICTED BY IDOCK:   -0.59 KCAL/MOL
REMARK 927      BINDING AFFINITY PREDICTED BY RF-SCORE:    0.00 PKD
ROOT
HETATM    1  C   UNL     1     -11.863  12.850  69.470  1.00  0.00    -0.383 C  
HETATM    2  C   UNL     1     -11.548  11.678  68.546  1.00  0.00    -0.317 C  
ENDROOT
BRANCH   2   3
HETATM    3  N   UNL     1     -11.210  10.421  69.238  1.00  0.00    -0.241 NA 
BRANCH   3   4
HETATM    4  C   UNL     1      -9.833   9.953  68.981  1.00  0.00    -0.190 C  
HETATM    5  C   UNL     1      -9.285  10.184  67.574  1.00  0.00    -0.150 C  
ENDBRANCH   3   4
BRANCH   3   6
HETATM    6  C   UNL     1     -11.467  10.508  70.696  1.00  0.00    -0.327 C  
BRANCH   6   7
HETATM    7  C   UNL     1     -12.192   9.298  71.308  1.00  0.00    -0.334 C  
BRANCH   7   8
HETATM    8  N   UNL     1     -11.328   8.497  72.159  1.00  0.00    -0.352 N  
HETATM    9  C   UNL     1     -10.810   7.296  71.719  1.00  0.00    -0.224 C  
HETATM   10  H   UNL     1     -11.100   8.829  73.096  1.00  0.00     0.000 HD 
HETATM   11  O   UNL     1     -11.064   6.825  70.618  1.00  0.00    -0.257 OA 
BRANCH   9  12
HETATM   12  C   UNL     1      -9.825   6.631  72.607  1.00  0.00    -0.180 A  
HETATM   13  C   UNL     1      -8.715   7.396  73.008  1.00  0.00    -0.178 A  
HETATM   14  C   UNL     1      -7.617   6.788  73.616  1.00  0.00    -0.081 A  
HETATM   15  C   UNL     1      -7.580   5.400  73.808  1.00  0.00    -0.094 A  
HETATM   16 CL   UNL     1      -6.255   7.773  74.026  1.00  0.00    -0.080 Cl 
HETATM   17  C   UNL     1      -8.728   4.662  73.496  1.00  0.00    -0.103 A  
HETATM   18  N   UNL     1      -6.510   4.767  74.468  1.00  0.00    -0.058 NA 
HETATM   19  H1  UNL     1      -6.483   3.757  74.607  1.00  0.00     0.000 HD 
HETATM   20  C   UNL     1      -9.845   5.256  72.883  1.00  0.00    -0.156 A  
HETATM   21  H2  UNL     1      -6.401   5.210  75.380  1.00  0.00     0.000 HD 
BRANCH  20  22
HETATM   22  O   UNL     1     -10.807   4.348  72.523  1.00  0.00    -0.140 OA 
HETATM   23  C   UNL     1     -11.269   3.476  73.549  1.00  0.00    -0.181 C  
ENDBRANCH  20  22
ENDBRANCH   9  12
ENDBRANCH   7   8
ENDBRANCH   6   7
ENDBRANCH   3   6
ENDBRANCH   2   3
TORSDOF 7
ENDMDL
MODEL      288
REMARK 921   NORMALIZED FREE ENERGY PREDICTED BY IDOCK:   -2.77 KCAL/MOL
REMARK 922        TOTAL FREE ENERGY PREDICTED BY IDOCK:   -4.61 KCAL/MOL
REMARK 923 INTER-LIGAND FREE ENERGY PREDICTED BY IDOCK:   -3.92 KCAL/MOL
REMARK 924 INTRA-LIGAND FREE ENERGY PREDICTED BY IDOCK:   -0.70 KCAL/MOL
REMARK 927      BINDING AFFINITY PREDICTED BY RF-SCORE:    0.00 PKD
ROOT
HETATM    1  C   UNL     1     -10.476  11.681  64.041  1.00  0.00    -0.418 C  
HETATM    2  C   UNL     1      -9.342  11.526  65.049  1.00  0.00    -0.089 C  
ENDROOT
BRANCH   2   3
HETATM    3  N   UNL     1      -8.854  10.146  65.220  1.00  0.00    -0.167 NA 
BRANCH   3   4
HETATM    4  C   UNL     1      -7.618  10.048  66.023  1.00  0.00    -0.111 C  
HETATM    5  C   UNL     1      -7.220   8.651  66.497  1.00  0.00    -0.080 C  
ENDBRANCH   3   4
BRANCH   3   6
HETATM    6  C   UNL     1      -9.904   9.253  65.769  1.00  0.00    -0.231 C  
BRANCH   6   7
HETATM    7  C   UNL     1     -10.539   9.721  67.089  1.00  0.00    -0.229 C  
BRANCH   7   8
HETATM    8  N   UNL     1     -10.738   8.634  68.032  1.00  0.00    -0.452 N  
HETATM    9  C   UNL     1      -9.891   8.460  69.107  1.00  0.00    -0.183 C  
HETATM   10  H   UNL     1     -11.516   7.989  67.896  1.00  0.00     0.000 HD 
HETATM   11  O   UNL     1      -8.922   9.179  69.315  1.00  0.00    -0.138 OA 
BRANCH   9  12
HETATM   12  C   UNL     1     -10.267   7.413  70.088  1.00  0.00    -0.207 A  
HETATM   13  C   UNL     1     -10.373   7.812  71.433  1.00  0.00    -0.226 A  
HETATM   14  C   UNL     1     -10.462   6.860  72.450  1.00  0.00    -0.208 A  
HETATM   15  C   UNL     1     -10.409   5.490  72.158  1.00  0.00    -0.213 A  
HETATM   16 CL   UNL     1     -10.524   7.414  74.088  1.00  0.00     0.048 Cl 
HETATM   17  C   UNL     1     -10.403   5.105  70.813  1.00  0.00    -0.294 A  
HETATM   18  N   UNL     1     -10.550   4.510  73.158  1.00  0.00    -0.199 NA 
HETATM   19  H1  UNL     1     -10.511   3.513  72.945  1.00  0.00     0.000 HD 
HETATM   20  C   UNL     1     -10.314   6.047  69.773  1.00  0.00    -0.228 A  
HETATM   21  H2  UNL     1     -11.425   4.690  73.649  1.00  0.00     0.000 HD 
BRANCH  20  22
HETATM   22  O   UNL     1     -10.172   5.472  68.537  1.00  0.00    -0.169 OA 
HETATM   23  C   UNL     1      -9.047   4.617  68.362  1.00  0.00    -0.120 C  
ENDBRANCH  20  22
ENDBRANCH   9  12
ENDBRANCH   7   8
ENDBRANCH   6   7
ENDBRANCH   3   6
ENDBRANCH   2   3
TORSDOF 7
ENDMDL
MODEL      289
REMARK 921   NORMALIZED FREE ENERGY PREDICTED BY IDOCK:   -2.74 KCAL/MOL
REMARK 922        TOTAL FREE ENERGY PREDICTED BY IDOCK:   -4.58 KCAL/MOL
REMARK 923 INTER-LIGAND FREE ENERGY PREDICTED BY IDOCK:   -3.84 KCAL/MOL
REMARK 924 INTRA-LIGAND FREE ENERGY PREDICTED BY IDOCK:   -0.74 KCAL/MOL
REMARK 927      BINDING AFFINITY PREDICTED BY RF-SCORE:    0.00 PKD
ROOT
HETATM    1  C   UNL     1      -8.313   8.324  72.915  1.00  0.00    -0.245 C  
HETATM    2  C   UNL     1      -8.671   7.262  73.950  1.00  0.00    -0.191 C  
ENDROOT
BRANCH   2   3
HETATM    3  N   UNL     1      -8.763   5.889  73.418  1.00  0.00    -0.121 NA 
BRANCH   3   4
HETATM    4  C   UNL     1      -7.574   5.061  73.702  1.00  0.00    -0.092 C  
HETATM    5  C   UNL     1      -6.980   4.292  72.523  1.00  0.00    -0.056 C  
ENDBRANCH   3   4
BRANCH   3   6
HETATM    6  C   UNL     1      -9.997   5.204  73.874  1.00  0.00    -0.176 C  
BRANCH   6   7
HETATM    7  C   UNL     1     -11.233   5.417  72.985  1.00  0.00    -0.311 C  
BRANCH   7   8
HETATM    8  N   UNL     1     -10.917   6.088  71.736  1.00  0.00    -0.260 N  
HETATM    9  C   UNL     1     -10.484   5.378  70.635  1.00  0.00    -0.259 C  
HETATM   10  H   UNL     1     -11.017   7.102  71.672  1.00  0.00     0.000 HD 
HETATM   11  O   UNL     1     -10.315   4.166  70.649  1.00  0.00     0.012 OA 
BRANCH   9  12
HETATM   12  C   UNL     1     -10.330   6.138  69.370  1.00  0.00    -0.283 A  
HETATM   13  C   UNL     1      -9.825   5.433  68.263  1.00  0.00    -0.196 A  
HETATM   14  C   UNL     1      -9.403   6.115  67.121  1.00  0.00    -0.118 A  
HETATM   15  C   UNL     1      -9.438   7.515  67.066  1.00  0.00    -0.162 A  
HETATM   16 CL   UNL     1      -8.730   5.195  65.819  1.00  0.00    -0.134 Cl 
HETATM   17  C   UNL     1     -10.032   8.200  68.132  1.00  0.00    -0.219 A  
HETATM   18  N   UNL     1      -9.068   8.224  65.908  1.00  0.00    -0.292 NA 
HETATM   19  H1  UNL     1      -9.093   9.243  65.869  1.00  0.00     0.000 HD 
HETATM   20  C   UNL     1     -10.465   7.533  69.292  1.00  0.00    -0.214 A  
HETATM   21  H2  UNL     1      -9.628   7.868  65.134  1.00  0.00     0.000 HD 
BRANCH  20  22
HETATM   22  O   UNL     1     -10.882   8.386  70.280  1.00  0.00    -0.236 OA 
HETATM   23  C   UNL     1     -10.593   9.767  70.086  1.00  0.00    -0.285 C  
ENDBRANCH  20  22
ENDBRANCH   9  12
ENDBRANCH   7   8
ENDBRANCH   6   7
ENDBRANCH   3   6
ENDBRANCH   2   3
TORSDOF 7
ENDMDL
MODEL      290
REMARK 921   NORMALIZED FREE ENERGY PREDICTED BY IDOCK:   -2.74 KCAL/MOL
REMARK 922        TOTAL FREE ENERGY PREDICTED BY IDOCK:   -4.57 KCAL/MOL
REMARK 923 INTER-LIGAND FREE ENERGY PREDICTED BY IDOCK:   -3.94 KCAL/MOL
REMARK 924 INTRA-LIGAND FREE ENERGY PREDICTED BY IDOCK:   -0.64 KCAL/MOL
REMARK 927      BINDING AFFINITY PREDICTED BY RF-SCORE:    0.00 PKD
ROOT
HETATM    1  C   UNL     1     -11.000   2.625  62.408  1.00  0.00    -0.162 C  
HETATM    2  C   UNL     1     -10.610   3.519  63.581  1.00  0.00    -0.272 C  
ENDROOT
BRANCH   2   3
HETATM    3  N   UNL     1      -9.700   2.893  64.558  1.00  0.00    -0.142 NA 
BRANCH   3   4
HETATM    4  C   UNL     1      -8.385   2.526  63.995  1.00  0.00    -0.082 C  
HETATM    5  C   UNL     1      -7.212   2.482  64.972  1.00  0.00    -0.058 C  
ENDBRANCH   3   4
BRANCH   3   6
HETATM    6  C   UNL     1      -9.533   3.732  65.770  1.00  0.00    -0.170 C  
BRANCH   6   7
HETATM    7  C   UNL     1     -10.563   4.861  65.935  1.00  0.00    -0.230 C  
BRANCH   7   8
HETATM    8  N   UNL     1      -9.953   6.127  66.303  1.00  0.00    -0.377 N  
HETATM    9  C   UNL     1     -10.288   6.763  67.482  1.00  0.00    -0.210 C  
HETATM   10  H   UNL     1      -9.266   6.553  65.681  1.00  0.00     0.000 HD 
HETATM   11  O   UNL     1     -11.123   6.323  68.261  1.00  0.00    -0.324 OA 
BRANCH   9  12
HETATM   12  C   UNL     1      -9.502   7.971  67.833  1.00  0.00    -0.161 A  
HETATM   13  C   UNL     1      -8.828   7.954  69.067  1.00  0.00    -0.145 A  
HETATM   14  C   UNL     1      -8.288   9.126  69.596  1.00  0.00    -0.130 A  
HETATM   15  C   UNL     1      -8.437  10.350  68.931  1.00  0.00    -0.144 A  
HETATM   16 CL   UNL     1      -7.528   9.051  71.149  1.00  0.00    -0.128 Cl 
HETATM   17  C   UNL     1      -9.023  10.340  67.659  1.00  0.00    -0.137 A  
HETATM   18  N   UNL     1      -7.857  11.537  69.415  1.00  0.00    -0.353 NA 
HETATM   19  H1  UNL     1      -7.966  12.428  68.931  1.00  0.00     0.000 HD 
HETATM   20  C   UNL     1      -9.573   9.170  67.107  1.00  0.00    -0.164 A  
HETATM   21  H2  UNL     1      -6.858  11.368  69.536  1.00  0.00     0.000 HD 
BRANCH  20  22
HETATM   22  O   UNL     1     -10.229   9.390  65.924  1.00  0.00    -0.259 OA 
HETATM   23  C   UNL     1      -9.505  10.095  64.921  1.00  0.00    -0.289 C  
ENDBRANCH  20  22
ENDBRANCH   9  12
ENDBRANCH   7   8
ENDBRANCH   6   7
ENDBRANCH   3   6
ENDBRANCH   2   3
TORSDOF 7
ENDMDL
MODEL      291
REMARK 921   NORMALIZED FREE ENERGY PREDICTED BY IDOCK:   -2.74 KCAL/MOL
REMARK 922        TOTAL FREE ENERGY PREDICTED BY IDOCK:   -4.57 KCAL/MOL
REMARK 923 INTER-LIGAND FREE ENERGY PREDICTED BY IDOCK:   -3.96 KCAL/MOL
REMARK 924 INTRA-LIGAND FREE ENERGY PREDICTED BY IDOCK:   -0.62 KCAL/MOL
REMARK 927      BINDING AFFINITY PREDICTED BY RF-SCORE:    0.00 PKD
ROOT
HETATM    1  C   UNL     1     -13.106  11.733  71.706  1.00  0.00    -0.480 C  
HETATM    2  C   UNL     1     -12.250  11.694  70.444  1.00  0.00    -0.347 C  
ENDROOT
BRANCH   2   3
HETATM    3  N   UNL     1     -11.591  10.401  70.185  1.00  0.00    -0.289 NA 
BRANCH   3   4
HETATM    4  C   UNL     1     -10.403  10.504  69.314  1.00  0.00    -0.227 C  
HETATM    5  C   UNL     1     -10.633  10.296  67.818  1.00  0.00    -0.296 C  
ENDBRANCH   3   4
BRANCH   3   6
HETATM    6  C   UNL     1     -11.256   9.692  71.443  1.00  0.00    -0.356 C  
BRANCH   6   7
HETATM    7  C   UNL     1     -11.603   8.194  71.466  1.00  0.00    -0.275 C  
BRANCH   7   8
HETATM    8  N   UNL     1     -10.563   7.368  70.879  1.00  0.00    -0.222 N  
HETATM    9  C   UNL     1     -10.542   6.002  71.077  1.00  0.00    -0.246 C  
HETATM   10  H   UNL     1      -9.835   7.804  70.313  1.00  0.00     0.000 HD 
HETATM   11  O   UNL     1     -11.366   5.416  71.767  1.00  0.00    -0.113 OA 
BRANCH   9  12
HETATM   12  C   UNL     1      -9.525   5.235  70.316  1.00  0.00    -0.225 A  
HETATM   13  C   UNL     1      -8.419   4.755  71.041  1.00  0.00    -0.118 A  
HETATM   14  C   UNL     1      -7.297   4.259  70.376  1.00  0.00    -0.045 A  
HETATM   15  C   UNL     1      -7.232   4.262  68.976  1.00  0.00    -0.051 A  
HETATM   16 CL   UNL     1      -5.943   3.745  71.323  1.00  0.00    -0.013 Cl 
HETATM   17  C   UNL     1      -8.374   4.649  68.266  1.00  0.00    -0.090 A  
HETATM   18  N   UNL     1      -6.136   3.719  68.280  1.00  0.00    -0.030 NA 
HETATM   19  H1  UNL     1      -6.088   3.722  67.261  1.00  0.00     0.000 HD 
HETATM   20  C   UNL     1      -9.515   5.152  68.915  1.00  0.00    -0.134 A  
HETATM   21  H2  UNL     1      -6.013   2.757  68.595  1.00  0.00     0.000 HD 
BRANCH  20  22
HETATM   22  O   UNL     1     -10.469   5.614  68.047  1.00  0.00    -0.205 OA 
HETATM   23  C   UNL     1     -10.070   5.760  66.688  1.00  0.00    -0.193 C  
ENDBRANCH  20  22
ENDBRANCH   9  12
ENDBRANCH   7   8
ENDBRANCH   6   7
ENDBRANCH   3   6
ENDBRANCH   2   3
TORSDOF 7
ENDMDL
MODEL      292
REMARK 921   NORMALIZED FREE ENERGY PREDICTED BY IDOCK:   -2.73 KCAL/MOL
REMARK 922        TOTAL FREE ENERGY PREDICTED BY IDOCK:   -4.56 KCAL/MOL
REMARK 923 INTER-LIGAND FREE ENERGY PREDICTED BY IDOCK:   -4.82 KCAL/MOL
REMARK 924 INTRA-LIGAND FREE ENERGY PREDICTED BY IDOCK:    0.26 KCAL/MOL
REMARK 927      BINDING AFFINITY PREDICTED BY RF-SCORE:    0.00 PKD
ROOT
HETATM    1  C   UNL     1     -10.413  14.167  67.725  1.00  0.00    -0.246 C  
HETATM    2  C   UNL     1     -11.632  14.414  68.608  1.00  0.00    -0.314 C  
ENDROOT
BRANCH   2   3
HETATM    3  N   UNL     1     -11.720  13.544  69.795  1.00  0.00    -0.302 NA 
BRANCH   3   4
HETATM    4  C   UNL     1     -12.462  14.147  70.921  1.00  0.00    -0.365 C  
HETATM    5  C   UNL     1     -11.645  14.976  71.911  1.00  0.00    -0.426 C  
ENDBRANCH   3   4
BRANCH   3   6
HETATM    6  C   UNL     1     -12.275  12.210  69.460  1.00  0.00    -0.109 C  
BRANCH   6   7
HETATM    7  C   UNL     1     -11.677  11.033  70.248  1.00  0.00    -0.355 C  
BRANCH   7   8
HETATM    8  N   UNL     1     -10.778  10.220  69.446  1.00  0.00    -0.225 N  
HETATM    9  C   UNL     1     -10.904  10.162  68.073  1.00  0.00    -0.270 C  
HETATM   10  H   UNL     1     -10.043   9.683  69.906  1.00  0.00     0.000 HD 
HETATM   11  O   UNL     1     -11.780  10.758  67.459  1.00  0.00    -0.510 OA 
BRANCH   9  12
HETATM   12  C   UNL     1      -9.848   9.422  67.338  1.00  0.00    -0.222 A  
HETATM   13  C   UNL     1      -8.762  10.176  66.859  1.00  0.00    -0.135 A  
HETATM   14  C   UNL     1      -7.865   9.624  65.944  1.00  0.00    -0.102 A  
HETATM   15  C   UNL     1      -8.048   8.323  65.454  1.00  0.00    -0.135 A  
HETATM   16 CL   UNL     1      -6.588  10.623  65.342  1.00  0.00    -0.075 Cl 
HETATM   17  C   UNL     1      -9.073   7.550  66.011  1.00  0.00    -0.139 A  
HETATM   18  N   UNL     1      -7.130   7.723  64.573  1.00  0.00    -0.063 NA 
HETATM   19  H1  UNL     1      -7.263   6.777  64.216  1.00  0.00     0.000 HD 
HETATM   20  C   UNL     1      -9.987   8.086  66.935  1.00  0.00    -0.268 A  
HETATM   21  H2  UNL     1      -6.208   7.766  65.007  1.00  0.00     0.000 HD 
BRANCH  20  22
HETATM   22  O   UNL     1     -11.002   7.221  67.251  1.00  0.00    -0.293 OA 
HETATM   23  C   UNL     1     -10.867   5.886  66.775  1.00  0.00    -0.270 C  
ENDBRANCH  20  22
ENDBRANCH   9  12
ENDBRANCH   7   8
ENDBRANCH   6   7
ENDBRANCH   3   6
ENDBRANCH   2   3
TORSDOF 7
ENDMDL
MODEL      293
REMARK 921   NORMALIZED FREE ENERGY PREDICTED BY IDOCK:   -2.72 KCAL/MOL
REMARK 922        TOTAL FREE ENERGY PREDICTED BY IDOCK:   -4.55 KCAL/MOL
REMARK 923 INTER-LIGAND FREE ENERGY PREDICTED BY IDOCK:   -3.59 KCAL/MOL
REMARK 924 INTRA-LIGAND FREE ENERGY PREDICTED BY IDOCK:   -0.95 KCAL/MOL
REMARK 927      BINDING AFFINITY PREDICTED BY RF-SCORE:    0.00 PKD
ROOT
HETATM    1  C   UNL     1     -11.658   9.970  71.166  1.00  0.00    -0.460 C  
HETATM    2  C   UNL     1     -11.635  10.614  69.783  1.00  0.00    -0.309 C  
ENDROOT
BRANCH   2   3
HETATM    3  N   UNL     1     -10.602  10.086  68.874  1.00  0.00    -0.209 NA 
BRANCH   3   4
HETATM    4  C   UNL     1     -10.995  10.107  67.450  1.00  0.00    -0.229 C  
HETATM    5  C   UNL     1     -10.658  11.375  66.667  1.00  0.00    -0.302 C  
ENDBRANCH   3   4
BRANCH   3   6
HETATM    6  C   UNL     1      -9.299  10.770  69.064  1.00  0.00    -0.156 C  
BRANCH   6   7
HETATM    7  C   UNL     1      -8.142   9.864  69.517  1.00  0.00    -0.152 C  
BRANCH   7   8
HETATM    8  N   UNL     1      -8.596   8.567  69.988  1.00  0.00    -0.131 N  
HETATM    9  C   UNL     1      -7.726   7.500  70.083  1.00  0.00    -0.089 C  
HETATM   10  H   UNL     1      -9.573   8.444  70.253  1.00  0.00     0.000 HD 
HETATM   11  O   UNL     1      -6.549   7.569  69.756  1.00  0.00    -0.038 OA 
BRANCH   9  12
HETATM   12  C   UNL     1      -8.255   6.265  70.713  1.00  0.00    -0.125 A  
HETATM   13  C   UNL     1      -7.309   5.313  71.136  1.00  0.00    -0.082 A  
HETATM   14  C   UNL     1      -7.710   4.026  71.493  1.00  0.00    -0.065 A  
HETATM   15  C   UNL     1      -9.055   3.641  71.403  1.00  0.00    -0.116 A  
HETATM   16 CL   UNL     1      -6.492   2.881  71.941  1.00  0.00    -0.015 Cl 
HETATM   17  C   UNL     1      -9.999   4.622  71.076  1.00  0.00    -0.270 A  
HETATM   18  N   UNL     1      -9.495   2.367  71.807  1.00  0.00    -0.114 NA 
HETATM   19  H1  UNL     1     -10.473   2.087  71.742  1.00  0.00     0.000 HD 
HETATM   20  C   UNL     1      -9.617   5.926  70.714  1.00  0.00    -0.170 A  
HETATM   21  H2  UNL     1      -9.194   2.226  72.772  1.00  0.00     0.000 HD 
BRANCH  20  22
HETATM   22  O   UNL     1     -10.667   6.696  70.287  1.00  0.00    -0.220 OA 
HETATM   23  C   UNL     1     -11.260   6.324  69.047  1.00  0.00    -0.343 C  
ENDBRANCH  20  22
ENDBRANCH   9  12
ENDBRANCH   7   8
ENDBRANCH   6   7
ENDBRANCH   3   6
ENDBRANCH   2   3
TORSDOF 7
ENDMDL
MODEL      294
REMARK 921   NORMALIZED FREE ENERGY PREDICTED BY IDOCK:   -2.71 KCAL/MOL
REMARK 922        TOTAL FREE ENERGY PREDICTED BY IDOCK:   -4.54 KCAL/MOL
REMARK 923 INTER-LIGAND FREE ENERGY PREDICTED BY IDOCK:   -3.59 KCAL/MOL
REMARK 924 INTRA-LIGAND FREE ENERGY PREDICTED BY IDOCK:   -0.95 KCAL/MOL
REMARK 927      BINDING AFFINITY PREDICTED BY RF-SCORE:    0.00 PKD
ROOT
HETATM    1  C   UNL     1      -7.584   7.687  63.998  1.00  0.00    -0.114 C  
HETATM    2  C   UNL     1      -7.103   6.330  64.501  1.00  0.00    -0.057 C  
ENDROOT
BRANCH   2   3
HETATM    3  N   UNL     1      -8.125   5.536  65.207  1.00  0.00    -0.115 NA 
BRANCH   3   4
HETATM    4  C   UNL     1      -8.487   4.283  64.514  1.00  0.00    -0.111 C  
HETATM    5  C   UNL     1      -9.691   3.521  65.066  1.00  0.00    -0.142 C  
ENDBRANCH   3   4
BRANCH   3   6
HETATM    6  C   UNL     1      -7.736   5.261  66.612  1.00  0.00    -0.096 C  
BRANCH   6   7
HETATM    7  C   UNL     1      -8.522   6.045  67.676  1.00  0.00    -0.107 C  
BRANCH   7   8
HETATM    8  N   UNL     1      -8.430   7.483  67.495  1.00  0.00    -0.119 N  
HETATM    9  C   UNL     1      -9.531   8.226  67.120  1.00  0.00    -0.160 C  
HETATM   10  H   UNL     1      -7.537   7.952  67.648  1.00  0.00     0.000 HD 
HETATM   11  O   UNL     1     -10.625   7.726  66.893  1.00  0.00    -0.343 OA 
BRANCH   9  12
HETATM   12  C   UNL     1      -9.367   9.700  67.107  1.00  0.00    -0.168 A  
HETATM   13  C   UNL     1     -10.540  10.471  67.197  1.00  0.00    -0.319 A  
HETATM   14  C   UNL     1     -10.512  11.840  66.931  1.00  0.00    -0.223 A  
HETATM   15  C   UNL     1      -9.325  12.469  66.532  1.00  0.00    -0.233 A  
HETATM   16 CL   UNL     1     -12.000  12.719  66.996  1.00  0.00    -0.421 Cl 
HETATM   17  C   UNL     1      -8.146  11.715  66.540  1.00  0.00    -0.075 A  
HETATM   18  N   UNL     1      -9.256  13.857  66.309  1.00  0.00    -0.489 NA 
HETATM   19  H1  UNL     1      -8.392  14.315  66.018  1.00  0.00     0.000 HD 
HETATM   20  C   UNL     1      -8.152  10.334  66.806  1.00  0.00    -0.121 A  
HETATM   21  H2  UNL     1      -9.587  14.324  67.153  1.00  0.00     0.000 HD 
BRANCH  20  22
HETATM   22  O   UNL     1      -6.928   9.745  66.623  1.00  0.00    -0.083 OA 
HETATM   23  C   UNL     1      -5.830  10.625  66.398  1.00  0.00    -0.092 C  
ENDBRANCH  20  22
ENDBRANCH   9  12
ENDBRANCH   7   8
ENDBRANCH   6   7
ENDBRANCH   3   6
ENDBRANCH   2   3
TORSDOF 7
ENDMDL
MODEL      295
REMARK 921   NORMALIZED FREE ENERGY PREDICTED BY IDOCK:   -2.70 KCAL/MOL
REMARK 922        TOTAL FREE ENERGY PREDICTED BY IDOCK:   -4.52 KCAL/MOL
REMARK 923 INTER-LIGAND FREE ENERGY PREDICTED BY IDOCK:   -4.01 KCAL/MOL
REMARK 924 INTRA-LIGAND FREE ENERGY PREDICTED BY IDOCK:   -0.52 KCAL/MOL
REMARK 927      BINDING AFFINITY PREDICTED BY RF-SCORE:    0.00 PKD
ROOT
HETATM    1  C   UNL     1      -5.654  17.588  71.689  1.00  0.00     0.682 C  
HETATM    2  C   UNL     1      -5.128  16.641  70.616  1.00  0.00    -0.224 C  
ENDROOT
BRANCH   2   3
HETATM    3  N   UNL     1      -6.150  16.148  69.674  1.00  0.00    -0.172 NA 
BRANCH   3   4
HETATM    4  C   UNL     1      -6.066  16.760  68.333  1.00  0.00    -0.133 C  
HETATM    5  C   UNL     1      -5.302  18.079  68.230  1.00  0.00    -0.160 C  
ENDBRANCH   3   4
BRANCH   3   6
HETATM    6  C   UNL     1      -6.138  14.668  69.574  1.00  0.00    -0.113 C  
BRANCH   6   7
HETATM    7  C   UNL     1      -7.517  13.993  69.667  1.00  0.00     0.321 C  
BRANCH   7   8
HETATM    8  N   UNL     1      -8.394  14.355  68.567  1.00  0.00    -0.154 N  
HETATM    9  C   UNL     1      -9.343  13.472  68.092  1.00  0.00    -0.213 C  
HETATM   10  H   UNL     1      -8.308  15.277  68.139  1.00  0.00     0.000 HD 
HETATM   11  O   UNL     1      -9.482  12.341  68.540  1.00  0.00    -0.192 OA 
BRANCH   9  12
HETATM   12  C   UNL     1     -10.282  13.991  67.069  1.00  0.00    -0.261 A  
HETATM   13  C   UNL     1     -10.830  13.052  66.175  1.00  0.00    -0.296 A  
HETATM   14  C   UNL     1     -11.506  13.474  65.031  1.00  0.00    -0.318 A  
HETATM   15  C   UNL     1     -11.623  14.837  64.726  1.00  0.00    -0.418 A  
HETATM   16 CL   UNL     1     -12.099  12.271  63.938  1.00  0.00    -0.557 Cl 
HETATM   17  C   UNL     1     -11.161  15.763  65.669  1.00  0.00    -0.055 A  
HETATM   18  N   UNL     1     -12.345  15.292  63.607  1.00  0.00    -0.865 NA 
HETATM   19  H1  UNL     1     -12.430  16.284  63.386  1.00  0.00     0.000 HD 
HETATM   20  C   UNL     1     -10.477  15.360  66.829  1.00  0.00    -0.299 A  
HETATM   21  H2  UNL     1     -13.287  14.904  63.667  1.00  0.00     0.000 HD 
BRANCH  20  22
HETATM   22  O   UNL     1      -9.977  16.411  67.552  1.00  0.00    -0.241 OA 
HETATM   23  C   UNL     1     -10.482  17.702  67.223  1.00  0.00    -0.338 C  
ENDBRANCH  20  22
ENDBRANCH   9  12
ENDBRANCH   7   8
ENDBRANCH   6   7
ENDBRANCH   3   6
ENDBRANCH   2   3
TORSDOF 7
ENDMDL
MODEL      296
REMARK 921   NORMALIZED FREE ENERGY PREDICTED BY IDOCK:   -2.69 KCAL/MOL
REMARK 922        TOTAL FREE ENERGY PREDICTED BY IDOCK:   -4.51 KCAL/MOL
REMARK 923 INTER-LIGAND FREE ENERGY PREDICTED BY IDOCK:   -4.07 KCAL/MOL
REMARK 924 INTRA-LIGAND FREE ENERGY PREDICTED BY IDOCK:   -0.44 KCAL/MOL
REMARK 927      BINDING AFFINITY PREDICTED BY RF-SCORE:    0.00 PKD
ROOT
HETATM    1  C   UNL     1      -7.813   8.148  73.912  1.00  0.00    -0.259 C  
HETATM    2  C   UNL     1      -8.997   7.230  74.201  1.00  0.00    -0.226 C  
ENDROOT
BRANCH   2   3
HETATM    3  N   UNL     1      -9.920   7.039  73.068  1.00  0.00    -0.181 NA 
BRANCH   3   4
HETATM    4  C   UNL     1     -10.463   8.301  72.525  1.00  0.00    -0.336 C  
HETATM    5  C   UNL     1     -11.984   8.396  72.409  1.00  0.00    -0.451 C  
ENDBRANCH   3   4
BRANCH   3   6
HETATM    6  C   UNL     1      -9.307   6.228  71.988  1.00  0.00    -0.152 C  
BRANCH   6   7
HETATM    7  C   UNL     1     -10.214   5.141  71.388  1.00  0.00    -0.213 C  
BRANCH   7   8
HETATM    8  N   UNL     1      -9.846   4.791  70.027  1.00  0.00    -0.209 N  
HETATM    9  C   UNL     1     -10.488   5.360  68.946  1.00  0.00    -0.168 C  
HETATM   10  H   UNL     1      -9.100   4.113  69.869  1.00  0.00     0.000 HD 
HETATM   11  O   UNL     1     -11.409   6.157  69.063  1.00  0.00    -0.390 OA 
BRANCH   9  12
HETATM   12  C   UNL     1      -9.938   5.045  67.605  1.00  0.00    -0.202 A  
HETATM   13  C   UNL     1      -9.487   3.730  67.396  1.00  0.00    -0.239 A  
HETATM   14  C   UNL     1      -8.723   3.412  66.273  1.00  0.00    -0.126 A  
HETATM   15  C   UNL     1      -8.358   4.401  65.349  1.00  0.00    -0.111 A  
HETATM   16 CL   UNL     1      -8.142   1.790  66.107  1.00  0.00    -0.077 Cl 
HETATM   17  C   UNL     1      -8.893   5.684  65.514  1.00  0.00    -0.135 A  
HETATM   18  N   UNL     1      -7.634   4.099  64.181  1.00  0.00    -0.070 NA 
HETATM   19  H1  UNL     1      -7.368   4.819  63.509  1.00  0.00     0.000 HD 
HETATM   20  C   UNL     1      -9.665   6.025  66.638  1.00  0.00    -0.157 A  
HETATM   21  H2  UNL     1      -8.146   3.375  63.676  1.00  0.00     0.000 HD 
BRANCH  20  22
HETATM   22  O   UNL     1      -9.974   7.359  66.694  1.00  0.00    -0.221 OA 
HETATM   23  C   UNL     1      -8.877   8.265  66.618  1.00  0.00    -0.144 C  
ENDBRANCH  20  22
ENDBRANCH   9  12
ENDBRANCH   7   8
ENDBRANCH   6   7
ENDBRANCH   3   6
ENDBRANCH   2   3
TORSDOF 7
ENDMDL
MODEL      297
REMARK 921   NORMALIZED FREE ENERGY PREDICTED BY IDOCK:   -2.67 KCAL/MOL
REMARK 922        TOTAL FREE ENERGY PREDICTED BY IDOCK:   -4.48 KCAL/MOL
REMARK 923 INTER-LIGAND FREE ENERGY PREDICTED BY IDOCK:   -5.12 KCAL/MOL
REMARK 924 INTRA-LIGAND FREE ENERGY PREDICTED BY IDOCK:    0.64 KCAL/MOL
REMARK 927      BINDING AFFINITY PREDICTED BY RF-SCORE:    0.00 PKD
ROOT
HETATM    1  C   UNL     1     -12.199  11.851  63.486  1.00  0.00    -0.591 C  
HETATM    2  C   UNL     1     -11.098  11.622  64.517  1.00  0.00    -0.301 C  
ENDROOT
BRANCH   2   3
HETATM    3  N   UNL     1     -10.884  12.745  65.449  1.00  0.00    -0.281 NA 
BRANCH   3   4
HETATM    4  C   UNL     1     -12.001  13.710  65.484  1.00  0.00    -0.384 C  
HETATM    5  C   UNL     1     -11.740  15.079  64.857  1.00  0.00    -0.336 C  
ENDBRANCH   3   4
BRANCH   3   6
HETATM    6  C   UNL     1     -10.562  12.271  66.817  1.00  0.00    -0.224 C  
BRANCH   6   7
HETATM    7  C   UNL     1     -11.776  11.978  67.714  1.00  0.00    -0.309 C  
BRANCH   7   8
HETATM    8  N   UNL     1     -11.681  10.694  68.386  1.00  0.00    -0.471 N  
HETATM    9  C   UNL     1     -10.572   9.887  68.228  1.00  0.00    -0.229 C  
HETATM   10  H   UNL     1     -12.446  10.383  68.984  1.00  0.00     0.000 HD 
HETATM   11  O   UNL     1      -9.631  10.184  67.504  1.00  0.00    -0.153 OA 
BRANCH   9  12
HETATM   12  C   UNL     1     -10.511   8.668  69.070  1.00  0.00    -0.216 A  
HETATM   13  C   UNL     1      -9.894   8.796  70.328  1.00  0.00    -0.198 A  
HETATM   14  C   UNL     1      -9.557   7.664  71.071  1.00  0.00    -0.163 A  
HETATM   15  C   UNL     1      -9.791   6.378  70.566  1.00  0.00    -0.183 A  
HETATM   16 CL   UNL     1      -8.741   7.886  72.580  1.00  0.00    -0.202 Cl 
HETATM   17  C   UNL     1     -10.493   6.262  69.360  1.00  0.00    -0.298 A  
HETATM   18  N   UNL     1      -9.511   5.220  71.316  1.00  0.00    -0.147 NA 
HETATM   19  H1  UNL     1      -9.681   4.284  70.948  1.00  0.00     0.000 HD 
HETATM   20  C   UNL     1     -10.842   7.389  68.596  1.00  0.00    -0.034 A  
HETATM   21  H2  UNL     1     -10.003   5.300  72.206  1.00  0.00     0.000 HD 
BRANCH  20  22
HETATM   22  O   UNL     1     -11.391   7.068  67.382  1.00  0.00    -0.167 OA 
HETATM   23  C   UNL     1     -10.665   6.135  66.587  1.00  0.00    -0.231 C  
ENDBRANCH  20  22
ENDBRANCH   9  12
ENDBRANCH   7   8
ENDBRANCH   6   7
ENDBRANCH   3   6
ENDBRANCH   2   3
TORSDOF 7
ENDMDL
MODEL      298
REMARK 921   NORMALIZED FREE ENERGY PREDICTED BY IDOCK:   -2.66 KCAL/MOL
REMARK 922        TOTAL FREE ENERGY PREDICTED BY IDOCK:   -4.46 KCAL/MOL
REMARK 923 INTER-LIGAND FREE ENERGY PREDICTED BY IDOCK:   -4.19 KCAL/MOL
REMARK 924 INTRA-LIGAND FREE ENERGY PREDICTED BY IDOCK:   -0.27 KCAL/MOL
REMARK 927      BINDING AFFINITY PREDICTED BY RF-SCORE:    0.00 PKD
ROOT
HETATM    1  C   UNL     1      -6.141   7.050  66.400  1.00  0.00    -0.035 C  
HETATM    2  C   UNL     1      -7.245   8.096  66.283  1.00  0.00    -0.078 C  
ENDROOT
BRANCH   2   3
HETATM    3  N   UNL     1      -8.610   7.578  66.487  1.00  0.00    -0.125 NA 
BRANCH   3   4
HETATM    4  C   UNL     1      -8.651   6.169  66.929  1.00  0.00    -0.109 C  
HETATM    5  C   UNL     1      -9.142   5.914  68.353  1.00  0.00    -0.115 C  
ENDBRANCH   3   4
BRANCH   3   6
HETATM    6  C   UNL     1      -9.393   8.436  67.409  1.00  0.00    -0.148 C  
BRANCH   6   7
HETATM    7  C   UNL     1     -10.412   9.368  66.733  1.00  0.00    -0.195 C  
BRANCH   7   8
HETATM    8  N   UNL     1     -10.068  10.772  66.873  1.00  0.00    -0.204 N  
HETATM    9  C   UNL     1     -10.881  11.638  67.577  1.00  0.00    -0.237 C  
HETATM   10  H   UNL     1      -9.212  11.124  66.445  1.00  0.00     0.000 HD 
HETATM   11  O   UNL     1     -11.935  11.290  68.093  1.00  0.00    -0.610 OA 
BRANCH   9  12
HETATM   12  C   UNL     1     -10.366  13.013  67.785  1.00  0.00    -0.227 A  
HETATM   13  C   UNL     1      -9.019  13.244  67.451  1.00  0.00    -0.215 A  
HETATM   14  C   UNL     1      -8.380  14.418  67.852  1.00  0.00    -0.162 A  
HETATM   15  C   UNL     1      -9.053  15.373  68.626  1.00  0.00    -0.195 A  
HETATM   16 CL   UNL     1      -6.705  14.613  67.467  1.00  0.00    -0.193 Cl 
HETATM   17  C   UNL     1     -10.418  15.180  68.868  1.00  0.00    -0.241 A  
HETATM   18  N   UNL     1      -8.450  16.589  68.998  1.00  0.00    -0.232 NA 
HETATM   19  H1  UNL     1      -8.940  17.285  69.562  1.00  0.00     0.000 HD 
HETATM   20  C   UNL     1     -11.081  14.005  68.473  1.00  0.00    -0.257 A  
HETATM   21  H2  UNL     1      -8.127  17.049  68.147  1.00  0.00     0.000 HD 
BRANCH  20  22
HETATM   22  O   UNL     1     -12.373  13.937  68.927  1.00  0.00    -0.301 OA 
HETATM   23  C   UNL     1     -12.549  13.976  70.340  1.00  0.00    -0.308 C  
ENDBRANCH  20  22
ENDBRANCH   9  12
ENDBRANCH   7   8
ENDBRANCH   6   7
ENDBRANCH   3   6
ENDBRANCH   2   3
TORSDOF 7
ENDMDL
MODEL      299
REMARK 921   NORMALIZED FREE ENERGY PREDICTED BY IDOCK:   -2.64 KCAL/MOL
REMARK 922        TOTAL FREE ENERGY PREDICTED BY IDOCK:   -4.44 KCAL/MOL
REMARK 923 INTER-LIGAND FREE ENERGY PREDICTED BY IDOCK:   -4.02 KCAL/MOL
REMARK 924 INTRA-LIGAND FREE ENERGY PREDICTED BY IDOCK:   -0.41 KCAL/MOL
REMARK 927      BINDING AFFINITY PREDICTED BY RF-SCORE:    0.00 PKD
ROOT
HETATM    1  C   UNL     1      -7.960   6.860  64.520  1.00  0.00    -0.106 C  
HETATM    2  C   UNL     1      -8.560   8.050  65.261  1.00  0.00    -0.086 C  
ENDROOT
BRANCH   2   3
HETATM    3  N   UNL     1      -8.291   9.361  64.643  1.00  0.00    -0.146 NA 
BRANCH   3   4
HETATM    4  C   UNL     1      -9.483   9.988  64.037  1.00  0.00    -0.237 C  
HETATM    5  C   UNL     1      -9.251  10.815  62.773  1.00  0.00    -0.346 C  
ENDBRANCH   3   4
BRANCH   3   6
HETATM    6  C   UNL     1      -7.638  10.294  65.593  1.00  0.00    -0.148 C  
BRANCH   6   7
HETATM    7  C   UNL     1      -8.579  10.965  66.607  1.00  0.00    -0.148 C  
BRANCH   7   8
HETATM    8  N   UNL     1      -9.151  10.022  67.552  1.00  0.00    -0.134 N  
HETATM    9  C   UNL     1      -8.757  10.010  68.875  1.00  0.00    -0.146 C  
HETATM   10  H   UNL     1      -9.855   9.357  67.232  1.00  0.00     0.000 HD 
HETATM   11  O   UNL     1      -7.897  10.760  69.319  1.00  0.00    -0.146 OA 
BRANCH   9  12
HETATM   12  C   UNL     1      -9.506   9.110  69.784  1.00  0.00    -0.191 A  
HETATM   13  C   UNL     1      -9.176   9.170  71.151  1.00  0.00    -0.301 A  
HETATM   14  C   UNL     1      -9.631   8.191  72.034  1.00  0.00    -0.219 A  
HETATM   15  C   UNL     1     -10.394   7.108  71.575  1.00  0.00    -0.202 A  
HETATM   16 CL   UNL     1      -9.137   8.285  73.689  1.00  0.00    -0.241 Cl 
HETATM   17  C   UNL     1     -10.798   7.110  70.235  1.00  0.00    -0.271 A  
HETATM   18  N   UNL     1     -10.910   6.136  72.451  1.00  0.00    -0.230 NA 
HETATM   19  H1  UNL     1     -11.465   5.348  72.117  1.00  0.00     0.000 HD 
HETATM   20  C   UNL     1     -10.351   8.087  69.328  1.00  0.00    -0.220 A  
HETATM   21  H2  UNL     1     -11.454   6.619  73.166  1.00  0.00     0.000 HD 
BRANCH  20  22
HETATM   22  O   UNL     1     -10.734   7.837  68.036  1.00  0.00    -0.166 OA 
HETATM   23  C   UNL     1     -10.990   6.476  67.704  1.00  0.00    -0.337 C  
ENDBRANCH  20  22
ENDBRANCH   9  12
ENDBRANCH   7   8
ENDBRANCH   6   7
ENDBRANCH   3   6
ENDBRANCH   2   3
TORSDOF 7
ENDMDL
MODEL      300
REMARK 921   NORMALIZED FREE ENERGY PREDICTED BY IDOCK:   -2.62 KCAL/MOL
REMARK 922        TOTAL FREE ENERGY PREDICTED BY IDOCK:   -4.41 KCAL/MOL
REMARK 923 INTER-LIGAND FREE ENERGY PREDICTED BY IDOCK:   -3.99 KCAL/MOL
REMARK 924 INTRA-LIGAND FREE ENERGY PREDICTED BY IDOCK:   -0.42 KCAL/MOL
REMARK 927      BINDING AFFINITY PREDICTED BY RF-SCORE:    0.00 PKD
ROOT
HETATM    1  C   UNL     1      -8.231   7.532  72.800  1.00  0.00    -0.145 C  
HETATM    2  C   UNL     1      -9.262   6.469  73.171  1.00  0.00    -0.127 C  
ENDROOT
BRANCH   2   3
HETATM    3  N   UNL     1     -10.061   5.964  72.040  1.00  0.00    -0.186 NA 
BRANCH   3   4
HETATM    4  C   UNL     1      -9.677   4.608  71.599  1.00  0.00    -0.172 C  
HETATM    5  C   UNL     1      -9.452   4.415  70.100  1.00  0.00    -0.245 C  
ENDBRANCH   3   4
BRANCH   3   6
HETATM    6  C   UNL     1     -11.516   6.029  72.321  1.00  0.00    -0.312 C  
BRANCH   6   7
HETATM    7  C   UNL     1     -12.285   7.115  71.551  1.00  0.00    -0.360 C  
BRANCH   7   8
HETATM    8  N   UNL     1     -11.442   7.852  70.626  1.00  0.00    -0.351 N  
HETATM    9  C   UNL     1     -11.257   7.418  69.329  1.00  0.00     0.112 C  
HETATM   10  H   UNL     1     -10.978   8.705  70.940  1.00  0.00     0.000 HD 
HETATM   11  O   UNL     1     -11.760   6.390  68.894  1.00  0.00    -0.096 OA 
BRANCH   9  12
HETATM   12  C   UNL     1     -10.498   8.318  68.427  1.00  0.00    -0.206 A  
HETATM   13  C   UNL     1     -10.385   9.664  68.822  1.00  0.00    -0.233 A  
HETATM   14  C   UNL     1      -9.925  10.629  67.926  1.00  0.00    -0.166 A  
HETATM   15  C   UNL     1      -9.602  10.288  66.606  1.00  0.00    -0.175 A  
HETATM   16 CL   UNL     1      -9.871  12.277  68.452  1.00  0.00    -0.214 Cl 
HETATM   17  C   UNL     1      -9.624   8.933  66.253  1.00  0.00    -0.328 A  
HETATM   18  N   UNL     1      -9.085  11.230  65.698  1.00  0.00    -0.252 NA 
HETATM   19  H1  UNL     1      -8.850  10.982  64.737  1.00  0.00     0.000 HD 
HETATM   20  C   UNL     1     -10.084   7.944  67.140  1.00  0.00    -0.258 A  
HETATM   21  H2  UNL     1      -8.258  11.650  66.122  1.00  0.00     0.000 HD 
BRANCH  20  22
HETATM   22  O   UNL     1     -10.169   6.703  66.565  1.00  0.00    -0.154 OA 
HETATM   23  C   UNL     1      -9.014   5.877  66.671  1.00  0.00    -0.125 C  
ENDBRANCH  20  22
ENDBRANCH   9  12
ENDBRANCH   7   8
ENDBRANCH   6   7
ENDBRANCH   3   6
ENDBRANCH   2   3
TORSDOF 7
ENDMDL
MODEL      301
REMARK 921   NORMALIZED FREE ENERGY PREDICTED BY IDOCK:   -2.62 KCAL/MOL
REMARK 922        TOTAL FREE ENERGY PREDICTED BY IDOCK:   -4.40 KCAL/MOL
REMARK 923 INTER-LIGAND FREE ENERGY PREDICTED BY IDOCK:   -3.61 KCAL/MOL
REMARK 924 INTRA-LIGAND FREE ENERGY PREDICTED BY IDOCK:   -0.79 KCAL/MOL
REMARK 927      BINDING AFFINITY PREDICTED BY RF-SCORE:    0.00 PKD
ROOT
HETATM    1  C   UNL     1     -11.078  10.476  67.829  1.00  0.00    -0.382 C  
HETATM    2  C   UNL     1      -9.708  11.072  68.138  1.00  0.00    -0.174 C  
ENDROOT
BRANCH   2   3
HETATM    3  N   UNL     1      -8.582  10.418  67.446  1.00  0.00    -0.125 NA 
BRANCH   3   4
HETATM    4  C   UNL     1      -7.349  11.232  67.417  1.00  0.00    -0.115 C  
HETATM    5  C   UNL     1      -7.527  12.745  67.534  1.00  0.00    -0.154 C  
ENDBRANCH   3   4
BRANCH   3   6
HETATM    6  C   UNL     1      -8.304   9.070  67.997  1.00  0.00    -0.117 C  
BRANCH   6   7
HETATM    7  C   UNL     1      -8.162   9.002  69.527  1.00  0.00    -0.114 C  
BRANCH   7   8
HETATM    8  N   UNL     1      -8.477   7.689  70.062  1.00  0.00    -0.135 N  
HETATM    9  C   UNL     1      -9.746   7.389  70.516  1.00  0.00    -0.175 C  
HETATM   10  H   UNL     1      -7.748   6.977  70.104  1.00  0.00     0.000 HD 
HETATM   11  O   UNL     1     -10.660   8.204  70.521  1.00  0.00    -0.212 OA 
BRANCH   9  12
HETATM   12  C   UNL     1      -9.998   5.980  70.904  1.00  0.00    -0.232 A  
HETATM   13  C   UNL     1     -10.369   5.748  72.241  1.00  0.00    -0.244 A  
HETATM   14  C   UNL     1     -10.371   4.453  72.761  1.00  0.00    -0.184 A  
HETATM   15  C   UNL     1      -9.967   3.364  71.978  1.00  0.00    -0.152 A  
HETATM   16 CL   UNL     1     -10.774   4.240  74.430  1.00  0.00    -0.267 Cl 
HETATM   17  C   UNL     1      -9.695   3.593  70.624  1.00  0.00    -0.215 A  
HETATM   18  N   UNL     1     -10.010   2.042  72.460  1.00  0.00    -0.124 NA 
HETATM   19  H1  UNL     1      -9.716   1.249  71.890  1.00  0.00     0.000 HD 
HETATM   20  C   UNL     1      -9.688   4.889  70.079  1.00  0.00    -0.215 A  
HETATM   21  H2  UNL     1     -10.960   1.860  72.782  1.00  0.00     0.000 HD 
BRANCH  20  22
HETATM   22  O   UNL     1      -9.256   4.924  68.779  1.00  0.00    -0.108 OA 
HETATM   23  C   UNL     1      -9.233   3.680  68.086  1.00  0.00    -0.169 C  
ENDBRANCH  20  22
ENDBRANCH   9  12
ENDBRANCH   7   8
ENDBRANCH   6   7
ENDBRANCH   3   6
ENDBRANCH   2   3
TORSDOF 7
ENDMDL
MODEL      302
REMARK 921   NORMALIZED FREE ENERGY PREDICTED BY IDOCK:   -2.61 KCAL/MOL
REMARK 922        TOTAL FREE ENERGY PREDICTED BY IDOCK:   -4.40 KCAL/MOL
REMARK 923 INTER-LIGAND FREE ENERGY PREDICTED BY IDOCK:   -3.79 KCAL/MOL
REMARK 924 INTRA-LIGAND FREE ENERGY PREDICTED BY IDOCK:   -0.60 KCAL/MOL
REMARK 927      BINDING AFFINITY PREDICTED BY RF-SCORE:    0.00 PKD
ROOT
HETATM    1  C   UNL     1     -12.905  11.954  63.340  1.00  0.00    -0.393 C  
HETATM    2  C   UNL     1     -11.509  12.567  63.300  1.00  0.00    -0.341 C  
ENDROOT
BRANCH   2   3
HETATM    3  N   UNL     1     -10.453  11.738  63.909  1.00  0.00    -0.347 NA 
BRANCH   3   4
HETATM    4  C   UNL     1      -9.524  11.143  62.928  1.00  0.00    -0.359 C  
HETATM    5  C   UNL     1      -8.642  10.000  63.429  1.00  0.00    -0.204 C  
ENDBRANCH   3   4
BRANCH   3   6
HETATM    6  C   UNL     1      -9.704  12.480  64.953  1.00  0.00     0.028 C  
BRANCH   6   7
HETATM    7  C   UNL     1     -10.215  12.286  66.391  1.00  0.00    -0.225 C  
BRANCH   7   8
HETATM    8  N   UNL     1      -9.861  10.989  66.942  1.00  0.00    -0.188 N  
HETATM    9  C   UNL     1      -9.317  10.876  68.205  1.00  0.00    -0.168 C  
HETATM   10  H   UNL     1     -10.016  10.148  66.385  1.00  0.00     0.000 HD 
HETATM   11  O   UNL     1      -9.078  11.844  68.916  1.00  0.00    -0.014 OA 
BRANCH   9  12
HETATM   12  C   UNL     1      -9.129   9.501  68.728  1.00  0.00    -0.133 A  
HETATM   13  C   UNL     1     -10.292   8.790  69.077  1.00  0.00    -0.227 A  
HETATM   14  C   UNL     1     -10.205   7.608  69.814  1.00  0.00    -0.210 A  
HETATM   15  C   UNL     1      -8.966   7.124  70.253  1.00  0.00    -0.152 A  
HETATM   16 CL   UNL     1     -11.675   6.816  70.268  1.00  0.00    -0.415 Cl 
HETATM   17  C   UNL     1      -7.811   7.784  69.818  1.00  0.00    -0.106 A  
HETATM   18  N   UNL     1      -8.845   5.908  70.950  1.00  0.00    -0.137 NA 
HETATM   19  H1  UNL     1      -7.943   5.556  71.270  1.00  0.00     0.000 HD 
HETATM   20  C   UNL     1      -7.874   8.976  69.075  1.00  0.00    -0.090 A  
HETATM   21  H2  UNL     1      -9.281   5.180  70.384  1.00  0.00     0.000 HD 
BRANCH  20  22
HETATM   22  O   UNL     1      -6.647   9.549  68.870  1.00  0.00    -0.047 OA 
HETATM   23  C   UNL     1      -6.049  10.183  69.997  1.00  0.00    -0.065 C  
ENDBRANCH  20  22
ENDBRANCH   9  12
ENDBRANCH   7   8
ENDBRANCH   6   7
ENDBRANCH   3   6
ENDBRANCH   2   3
TORSDOF 7
ENDMDL
MODEL      303
REMARK 921   NORMALIZED FREE ENERGY PREDICTED BY IDOCK:   -2.61 KCAL/MOL
REMARK 922        TOTAL FREE ENERGY PREDICTED BY IDOCK:   -4.40 KCAL/MOL
REMARK 923 INTER-LIGAND FREE ENERGY PREDICTED BY IDOCK:   -3.91 KCAL/MOL
REMARK 924 INTRA-LIGAND FREE ENERGY PREDICTED BY IDOCK:   -0.49 KCAL/MOL
REMARK 927      BINDING AFFINITY PREDICTED BY RF-SCORE:    0.00 PKD
ROOT
HETATM    1  C   UNL     1     -11.491  13.809  69.212  1.00  0.00    -0.344 C  
HETATM    2  C   UNL     1     -11.995  12.374  69.088  1.00  0.00    -0.240 C  
ENDROOT
BRANCH   2   3
HETATM    3  N   UNL     1     -11.484  11.450  70.116  1.00  0.00    -0.262 NA 
BRANCH   3   4
HETATM    4  C   UNL     1     -12.520  10.974  71.056  1.00  0.00    -0.409 C  
HETATM    5  C   UNL     1     -13.057  11.997  72.056  1.00  0.00    -0.456 C  
ENDBRANCH   3   4
BRANCH   3   6
HETATM    6  C   UNL     1     -10.758  10.304  69.516  1.00  0.00    -0.249 C  
BRANCH   6   7
HETATM    7  C   UNL     1      -9.272  10.198  69.893  1.00  0.00    -0.080 C  
BRANCH   7   8
HETATM    8  N   UNL     1      -8.856   8.831  70.158  1.00  0.00    -0.145 N  
HETATM    9  C   UNL     1      -8.926   8.299  71.429  1.00  0.00    -0.166 C  
HETATM   10  H   UNL     1      -8.507   8.256  69.391  1.00  0.00     0.000 HD 
HETATM   11  O   UNL     1      -9.308   8.940  72.399  1.00  0.00    -0.342 OA 
BRANCH   9  12
HETATM   12  C   UNL     1      -8.617   6.854  71.563  1.00  0.00    -0.122 A  
HETATM   13  C   UNL     1      -7.392   6.415  71.029  1.00  0.00    -0.083 A  
HETATM   14  C   UNL     1      -7.135   5.052  70.874  1.00  0.00    -0.055 A  
HETATM   15  C   UNL     1      -8.102   4.095  71.210  1.00  0.00    -0.077 A  
HETATM   16 CL   UNL     1      -5.636   4.578  70.151  1.00  0.00    -0.012 Cl 
HETATM   17  C   UNL     1      -9.276   4.538  71.830  1.00  0.00    -0.178 A  
HETATM   18  N   UNL     1      -7.849   2.715  71.113  1.00  0.00    -0.043 NA 
HETATM   19  H1  UNL     1      -8.553   2.018  71.357  1.00  0.00     0.000 HD 
HETATM   20  C   UNL     1      -9.556   5.905  71.997  1.00  0.00    -0.149 A  
HETATM   21  H2  UNL     1      -7.010   2.514  71.657  1.00  0.00     0.000 HD 
BRANCH  20  22
HETATM   22  O   UNL     1     -10.813   6.142  72.488  1.00  0.00    -0.216 OA 
HETATM   23  C   UNL     1     -11.445   5.056  73.158  1.00  0.00    -0.282 C  
ENDBRANCH  20  22
ENDBRANCH   9  12
ENDBRANCH   7   8
ENDBRANCH   6   7
ENDBRANCH   3   6
ENDBRANCH   2   3
TORSDOF 7
ENDMDL
MODEL      304
REMARK 921   NORMALIZED FREE ENERGY PREDICTED BY IDOCK:   -2.60 KCAL/MOL
REMARK 922        TOTAL FREE ENERGY PREDICTED BY IDOCK:   -4.38 KCAL/MOL
REMARK 923 INTER-LIGAND FREE ENERGY PREDICTED BY IDOCK:   -3.76 KCAL/MOL
REMARK 924 INTRA-LIGAND FREE ENERGY PREDICTED BY IDOCK:   -0.63 KCAL/MOL
REMARK 927      BINDING AFFINITY PREDICTED BY RF-SCORE:    0.00 PKD
ROOT
HETATM    1  C   UNL     1      -9.556   3.564  70.952  1.00  0.00    -0.242 C  
HETATM    2  C   UNL     1      -8.381   4.436  71.382  1.00  0.00    -0.092 C  
ENDROOT
BRANCH   2   3
HETATM    3  N   UNL     1      -7.828   5.294  70.318  1.00  0.00    -0.081 NA 
BRANCH   3   4
HETATM    4  C   UNL     1      -7.835   4.664  68.982  1.00  0.00    -0.071 C  
HETATM    5  C   UNL     1      -6.646   3.765  68.645  1.00  0.00    -0.041 C  
ENDBRANCH   3   4
BRANCH   3   6
HETATM    6  C   UNL     1      -8.497   6.617  70.273  1.00  0.00    -0.135 C  
BRANCH   6   7
HETATM    7  C   UNL     1      -9.560   6.780  69.174  1.00  0.00    -0.139 C  
BRANCH   7   8
HETATM    8  N   UNL     1      -9.110   7.621  68.079  1.00  0.00    -0.135 N  
HETATM    9  C   UNL     1      -9.932   7.889  67.002  1.00  0.00    -0.252 C  
HETATM   10  H   UNL     1      -8.172   8.021  68.106  1.00  0.00     0.000 HD 
HETATM   11  O   UNL     1     -11.057   7.420  66.892  1.00  0.00    -0.236 OA 
BRANCH   9  12
HETATM   12  C   UNL     1      -9.432   8.875  66.013  1.00  0.00    -0.320 A  
HETATM   13  C   UNL     1     -10.330   9.881  65.611  1.00  0.00    -0.115 A  
HETATM   14  C   UNL     1     -10.046  10.683  64.506  1.00  0.00    -0.353 A  
HETATM   15  C   UNL     1      -8.882  10.482  63.751  1.00  0.00    -0.200 A  
HETATM   16 CL   UNL     1     -11.220  11.859  64.022  1.00  0.00    -0.435 Cl 
HETATM   17  C   UNL     1      -7.951   9.546  64.217  1.00  0.00    -0.136 A  
HETATM   18  N   UNL     1      -8.545  11.311  62.665  1.00  0.00    -0.495 NA 
HETATM   19  H1  UNL     1      -7.698  11.164  62.116  1.00  0.00     0.000 HD 
HETATM   20  C   UNL     1      -8.216   8.727  65.328  1.00  0.00    -0.144 A  
HETATM   21  H2  UNL     1      -8.535  12.274  63.001  1.00  0.00     0.000 HD 
BRANCH  20  22
HETATM   22  O   UNL     1      -7.252   7.777  65.540  1.00  0.00    -0.062 OA 
HETATM   23  C   UNL     1      -7.257   6.662  64.653  1.00  0.00    -0.071 C  
ENDBRANCH  20  22
ENDBRANCH   9  12
ENDBRANCH   7   8
ENDBRANCH   6   7
ENDBRANCH   3   6
ENDBRANCH   2   3
TORSDOF 7
ENDMDL
MODEL      305
REMARK 921   NORMALIZED FREE ENERGY PREDICTED BY IDOCK:   -2.57 KCAL/MOL
REMARK 922        TOTAL FREE ENERGY PREDICTED BY IDOCK:   -4.34 KCAL/MOL
REMARK 923 INTER-LIGAND FREE ENERGY PREDICTED BY IDOCK:   -3.63 KCAL/MOL
REMARK 924 INTRA-LIGAND FREE ENERGY PREDICTED BY IDOCK:   -0.71 KCAL/MOL
REMARK 927      BINDING AFFINITY PREDICTED BY RF-SCORE:    0.00 PKD
ROOT
HETATM    1  C   UNL     1      -5.781  14.987  69.046  1.00  0.00    -0.096 C  
HETATM    2  C   UNL     1      -5.865  13.583  69.639  1.00  0.00    -0.110 C  
ENDROOT
BRANCH   2   3
HETATM    3  N   UNL     1      -6.891  12.717  69.030  1.00  0.00    -0.097 NA 
BRANCH   3   4
HETATM    4  C   UNL     1      -7.274  13.121  67.662  1.00  0.00    -0.159 C  
HETATM    5  C   UNL     1      -8.766  13.086  67.332  1.00  0.00    -0.205 C  
ENDBRANCH   3   4
BRANCH   3   6
HETATM    6  C   UNL     1      -6.494  11.288  69.059  1.00  0.00    -0.069 C  
BRANCH   6   7
HETATM    7  C   UNL     1      -7.359  10.385  69.954  1.00  0.00    -0.142 C  
BRANCH   7   8
HETATM    8  N   UNL     1      -8.165   9.448  69.192  1.00  0.00    -0.108 N  
HETATM    9  C   UNL     1      -7.668   8.213  68.825  1.00  0.00    -0.107 C  
HETATM   10  H   UNL     1      -9.115   9.706  68.923  1.00  0.00     0.000 HD 
HETATM   11  O   UNL     1      -6.530   7.850  69.088  1.00  0.00    -0.035 OA 
BRANCH   9  12
HETATM   12  C   UNL     1      -8.620   7.278  68.178  1.00  0.00    -0.122 A  
HETATM   13  C   UNL     1      -8.148   6.562  67.063  1.00  0.00    -0.113 A  
HETATM   14  C   UNL     1      -9.035   5.867  66.240  1.00  0.00    -0.148 A  
HETATM   15  C   UNL     1     -10.415   5.897  66.483  1.00  0.00    -0.190 A  
HETATM   16 CL   UNL     1      -8.400   5.060  64.847  1.00  0.00    -0.135 Cl 
HETATM   17  C   UNL     1     -10.863   6.529  67.648  1.00  0.00    -0.419 A  
HETATM   18  N   UNL     1     -11.325   5.162  65.701  1.00  0.00    -0.771 NA 
HETATM   19  H1  UNL     1     -12.329   5.184  65.878  1.00  0.00     0.000 HD 
HETATM   20  C   UNL     1      -9.988   7.235  68.492  1.00  0.00    -0.162 A  
HETATM   21  H2  UNL     1     -11.028   4.186  65.713  1.00  0.00     0.000 HD 
BRANCH  20  22
HETATM   22  O   UNL     1     -10.633   7.907  69.497  1.00  0.00    -0.229 OA 
HETATM   23  C   UNL     1     -10.518   7.352  70.803  1.00  0.00    -0.212 C  
ENDBRANCH  20  22
ENDBRANCH   9  12
ENDBRANCH   7   8
ENDBRANCH   6   7
ENDBRANCH   3   6
ENDBRANCH   2   3
TORSDOF 7
ENDMDL
MODEL      306
REMARK 921   NORMALIZED FREE ENERGY PREDICTED BY IDOCK:   -2.56 KCAL/MOL
REMARK 922        TOTAL FREE ENERGY PREDICTED BY IDOCK:   -4.33 KCAL/MOL
REMARK 923 INTER-LIGAND FREE ENERGY PREDICTED BY IDOCK:   -4.93 KCAL/MOL
REMARK 924 INTRA-LIGAND FREE ENERGY PREDICTED BY IDOCK:    0.60 KCAL/MOL
REMARK 927      BINDING AFFINITY PREDICTED BY RF-SCORE:    0.00 PKD
ROOT
HETATM    1  C   UNL     1      -8.805   9.889  69.778  1.00  0.00    -0.229 C  
HETATM    2  C   UNL     1      -8.595   9.716  68.277  1.00  0.00    -0.119 C  
ENDROOT
BRANCH   2   3
HETATM    3  N   UNL     1      -7.260   9.222  67.894  1.00  0.00    -0.079 NA 
BRANCH   3   4
HETATM    4  C   UNL     1      -6.694   8.241  68.842  1.00  0.00    -0.053 C  
HETATM    5  C   UNL     1      -5.172   8.110  68.863  1.00  0.00    -0.024 C  
ENDBRANCH   3   4
BRANCH   3   6
HETATM    6  C   UNL     1      -7.248   8.681  66.513  1.00  0.00    -0.080 C  
BRANCH   6   7
HETATM    7  C   UNL     1      -7.558   9.700  65.405  1.00  0.00    -0.111 C  
BRANCH   7   8
HETATM    8  N   UNL     1      -8.278  10.862  65.897  1.00  0.00    -0.217 N  
HETATM    9  C   UNL     1      -9.445  11.284  65.293  1.00  0.00    -0.221 C  
HETATM   10  H   UNL     1      -7.916  11.374  66.701  1.00  0.00     0.000 HD 
HETATM   11  O   UNL     1      -9.922  10.735  64.308  1.00  0.00    -0.288 OA 
BRANCH   9  12
HETATM   12  C   UNL     1     -10.178  12.388  65.960  1.00  0.00    -0.267 A  
HETATM   13  C   UNL     1      -9.488  13.094  66.962  1.00  0.00    -0.242 A  
HETATM   14  C   UNL     1     -10.169  13.961  67.816  1.00  0.00    -0.237 A  
HETATM   15  C   UNL     1     -11.558  14.120  67.720  1.00  0.00    -0.347 A  
HETATM   16 CL   UNL     1      -9.274  14.750  69.069  1.00  0.00    -0.178 Cl 
HETATM   17  C   UNL     1     -12.220  13.490  66.659  1.00  0.00    -0.411 A  
HETATM   18  N   UNL     1     -12.263  15.027  68.533  1.00  0.00    -0.602 NA 
HETATM   19  H1  UNL     1     -13.274  15.142  68.463  1.00  0.00     0.000 HD 
HETATM   20  C   UNL     1     -11.553  12.612  65.787  1.00  0.00    -0.387 A  
HETATM   21  H2  UNL     1     -11.836  15.946  68.415  1.00  0.00     0.000 HD 
BRANCH  20  22
HETATM   22  O   UNL     1     -12.395  11.982  64.909  1.00  0.00    -0.367 OA 
HETATM   23  C   UNL     1     -12.528  12.578  63.622  1.00  0.00    -0.470 C  
ENDBRANCH  20  22
ENDBRANCH   9  12
ENDBRANCH   7   8
ENDBRANCH   6   7
ENDBRANCH   3   6
ENDBRANCH   2   3
TORSDOF 7
ENDMDL
MODEL      307
REMARK 921   NORMALIZED FREE ENERGY PREDICTED BY IDOCK:   -2.55 KCAL/MOL
REMARK 922        TOTAL FREE ENERGY PREDICTED BY IDOCK:   -4.31 KCAL/MOL
REMARK 923 INTER-LIGAND FREE ENERGY PREDICTED BY IDOCK:   -3.68 KCAL/MOL
REMARK 924 INTRA-LIGAND FREE ENERGY PREDICTED BY IDOCK:   -0.63 KCAL/MOL
REMARK 927      BINDING AFFINITY PREDICTED BY RF-SCORE:    0.00 PKD
ROOT
HETATM    1  C   UNL     1      -7.442   8.069  73.975  1.00  0.00    -0.215 C  
HETATM    2  C   UNL     1      -8.725   7.380  74.428  1.00  0.00    -0.195 C  
ENDROOT
BRANCH   2   3
HETATM    3  N   UNL     1      -9.658   7.036  73.340  1.00  0.00    -0.172 NA 
BRANCH   3   4
HETATM    4  C   UNL     1     -10.154   8.207  72.590  1.00  0.00    -0.309 C  
HETATM    5  C   UNL     1     -11.669   8.327  72.434  1.00  0.00    -0.463 C  
ENDBRANCH   3   4
BRANCH   3   6
HETATM    6  C   UNL     1      -9.079   6.031  72.415  1.00  0.00    -0.136 C  
BRANCH   6   7
HETATM    7  C   UNL     1     -10.092   5.069  71.772  1.00  0.00    -0.200 C  
BRANCH   7   8
HETATM    8  N   UNL     1      -9.642   4.555  70.490  1.00  0.00    -0.186 N  
HETATM    9  C   UNL     1     -10.045   5.141  69.307  1.00  0.00    -0.213 C  
HETATM   10  H   UNL     1      -9.019   3.748  70.464  1.00  0.00     0.000 HD 
HETATM   11  O   UNL     1     -10.813   6.093  69.264  1.00  0.00    -0.277 OA 
BRANCH   9  12
HETATM   12  C   UNL     1      -9.414   4.633  68.064  1.00  0.00    -0.191 A  
HETATM   13  C   UNL     1      -9.030   5.591  67.109  1.00  0.00    -0.112 A  
HETATM   14  C   UNL     1      -8.676   5.203  65.817  1.00  0.00    -0.139 A  
HETATM   15  C   UNL     1      -8.731   3.856  65.432  1.00  0.00    -0.116 A  
HETATM   16 CL   UNL     1      -8.277   6.435  64.670  1.00  0.00    -0.108 Cl 
HETATM   17  C   UNL     1      -9.019   2.902  66.415  1.00  0.00    -0.158 A  
HETATM   18  N   UNL     1      -8.329   3.431  64.152  1.00  0.00    -0.090 NA 
HETATM   19  H1  UNL     1      -8.369   2.451  63.872  1.00  0.00     0.000 HD 
HETATM   20  C   UNL     1      -9.378   3.272  67.723  1.00  0.00    -0.197 A  
HETATM   21  H2  UNL     1      -7.375   3.759  64.001  1.00  0.00     0.000 HD 
BRANCH  20  22
HETATM   22  O   UNL     1      -9.764   2.209  68.496  1.00  0.00    -0.138 OA 
HETATM   23  C   UNL     1      -8.743   1.581  69.265  1.00  0.00    -0.063 C  
ENDBRANCH  20  22
ENDBRANCH   9  12
ENDBRANCH   7   8
ENDBRANCH   6   7
ENDBRANCH   3   6
ENDBRANCH   2   3
TORSDOF 7
ENDMDL
MODEL      308
REMARK 921   NORMALIZED FREE ENERGY PREDICTED BY IDOCK:   -2.52 KCAL/MOL
REMARK 922        TOTAL FREE ENERGY PREDICTED BY IDOCK:   -4.27 KCAL/MOL
REMARK 923 INTER-LIGAND FREE ENERGY PREDICTED BY IDOCK:   -3.47 KCAL/MOL
REMARK 924 INTRA-LIGAND FREE ENERGY PREDICTED BY IDOCK:   -0.80 KCAL/MOL
REMARK 927      BINDING AFFINITY PREDICTED BY RF-SCORE:    0.00 PKD
ROOT
HETATM    1  C   UNL     1      -7.477   7.618  63.932  1.00  0.00    -0.107 C  
HETATM    2  C   UNL     1      -6.926   6.245  64.303  1.00  0.00    -0.047 C  
ENDROOT
BRANCH   2   3
HETATM    3  N   UNL     1      -7.940   5.276  64.757  1.00  0.00    -0.101 NA 
BRANCH   3   4
HETATM    4  C   UNL     1      -7.960   4.025  63.972  1.00  0.00    -0.089 C  
HETATM    5  C   UNL     1      -9.188   3.131  64.142  1.00  0.00    -0.120 C  
ENDBRANCH   3   4
BRANCH   3   6
HETATM    6  C   UNL     1      -7.811   4.981  66.205  1.00  0.00    -0.099 C  
BRANCH   6   7
HETATM    7  C   UNL     1      -9.052   5.305  67.054  1.00  0.00    -0.112 C  
BRANCH   7   8
HETATM    8  N   UNL     1      -9.135   6.709  67.414  1.00  0.00    -0.120 N  
HETATM    9  C   UNL     1     -10.294   7.431  67.207  1.00  0.00    -0.286 C  
HETATM   10  H   UNL     1      -8.324   7.170  67.826  1.00  0.00     0.000 HD 
HETATM   11  O   UNL     1     -11.294   6.949  66.691  1.00  0.00    -0.033 OA 
BRANCH   9  12
HETATM   12  C   UNL     1     -10.321   8.813  67.743  1.00  0.00    -0.297 A  
HETATM   13  C   UNL     1     -10.878   9.804  66.914  1.00  0.00    -0.120 A  
HETATM   14  C   UNL     1     -10.712  11.156  67.215  1.00  0.00    -0.258 A  
HETATM   15  C   UNL     1      -9.958  11.557  68.327  1.00  0.00    -0.202 A  
HETATM   16 CL   UNL     1     -11.364  12.327  66.121  1.00  0.00    -0.378 Cl 
HETATM   17  C   UNL     1      -9.493  10.565  69.198  1.00  0.00    -0.205 A  
HETATM   18  N   UNL     1      -9.819  12.911  68.684  1.00  0.00    -0.401 NA 
HETATM   19  H1  UNL     1      -9.270  13.202  69.493  1.00  0.00     0.000 HD 
HETATM   20  C   UNL     1      -9.649   9.197  68.913  1.00  0.00    -0.152 A  
HETATM   21  H2  UNL     1     -10.755  13.303  68.785  1.00  0.00     0.000 HD 
BRANCH  20  22
HETATM   22  O   UNL     1      -9.001   8.384  69.806  1.00  0.00    -0.143 OA 
HETATM   23  C   UNL     1      -8.310   9.034  70.868  1.00  0.00    -0.197 C  
ENDBRANCH  20  22
ENDBRANCH   9  12
ENDBRANCH   7   8
ENDBRANCH   6   7
ENDBRANCH   3   6
ENDBRANCH   2   3
TORSDOF 7
ENDMDL
MODEL      309
REMARK 921   NORMALIZED FREE ENERGY PREDICTED BY IDOCK:   -2.50 KCAL/MOL
REMARK 922        TOTAL FREE ENERGY PREDICTED BY IDOCK:   -4.23 KCAL/MOL
REMARK 923 INTER-LIGAND FREE ENERGY PREDICTED BY IDOCK:   -4.09 KCAL/MOL
REMARK 924 INTRA-LIGAND FREE ENERGY PREDICTED BY IDOCK:   -0.15 KCAL/MOL
REMARK 927      BINDING AFFINITY PREDICTED BY RF-SCORE:    0.00 PKD
ROOT
HETATM    1  C   UNL     1     -12.376  13.186  64.207  1.00  0.00    -0.421 C  
HETATM    2  C   UNL     1     -11.554  14.210  64.984  1.00  0.00    -0.362 C  
ENDROOT
BRANCH   2   3
HETATM    3  N   UNL     1     -11.174  13.790  66.345  1.00  0.00    -0.311 NA 
BRANCH   3   4
HETATM    4  C   UNL     1     -12.234  14.002  67.351  1.00  0.00    -0.254 C  
HETATM    5  C   UNL     1     -11.781  14.472  68.733  1.00  0.00    -0.362 C  
ENDBRANCH   3   4
BRANCH   3   6
HETATM    6  C   UNL     1     -10.700  12.384  66.376  1.00  0.00    -0.247 C  
BRANCH   6   7
HETATM    7  C   UNL     1      -9.247  12.171  65.922  1.00  0.00    -0.067 C  
BRANCH   7   8
HETATM    8  N   UNL     1      -8.290  12.347  67.001  1.00  0.00    -0.250 N  
HETATM    9  C   UNL     1      -7.870  13.605  67.383  1.00  0.00    -0.149 C  
HETATM   10  H   UNL     1      -7.922  11.527  67.483  1.00  0.00     0.000 HD 
HETATM   11  O   UNL     1      -8.248  14.629  66.830  1.00  0.00    -0.146 OA 
BRANCH   9  12
HETATM   12  C   UNL     1      -7.008  13.681  68.588  1.00  0.00    -0.103 A  
HETATM   13  C   UNL     1      -6.565  12.461  69.129  1.00  0.00    -0.099 A  
HETATM   14  C   UNL     1      -5.977  12.418  70.394  1.00  0.00    -0.095 A  
HETATM   15  C   UNL     1      -5.849  13.580  71.166  1.00  0.00    -0.096 A  
HETATM   16 CL   UNL     1      -5.514  10.878  71.031  1.00  0.00    -0.105 Cl 
HETATM   17  C   UNL     1      -6.202  14.801  70.579  1.00  0.00    -0.123 A  
HETATM   18  N   UNL     1      -5.213  13.575  72.421  1.00  0.00    -0.341 NA 
HETATM   19  H1  UNL     1      -5.120  14.421  72.983  1.00  0.00     0.000 HD 
HETATM   20  C   UNL     1      -6.795  14.867  69.307  1.00  0.00    -0.148 A  
HETATM   21  H2  UNL     1      -4.281  13.181  72.295  1.00  0.00     0.000 HD 
BRANCH  20  22
HETATM   22  O   UNL     1      -7.203  16.131  68.967  1.00  0.00    -0.169 OA 
HETATM   23  C   UNL     1      -6.402  17.205  69.452  1.00  0.00    -0.238 C  
ENDBRANCH  20  22
ENDBRANCH   9  12
ENDBRANCH   7   8
ENDBRANCH   6   7
ENDBRANCH   3   6
ENDBRANCH   2   3
TORSDOF 7
ENDMDL
MODEL      310
REMARK 921   NORMALIZED FREE ENERGY PREDICTED BY IDOCK:   -2.46 KCAL/MOL
REMARK 922        TOTAL FREE ENERGY PREDICTED BY IDOCK:   -4.18 KCAL/MOL
REMARK 923 INTER-LIGAND FREE ENERGY PREDICTED BY IDOCK:   -3.52 KCAL/MOL
REMARK 924 INTRA-LIGAND FREE ENERGY PREDICTED BY IDOCK:   -0.66 KCAL/MOL
REMARK 927      BINDING AFFINITY PREDICTED BY RF-SCORE:    0.00 PKD
ROOT
HETATM    1  C   UNL     1      -6.059  14.170  70.709  1.00  0.00    -0.165 C  
HETATM    2  C   UNL     1      -6.393  13.722  69.290  1.00  0.00    -0.110 C  
ENDROOT
BRANCH   2   3
HETATM    3  N   UNL     1      -7.440  14.518  68.623  1.00  0.00    -0.121 NA 
BRANCH   3   4
HETATM    4  C   UNL     1      -6.933  15.367  67.526  1.00  0.00    -0.194 C  
HETATM    5  C   UNL     1      -6.848  16.867  67.808  1.00  0.00    -0.157 C  
ENDBRANCH   3   4
BRANCH   3   6
HETATM    6  C   UNL     1      -8.559  13.667  68.148  1.00  0.00    -0.176 C  
BRANCH   6   7
HETATM    7  C   UNL     1      -8.151  12.294  67.591  1.00  0.00    -0.165 C  
BRANCH   7   8
HETATM    8  N   UNL     1      -8.653  11.191  68.391  1.00  0.00    -0.146 N  
HETATM    9  C   UNL     1      -9.791  10.503  68.022  1.00  0.00    -0.147 C  
HETATM   10  H   UNL     1      -8.156  10.920  69.240  1.00  0.00     0.000 HD 
HETATM   11  O   UNL     1     -10.452  10.792  67.032  1.00  0.00    -0.223 OA 
BRANCH   9  12
HETATM   12  C   UNL     1     -10.135   9.305  68.825  1.00  0.00    -0.210 A  
HETATM   13  C   UNL     1     -11.228   9.420  69.703  1.00  0.00    -0.100 A  
HETATM   14  C   UNL     1     -11.461   8.450  70.677  1.00  0.00    -0.219 A  
HETATM   15  C   UNL     1     -10.592   7.360  70.828  1.00  0.00    -0.223 A  
HETATM   16 CL   UNL     1     -12.784   8.683  71.768  1.00  0.00    -0.376 Cl 
HETATM   17  C   UNL     1      -9.566   7.203  69.889  1.00  0.00    -0.163 A  
HETATM   18  N   UNL     1     -10.833   6.340  71.766  1.00  0.00    -0.239 NA 
HETATM   19  H1  UNL     1     -10.201   5.547  71.876  1.00  0.00     0.000 HD 
HETATM   20  C   UNL     1      -9.314   8.168  68.899  1.00  0.00    -0.147 A  
HETATM   21  H2  UNL     1     -11.768   5.971  71.591  1.00  0.00     0.000 HD 
BRANCH  20  22
HETATM   22  O   UNL     1      -8.182   7.910  68.171  1.00  0.00    -0.121 OA 
HETATM   23  C   UNL     1      -8.353   7.128  66.993  1.00  0.00    -0.118 C  
ENDBRANCH  20  22
ENDBRANCH   9  12
ENDBRANCH   7   8
ENDBRANCH   6   7
ENDBRANCH   3   6
ENDBRANCH   2   3
TORSDOF 7
ENDMDL
MODEL      311
REMARK 921   NORMALIZED FREE ENERGY PREDICTED BY IDOCK:   -2.43 KCAL/MOL
REMARK 922        TOTAL FREE ENERGY PREDICTED BY IDOCK:   -4.14 KCAL/MOL
REMARK 923 INTER-LIGAND FREE ENERGY PREDICTED BY IDOCK:   -4.16 KCAL/MOL
REMARK 924 INTRA-LIGAND FREE ENERGY PREDICTED BY IDOCK:    0.01 KCAL/MOL
REMARK 927      BINDING AFFINITY PREDICTED BY RF-SCORE:    0.00 PKD
ROOT
HETATM    1  C   UNL     1     -11.976  13.454  64.187  1.00  0.00    -0.505 C  
HETATM    2  C   UNL     1     -11.399  14.633  64.964  1.00  0.00    -0.390 C  
ENDROOT
BRANCH   2   3
HETATM    3  N   UNL     1     -10.568  14.259  66.123  1.00  0.00    -0.288 NA 
BRANCH   3   4
HETATM    4  C   UNL     1      -9.660  15.333  66.575  1.00  0.00    -0.271 C  
HETATM    5  C   UNL     1      -8.376  14.892  67.275  1.00  0.00    -0.233 C  
ENDBRANCH   3   4
BRANCH   3   6
HETATM    6  C   UNL     1     -11.390  13.762  67.254  1.00  0.00    -0.321 C  
BRANCH   6   7
HETATM    7  C   UNL     1     -12.023  12.376  67.046  1.00  0.00    -0.186 C  
BRANCH   7   8
HETATM    8  N   UNL     1     -11.181  11.297  67.532  1.00  0.00    -0.284 N  
HETATM    9  C   UNL     1     -10.337  10.613  66.680  1.00  0.00    -0.241 C  
HETATM   10  H   UNL     1     -11.215  11.040  68.518  1.00  0.00     0.000 HD 
HETATM   11  O   UNL     1     -10.267  10.850  65.481  1.00  0.00    -0.253 OA 
BRANCH   9  12
HETATM   12  C   UNL     1      -9.417   9.631  67.302  1.00  0.00    -0.175 A  
HETATM   13  C   UNL     1      -9.880   8.967  68.453  1.00  0.00    -0.183 A  
HETATM   14  C   UNL     1      -9.002   8.233  69.250  1.00  0.00    -0.147 A  
HETATM   15  C   UNL     1      -7.635   8.170  68.944  1.00  0.00    -0.098 A  
HETATM   16 CL   UNL     1      -9.620   7.494  70.687  1.00  0.00    -0.171 Cl 
HETATM   17  C   UNL     1      -7.203   8.750  67.746  1.00  0.00    -0.084 A  
HETATM   18  N   UNL     1      -6.738   7.393  69.699  1.00  0.00    -0.040 NA 
HETATM   19  H1  UNL     1      -5.743   7.348  69.476  1.00  0.00     0.000 HD 
HETATM   20  C   UNL     1      -8.071   9.495  66.928  1.00  0.00    -0.109 A  
HETATM   21  H2  UNL     1      -7.096   6.438  69.722  1.00  0.00     0.000 HD 
BRANCH  20  22
HETATM   22  O   UNL     1      -7.433  10.105  65.880  1.00  0.00    -0.112 OA 
HETATM   23  C   UNL     1      -6.339   9.396  65.306  1.00  0.00    -0.067 C  
ENDBRANCH  20  22
ENDBRANCH   9  12
ENDBRANCH   7   8
ENDBRANCH   6   7
ENDBRANCH   3   6
ENDBRANCH   2   3
TORSDOF 7
ENDMDL
MODEL      312
REMARK 921   NORMALIZED FREE ENERGY PREDICTED BY IDOCK:   -2.42 KCAL/MOL
REMARK 922        TOTAL FREE ENERGY PREDICTED BY IDOCK:   -4.12 KCAL/MOL
REMARK 923 INTER-LIGAND FREE ENERGY PREDICTED BY IDOCK:   -3.47 KCAL/MOL
REMARK 924 INTRA-LIGAND FREE ENERGY PREDICTED BY IDOCK:   -0.65 KCAL/MOL
REMARK 927      BINDING AFFINITY PREDICTED BY RF-SCORE:    0.00 PKD
ROOT
HETATM    1  C   UNL     1      -7.879  11.644  67.352  1.00  0.00    -0.147 C  
HETATM    2  C   UNL     1      -8.117  11.161  65.925  1.00  0.00    -0.017 C  
ENDROOT
BRANCH   2   3
HETATM    3  N   UNL     1      -9.180  10.149  65.785  1.00  0.00    -0.167 NA 
BRANCH   3   4
HETATM    4  C   UNL     1     -10.449  10.688  65.257  1.00  0.00    -0.194 C  
HETATM    5  C   UNL     1     -10.452  11.113  63.789  1.00  0.00    -0.444 C  
ENDBRANCH   3   4
BRANCH   3   6
HETATM    6  C   UNL     1      -8.732   8.987  64.980  1.00  0.00    -0.183 C  
BRANCH   6   7
HETATM    7  C   UNL     1      -8.289   7.757  65.790  1.00  0.00    -0.137 C  
BRANCH   7   8
HETATM    8  N   UNL     1      -8.892   7.708  67.110  1.00  0.00    -0.123 N  
HETATM    9  C   UNL     1      -8.276   7.043  68.151  1.00  0.00    -0.120 C  
HETATM   10  H   UNL     1      -9.785   8.173  67.271  1.00  0.00     0.000 HD 
HETATM   11  O   UNL     1      -7.218   6.440  68.022  1.00  0.00    -0.082 OA 
BRANCH   9  12
HETATM   12  C   UNL     1      -8.900   7.177  69.490  1.00  0.00    -0.137 A  
HETATM   13  C   UNL     1     -10.244   6.777  69.606  1.00  0.00    -0.207 A  
HETATM   14  C   UNL     1     -10.985   7.107  70.741  1.00  0.00    -0.252 A  
HETATM   15  C   UNL     1     -10.422   7.873  71.770  1.00  0.00    -0.221 A  
HETATM   16 CL   UNL     1     -12.651   6.643  70.795  1.00  0.00    -0.196 Cl 
HETATM   17  C   UNL     1      -9.059   8.181  71.689  1.00  0.00    -0.214 A  
HETATM   18  N   UNL     1     -11.130   8.174  72.948  1.00  0.00    -0.333 NA 
HETATM   19  H1  UNL     1     -10.719   8.732  73.697  1.00  0.00     0.000 HD 
HETATM   20  C   UNL     1      -8.293   7.858  70.555  1.00  0.00    -0.124 A  
HETATM   21  H2  UNL     1     -11.447   7.293  73.354  1.00  0.00     0.000 HD 
BRANCH  20  22
HETATM   22  O   UNL     1      -7.022   8.370  70.600  1.00  0.00    -0.037 OA 
HETATM   23  C   UNL     1      -6.892   9.764  70.337  1.00  0.00    -0.135 C  
ENDBRANCH  20  22
ENDBRANCH   9  12
ENDBRANCH   7   8
ENDBRANCH   6   7
ENDBRANCH   3   6
ENDBRANCH   2   3
TORSDOF 7
ENDMDL
MODEL      313
REMARK 921   NORMALIZED FREE ENERGY PREDICTED BY IDOCK:   -2.42 KCAL/MOL
REMARK 922        TOTAL FREE ENERGY PREDICTED BY IDOCK:   -4.12 KCAL/MOL
REMARK 923 INTER-LIGAND FREE ENERGY PREDICTED BY IDOCK:   -4.16 KCAL/MOL
REMARK 924 INTRA-LIGAND FREE ENERGY PREDICTED BY IDOCK:    0.03 KCAL/MOL
REMARK 927      BINDING AFFINITY PREDICTED BY RF-SCORE:    0.00 PKD
ROOT
HETATM    1  C   UNL     1      -6.737   9.616  62.581  1.00  0.00    -0.100 C  
HETATM    2  C   UNL     1      -7.919  10.408  63.133  1.00  0.00    -0.125 C  
ENDROOT
BRANCH   2   3
HETATM    3  N   UNL     1      -8.765   9.668  64.087  1.00  0.00    -0.202 NA 
BRANCH   3   4
HETATM    4  C   UNL     1      -8.066   8.555  64.762  1.00  0.00    -0.151 C  
HETATM    5  C   UNL     1      -6.833   8.923  65.586  1.00  0.00    -0.076 C  
ENDBRANCH   3   4
BRANCH   3   6
HETATM    6  C   UNL     1      -9.391  10.571  65.083  1.00  0.00    -0.216 C  
BRANCH   6   7
HETATM    7  C   UNL     1     -10.573   9.970  65.862  1.00  0.00     0.071 C  
BRANCH   7   8
HETATM    8  N   UNL     1     -11.033  10.833  66.937  1.00  0.00    -0.231 N  
HETATM    9  C   UNL     1     -10.265  11.036  68.066  1.00  0.00    -0.179 C  
HETATM   10  H   UNL     1     -11.939  11.295  66.856  1.00  0.00     0.000 HD 
HETATM   11  O   UNL     1      -9.183  10.491  68.241  1.00  0.00    -0.143 OA 
BRANCH   9  12
HETATM   12  C   UNL     1     -10.759  12.046  69.033  1.00  0.00    -0.178 A  
HETATM   13  C   UNL     1     -11.549  11.573  70.097  1.00  0.00    -0.336 A  
HETATM   14  C   UNL     1     -12.267  12.463  70.896  1.00  0.00    -0.193 A  
HETATM   15  C   UNL     1     -12.248  13.840  70.635  1.00  0.00    -0.363 A  
HETATM   16 CL   UNL     1     -13.271  11.814  72.147  1.00  0.00    -0.519 Cl 
HETATM   17  C   UNL     1     -11.383  14.308  69.639  1.00  0.00    -0.292 A  
HETATM   18  N   UNL     1     -12.919  14.763  71.457  1.00  0.00    -0.315 NA 
HETATM   19  H1  UNL     1     -12.906  15.765  71.267  1.00  0.00     0.000 HD 
HETATM   20  C   UNL     1     -10.650  13.429  68.822  1.00  0.00    -0.210 A  
HETATM   21  H2  UNL     1     -12.593  14.623  72.413  1.00  0.00     0.000 HD 
BRANCH  20  22
HETATM   22  O   UNL     1      -9.978  14.067  67.812  1.00  0.00    -0.228 OA 
HETATM   23  C   UNL     1      -8.673  14.544  68.124  1.00  0.00    -0.171 C  
ENDBRANCH  20  22
ENDBRANCH   9  12
ENDBRANCH   7   8
ENDBRANCH   6   7
ENDBRANCH   3   6
ENDBRANCH   2   3
TORSDOF 7
ENDMDL
MODEL      314
REMARK 921   NORMALIZED FREE ENERGY PREDICTED BY IDOCK:   -2.40 KCAL/MOL
REMARK 922        TOTAL FREE ENERGY PREDICTED BY IDOCK:   -4.09 KCAL/MOL
REMARK 923 INTER-LIGAND FREE ENERGY PREDICTED BY IDOCK:   -3.32 KCAL/MOL
REMARK 924 INTRA-LIGAND FREE ENERGY PREDICTED BY IDOCK:   -0.77 KCAL/MOL
REMARK 927      BINDING AFFINITY PREDICTED BY RF-SCORE:    0.00 PKD
ROOT
HETATM    1  C   UNL     1     -11.905  10.999  68.937  1.00  0.00    -0.378 C  
HETATM    2  C   UNL     1     -11.285  12.392  68.892  1.00  0.00    -0.280 C  
ENDROOT
BRANCH   2   3
HETATM    3  N   UNL     1     -10.452  12.659  67.705  1.00  0.00    -0.218 NA 
BRANCH   3   4
HETATM    4  C   UNL     1      -9.405  13.676  67.929  1.00  0.00    -0.206 C  
HETATM    5  C   UNL     1      -9.826  14.933  68.689  1.00  0.00    -0.225 C  
ENDBRANCH   3   4
BRANCH   3   6
HETATM    6  C   UNL     1      -9.861  11.414  67.156  1.00  0.00    -0.190 C  
BRANCH   6   7
HETATM    7  C   UNL     1      -8.630  10.884  67.910  1.00  0.00    -0.130 C  
BRANCH   7   8
HETATM    8  N   UNL     1      -8.694   9.453  68.153  1.00  0.00    -0.124 N  
HETATM    9  C   UNL     1      -8.918   8.956  69.421  1.00  0.00    -0.145 C  
HETATM   10  H   UNL     1      -8.571   8.806  67.375  1.00  0.00     0.000 HD 
HETATM   11  O   UNL     1      -9.046   9.674  70.405  1.00  0.00    -0.246 OA 
BRANCH   9  12
HETATM   12  C   UNL     1      -9.111   7.490  69.537  1.00  0.00    -0.143 A  
HETATM   13  C   UNL     1     -10.139   7.050  70.391  1.00  0.00    -0.198 A  
HETATM   14  C   UNL     1     -10.225   5.709  70.764  1.00  0.00    -0.227 A  
HETATM   15  C   UNL     1      -9.271   4.779  70.327  1.00  0.00    -0.132 A  
HETATM   16 CL   UNL     1     -11.473   5.243  71.868  1.00  0.00     0.014 Cl 
HETATM   17  C   UNL     1      -8.313   5.206  69.401  1.00  0.00    -0.090 A  
HETATM   18  N   UNL     1      -9.365   3.411  70.644  1.00  0.00    -0.148 NA 
HETATM   19  H1  UNL     1      -8.671   2.735  70.327  1.00  0.00     0.000 HD 
HETATM   20  C   UNL     1      -8.208   6.553  69.012  1.00  0.00    -0.116 A  
HETATM   21  H2  UNL     1     -10.281   3.083  70.340  1.00  0.00     0.000 HD 
BRANCH  20  22
HETATM   22  O   UNL     1      -7.120   6.800  68.216  1.00  0.00    -0.080 OA 
HETATM   23  C   UNL     1      -6.706   5.737  67.363  1.00  0.00    -0.059 C  
ENDBRANCH  20  22
ENDBRANCH   9  12
ENDBRANCH   7   8
ENDBRANCH   6   7
ENDBRANCH   3   6
ENDBRANCH   2   3
TORSDOF 7
ENDMDL
MODEL      315
REMARK 921   NORMALIZED FREE ENERGY PREDICTED BY IDOCK:   -2.38 KCAL/MOL
REMARK 922        TOTAL FREE ENERGY PREDICTED BY IDOCK:   -4.07 KCAL/MOL
REMARK 923 INTER-LIGAND FREE ENERGY PREDICTED BY IDOCK:   -4.76 KCAL/MOL
REMARK 924 INTRA-LIGAND FREE ENERGY PREDICTED BY IDOCK:    0.70 KCAL/MOL
REMARK 927      BINDING AFFINITY PREDICTED BY RF-SCORE:    0.00 PKD
ROOT
HETATM    1  C   UNL     1     -10.044  13.899  67.641  1.00  0.00    -0.241 C  
HETATM    2  C   UNL     1     -11.479  14.061  68.132  1.00  0.00    -0.309 C  
ENDROOT
BRANCH   2   3
HETATM    3  N   UNL     1     -11.789  13.339  69.380  1.00  0.00    -0.319 NA 
BRANCH   3   4
HETATM    4  C   UNL     1     -12.730  14.057  70.263  1.00  0.00    -0.210 C  
HETATM    5  C   UNL     1     -12.205  14.451  71.643  1.00  0.00    -0.385 C  
ENDBRANCH   3   4
BRANCH   3   6
HETATM    6  C   UNL     1     -12.271  11.961  69.114  1.00  0.00    -0.082 C  
BRANCH   6   7
HETATM    7  C   UNL     1     -11.600  10.858  69.948  1.00  0.00    -0.331 C  
BRANCH   7   8
HETATM    8  N   UNL     1     -11.052   9.791  69.130  1.00  0.00    -0.387 N  
HETATM    9  C   UNL     1     -11.078   9.864  67.752  1.00  0.00    -0.129 C  
HETATM   10  H   UNL     1     -10.641   8.973  69.582  1.00  0.00     0.000 HD 
HETATM   11  O   UNL     1     -11.580  10.801  67.145  1.00  0.00    -0.385 OA 
BRANCH   9  12
HETATM   12  C   UNL     1     -10.362   8.793  67.015  1.00  0.00    -0.353 A  
HETATM   13  C   UNL     1     -10.610   7.469  67.420  1.00  0.00    -0.364 A  
HETATM   14  C   UNL     1      -9.798   6.427  66.972  1.00  0.00    -0.154 A  
HETATM   15  C   UNL     1      -8.699   6.680  66.140  1.00  0.00    -0.148 A  
HETATM   16 CL   UNL     1     -10.115   4.830  67.558  1.00  0.00    -0.189 Cl 
HETATM   17  C   UNL     1      -8.520   7.984  65.665  1.00  0.00    -0.162 A  
HETATM   18  N   UNL     1      -7.896   5.642  65.631  1.00  0.00    -0.096 NA 
HETATM   19  H1  UNL     1      -7.096   5.826  65.026  1.00  0.00     0.000 HD 
HETATM   20  C   UNL     1      -9.327   9.049  66.103  1.00  0.00    -0.232 A  
HETATM   21  H2  UNL     1      -8.508   4.985  65.147  1.00  0.00     0.000 HD 
BRANCH  20  22
HETATM   22  O   UNL     1      -8.906  10.269  65.641  1.00  0.00    -0.155 OA 
HETATM   23  C   UNL     1      -7.501  10.503  65.664  1.00  0.00    -0.129 C  
ENDBRANCH  20  22
ENDBRANCH   9  12
ENDBRANCH   7   8
ENDBRANCH   6   7
ENDBRANCH   3   6
ENDBRANCH   2   3
TORSDOF 7
ENDMDL
MODEL      316
REMARK 921   NORMALIZED FREE ENERGY PREDICTED BY IDOCK:   -2.38 KCAL/MOL
REMARK 922        TOTAL FREE ENERGY PREDICTED BY IDOCK:   -4.06 KCAL/MOL
REMARK 923 INTER-LIGAND FREE ENERGY PREDICTED BY IDOCK:   -4.55 KCAL/MOL
REMARK 924 INTRA-LIGAND FREE ENERGY PREDICTED BY IDOCK:    0.48 KCAL/MOL
REMARK 927      BINDING AFFINITY PREDICTED BY RF-SCORE:    0.00 PKD
ROOT
HETATM    1  C   UNL     1     -10.124  19.769  68.992  1.00  0.00    -0.427 C  
HETATM    2  C   UNL     1     -10.025  20.013  67.490  1.00  0.00    -0.427 C  
ENDROOT
BRANCH   2   3
HETATM    3  N   UNL     1      -8.770  19.546  66.871  1.00  0.00    -0.297 NA 
BRANCH   3   4
HETATM    4  C   UNL     1      -7.578  19.752  67.718  1.00  0.00    -0.286 C  
HETATM    5  C   UNL     1      -6.465  20.618  67.131  1.00  0.00    -0.327 C  
ENDBRANCH   3   4
BRANCH   3   6
HETATM    6  C   UNL     1      -8.864  18.131  66.437  1.00  0.00    -0.236 C  
BRANCH   6   7
HETATM    7  C   UNL     1     -10.209  17.722  65.815  1.00  0.00    -0.136 C  
BRANCH   7   8
HETATM    8  N   UNL     1     -10.495  16.307  65.976  1.00  0.00    -0.336 N  
HETATM    9  C   UNL     1      -9.485  15.400  66.227  1.00  0.00    -0.309 C  
HETATM   10  H   UNL     1     -11.458  15.979  65.903  1.00  0.00     0.000 HD 
HETATM   11  O   UNL     1      -8.306  15.720  66.299  1.00  0.00    -0.281 OA 
BRANCH   9  12
HETATM   12  C   UNL     1      -9.900  14.006  66.520  1.00  0.00    -0.298 A  
HETATM   13  C   UNL     1     -10.595  13.324  65.505  1.00  0.00    -0.295 A  
HETATM   14  C   UNL     1     -11.247  12.122  65.777  1.00  0.00    -0.339 A  
HETATM   15  C   UNL     1     -11.257  11.587  67.073  1.00  0.00    -0.300 A  
HETATM   16 CL   UNL     1     -12.139  11.365  64.502  1.00  0.00     0.149 Cl 
HETATM   17  C   UNL     1     -10.482  12.221  68.051  1.00  0.00    -0.231 A  
HETATM   18  N   UNL     1     -11.861  10.350  67.363  1.00  0.00    -0.078 NA 
HETATM   19  H1  UNL     1     -11.868   9.961  68.306  1.00  0.00     0.000 HD 
HETATM   20  C   UNL     1      -9.817  13.433  67.798  1.00  0.00    -0.234 A  
HETATM   21  H2  UNL     1     -11.455   9.651  66.741  1.00  0.00     0.000 HD 
BRANCH  20  22
HETATM   22  O   UNL     1      -9.235  13.972  68.916  1.00  0.00    -0.101 OA 
HETATM   23  C   UNL     1      -7.860  13.666  69.123  1.00  0.00     0.239 C  
ENDBRANCH  20  22
ENDBRANCH   9  12
ENDBRANCH   7   8
ENDBRANCH   6   7
ENDBRANCH   3   6
ENDBRANCH   2   3
TORSDOF 7
ENDMDL
MODEL      317
REMARK 921   NORMALIZED FREE ENERGY PREDICTED BY IDOCK:   -2.37 KCAL/MOL
REMARK 922        TOTAL FREE ENERGY PREDICTED BY IDOCK:   -4.06 KCAL/MOL
REMARK 923 INTER-LIGAND FREE ENERGY PREDICTED BY IDOCK:   -3.28 KCAL/MOL
REMARK 924 INTRA-LIGAND FREE ENERGY PREDICTED BY IDOCK:   -0.78 KCAL/MOL
REMARK 927      BINDING AFFINITY PREDICTED BY RF-SCORE:    0.00 PKD
ROOT
HETATM    1  C   UNL     1      -8.641   2.221  65.366  1.00  0.00    -0.113 C  
HETATM    2  C   UNL     1      -7.977   3.535  65.767  1.00  0.00    -0.093 C  
ENDROOT
BRANCH   2   3
HETATM    3  N   UNL     1      -7.889   3.763  67.221  1.00  0.00    -0.079 NA 
BRANCH   3   4
HETATM    4  C   UNL     1      -6.879   4.769  67.605  1.00  0.00    -0.060 C  
HETATM    5  C   UNL     1      -6.829   5.158  69.082  1.00  0.00    -0.054 C  
ENDBRANCH   3   4
BRANCH   3   6
HETATM    6  C   UNL     1      -9.210   4.100  67.806  1.00  0.00    -0.152 C  
BRANCH   6   7
HETATM    7  C   UNL     1     -10.062   5.081  66.983  1.00  0.00    -0.214 C  
BRANCH   7   8
HETATM    8  N   UNL     1      -9.755   6.471  67.274  1.00  0.00    -0.127 N  
HETATM    9  C   UNL     1     -10.423   7.154  68.270  1.00  0.00    -0.198 C  
HETATM   10  H   UNL     1      -9.034   6.949  66.734  1.00  0.00     0.000 HD 
HETATM   11  O   UNL     1     -11.317   6.651  68.938  1.00  0.00    -0.231 OA 
BRANCH   9  12
HETATM   12  C   UNL     1      -9.934   8.519  68.584  1.00  0.00    -0.197 A  
HETATM   13  C   UNL     1     -10.890   9.448  69.033  1.00  0.00    -0.161 A  
HETATM   14  C   UNL     1     -10.581  10.807  69.100  1.00  0.00    -0.222 A  
HETATM   15  C   UNL     1      -9.327  11.280  68.687  1.00  0.00    -0.164 A  
HETATM   16 CL   UNL     1     -11.820  11.907  69.598  1.00  0.00    -0.392 Cl 
HETATM   17  C   UNL     1      -8.353  10.338  68.336  1.00  0.00    -0.119 A  
HETATM   18  N   UNL     1      -8.971  12.637  68.794  1.00  0.00    -0.389 NA 
HETATM   19  H1  UNL     1      -8.059  12.981  68.493  1.00  0.00     0.000 HD 
HETATM   20  C   UNL     1      -8.643   8.965  68.262  1.00  0.00    -0.134 A  
HETATM   21  H2  UNL     1      -9.105  12.918  69.765  1.00  0.00     0.000 HD 
BRANCH  20  22
HETATM   22  O   UNL     1      -7.606   8.222  67.761  1.00  0.00    -0.098 OA 
HETATM   23  C   UNL     1      -7.046   8.669  66.530  1.00  0.00    -0.080 C  
ENDBRANCH  20  22
ENDBRANCH   9  12
ENDBRANCH   7   8
ENDBRANCH   6   7
ENDBRANCH   3   6
ENDBRANCH   2   3
TORSDOF 7
ENDMDL
MODEL      318
REMARK 921   NORMALIZED FREE ENERGY PREDICTED BY IDOCK:   -2.37 KCAL/MOL
REMARK 922        TOTAL FREE ENERGY PREDICTED BY IDOCK:   -4.05 KCAL/MOL
REMARK 923 INTER-LIGAND FREE ENERGY PREDICTED BY IDOCK:   -3.45 KCAL/MOL
REMARK 924 INTRA-LIGAND FREE ENERGY PREDICTED BY IDOCK:   -0.60 KCAL/MOL
REMARK 927      BINDING AFFINITY PREDICTED BY RF-SCORE:    0.00 PKD
ROOT
HETATM    1  C   UNL     1      -9.166  14.076  67.805  1.00  0.00    -0.195 C  
HETATM    2  C   UNL     1     -10.628  13.775  68.119  1.00  0.00    -0.253 C  
ENDROOT
BRANCH   2   3
HETATM    3  N   UNL     1     -10.843  12.610  68.997  1.00  0.00    -0.192 NA 
BRANCH   3   4
HETATM    4  C   UNL     1     -12.109  12.663  69.756  1.00  0.00    -0.233 C  
HETATM    5  C   UNL     1     -12.329  13.897  70.630  1.00  0.00    -0.451 C  
ENDBRANCH   3   4
BRANCH   3   6
HETATM    6  C   UNL     1     -10.735  11.332  68.252  1.00  0.00    -0.194 C  
BRANCH   6   7
HETATM    7  C   UNL     1      -9.592  10.405  68.700  1.00  0.00    -0.166 C  
BRANCH   7   8
HETATM    8  N   UNL     1      -9.126   9.535  67.635  1.00  0.00    -0.121 N  
HETATM    9  C   UNL     1      -9.552   8.225  67.548  1.00  0.00    -0.154 C  
HETATM   10  H   UNL     1      -8.472   9.897  66.941  1.00  0.00     0.000 HD 
HETATM   11  O   UNL     1     -10.312   7.717  68.361  1.00  0.00    -0.192 OA 
BRANCH   9  12
HETATM   12  C   UNL     1      -9.131   7.468  66.344  1.00  0.00    -0.210 A  
HETATM   13  C   UNL     1      -9.406   6.088  66.333  1.00  0.00    -0.171 A  
HETATM   14  C   UNL     1      -8.823   5.256  65.377  1.00  0.00    -0.152 A  
HETATM   15  C   UNL     1      -7.925   5.768  64.431  1.00  0.00    -0.126 A  
HETATM   16 CL   UNL     1      -9.149   3.559  65.458  1.00  0.00    -0.141 Cl 
HETATM   17  C   UNL     1      -7.735   7.154  64.388  1.00  0.00    -0.117 A  
HETATM   18  N   UNL     1      -7.365   4.962  63.423  1.00  0.00    -0.049 NA 
HETATM   19  H1  UNL     1      -6.711   5.335  62.735  1.00  0.00     0.000 HD 
HETATM   20  C   UNL     1      -8.313   8.011  65.342  1.00  0.00    -0.153 A  
HETATM   21  H2  UNL     1      -8.132   4.520  62.916  1.00  0.00     0.000 HD 
BRANCH  20  22
HETATM   22  O   UNL     1      -7.894   9.310  65.222  1.00  0.00    -0.100 OA 
HETATM   23  C   UNL     1      -6.491   9.512  65.087  1.00  0.00    -0.079 C  
ENDBRANCH  20  22
ENDBRANCH   9  12
ENDBRANCH   7   8
ENDBRANCH   6   7
ENDBRANCH   3   6
ENDBRANCH   2   3
TORSDOF 7
ENDMDL
MODEL      319
REMARK 921   NORMALIZED FREE ENERGY PREDICTED BY IDOCK:   -2.36 KCAL/MOL
REMARK 922        TOTAL FREE ENERGY PREDICTED BY IDOCK:   -4.03 KCAL/MOL
REMARK 923 INTER-LIGAND FREE ENERGY PREDICTED BY IDOCK:   -3.41 KCAL/MOL
REMARK 924 INTRA-LIGAND FREE ENERGY PREDICTED BY IDOCK:   -0.62 KCAL/MOL
REMARK 927      BINDING AFFINITY PREDICTED BY RF-SCORE:    0.00 PKD
ROOT
HETATM    1  C   UNL     1      -8.507   5.871  67.626  1.00  0.00    -0.103 C  
HETATM    2  C   UNL     1      -9.138   5.580  66.267  1.00  0.00    -0.146 C  
ENDROOT
BRANCH   2   3
HETATM    3  N   UNL     1      -8.178   5.221  65.207  1.00  0.00    -0.123 NA 
BRANCH   3   4
HETATM    4  C   UNL     1      -8.516   3.970  64.499  1.00  0.00    -0.104 C  
HETATM    5  C   UNL     1      -9.140   4.118  63.112  1.00  0.00    -0.125 C  
ENDBRANCH   3   4
BRANCH   3   6
HETATM    6  C   UNL     1      -7.983   6.331  64.242  1.00  0.00    -0.108 C  
BRANCH   6   7
HETATM    7  C   UNL     1      -6.836   7.298  64.577  1.00  0.00    -0.050 C  
BRANCH   7   8
HETATM    8  N   UNL     1      -7.276   8.442  65.356  1.00  0.00    -0.081 N  
HETATM    9  C   UNL     1      -7.611   9.634  64.746  1.00  0.00    -0.122 C  
HETATM   10  H   UNL     1      -7.338   8.363  66.371  1.00  0.00     0.000 HD 
HETATM   11  O   UNL     1      -7.533   9.807  63.536  1.00  0.00    -0.116 OA 
BRANCH   9  12
HETATM   12  C   UNL     1      -8.186  10.689  65.616  1.00  0.00    -0.154 A  
HETATM   13  C   UNL     1      -7.356  11.195  66.632  1.00  0.00    -0.145 A  
HETATM   14  C   UNL     1      -7.886  11.987  67.651  1.00  0.00    -0.149 A  
HETATM   15  C   UNL     1      -9.259  12.264  67.706  1.00  0.00    -0.191 A  
HETATM   16 CL   UNL     1      -6.825  12.525  68.908  1.00  0.00    -0.097 Cl 
HETATM   17  C   UNL     1     -10.058  11.838  66.638  1.00  0.00    -0.231 A  
HETATM   18  N   UNL     1      -9.811  13.103  68.691  1.00  0.00    -0.400 NA 
HETATM   19  H1  UNL     1     -10.810  13.304  68.731  1.00  0.00     0.000 HD 
HETATM   20  C   UNL     1      -9.545  11.040  65.601  1.00  0.00    -0.226 A  
HETATM   21  H2  UNL     1      -9.315  13.993  68.655  1.00  0.00     0.000 HD 
BRANCH  20  22
HETATM   22  O   UNL     1     -10.508  10.603  64.730  1.00  0.00    -0.325 OA 
HETATM   23  C   UNL     1     -10.866  11.498  63.682  1.00  0.00    -0.415 C  
ENDBRANCH  20  22
ENDBRANCH   9  12
ENDBRANCH   7   8
ENDBRANCH   6   7
ENDBRANCH   3   6
ENDBRANCH   2   3
TORSDOF 7
ENDMDL
MODEL      320
REMARK 921   NORMALIZED FREE ENERGY PREDICTED BY IDOCK:   -2.35 KCAL/MOL
REMARK 922        TOTAL FREE ENERGY PREDICTED BY IDOCK:   -4.03 KCAL/MOL
REMARK 923 INTER-LIGAND FREE ENERGY PREDICTED BY IDOCK:   -3.13 KCAL/MOL
REMARK 924 INTRA-LIGAND FREE ENERGY PREDICTED BY IDOCK:   -0.91 KCAL/MOL
REMARK 927      BINDING AFFINITY PREDICTED BY RF-SCORE:    0.00 PKD
ROOT
HETATM    1  C   UNL     1      -8.289   8.258  72.658  1.00  0.00    -0.235 C  
HETATM    2  C   UNL     1      -8.389   6.934  73.410  1.00  0.00    -0.116 C  
ENDROOT
BRANCH   2   3
HETATM    3  N   UNL     1      -8.285   5.733  72.561  1.00  0.00    -0.116 NA 
BRANCH   3   4
HETATM    4  C   UNL     1      -6.926   5.157  72.510  1.00  0.00    -0.084 C  
HETATM    5  C   UNL     1      -6.418   4.727  71.135  1.00  0.00    -0.019 C  
ENDBRANCH   3   4
BRANCH   3   6
HETATM    6  C   UNL     1      -9.276   4.699  72.946  1.00  0.00    -0.123 C  
BRANCH   6   7
HETATM    7  C   UNL     1     -10.554   4.663  72.092  1.00  0.00    -0.105 C  
BRANCH   7   8
HETATM    8  N   UNL     1     -10.312   5.020  70.705  1.00  0.00    -0.224 N  
HETATM    9  C   UNL     1      -9.786   4.106  69.815  1.00  0.00    -0.208 C  
HETATM   10  H   UNL     1     -10.534   5.963  70.384  1.00  0.00     0.000 HD 
HETATM   11  O   UNL     1      -9.470   2.968  70.138  1.00  0.00    -0.160 OA 
BRANCH   9  12
HETATM   12  C   UNL     1      -9.715   4.526  68.394  1.00  0.00    -0.188 A  
HETATM   13  C   UNL     1      -9.529   3.509  67.440  1.00  0.00    -0.234 A  
HETATM   14  C   UNL     1      -9.191   3.825  66.124  1.00  0.00    -0.164 A  
HETATM   15  C   UNL     1      -8.994   5.156  65.732  1.00  0.00    -0.152 A  
HETATM   16 CL   UNL     1      -8.911   2.526  65.015  1.00  0.00    -0.116 Cl 
HETATM   17  C   UNL     1      -9.278   6.163  66.662  1.00  0.00    -0.155 A  
HETATM   18  N   UNL     1      -8.706   5.506  64.400  1.00  0.00    -0.335 NA 
HETATM   19  H1  UNL     1      -8.562   6.475  64.115  1.00  0.00     0.000 HD 
HETATM   20  C   UNL     1      -9.620   5.867  67.993  1.00  0.00    -0.116 A  
HETATM   21  H2  UNL     1      -9.439   5.113  63.810  1.00  0.00     0.000 HD 
BRANCH  20  22
HETATM   22  O   UNL     1      -9.715   6.982  68.785  1.00  0.00    -0.142 OA 
HETATM   23  C   UNL     1      -9.145   8.178  68.264  1.00  0.00    -0.135 C  
ENDBRANCH  20  22
ENDBRANCH   9  12
ENDBRANCH   7   8
ENDBRANCH   6   7
ENDBRANCH   3   6
ENDBRANCH   2   3
TORSDOF 7
ENDMDL
MODEL      321
REMARK 921   NORMALIZED FREE ENERGY PREDICTED BY IDOCK:   -2.35 KCAL/MOL
REMARK 922        TOTAL FREE ENERGY PREDICTED BY IDOCK:   -4.03 KCAL/MOL
REMARK 923 INTER-LIGAND FREE ENERGY PREDICTED BY IDOCK:   -3.50 KCAL/MOL
REMARK 924 INTRA-LIGAND FREE ENERGY PREDICTED BY IDOCK:   -0.53 KCAL/MOL
REMARK 927      BINDING AFFINITY PREDICTED BY RF-SCORE:    0.00 PKD
ROOT
HETATM    1  C   UNL     1      -7.926   6.419  64.618  1.00  0.00    -0.118 C  
HETATM    2  C   UNL     1      -8.380   7.471  65.625  1.00  0.00    -0.140 C  
ENDROOT
BRANCH   2   3
HETATM    3  N   UNL     1      -7.497   8.647  65.729  1.00  0.00    -0.084 NA 
BRANCH   3   4
HETATM    4  C   UNL     1      -7.795   9.704  64.741  1.00  0.00    -0.128 C  
HETATM    5  C   UNL     1      -9.261   9.873  64.344  1.00  0.00    -0.317 C  
ENDBRANCH   3   4
BRANCH   3   6
HETATM    6  C   UNL     1      -7.483   9.206  67.103  1.00  0.00    -0.087 C  
BRANCH   6   7
HETATM    7  C   UNL     1      -8.840   9.204  67.826  1.00  0.00    -0.124 C  
BRANCH   7   8
HETATM    8  N   UNL     1      -8.908   8.216  68.889  1.00  0.00    -0.141 N  
HETATM    9  C   UNL     1      -9.952   7.317  68.961  1.00  0.00    -0.177 C  
HETATM   10  H   UNL     1      -8.171   8.187  69.595  1.00  0.00     0.000 HD 
HETATM   11  O   UNL     1     -10.883   7.313  68.166  1.00  0.00    -0.161 OA 
BRANCH   9  12
HETATM   12  C   UNL     1      -9.850   6.259  69.996  1.00  0.00    -0.200 A  
HETATM   13  C   UNL     1      -9.145   5.094  69.646  1.00  0.00    -0.153 A  
HETATM   14  C   UNL     1      -9.219   3.953  70.445  1.00  0.00    -0.139 A  
HETATM   15  C   UNL     1     -10.024   3.931  71.592  1.00  0.00    -0.153 A  
HETATM   16 CL   UNL     1      -8.381   2.531  69.926  1.00  0.00    -0.069 Cl 
HETATM   17  C   UNL     1     -10.642   5.124  71.985  1.00  0.00    -0.266 A  
HETATM   18  N   UNL     1     -10.075   2.813  72.446  1.00  0.00    -0.164 NA 
HETATM   19  H1  UNL     1     -10.661   2.796  73.280  1.00  0.00     0.000 HD 
HETATM   20  C   UNL     1     -10.580   6.285  71.194  1.00  0.00    -0.239 A  
HETATM   21  H2  UNL     1      -9.120   2.596  72.731  1.00  0.00     0.000 HD 
BRANCH  20  22
HETATM   22  O   UNL     1     -11.366   7.302  71.669  1.00  0.00    -0.245 OA 
HETATM   23  C   UNL     1     -12.761   7.204  71.395  1.00  0.00    -0.391 C  
ENDBRANCH  20  22
ENDBRANCH   9  12
ENDBRANCH   7   8
ENDBRANCH   6   7
ENDBRANCH   3   6
ENDBRANCH   2   3
TORSDOF 7
ENDMDL
MODEL      322
REMARK 921   NORMALIZED FREE ENERGY PREDICTED BY IDOCK:   -2.35 KCAL/MOL
REMARK 922        TOTAL FREE ENERGY PREDICTED BY IDOCK:   -4.03 KCAL/MOL
REMARK 923 INTER-LIGAND FREE ENERGY PREDICTED BY IDOCK:   -3.36 KCAL/MOL
REMARK 924 INTRA-LIGAND FREE ENERGY PREDICTED BY IDOCK:   -0.67 KCAL/MOL
REMARK 927      BINDING AFFINITY PREDICTED BY RF-SCORE:    0.00 PKD
ROOT
HETATM    1  C   UNL     1      -5.315  18.107  70.639  1.00  0.00    -0.259 C  
HETATM    2  C   UNL     1      -5.985  16.856  70.078  1.00  0.00    -0.184 C  
ENDROOT
BRANCH   2   3
HETATM    3  N   UNL     1      -7.162  17.116  69.228  1.00  0.00    -0.192 NA 
BRANCH   3   4
HETATM    4  C   UNL     1      -7.128  18.428  68.551  1.00  0.00    -0.273 C  
HETATM    5  C   UNL     1      -7.464  18.436  67.060  1.00  0.00    -0.227 C  
ENDBRANCH   3   4
BRANCH   3   6
HETATM    6  C   UNL     1      -7.383  16.027  68.245  1.00  0.00    -0.128 C  
BRANCH   6   7
HETATM    7  C   UNL     1      -6.644  14.713  68.544  1.00  0.00    -0.095 C  
BRANCH   7   8
HETATM    8  N   UNL     1      -7.044  13.630  67.662  1.00  0.00    -0.162 N  
HETATM    9  C   UNL     1      -6.439  12.392  67.734  1.00  0.00    -0.115 C  
HETATM   10  H   UNL     1      -7.783  13.789  66.977  1.00  0.00     0.000 HD 
HETATM   11  O   UNL     1      -5.527  12.140  68.510  1.00  0.00    -0.052 OA 
BRANCH   9  12
HETATM   12  C   UNL     1      -7.020  11.318  66.892  1.00  0.00    -0.137 A  
HETATM   13  C   UNL     1      -6.210  10.813  65.858  1.00  0.00    -0.121 A  
HETATM   14  C   UNL     1      -6.755  10.001  64.863  1.00  0.00    -0.126 A  
HETATM   15  C   UNL     1      -8.124   9.701  64.850  1.00  0.00    -0.133 A  
HETATM   16 CL   UNL     1      -5.721   9.467  63.583  1.00  0.00    -0.086 Cl 
HETATM   17  C   UNL     1      -8.900  10.126  65.934  1.00  0.00    -0.167 A  
HETATM   18  N   UNL     1      -8.689   8.842  63.889  1.00  0.00    -0.423 NA 
HETATM   19  H1  UNL     1      -9.685   8.624  63.880  1.00  0.00     0.000 HD 
HETATM   20  C   UNL     1      -8.372  10.944  66.948  1.00  0.00    -0.133 A  
HETATM   21  H2  UNL     1      -8.177   7.960  63.921  1.00  0.00     0.000 HD 
BRANCH  20  22
HETATM   22  O   UNL     1      -9.318  11.375  67.840  1.00  0.00    -0.155 OA 
HETATM   23  C   UNL     1      -9.573  10.522  68.952  1.00  0.00    -0.193 C  
ENDBRANCH  20  22
ENDBRANCH   9  12
ENDBRANCH   7   8
ENDBRANCH   6   7
ENDBRANCH   3   6
ENDBRANCH   2   3
TORSDOF 7
ENDMDL
MODEL      323
REMARK 921   NORMALIZED FREE ENERGY PREDICTED BY IDOCK:   -2.34 KCAL/MOL
REMARK 922        TOTAL FREE ENERGY PREDICTED BY IDOCK:   -4.01 KCAL/MOL
REMARK 923 INTER-LIGAND FREE ENERGY PREDICTED BY IDOCK:   -3.09 KCAL/MOL
REMARK 924 INTRA-LIGAND FREE ENERGY PREDICTED BY IDOCK:   -0.92 KCAL/MOL
REMARK 927      BINDING AFFINITY PREDICTED BY RF-SCORE:    0.00 PKD
ROOT
HETATM    1  C   UNL     1      -9.324  10.455  69.403  1.00  0.00    -0.186 C  
HETATM    2  C   UNL     1      -9.473  10.723  67.909  1.00  0.00    -0.157 C  
ENDROOT
BRANCH   2   3
HETATM    3  N   UNL     1      -8.201  10.878  67.181  1.00  0.00    -0.123 NA 
BRANCH   3   4
HETATM    4  C   UNL     1      -7.023  10.401  67.934  1.00  0.00    -0.082 C  
HETATM    5  C   UNL     1      -6.364   9.117  67.430  1.00  0.00    -0.059 C  
ENDBRANCH   3   4
BRANCH   3   6
HETATM    6  C   UNL     1      -8.253  10.246  65.840  1.00  0.00    -0.148 C  
BRANCH   6   7
HETATM    7  C   UNL     1      -9.527   9.437  65.544  1.00  0.00    -0.260 C  
BRANCH   7   8
HETATM    8  N   UNL     1      -9.270   8.014  65.411  1.00  0.00    -0.391 N  
HETATM    9  C   UNL     1      -9.452   7.154  66.475  1.00  0.00    -0.156 C  
HETATM   10  H   UNL     1      -8.950   7.644  64.515  1.00  0.00     0.000 HD 
HETATM   11  O   UNL     1      -9.807   7.533  67.583  1.00  0.00    -0.147 OA 
BRANCH   9  12
HETATM   12  C   UNL     1      -9.304   5.705  66.192  1.00  0.00    -0.167 A  
HETATM   13  C   UNL     1      -9.575   4.821  67.253  1.00  0.00    -0.185 A  
HETATM   14  C   UNL     1      -9.214   3.476  67.164  1.00  0.00    -0.192 A  
HETATM   15  C   UNL     1      -8.542   2.986  66.036  1.00  0.00    -0.117 A  
HETATM   16 CL   UNL     1      -9.514   2.455  68.528  1.00  0.00    -0.250 Cl 
HETATM   17  C   UNL     1      -8.366   3.849  64.949  1.00  0.00    -0.104 A  
HETATM   18  N   UNL     1      -8.215   1.624  65.897  1.00  0.00    -0.080 NA 
HETATM   19  H1  UNL     1      -7.726   1.267  65.077  1.00  0.00     0.000 HD 
HETATM   20  C   UNL     1      -8.723   5.207  65.016  1.00  0.00    -0.148 A  
HETATM   21  H2  UNL     1      -9.073   1.085  66.008  1.00  0.00     0.000 HD 
BRANCH  20  22
HETATM   22  O   UNL     1      -8.339   5.920  63.911  1.00  0.00    -0.097 OA 
HETATM   23  C   UNL     1      -6.999   5.730  63.469  1.00  0.00    -0.042 C  
ENDBRANCH  20  22
ENDBRANCH   9  12
ENDBRANCH   7   8
ENDBRANCH   6   7
ENDBRANCH   3   6
ENDBRANCH   2   3
TORSDOF 7
ENDMDL
MODEL      324
REMARK 921   NORMALIZED FREE ENERGY PREDICTED BY IDOCK:   -2.28 KCAL/MOL
REMARK 922        TOTAL FREE ENERGY PREDICTED BY IDOCK:   -3.93 KCAL/MOL
REMARK 923 INTER-LIGAND FREE ENERGY PREDICTED BY IDOCK:   -3.37 KCAL/MOL
REMARK 924 INTRA-LIGAND FREE ENERGY PREDICTED BY IDOCK:   -0.56 KCAL/MOL
REMARK 927      BINDING AFFINITY PREDICTED BY RF-SCORE:    0.00 PKD
ROOT
HETATM    1  C   UNL     1      -7.688   7.345  63.542  1.00  0.00    -0.125 C  
HETATM    2  C   UNL     1      -7.411   5.955  64.107  1.00  0.00    -0.064 C  
ENDROOT
BRANCH   2   3
HETATM    3  N   UNL     1      -8.549   5.338  64.811  1.00  0.00    -0.149 NA 
BRANCH   3   4
HETATM    4  C   UNL     1      -9.051   4.107  64.166  1.00  0.00    -0.147 C  
HETATM    5  C   UNL     1     -10.529   3.782  64.372  1.00  0.00    -0.227 C  
ENDBRANCH   3   4
BRANCH   3   6
HETATM    6  C   UNL     1      -8.244   5.090  66.241  1.00  0.00    -0.108 C  
BRANCH   6   7
HETATM    7  C   UNL     1      -8.893   6.071  67.231  1.00  0.00    -0.107 C  
BRANCH   7   8
HETATM    8  N   UNL     1      -8.454   7.441  67.033  1.00  0.00    -0.117 N  
HETATM    9  C   UNL     1      -9.345   8.429  66.666  1.00  0.00    -0.191 C  
HETATM   10  H   UNL     1      -7.470   7.677  67.167  1.00  0.00     0.000 HD 
HETATM   11  O   UNL     1     -10.532   8.211  66.461  1.00  0.00    -0.252 OA 
BRANCH   9  12
HETATM   12  C   UNL     1      -8.824   9.817  66.633  1.00  0.00    -0.153 A  
HETATM   13  C   UNL     1      -7.455   9.974  66.349  1.00  0.00    -0.104 A  
HETATM   14  C   UNL     1      -6.825  11.203  66.552  1.00  0.00    -0.126 A  
HETATM   15  C   UNL     1      -7.531  12.293  67.078  1.00  0.00    -0.063 A  
HETATM   16 CL   UNL     1      -5.126  11.314  66.247  1.00  0.00    -0.125 Cl 
HETATM   17  C   UNL     1      -8.911  12.155  67.264  1.00  0.00    -0.184 A  
HETATM   18  N   UNL     1      -6.935  13.557  67.243  1.00  0.00    -0.386 NA 
HETATM   19  H1  UNL     1      -7.448  14.351  67.626  1.00  0.00     0.000 HD 
HETATM   20  C   UNL     1      -9.566  10.927  67.065  1.00  0.00    -0.173 A  
HETATM   21  H2  UNL     1      -6.551  13.840  66.341  1.00  0.00     0.000 HD 
BRANCH  20  22
HETATM   22  O   UNL     1     -10.884  10.953  67.438  1.00  0.00    -0.242 OA 
HETATM   23  C   UNL     1     -11.432  12.233  67.738  1.00  0.00    -0.329 C  
ENDBRANCH  20  22
ENDBRANCH   9  12
ENDBRANCH   7   8
ENDBRANCH   6   7
ENDBRANCH   3   6
ENDBRANCH   2   3
TORSDOF 7
ENDMDL
MODEL      325
REMARK 921   NORMALIZED FREE ENERGY PREDICTED BY IDOCK:   -2.28 KCAL/MOL
REMARK 922        TOTAL FREE ENERGY PREDICTED BY IDOCK:   -3.92 KCAL/MOL
REMARK 923 INTER-LIGAND FREE ENERGY PREDICTED BY IDOCK:   -3.03 KCAL/MOL
REMARK 924 INTRA-LIGAND FREE ENERGY PREDICTED BY IDOCK:   -0.89 KCAL/MOL
REMARK 927      BINDING AFFINITY PREDICTED BY RF-SCORE:    0.00 PKD
ROOT
HETATM    1  C   UNL     1      -9.848  13.469  66.826  1.00  0.00    -0.267 C  
HETATM    2  C   UNL     1      -9.974  11.954  66.706  1.00  0.00    -0.195 C  
ENDROOT
BRANCH   2   3
HETATM    3  N   UNL     1      -8.743  11.205  67.017  1.00  0.00    -0.144 NA 
BRANCH   3   4
HETATM    4  C   UNL     1      -7.982  10.788  65.822  1.00  0.00    -0.122 C  
HETATM    5  C   UNL     1      -6.465  10.957  65.885  1.00  0.00    -0.056 C  
ENDBRANCH   3   4
BRANCH   3   6
HETATM    6  C   UNL     1      -7.869  11.949  67.958  1.00  0.00    -0.140 C  
BRANCH   6   7
HETATM    7  C   UNL     1      -7.859  11.421  69.402  1.00  0.00     0.209 C  
BRANCH   7   8
HETATM    8  N   UNL     1      -8.214  10.015  69.488  1.00  0.00    -0.153 N  
HETATM    9  C   UNL     1      -9.506   9.622  69.776  1.00  0.00    -0.220 C  
HETATM   10  H   UNL     1      -7.497   9.306  69.332  1.00  0.00     0.000 HD 
HETATM   11  O   UNL     1     -10.408  10.418  70.002  1.00  0.00    -0.235 OA 
BRANCH   9  12
HETATM   12  C   UNL     1      -9.793   8.169  69.696  1.00  0.00    -0.184 A  
HETATM   13  C   UNL     1     -10.088   7.513  70.904  1.00  0.00    -0.192 A  
HETATM   14  C   UNL     1     -10.112   6.119  70.966  1.00  0.00    -0.188 A  
HETATM   15  C   UNL     1      -9.807   5.345  69.839  1.00  0.00    -0.201 A  
HETATM   16 CL   UNL     1     -10.416   5.371  72.497  1.00  0.00    -0.249 Cl 
HETATM   17  C   UNL     1      -9.613   6.005  68.620  1.00  0.00    -0.141 A  
HETATM   18  N   UNL     1      -9.876   3.939  69.859  1.00  0.00    -0.160 NA 
HETATM   19  H1  UNL     1      -9.654   3.375  69.039  1.00  0.00     0.000 HD 
HETATM   20  C   UNL     1      -9.585   7.408  68.535  1.00  0.00    -0.146 A  
HETATM   21  H2  UNL     1     -10.811   3.678  70.173  1.00  0.00     0.000 HD 
BRANCH  20  22
HETATM   22  O   UNL     1      -9.236   7.866  67.291  1.00  0.00    -0.137 OA 
HETATM   23  C   UNL     1      -7.954   7.474  66.810  1.00  0.00    -0.115 C  
ENDBRANCH  20  22
ENDBRANCH   9  12
ENDBRANCH   7   8
ENDBRANCH   6   7
ENDBRANCH   3   6
ENDBRANCH   2   3
TORSDOF 7
ENDMDL
MODEL      326
REMARK 921   NORMALIZED FREE ENERGY PREDICTED BY IDOCK:   -2.27 KCAL/MOL
REMARK 922        TOTAL FREE ENERGY PREDICTED BY IDOCK:   -3.91 KCAL/MOL
REMARK 923 INTER-LIGAND FREE ENERGY PREDICTED BY IDOCK:   -3.06 KCAL/MOL
REMARK 924 INTRA-LIGAND FREE ENERGY PREDICTED BY IDOCK:   -0.85 KCAL/MOL
REMARK 927      BINDING AFFINITY PREDICTED BY RF-SCORE:    0.00 PKD
ROOT
HETATM    1  C   UNL     1     -10.485  10.069  68.529  1.00  0.00    -0.229 C  
HETATM    2  C   UNL     1      -9.630  11.258  68.954  1.00  0.00    -0.105 C  
ENDROOT
BRANCH   2   3
HETATM    3  N   UNL     1      -9.464  12.298  67.922  1.00  0.00    -0.193 NA 
BRANCH   3   4
HETATM    4  C   UNL     1     -10.622  13.207  67.803  1.00  0.00    -0.234 C  
HETATM    5  C   UNL     1     -10.807  13.904  66.456  1.00  0.00    -0.295 C  
ENDBRANCH   3   4
BRANCH   3   6
HETATM    6  C   UNL     1      -8.213  13.071  68.114  1.00  0.00    -0.157 C  
BRANCH   6   7
HETATM    7  C   UNL     1      -7.055  12.691  67.176  1.00  0.00    -0.028 C  
BRANCH   7   8
HETATM    8  N   UNL     1      -7.398  11.605  66.274  1.00  0.00    -0.371 N  
HETATM    9  C   UNL     1      -6.920  10.327  66.482  1.00  0.00    -0.107 C  
HETATM   10  H   UNL     1      -8.001  11.791  65.472  1.00  0.00     0.000 HD 
HETATM   11  O   UNL     1      -6.171  10.040  67.406  1.00  0.00    -0.058 OA 
BRANCH   9  12
HETATM   12  C   UNL     1      -7.447   9.266  65.590  1.00  0.00    -0.094 A  
HETATM   13  C   UNL     1      -6.978   7.958  65.813  1.00  0.00    -0.056 A  
HETATM   14  C   UNL     1      -7.208   6.953  64.874  1.00  0.00    -0.078 A  
HETATM   15  C   UNL     1      -7.875   7.231  63.673  1.00  0.00    -0.108 A  
HETATM   16 CL   UNL     1      -6.550   5.382  65.176  1.00  0.00    -0.039 Cl 
HETATM   17  C   UNL     1      -8.422   8.508  63.505  1.00  0.00    -0.036 A  
HETATM   18  N   UNL     1      -8.167   6.225  62.733  1.00  0.00    -0.243 NA 
HETATM   19  H1  UNL     1      -8.653   6.427  61.859  1.00  0.00     0.000 HD 
HETATM   20  C   UNL     1      -8.203   9.536  64.439  1.00  0.00    -0.148 A  
HETATM   21  H2  UNL     1      -8.685   5.490  63.215  1.00  0.00     0.000 HD 
BRANCH  20  22
HETATM   22  O   UNL     1      -8.692  10.749  64.029  1.00  0.00    -0.158 OA 
HETATM   23  C   UNL     1      -9.213  10.806  62.705  1.00  0.00    -0.324 C  
ENDBRANCH  20  22
ENDBRANCH   9  12
ENDBRANCH   7   8
ENDBRANCH   6   7
ENDBRANCH   3   6
ENDBRANCH   2   3
TORSDOF 7
ENDMDL
MODEL      327
REMARK 921   NORMALIZED FREE ENERGY PREDICTED BY IDOCK:   -2.26 KCAL/MOL
REMARK 922        TOTAL FREE ENERGY PREDICTED BY IDOCK:   -3.90 KCAL/MOL
REMARK 923 INTER-LIGAND FREE ENERGY PREDICTED BY IDOCK:   -3.47 KCAL/MOL
REMARK 924 INTRA-LIGAND FREE ENERGY PREDICTED BY IDOCK:   -0.43 KCAL/MOL
REMARK 927      BINDING AFFINITY PREDICTED BY RF-SCORE:    0.00 PKD
ROOT
HETATM    1  C   UNL     1     -11.116   9.372  70.958  1.00  0.00    -0.414 C  
HETATM    2  C   UNL     1     -10.798  10.489  69.969  1.00  0.00    -0.259 C  
ENDROOT
BRANCH   2   3
HETATM    3  N   UNL     1      -9.834  10.124  68.915  1.00  0.00    -0.180 NA 
BRANCH   3   4
HETATM    4  C   UNL     1      -9.760  11.103  67.812  1.00  0.00    -0.171 C  
HETATM    5  C   UNL     1     -10.254  10.631  66.446  1.00  0.00    -0.291 C  
ENDBRANCH   3   4
BRANCH   3   6
HETATM    6  C   UNL     1      -8.484   9.861  69.470  1.00  0.00    -0.176 C  
BRANCH   6   7
HETATM    7  C   UNL     1      -7.562   9.012  68.580  1.00  0.00    -0.092 C  
BRANCH   7   8
HETATM    8  N   UNL     1      -8.180   7.766  68.158  1.00  0.00    -0.123 N  
HETATM    9  C   UNL     1      -8.068   7.321  66.857  1.00  0.00    -0.120 C  
HETATM   10  H   UNL     1      -8.705   7.213  68.835  1.00  0.00     0.000 HD 
HETATM   11  O   UNL     1      -7.477   7.948  65.987  1.00  0.00    -0.075 OA 
BRANCH   9  12
HETATM   12  C   UNL     1      -8.609   5.970  66.567  1.00  0.00    -0.124 A  
HETATM   13  C   UNL     1      -8.873   5.142  67.673  1.00  0.00    -0.105 A  
HETATM   14  C   UNL     1      -9.130   3.782  67.495  1.00  0.00    -0.158 A  
HETATM   15  C   UNL     1      -9.094   3.206  66.218  1.00  0.00    -0.151 A  
HETATM   16 CL   UNL     1      -9.383   2.804  68.900  1.00  0.00    -0.227 Cl 
HETATM   17  C   UNL     1      -8.928   4.055  65.118  1.00  0.00    -0.133 A  
HETATM   18  N   UNL     1      -9.401   1.849  66.004  1.00  0.00    -0.335 NA 
HETATM   19  H1  UNL     1      -9.374   1.429  65.075  1.00  0.00     0.000 HD 
HETATM   20  C   UNL     1      -8.668   5.428  65.275  1.00  0.00    -0.145 A  
HETATM   21  H2  UNL     1     -10.325   1.674  66.399  1.00  0.00     0.000 HD 
BRANCH  20  22
HETATM   22  O   UNL     1      -8.389   6.061  64.092  1.00  0.00    -0.096 OA 
HETATM   23  C   UNL     1      -7.935   5.235  63.024  1.00  0.00    -0.094 C  
ENDBRANCH  20  22
ENDBRANCH   9  12
ENDBRANCH   7   8
ENDBRANCH   6   7
ENDBRANCH   3   6
ENDBRANCH   2   3
TORSDOF 7
ENDMDL
MODEL      328
REMARK 921   NORMALIZED FREE ENERGY PREDICTED BY IDOCK:   -2.21 KCAL/MOL
REMARK 922        TOTAL FREE ENERGY PREDICTED BY IDOCK:   -3.82 KCAL/MOL
REMARK 923 INTER-LIGAND FREE ENERGY PREDICTED BY IDOCK:   -3.04 KCAL/MOL
REMARK 924 INTRA-LIGAND FREE ENERGY PREDICTED BY IDOCK:   -0.78 KCAL/MOL
REMARK 927      BINDING AFFINITY PREDICTED BY RF-SCORE:    0.00 PKD
ROOT
HETATM    1  C   UNL     1      -5.267  11.101  66.702  1.00  0.00    -0.101 C  
HETATM    2  C   UNL     1      -5.997   9.840  66.250  1.00  0.00    -0.063 C  
ENDROOT
BRANCH   2   3
HETATM    3  N   UNL     1      -7.449   9.842  66.505  1.00  0.00    -0.098 NA 
BRANCH   3   4
HETATM    4  C   UNL     1      -8.087  11.157  66.293  1.00  0.00    -0.142 C  
HETATM    5  C   UNL     1      -8.787  11.779  67.500  1.00  0.00    -0.162 C  
ENDBRANCH   3   4
BRANCH   3   6
HETATM    6  C   UNL     1      -8.147   8.791  65.726  1.00  0.00    -0.109 C  
BRANCH   6   7
HETATM    7  C   UNL     1      -9.322   8.110  66.446  1.00  0.00    -0.210 C  
BRANCH   7   8
HETATM    8  N   UNL     1      -8.956   7.597  67.755  1.00  0.00    -0.131 N  
HETATM    9  C   UNL     1      -9.562   8.072  68.901  1.00  0.00    -0.152 C  
HETATM   10  H   UNL     1      -8.240   6.875  67.829  1.00  0.00     0.000 HD 
HETATM   11  O   UNL     1     -10.408   8.956  68.889  1.00  0.00    -0.206 OA 
BRANCH   9  12
HETATM   12  C   UNL     1      -9.223   7.380  70.169  1.00  0.00    -0.151 A  
HETATM   13  C   UNL     1      -7.881   7.445  70.588  1.00  0.00    -0.097 A  
HETATM   14  C   UNL     1      -7.418   6.618  71.611  1.00  0.00    -0.088 A  
HETATM   15  C   UNL     1      -8.265   5.681  72.217  1.00  0.00    -0.108 A  
HETATM   16 CL   UNL     1      -5.742   6.700  72.036  1.00  0.00    -0.037 Cl 
HETATM   17  C   UNL     1      -9.619   5.692  71.861  1.00  0.00    -0.176 A  
HETATM   18  N   UNL     1      -7.838   4.872  73.287  1.00  0.00    -0.096 NA 
HETATM   19  H1  UNL     1      -8.455   4.190  73.727  1.00  0.00     0.000 HD 
HETATM   20  C   UNL     1     -10.108   6.517  70.833  1.00  0.00    -0.185 A  
HETATM   21  H2  UNL     1      -7.481   5.487  74.018  1.00  0.00     0.000 HD 
BRANCH  20  22
HETATM   22  O   UNL     1     -11.423   6.281  70.533  1.00  0.00    -0.357 OA 
HETATM   23  C   UNL     1     -12.386   6.859  71.409  1.00  0.00    -0.376 C  
ENDBRANCH  20  22
ENDBRANCH   9  12
ENDBRANCH   7   8
ENDBRANCH   6   7
ENDBRANCH   3   6
ENDBRANCH   2   3
TORSDOF 7
ENDMDL
MODEL      329
REMARK 921   NORMALIZED FREE ENERGY PREDICTED BY IDOCK:   -2.19 KCAL/MOL
REMARK 922        TOTAL FREE ENERGY PREDICTED BY IDOCK:   -3.80 KCAL/MOL
REMARK 923 INTER-LIGAND FREE ENERGY PREDICTED BY IDOCK:   -3.95 KCAL/MOL
REMARK 924 INTRA-LIGAND FREE ENERGY PREDICTED BY IDOCK:    0.15 KCAL/MOL
REMARK 927      BINDING AFFINITY PREDICTED BY RF-SCORE:    0.00 PKD
ROOT
HETATM    1  C   UNL     1      -8.736  13.918  67.381  1.00  0.00    -0.208 C  
HETATM    2  C   UNL     1      -9.563  13.522  66.162  1.00  0.00    -0.204 C  
ENDROOT
BRANCH   2   3
HETATM    3  N   UNL     1     -10.809  12.797  66.471  1.00  0.00    -0.254 NA 
BRANCH   3   4
HETATM    4  C   UNL     1     -12.034  13.564  66.170  1.00  0.00    -0.412 C  
HETATM    5  C   UNL     1     -11.999  14.446  64.923  1.00  0.00    -0.430 C  
ENDBRANCH   3   4
BRANCH   3   6
HETATM    6  C   UNL     1     -10.851  11.468  65.812  1.00  0.00    -0.262 C  
BRANCH   6   7
HETATM    7  C   UNL     1      -9.487  10.784  65.628  1.00  0.00    -0.209 C  
BRANCH   7   8
HETATM    8  N   UNL     1      -8.991  10.182  66.853  1.00  0.00    -0.132 N  
HETATM    9  C   UNL     1      -9.827   9.462  67.683  1.00  0.00    -0.174 C  
HETATM   10  H   UNL     1      -8.008  10.292  67.104  1.00  0.00     0.000 HD 
HETATM   11  O   UNL     1     -11.021   9.314  67.458  1.00  0.00    -0.199 OA 
BRANCH   9  12
HETATM   12  C   UNL     1      -9.191   8.768  68.829  1.00  0.00    -0.141 A  
HETATM   13  C   UNL     1      -8.039   8.008  68.551  1.00  0.00    -0.125 A  
HETATM   14  C   UNL     1      -7.531   7.120  69.498  1.00  0.00    -0.095 A  
HETATM   15  C   UNL     1      -8.175   6.937  70.730  1.00  0.00    -0.122 A  
HETATM   16 CL   UNL     1      -6.151   6.167  69.072  1.00  0.00    -0.027 Cl 
HETATM   17  C   UNL     1      -9.259   7.767  71.034  1.00  0.00    -0.158 A  
HETATM   18  N   UNL     1      -7.654   6.087  71.724  1.00  0.00    -0.095 NA 
HETATM   19  H1  UNL     1      -8.122   5.954  72.620  1.00  0.00     0.000 HD 
HETATM   20  C   UNL     1      -9.788   8.669  70.095  1.00  0.00    -0.180 A  
HETATM   21  H2  UNL     1      -6.696   6.382  71.914  1.00  0.00     0.000 HD 
BRANCH  20  22
HETATM   22  O   UNL     1     -10.935   9.284  70.525  1.00  0.00    -0.233 OA 
HETATM   23  C   UNL     1     -11.835   8.484  71.285  1.00  0.00    -0.291 C  
ENDBRANCH  20  22
ENDBRANCH   9  12
ENDBRANCH   7   8
ENDBRANCH   6   7
ENDBRANCH   3   6
ENDBRANCH   2   3
TORSDOF 7
ENDMDL
MODEL      330
REMARK 921   NORMALIZED FREE ENERGY PREDICTED BY IDOCK:   -2.19 KCAL/MOL
REMARK 922        TOTAL FREE ENERGY PREDICTED BY IDOCK:   -3.80 KCAL/MOL
REMARK 923 INTER-LIGAND FREE ENERGY PREDICTED BY IDOCK:   -3.18 KCAL/MOL
REMARK 924 INTRA-LIGAND FREE ENERGY PREDICTED BY IDOCK:   -0.62 KCAL/MOL
REMARK 927      BINDING AFFINITY PREDICTED BY RF-SCORE:    0.00 PKD
ROOT
HETATM    1  C   UNL     1     -10.950   9.426  70.930  1.00  0.00    -0.391 C  
HETATM    2  C   UNL     1     -10.669  10.429  69.816  1.00  0.00    -0.278 C  
ENDROOT
BRANCH   2   3
HETATM    3  N   UNL     1      -9.784   9.930  68.746  1.00  0.00    -0.155 NA 
BRANCH   3   4
HETATM    4  C   UNL     1      -9.992  10.596  67.445  1.00  0.00    -0.181 C  
HETATM    5  C   UNL     1     -10.351   9.694  66.265  1.00  0.00    -0.230 C  
ENDBRANCH   3   4
BRANCH   3   6
HETATM    6  C   UNL     1      -8.356   9.990  69.141  1.00  0.00    -0.146 C  
BRANCH   6   7
HETATM    7  C   UNL     1      -7.382   9.273  68.191  1.00  0.00    -0.079 C  
BRANCH   7   8
HETATM    8  N   UNL     1      -7.844   7.951  67.806  1.00  0.00    -0.121 N  
HETATM    9  C   UNL     1      -7.516   7.410  66.580  1.00  0.00    -0.084 C  
HETATM   10  H   UNL     1      -8.421   7.413  68.454  1.00  0.00     0.000 HD 
HETATM   11  O   UNL     1      -6.852   8.010  65.744  1.00  0.00    -0.055 OA 
BRANCH   9  12
HETATM   12  C   UNL     1      -7.914   6.001  66.346  1.00  0.00    -0.105 A  
HETATM   13  C   UNL     1      -8.096   5.606  65.008  1.00  0.00    -0.122 A  
HETATM   14  C   UNL     1      -8.716   4.394  64.704  1.00  0.00    -0.142 A  
HETATM   15  C   UNL     1      -9.204   3.562  65.722  1.00  0.00    -0.160 A  
HETATM   16 CL   UNL     1      -8.969   3.996  63.040  1.00  0.00    -0.107 Cl 
HETATM   17  C   UNL     1      -8.930   3.916  67.048  1.00  0.00    -0.150 A  
HETATM   18  N   UNL     1      -9.785   2.311  65.446  1.00  0.00    -0.340 NA 
HETATM   19  H1  UNL     1     -10.140   1.705  66.186  1.00  0.00     0.000 HD 
HETATM   20  C   UNL     1      -8.307   5.133  67.376  1.00  0.00    -0.106 A  
HETATM   21  H2  UNL     1      -9.116   1.771  64.897  1.00  0.00     0.000 HD 
BRANCH  20  22
HETATM   22  O   UNL     1      -8.259   5.366  68.725  1.00  0.00    -0.093 OA 
HETATM   23  C   UNL     1      -9.509   5.394  69.407  1.00  0.00    -0.133 C  
ENDBRANCH  20  22
ENDBRANCH   9  12
ENDBRANCH   7   8
ENDBRANCH   6   7
ENDBRANCH   3   6
ENDBRANCH   2   3
TORSDOF 7
ENDMDL
MODEL      331
REMARK 921   NORMALIZED FREE ENERGY PREDICTED BY IDOCK:   -2.19 KCAL/MOL
REMARK 922        TOTAL FREE ENERGY PREDICTED BY IDOCK:   -3.80 KCAL/MOL
REMARK 923 INTER-LIGAND FREE ENERGY PREDICTED BY IDOCK:   -3.44 KCAL/MOL
REMARK 924 INTRA-LIGAND FREE ENERGY PREDICTED BY IDOCK:   -0.36 KCAL/MOL
REMARK 927      BINDING AFFINITY PREDICTED BY RF-SCORE:    0.00 PKD
ROOT
HETATM    1  C   UNL     1      -7.939   7.011  65.093  1.00  0.00    -0.128 C  
HETATM    2  C   UNL     1      -8.680   8.251  65.584  1.00  0.00    -0.156 C  
ENDROOT
BRANCH   2   3
HETATM    3  N   UNL     1      -8.158   9.528  65.063  1.00  0.00    -0.119 NA 
BRANCH   3   4
HETATM    4  C   UNL     1      -9.182  10.365  64.406  1.00  0.00    -0.251 C  
HETATM    5  C   UNL     1      -9.519  10.019  62.957  1.00  0.00    -0.225 C  
ENDBRANCH   3   4
BRANCH   3   6
HETATM    6  C   UNL     1      -7.447  10.300  66.111  1.00  0.00    -0.121 C  
BRANCH   6   7
HETATM    7  C   UNL     1      -8.044  10.194  67.524  1.00  0.00    -0.113 C  
BRANCH   7   8
HETATM    8  N   UNL     1      -8.878  11.333  67.867  1.00  0.00    -0.138 N  
HETATM    9  C   UNL     1      -8.362  12.613  67.895  1.00  0.00    -0.172 C  
HETATM   10  H   UNL     1      -9.862  11.184  68.092  1.00  0.00     0.000 HD 
HETATM   11  O   UNL     1      -7.185  12.860  67.665  1.00  0.00    -0.118 OA 
BRANCH   9  12
HETATM   12  C   UNL     1      -9.329  13.716  68.113  1.00  0.00    -0.212 A  
HETATM   13  C   UNL     1      -9.687  13.992  69.445  1.00  0.00     0.424 A  
HETATM   14  C   UNL     1     -10.772  14.821  69.730  1.00  0.00    -0.154 A  
HETATM   15  C   UNL     1     -11.550  15.367  68.699  1.00  0.00    -0.359 A  
HETATM   16 CL   UNL     1     -11.203  15.068  71.387  1.00  0.00    -0.323 Cl 
HETATM   17  C   UNL     1     -11.126  15.167  67.380  1.00  0.00    -0.325 A  
HETATM   18  N   UNL     1     -12.615  16.249  68.957  1.00  0.00    -0.057 NA 
HETATM   19  H1  UNL     1     -13.181  16.646  68.206  1.00  0.00     0.000 HD 
HETATM   20  C   UNL     1     -10.035  14.335  67.071  1.00  0.00    -0.258 A  
HETATM   21  H2  UNL     1     -12.252  17.021  69.515  1.00  0.00     0.000 HD 
BRANCH  20  22
HETATM   22  O   UNL     1      -9.867  14.147  65.724  1.00  0.00    -0.307 OA 
HETATM   23  C   UNL     1     -10.896  13.428  65.052  1.00  0.00    -0.328 C  
ENDBRANCH  20  22
ENDBRANCH   9  12
ENDBRANCH   7   8
ENDBRANCH   6   7
ENDBRANCH   3   6
ENDBRANCH   2   3
TORSDOF 7
ENDMDL
MODEL      332
REMARK 921   NORMALIZED FREE ENERGY PREDICTED BY IDOCK:   -2.16 KCAL/MOL
REMARK 922        TOTAL FREE ENERGY PREDICTED BY IDOCK:   -3.75 KCAL/MOL
REMARK 923 INTER-LIGAND FREE ENERGY PREDICTED BY IDOCK:   -3.10 KCAL/MOL
REMARK 924 INTRA-LIGAND FREE ENERGY PREDICTED BY IDOCK:   -0.65 KCAL/MOL
REMARK 927      BINDING AFFINITY PREDICTED BY RF-SCORE:    0.00 PKD
ROOT
HETATM    1  C   UNL     1      -7.865  10.910  69.013  1.00  0.00    -0.138 C  
HETATM    2  C   UNL     1      -8.538  11.265  67.691  1.00  0.00    -0.124 C  
ENDROOT
BRANCH   2   3
HETATM    3  N   UNL     1     -10.009  11.337  67.747  1.00  0.00    -0.174 NA 
BRANCH   3   4
HETATM    4  C   UNL     1     -10.553  12.666  67.400  1.00  0.00    -0.224 C  
HETATM    5  C   UNL     1     -10.147  13.827  68.306  1.00  0.00    -0.239 C  
ENDBRANCH   3   4
BRANCH   3   6
HETATM    6  C   UNL     1     -10.644  10.282  66.921  1.00  0.00    -0.217 C  
BRANCH   6   7
HETATM    7  C   UNL     1     -10.442   8.843  67.424  1.00  0.00    -0.277 C  
BRANCH   7   8
HETATM    8  N   UNL     1     -10.105   7.917  66.357  1.00  0.00    -0.480 N  
HETATM    9  C   UNL     1      -8.805   7.493  66.166  1.00  0.00    -0.159 C  
HETATM   10  H   UNL     1     -10.840   7.575  65.738  1.00  0.00     0.000 HD 
HETATM   11  O   UNL     1      -7.870   7.884  66.851  1.00  0.00    -0.100 OA 
BRANCH   9  12
HETATM   12  C   UNL     1      -8.593   6.438  65.144  1.00  0.00    -0.011 A  
HETATM   13  C   UNL     1      -8.932   5.123  65.511  1.00  0.00    -0.156 A  
HETATM   14  C   UNL     1      -8.528   4.042  64.727  1.00  0.00    -0.107 A  
HETATM   15  C   UNL     1      -7.747   4.239  63.580  1.00  0.00    -0.070 A  
HETATM   16 CL   UNL     1      -8.919   2.445  65.266  1.00  0.00    -0.126 Cl 
HETATM   17  C   UNL     1      -7.499   5.555  63.171  1.00  0.00    -0.059 A  
HETATM   18  N   UNL     1      -7.371   3.173  62.742  1.00  0.00    -0.051 NA 
HETATM   19  H1  UNL     1      -6.802   3.316  61.907  1.00  0.00     0.000 HD 
HETATM   20  C   UNL     1      -7.897   6.658  63.946  1.00  0.00    -0.109 A  
HETATM   21  H2  UNL     1      -8.221   2.685  62.459  1.00  0.00     0.000 HD 
BRANCH  20  22
HETATM   22  O   UNL     1      -7.438   7.853  63.457  1.00  0.00    -0.103 OA 
HETATM   23  C   UNL     1      -8.303   8.545  62.562  1.00  0.00    -0.182 C  
ENDBRANCH  20  22
ENDBRANCH   9  12
ENDBRANCH   7   8
ENDBRANCH   6   7
ENDBRANCH   3   6
ENDBRANCH   2   3
TORSDOF 7
ENDMDL
MODEL      333
REMARK 921   NORMALIZED FREE ENERGY PREDICTED BY IDOCK:   -2.14 KCAL/MOL
REMARK 922        TOTAL FREE ENERGY PREDICTED BY IDOCK:   -3.73 KCAL/MOL
REMARK 923 INTER-LIGAND FREE ENERGY PREDICTED BY IDOCK:   -3.83 KCAL/MOL
REMARK 924 INTRA-LIGAND FREE ENERGY PREDICTED BY IDOCK:    0.10 KCAL/MOL
REMARK 927      BINDING AFFINITY PREDICTED BY RF-SCORE:    0.00 PKD
ROOT
HETATM    1  C   UNL     1     -12.225  11.729  63.776  1.00  0.00    -0.448 C  
HETATM    2  C   UNL     1     -10.815  12.299  63.671  1.00  0.00    -0.469 C  
ENDROOT
BRANCH   2   3
HETATM    3  N   UNL     1     -10.459  13.264  64.728  1.00  0.00    -0.370 NA 
BRANCH   3   4
HETATM    4  C   UNL     1     -11.569  14.159  65.113  1.00  0.00    -0.344 C  
HETATM    5  C   UNL     1     -12.290  13.829  66.420  1.00  0.00    -0.460 C  
ENDBRANCH   3   4
BRANCH   3   6
HETATM    6  C   UNL     1      -9.894  12.589  65.922  1.00  0.00    -0.247 C  
BRANCH   6   7
HETATM    7  C   UNL     1     -10.351  11.137  66.133  1.00  0.00    -0.250 C  
BRANCH   7   8
HETATM    8  N   UNL     1      -9.243  10.230  66.379  1.00  0.00    -0.155 N  
HETATM    9  C   UNL     1      -9.455   8.878  66.558  1.00  0.00    -0.211 C  
HETATM   10  H   UNL     1      -8.293  10.599  66.421  1.00  0.00     0.000 HD 
HETATM   11  O   UNL     1     -10.569   8.372  66.548  1.00  0.00    -0.204 OA 
BRANCH   9  12
HETATM   12  C   UNL     1      -8.247   8.022  66.656  1.00  0.00    -0.108 A  
HETATM   13  C   UNL     1      -8.441   6.634  66.536  1.00  0.00    -0.121 A  
HETATM   14  C   UNL     1      -7.421   5.744  66.873  1.00  0.00    -0.084 A  
HETATM   15  C   UNL     1      -6.197   6.210  67.372  1.00  0.00    -0.029 A  
HETATM   16 CL   UNL     1      -7.743   4.048  66.766  1.00  0.00    -0.088 Cl 
HETATM   17  C   UNL     1      -5.979   7.593  67.394  1.00  0.00    -0.047 A  
HETATM   18  N   UNL     1      -5.133   5.338  67.669  1.00  0.00    -0.004 NA 
HETATM   19  H1  UNL     1      -4.242   5.677  68.032  1.00  0.00     0.000 HD 
HETATM   20  C   UNL     1      -6.993   8.507  67.059  1.00  0.00    -0.074 A  
HETATM   21  H2  UNL     1      -4.938   4.789  66.832  1.00  0.00     0.000 HD 
BRANCH  20  22
HETATM   22  O   UNL     1      -6.637   9.811  67.283  1.00  0.00    -0.069 OA 
HETATM   23  C   UNL     1      -6.462  10.194  68.644  1.00  0.00    -0.052 C  
ENDBRANCH  20  22
ENDBRANCH   9  12
ENDBRANCH   7   8
ENDBRANCH   6   7
ENDBRANCH   3   6
ENDBRANCH   2   3
TORSDOF 7
ENDMDL
MODEL      334
REMARK 921   NORMALIZED FREE ENERGY PREDICTED BY IDOCK:   -2.13 KCAL/MOL
REMARK 922        TOTAL FREE ENERGY PREDICTED BY IDOCK:   -3.71 KCAL/MOL
REMARK 923 INTER-LIGAND FREE ENERGY PREDICTED BY IDOCK:   -3.02 KCAL/MOL
REMARK 924 INTRA-LIGAND FREE ENERGY PREDICTED BY IDOCK:   -0.69 KCAL/MOL
REMARK 927      BINDING AFFINITY PREDICTED BY RF-SCORE:    0.00 PKD
ROOT
HETATM    1  C   UNL     1      -8.490   5.877  67.505  1.00  0.00    -0.103 C  
HETATM    2  C   UNL     1      -9.251   5.456  66.252  1.00  0.00    -0.152 C  
ENDROOT
BRANCH   2   3
HETATM    3  N   UNL     1      -8.400   4.997  65.139  1.00  0.00    -0.131 NA 
BRANCH   3   4
HETATM    4  C   UNL     1      -8.713   3.631  64.675  1.00  0.00    -0.109 C  
HETATM    5  C   UNL     1      -9.439   3.513  63.336  1.00  0.00    -0.113 C  
ENDBRANCH   3   4
BRANCH   3   6
HETATM    6  C   UNL     1      -8.419   5.951  64.002  1.00  0.00     0.076 C  
BRANCH   6   7
HETATM    7  C   UNL     1      -7.363   7.066  64.063  1.00  0.00    -0.084 C  
BRANCH   7   8
HETATM    8  N   UNL     1      -7.754   8.162  64.932  1.00  0.00    -0.108 N  
HETATM    9  C   UNL     1      -8.281   9.329  64.416  1.00  0.00    -0.151 C  
HETATM   10  H   UNL     1      -7.637   8.068  65.942  1.00  0.00     0.000 HD 
HETATM   11  O   UNL     1      -8.422   9.521  63.215  1.00  0.00    -0.171 OA 
BRANCH   9  12
HETATM   12  C   UNL     1      -8.782  10.324  65.395  1.00  0.00    -0.183 A  
HETATM   13  C   UNL     1      -9.789  11.200  64.951  1.00  0.00    -0.316 A  
HETATM   14  C   UNL     1     -10.132  12.324  65.703  1.00  0.00    -0.252 A  
HETATM   15  C   UNL     1      -9.459  12.625  66.895  1.00  0.00    -0.229 A  
HETATM   16 CL   UNL     1     -11.332  13.398  65.071  1.00  0.00    -0.319 Cl 
HETATM   17  C   UNL     1      -8.529  11.696  67.376  1.00  0.00    -0.150 A  
HETATM   18  N   UNL     1      -9.821  13.721  67.699  1.00  0.00    -0.229 NA 
HETATM   19  H1  UNL     1      -9.331  13.940  68.566  1.00  0.00     0.000 HD 
HETATM   20  C   UNL     1      -8.168  10.557  66.636  1.00  0.00    -0.129 A  
HETATM   21  H2  UNL     1     -10.814  13.633  67.916  1.00  0.00     0.000 HD 
BRANCH  20  22
HETATM   22  O   UNL     1      -7.140   9.850  67.202  1.00  0.00    -0.084 OA 
HETATM   23  C   UNL     1      -7.419   9.216  68.447  1.00  0.00    -0.082 C  
ENDBRANCH  20  22
ENDBRANCH   9  12
ENDBRANCH   7   8
ENDBRANCH   6   7
ENDBRANCH   3   6
ENDBRANCH   2   3
TORSDOF 7
ENDMDL
MODEL      335
REMARK 921   NORMALIZED FREE ENERGY PREDICTED BY IDOCK:   -2.10 KCAL/MOL
REMARK 922        TOTAL FREE ENERGY PREDICTED BY IDOCK:   -3.67 KCAL/MOL
REMARK 923 INTER-LIGAND FREE ENERGY PREDICTED BY IDOCK:   -2.73 KCAL/MOL
REMARK 924 INTRA-LIGAND FREE ENERGY PREDICTED BY IDOCK:   -0.94 KCAL/MOL
REMARK 927      BINDING AFFINITY PREDICTED BY RF-SCORE:    0.00 PKD
ROOT
HETATM    1  C   UNL     1      -8.054   8.548  72.593  1.00  0.00    -0.113 C  
HETATM    2  C   UNL     1      -7.056   7.400  72.702  1.00  0.00    -0.069 C  
ENDROOT
BRANCH   2   3
HETATM    3  N   UNL     1      -6.767   6.711  71.431  1.00  0.00    -0.057 NA 
BRANCH   3   4
HETATM    4  C   UNL     1      -5.917   7.493  70.511  1.00  0.00    -0.030 C  
HETATM    5  C   UNL     1      -6.248   7.391  69.023  1.00  0.00    -0.035 C  
ENDBRANCH   3   4
BRANCH   3   6
HETATM    6  C   UNL     1      -6.191   5.362  71.654  1.00  0.00    -0.034 C  
BRANCH   6   7
HETATM    7  C   UNL     1      -7.183   4.195  71.526  1.00  0.00    -0.050 C  
BRANCH   7   8
HETATM    8  N   UNL     1      -8.071   4.335  70.385  1.00  0.00    -0.058 N  
HETATM    9  C   UNL     1      -7.689   3.909  69.129  1.00  0.00    -0.053 C  
HETATM   10  H   UNL     1      -8.991   4.755  70.514  1.00  0.00     0.000 HD 
HETATM   11  O   UNL     1      -6.590   3.423  68.897  1.00  0.00    -0.038 OA 
BRANCH   9  12
HETATM   12  C   UNL     1      -8.721   3.964  68.065  1.00  0.00    -0.122 A  
HETATM   13  C   UNL     1      -8.564   3.079  66.982  1.00  0.00    -0.120 A  
HETATM   14  C   UNL     1      -9.325   3.235  65.824  1.00  0.00    -0.123 A  
HETATM   15  C   UNL     1     -10.233   4.296  65.698  1.00  0.00    -0.197 A  
HETATM   16 CL   UNL     1      -9.038   2.155  64.502  1.00  0.00    -0.118 Cl 
HETATM   17  C   UNL     1     -10.452   5.109  66.815  1.00  0.00    -0.306 A  
HETATM   18  N   UNL     1     -11.050   4.445  64.562  1.00  0.00    -0.688 NA 
HETATM   19  H1  UNL     1     -11.711   5.217  64.471  1.00  0.00     0.000 HD 
HETATM   20  C   UNL     1      -9.697   4.969  67.993  1.00  0.00    -0.151 A  
HETATM   21  H2  UNL     1     -11.568   3.576  64.435  1.00  0.00     0.000 HD 
BRANCH  20  22
HETATM   22  O   UNL     1      -9.954   5.948  68.917  1.00  0.00    -0.139 OA 
HETATM   23  C   UNL     1     -11.147   6.702  68.724  1.00  0.00    -0.227 C  
ENDBRANCH  20  22
ENDBRANCH   9  12
ENDBRANCH   7   8
ENDBRANCH   6   7
ENDBRANCH   3   6
ENDBRANCH   2   3
TORSDOF 7
ENDMDL
MODEL      336
REMARK 921   NORMALIZED FREE ENERGY PREDICTED BY IDOCK:   -2.06 KCAL/MOL
REMARK 922        TOTAL FREE ENERGY PREDICTED BY IDOCK:   -3.62 KCAL/MOL
REMARK 923 INTER-LIGAND FREE ENERGY PREDICTED BY IDOCK:   -2.83 KCAL/MOL
REMARK 924 INTRA-LIGAND FREE ENERGY PREDICTED BY IDOCK:   -0.79 KCAL/MOL
REMARK 927      BINDING AFFINITY PREDICTED BY RF-SCORE:    0.00 PKD
ROOT
HETATM    1  C   UNL     1     -11.045  13.770  66.301  1.00  0.00    -0.302 C  
HETATM    2  C   UNL     1     -10.951  12.964  67.593  1.00  0.00    -0.247 C  
ENDROOT
BRANCH   2   3
HETATM    3  N   UNL     1      -9.931  11.899  67.582  1.00  0.00    -0.187 NA 
BRANCH   3   4
HETATM    4  C   UNL     1      -8.651  12.297  68.203  1.00  0.00    -0.181 C  
HETATM    5  C   UNL     1      -7.379  11.926  67.442  1.00  0.00    -0.145 C  
ENDBRANCH   3   4
BRANCH   3   6
HETATM    6  C   UNL     1     -10.437  10.645  68.189  1.00  0.00    -0.185 C  
BRANCH   6   7
HETATM    7  C   UNL     1     -10.858   9.555  67.190  1.00  0.00    -0.086 C  
BRANCH   7   8
HETATM    8  N   UNL     1      -9.863   8.506  67.050  1.00  0.00    -0.200 N  
HETATM    9  C   UNL     1      -9.983   7.314  67.735  1.00  0.00    -0.166 C  
HETATM   10  H   UNL     1      -9.062   8.654  66.436  1.00  0.00     0.000 HD 
HETATM   11  O   UNL     1     -10.902   7.081  68.509  1.00  0.00    -0.198 OA 
BRANCH   9  12
HETATM   12  C   UNL     1      -8.994   6.257  67.410  1.00  0.00    -0.109 A  
HETATM   13  C   UNL     1      -9.425   4.924  67.538  1.00  0.00    -0.161 A  
HETATM   14  C   UNL     1      -8.504   3.876  67.511  1.00  0.00    -0.099 A  
HETATM   15  C   UNL     1      -7.131   4.129  67.393  1.00  0.00    -0.067 A  
HETATM   16 CL   UNL     1      -9.089   2.264  67.739  1.00  0.00    -0.195 Cl 
HETATM   17  C   UNL     1      -6.723   5.449  67.168  1.00  0.00    -0.059 A  
HETATM   18  N   UNL     1      -6.186   3.090  67.309  1.00  0.00    -0.028 NA 
HETATM   19  H1  UNL     1      -5.186   3.274  67.223  1.00  0.00     0.000 HD 
HETATM   20  C   UNL     1      -7.633   6.520  67.191  1.00  0.00    -0.096 A  
HETATM   21  H2  UNL     1      -6.458   2.484  66.535  1.00  0.00     0.000 HD 
BRANCH  20  22
HETATM   22  O   UNL     1      -7.027   7.745  67.098  1.00  0.00    -0.073 OA 
HETATM   23  C   UNL     1      -6.338   8.199  68.259  1.00  0.00    -0.051 C  
ENDBRANCH  20  22
ENDBRANCH   9  12
ENDBRANCH   7   8
ENDBRANCH   6   7
ENDBRANCH   3   6
ENDBRANCH   2   3
TORSDOF 7
ENDMDL
MODEL      337
REMARK 921   NORMALIZED FREE ENERGY PREDICTED BY IDOCK:   -2.04 KCAL/MOL
REMARK 922        TOTAL FREE ENERGY PREDICTED BY IDOCK:   -3.58 KCAL/MOL
REMARK 923 INTER-LIGAND FREE ENERGY PREDICTED BY IDOCK:   -3.36 KCAL/MOL
REMARK 924 INTRA-LIGAND FREE ENERGY PREDICTED BY IDOCK:   -0.22 KCAL/MOL
REMARK 927      BINDING AFFINITY PREDICTED BY RF-SCORE:    0.00 PKD
ROOT
HETATM    1  C   UNL     1     -11.678  11.873  64.140  1.00  0.00    -0.428 C  
HETATM    2  C   UNL     1     -10.311  11.564  64.743  1.00  0.00    -0.289 C  
ENDROOT
BRANCH   2   3
HETATM    3  N   UNL     1      -9.661  12.705  65.414  1.00  0.00    -0.131 NA 
BRANCH   3   4
HETATM    4  C   UNL     1     -10.509  13.912  65.490  1.00  0.00    -0.323 C  
HETATM    5  C   UNL     1     -10.879  14.400  66.889  1.00  0.00    -0.301 C  
ENDBRANCH   3   4
BRANCH   3   6
HETATM    6  C   UNL     1      -9.156  12.338  66.760  1.00  0.00    -0.211 C  
BRANCH   6   7
HETATM    7  C   UNL     1      -9.774  11.069  67.370  1.00  0.00    -0.168 C  
BRANCH   7   8
HETATM    8  N   UNL     1      -8.800  10.253  68.074  1.00  0.00    -0.122 N  
HETATM    9  C   UNL     1      -9.011   9.861  69.380  1.00  0.00    -0.195 C  
HETATM   10  H   UNL     1      -7.947   9.965  67.594  1.00  0.00     0.000 HD 
HETATM   11  O   UNL     1      -9.997  10.193  70.024  1.00  0.00    -0.240 OA 
BRANCH   9  12
HETATM   12  C   UNL     1      -8.028   8.910  69.956  1.00  0.00    -0.109 A  
HETATM   13  C   UNL     1      -7.063   8.385  69.078  1.00  0.00    -0.069 A  
HETATM   14  C   UNL     1      -6.273   7.300  69.459  1.00  0.00    -0.031 A  
HETATM   15  C   UNL     1      -6.449   6.687  70.707  1.00  0.00    -0.052 A  
HETATM   16 CL   UNL     1      -5.150   6.659  68.310  1.00  0.00    -0.007 Cl 
HETATM   17  C   UNL     1      -7.341   7.277  71.609  1.00  0.00    -0.080 A  
HETATM   18  N   UNL     1      -5.631   5.626  71.138  1.00  0.00    -0.012 NA 
HETATM   19  H1  UNL     1      -5.759   5.180  72.046  1.00  0.00     0.000 HD 
HETATM   20  C   UNL     1      -8.146   8.371  71.246  1.00  0.00    -0.127 A  
HETATM   21  H2  UNL     1      -4.661   5.937  71.077  1.00  0.00     0.000 HD 
BRANCH  20  22
HETATM   22  O   UNL     1      -9.057   8.713  72.211  1.00  0.00    -0.259 OA 
HETATM   23  C   UNL     1     -10.006   7.712  72.568  1.00  0.00    -0.208 C  
ENDBRANCH  20  22
ENDBRANCH   9  12
ENDBRANCH   7   8
ENDBRANCH   6   7
ENDBRANCH   3   6
ENDBRANCH   2   3
TORSDOF 7
ENDMDL
MODEL      338
REMARK 921   NORMALIZED FREE ENERGY PREDICTED BY IDOCK:   -2.03 KCAL/MOL
REMARK 922        TOTAL FREE ENERGY PREDICTED BY IDOCK:   -3.57 KCAL/MOL
REMARK 923 INTER-LIGAND FREE ENERGY PREDICTED BY IDOCK:   -3.13 KCAL/MOL
REMARK 924 INTRA-LIGAND FREE ENERGY PREDICTED BY IDOCK:   -0.44 KCAL/MOL
REMARK 927      BINDING AFFINITY PREDICTED BY RF-SCORE:    0.00 PKD
ROOT
HETATM    1  C   UNL     1      -9.853  13.474  66.830  1.00  0.00    -0.257 C  
HETATM    2  C   UNL     1      -9.974  11.955  66.753  1.00  0.00    -0.195 C  
ENDROOT
BRANCH   2   3
HETATM    3  N   UNL     1      -8.743  11.221  67.099  1.00  0.00    -0.147 NA 
BRANCH   3   4
HETATM    4  C   UNL     1      -7.977  10.758  65.924  1.00  0.00    -0.140 C  
HETATM    5  C   UNL     1      -6.460  10.924  65.990  1.00  0.00    -0.089 C  
ENDBRANCH   3   4
BRANCH   3   6
HETATM    6  C   UNL     1      -7.875  12.001  68.014  1.00  0.00    -0.145 C  
BRANCH   6   7
HETATM    7  C   UNL     1      -7.552  11.319  69.353  1.00  0.00     0.050 C  
BRANCH   7   8
HETATM    8  N   UNL     1      -7.629   9.870  69.279  1.00  0.00    -0.091 N  
HETATM    9  C   UNL     1      -8.769   9.196  69.669  1.00  0.00    -0.145 C  
HETATM   10  H   UNL     1      -6.828   9.342  68.932  1.00  0.00     0.000 HD 
HETATM   11  O   UNL     1      -9.755   9.763  70.121  1.00  0.00    -0.242 OA 
BRANCH   9  12
HETATM   12  C   UNL     1      -8.798   7.735  69.416  1.00  0.00    -0.139 A  
HETATM   13  C   UNL     1      -8.104   7.273  68.283  1.00  0.00    -0.124 A  
HETATM   14  C   UNL     1      -8.289   5.971  67.820  1.00  0.00    -0.112 A  
HETATM   15  C   UNL     1      -9.196   5.107  68.449  1.00  0.00    -0.117 A  
HETATM   16 CL   UNL     1      -7.457   5.484  66.383  1.00  0.00    -0.086 Cl 
HETATM   17  C   UNL     1      -9.807   5.543  69.631  1.00  0.00    -0.258 A  
HETATM   18  N   UNL     1      -9.363   3.772  68.036  1.00  0.00    -0.171 NA 
HETATM   19  H1  UNL     1     -10.024   3.144  68.494  1.00  0.00     0.000 HD 
HETATM   20  C   UNL     1      -9.634   6.851  70.115  1.00  0.00    -0.161 A  
HETATM   21  H2  UNL     1      -8.447   3.325  68.051  1.00  0.00     0.000 HD 
BRANCH  20  22
HETATM   22  O   UNL     1     -10.425   7.133  71.198  1.00  0.00    -0.210 OA 
HETATM   23  C   UNL     1     -11.832   7.057  70.990  1.00  0.00    -0.351 C  
ENDBRANCH  20  22
ENDBRANCH   9  12
ENDBRANCH   7   8
ENDBRANCH   6   7
ENDBRANCH   3   6
ENDBRANCH   2   3
TORSDOF 7
ENDMDL
MODEL      339
REMARK 921   NORMALIZED FREE ENERGY PREDICTED BY IDOCK:   -2.02 KCAL/MOL
REMARK 922        TOTAL FREE ENERGY PREDICTED BY IDOCK:   -3.57 KCAL/MOL
REMARK 923 INTER-LIGAND FREE ENERGY PREDICTED BY IDOCK:   -3.10 KCAL/MOL
REMARK 924 INTRA-LIGAND FREE ENERGY PREDICTED BY IDOCK:   -0.47 KCAL/MOL
REMARK 927      BINDING AFFINITY PREDICTED BY RF-SCORE:    0.00 PKD
ROOT
HETATM    1  C   UNL     1      -9.436   6.234  68.360  1.00  0.00    -0.118 C  
HETATM    2  C   UNL     1      -9.709   6.137  66.863  1.00  0.00    -0.149 C  
ENDROOT
BRANCH   2   3
HETATM    3  N   UNL     1      -8.551   5.717  66.052  1.00  0.00    -0.131 NA 
BRANCH   3   4
HETATM    4  C   UNL     1      -8.855   4.628  65.102  1.00  0.00    -0.147 C  
HETATM    5  C   UNL     1     -10.331   4.278  64.913  1.00  0.00    -0.186 C  
ENDBRANCH   3   4
BRANCH   3   6
HETATM    6  C   UNL     1      -7.927   6.863  65.348  1.00  0.00    -0.125 C  
BRANCH   6   7
HETATM    7  C   UNL     1      -6.796   7.568  66.116  1.00  0.00    -0.061 C  
BRANCH   7   8
HETATM    8  N   UNL     1      -7.276   8.657  66.948  1.00  0.00    -0.075 N  
HETATM    9  C   UNL     1      -7.266   9.960  66.493  1.00  0.00    -0.095 C  
HETATM   10  H   UNL     1      -7.627   8.455  67.885  1.00  0.00     0.000 HD 
HETATM   11  O   UNL     1      -6.833  10.277  65.393  1.00  0.00    -0.132 OA 
BRANCH   9  12
HETATM   12  C   UNL     1      -7.912  10.973  67.363  1.00  0.00    -0.119 A  
HETATM   13  C   UNL     1      -9.128  10.608  67.968  1.00  0.00    -0.147 A  
HETATM   14  C   UNL     1      -9.932  11.569  68.581  1.00  0.00    -0.199 A  
HETATM   15  C   UNL     1      -9.565  12.922  68.575  1.00  0.00    -0.111 A  
HETATM   16 CL   UNL     1     -11.446  11.066  69.250  1.00  0.00    -0.335 Cl 
HETATM   17  C   UNL     1      -8.310  13.260  68.057  1.00  0.00    -0.162 A  
HETATM   18  N   UNL     1     -10.330  13.904  69.231  1.00  0.00    -0.435 NA 
HETATM   19  H1  UNL     1     -10.064  14.888  69.226  1.00  0.00     0.000 HD 
HETATM   20  C   UNL     1      -7.484  12.308  67.436  1.00  0.00    -0.160 A  
HETATM   21  H2  UNL     1     -10.438  13.615  70.203  1.00  0.00     0.000 HD 
BRANCH  20  22
HETATM   22  O   UNL     1      -6.366  12.856  66.864  1.00  0.00    -0.109 OA 
HETATM   23  C   UNL     1      -5.310  13.211  67.752  1.00  0.00    -0.100 C  
ENDBRANCH  20  22
ENDBRANCH   9  12
ENDBRANCH   7   8
ENDBRANCH   6   7
ENDBRANCH   3   6
ENDBRANCH   2   3
TORSDOF 7
ENDMDL
MODEL      340
REMARK 921   NORMALIZED FREE ENERGY PREDICTED BY IDOCK:   -1.94 KCAL/MOL
REMARK 922        TOTAL FREE ENERGY PREDICTED BY IDOCK:   -3.45 KCAL/MOL
REMARK 923 INTER-LIGAND FREE ENERGY PREDICTED BY IDOCK:   -4.10 KCAL/MOL
REMARK 924 INTRA-LIGAND FREE ENERGY PREDICTED BY IDOCK:    0.64 KCAL/MOL
REMARK 927      BINDING AFFINITY PREDICTED BY RF-SCORE:    0.00 PKD
ROOT
HETATM    1  C   UNL     1      -8.175   8.841  70.792  1.00  0.00    -0.178 C  
HETATM    2  C   UNL     1      -8.869   8.367  69.519  1.00  0.00    -0.145 C  
ENDROOT
BRANCH   2   3
HETATM    3  N   UNL     1      -8.071   8.516  68.289  1.00  0.00    -0.118 NA 
BRANCH   3   4
HETATM    4  C   UNL     1      -7.601   7.234  67.726  1.00  0.00    -0.110 C  
HETATM    5  C   UNL     1      -6.254   7.258  67.005  1.00  0.00    -0.046 C  
ENDBRANCH   3   4
BRANCH   3   6
HETATM    6  C   UNL     1      -8.789   9.306  67.259  1.00  0.00    -0.124 C  
BRANCH   6   7
HETATM    7  C   UNL     1      -7.891  10.098  66.295  1.00  0.00    -0.113 C  
BRANCH   7   8
HETATM    8  N   UNL     1      -8.428  11.410  65.978  1.00  0.00    -0.337 N  
HETATM    9  C   UNL     1      -9.354  12.019  66.800  1.00  0.00    -0.205 C  
HETATM   10  H   UNL     1      -8.115  11.889  65.133  1.00  0.00     0.000 HD 
HETATM   11  O   UNL     1      -9.793  11.491  67.813  1.00  0.00    -0.171 OA 
BRANCH   9  12
HETATM   12  C   UNL     1      -9.727  13.415  66.464  1.00  0.00    -0.284 A  
HETATM   13  C   UNL     1     -10.932  13.599  65.762  1.00  0.00    -0.281 A  
HETATM   14  C   UNL     1     -11.232  14.830  65.179  1.00  0.00    -0.382 A  
HETATM   15  C   UNL     1     -10.326  15.897  65.247  1.00  0.00    -0.324 A  
HETATM   16 CL   UNL     1     -12.699  14.973  64.274  1.00  0.00     0.002 Cl 
HETATM   17  C   UNL     1      -9.177  15.734  66.030  1.00  0.00    -0.379 A  
HETATM   18  N   UNL     1     -10.626  17.164  64.715  1.00  0.00    -0.412 NA 
HETATM   19  H1  UNL     1      -9.966  17.941  64.764  1.00  0.00     0.000 HD 
HETATM   20  C   UNL     1      -8.855  14.503  66.626  1.00  0.00    -0.184 A  
HETATM   21  H2  UNL     1     -11.505  17.475  65.129  1.00  0.00     0.000 HD 
BRANCH  20  22
HETATM   22  O   UNL     1      -7.623  14.500  67.226  1.00  0.00    -0.189 OA 
HETATM   23  C   UNL     1      -7.398  15.503  68.212  1.00  0.00    -0.115 C  
ENDBRANCH  20  22
ENDBRANCH   9  12
ENDBRANCH   7   8
ENDBRANCH   6   7
ENDBRANCH   3   6
ENDBRANCH   2   3
TORSDOF 7
ENDMDL
MODEL      341
REMARK 921   NORMALIZED FREE ENERGY PREDICTED BY IDOCK:   -1.92 KCAL/MOL
REMARK 922        TOTAL FREE ENERGY PREDICTED BY IDOCK:   -3.42 KCAL/MOL
REMARK 923 INTER-LIGAND FREE ENERGY PREDICTED BY IDOCK:   -3.11 KCAL/MOL
REMARK 924 INTRA-LIGAND FREE ENERGY PREDICTED BY IDOCK:   -0.31 KCAL/MOL
REMARK 927      BINDING AFFINITY PREDICTED BY RF-SCORE:    0.00 PKD
ROOT
HETATM    1  C   UNL     1     -13.827   7.030  71.932  1.00  0.00    -0.262 C  
HETATM    2  C   UNL     1     -12.321   7.267  71.864  1.00  0.00    -0.312 C  
ENDROOT
BRANCH   2   3
HETATM    3  N   UNL     1     -11.904   8.317  70.917  1.00  0.00    -0.259 NA 
BRANCH   3   4
HETATM    4  C   UNL     1     -11.940   9.679  71.486  1.00  0.00    -0.406 C  
HETATM    5  C   UNL     1     -12.918   9.913  72.637  1.00  0.00     0.139 C  
ENDBRANCH   3   4
BRANCH   3   6
HETATM    6  C   UNL     1     -10.573   8.032  70.329  1.00  0.00    -0.231 C  
BRANCH   6   7
HETATM    7  C   UNL     1     -10.122   6.564  70.404  1.00  0.00    -0.184 C  
BRANCH   7   8
HETATM    8  N   UNL     1      -9.973   5.955  69.093  1.00  0.00    -0.154 N  
HETATM    9  C   UNL     1      -8.738   5.872  68.483  1.00  0.00    -0.112 C  
HETATM   10  H   UNL     1     -10.795   5.583  68.617  1.00  0.00     0.000 HD 
HETATM   11  O   UNL     1      -7.716   6.322  68.984  1.00  0.00    -0.097 OA 
BRANCH   9  12
HETATM   12  C   UNL     1      -8.673   5.103  67.216  1.00  0.00    -0.103 A  
HETATM   13  C   UNL     1      -8.252   5.803  66.070  1.00  0.00    -0.114 A  
HETATM   14  C   UNL     1      -8.409   5.244  64.801  1.00  0.00    -0.145 A  
HETATM   15  C   UNL     1      -9.021   3.994  64.637  1.00  0.00    -0.136 A  
HETATM   16 CL   UNL     1      -7.932   6.182  63.428  1.00  0.00    -0.116 Cl 
HETATM   17  C   UNL     1      -9.345   3.266  65.787  1.00  0.00    -0.123 A  
HETATM   18  N   UNL     1      -9.143   3.385  63.375  1.00  0.00    -0.093 NA 
HETATM   19  H1  UNL     1      -9.588   2.475  63.255  1.00  0.00     0.000 HD 
HETATM   20  C   UNL     1      -9.196   3.809  67.075  1.00  0.00    -0.181 A  
HETATM   21  H2  UNL     1      -8.211   3.331  62.964  1.00  0.00     0.000 HD 
BRANCH  20  22
HETATM   22  O   UNL     1      -9.703   3.004  68.061  1.00  0.00    -0.137 OA 
HETATM   23  C   UNL     1      -8.760   2.217  68.783  1.00  0.00    -0.083 C  
ENDBRANCH  20  22
ENDBRANCH   9  12
ENDBRANCH   7   8
ENDBRANCH   6   7
ENDBRANCH   3   6
ENDBRANCH   2   3
TORSDOF 7
ENDMDL
MODEL      342
REMARK 921   NORMALIZED FREE ENERGY PREDICTED BY IDOCK:   -1.88 KCAL/MOL
REMARK 922        TOTAL FREE ENERGY PREDICTED BY IDOCK:   -3.36 KCAL/MOL
REMARK 923 INTER-LIGAND FREE ENERGY PREDICTED BY IDOCK:   -2.63 KCAL/MOL
REMARK 924 INTRA-LIGAND FREE ENERGY PREDICTED BY IDOCK:   -0.73 KCAL/MOL
REMARK 927      BINDING AFFINITY PREDICTED BY RF-SCORE:    0.00 PKD
ROOT
HETATM    1  C   UNL     1      -6.408  14.082  68.982  1.00  0.00    -0.097 C  
HETATM    2  C   UNL     1      -6.280  12.775  69.760  1.00  0.00    -0.108 C  
ENDROOT
BRANCH   2   3
HETATM    3  N   UNL     1      -6.837  11.594  69.076  1.00  0.00    -0.098 NA 
BRANCH   3   4
HETATM    4  C   UNL     1      -6.063  11.173  67.891  1.00  0.00    -0.049 C  
HETATM    5  C   UNL     1      -6.849  10.975  66.596  1.00  0.00    -0.137 C  
ENDBRANCH   3   4
BRANCH   3   6
HETATM    6  C   UNL     1      -7.024  10.455  70.008  1.00  0.00    -0.157 C  
BRANCH   6   7
HETATM    7  C   UNL     1      -8.444   9.866  70.049  1.00  0.00    -0.165 C  
BRANCH   7   8
HETATM    8  N   UNL     1      -8.573   8.659  69.252  1.00  0.00    -0.130 N  
HETATM    9  C   UNL     1      -9.373   8.630  68.127  1.00  0.00    -0.137 C  
HETATM   10  H   UNL     1      -8.065   7.818  69.528  1.00  0.00     0.000 HD 
HETATM   11  O   UNL     1     -10.031   9.592  67.753  1.00  0.00    -0.158 OA 
BRANCH   9  12
HETATM   12  C   UNL     1      -9.320   7.396  67.305  1.00  0.00    -0.159 A  
HETATM   13  C   UNL     1      -9.595   6.183  67.962  1.00  0.00    -0.115 A  
HETATM   14  C   UNL     1      -9.317   4.963  67.345  1.00  0.00    -0.132 A  
HETATM   15  C   UNL     1      -8.723   4.919  66.076  1.00  0.00    -0.124 A  
HETATM   16 CL   UNL     1      -9.617   3.508  68.232  1.00  0.00    -0.205 Cl 
HETATM   17  C   UNL     1      -8.545   6.127  65.392  1.00  0.00    -0.111 A  
HETATM   18  N   UNL     1      -8.481   3.704  65.409  1.00  0.00    -0.105 NA 
HETATM   19  H1  UNL     1      -8.049   3.672  64.486  1.00  0.00     0.000 HD 
HETATM   20  C   UNL     1      -8.819   7.367  65.994  1.00  0.00    -0.146 A  
HETATM   21  H2  UNL     1      -9.364   3.196  65.358  1.00  0.00     0.000 HD 
BRANCH  20  22
HETATM   22  O   UNL     1      -8.443   8.435  65.223  1.00  0.00    -0.165 OA 
HETATM   23  C   UNL     1      -7.770   8.130  64.005  1.00  0.00    -0.137 C  
ENDBRANCH  20  22
ENDBRANCH   9  12
ENDBRANCH   7   8
ENDBRANCH   6   7
ENDBRANCH   3   6
ENDBRANCH   2   3
TORSDOF 7
ENDMDL
MODEL      343
REMARK 921   NORMALIZED FREE ENERGY PREDICTED BY IDOCK:   -1.84 KCAL/MOL
REMARK 922        TOTAL FREE ENERGY PREDICTED BY IDOCK:   -3.31 KCAL/MOL
REMARK 923 INTER-LIGAND FREE ENERGY PREDICTED BY IDOCK:   -2.74 KCAL/MOL
REMARK 924 INTRA-LIGAND FREE ENERGY PREDICTED BY IDOCK:   -0.56 KCAL/MOL
REMARK 927      BINDING AFFINITY PREDICTED BY RF-SCORE:    0.00 PKD
ROOT
HETATM    1  C   UNL     1      -8.311   8.329  72.990  1.00  0.00    -0.246 C  
HETATM    2  C   UNL     1      -8.746   7.409  74.126  1.00  0.00    -0.224 C  
ENDROOT
BRANCH   2   3
HETATM    3  N   UNL     1      -8.716   5.971  73.801  1.00  0.00    -0.124 NA 
BRANCH   3   4
HETATM    4  C   UNL     1      -7.675   5.218  74.530  1.00  0.00    -0.088 C  
HETATM    5  C   UNL     1      -6.827   4.252  73.705  1.00  0.00    -0.059 C  
ENDBRANCH   3   4
BRANCH   3   6
HETATM    6  C   UNL     1     -10.044   5.336  73.986  1.00  0.00    -0.220 C  
BRANCH   6   7
HETATM    7  C   UNL     1     -10.959   5.356  72.750  1.00  0.00    -0.277 C  
BRANCH   7   8
HETATM    8  N   UNL     1     -10.216   5.389  71.502  1.00  0.00    -0.212 N  
HETATM    9  C   UNL     1      -9.770   4.227  70.907  1.00  0.00    -0.196 C  
HETATM   10  H   UNL     1     -10.021   6.287  71.059  1.00  0.00     0.000 HD 
HETATM   11  O   UNL     1      -9.945   3.119  71.398  1.00  0.00    -0.157 OA 
BRANCH   9  12
HETATM   12  C   UNL     1      -9.152   4.360  69.565  1.00  0.00    -0.175 A  
HETATM   13  C   UNL     1      -9.756   5.269  68.677  1.00  0.00    -0.199 A  
HETATM   14  C   UNL     1      -9.413   5.271  67.324  1.00  0.00    -0.127 A  
HETATM   15  C   UNL     1      -8.491   4.346  66.815  1.00  0.00    -0.105 A  
HETATM   16 CL   UNL     1     -10.238   6.368  66.271  1.00  0.00    -0.033 Cl 
HETATM   17  C   UNL     1      -7.826   3.514  67.723  1.00  0.00    -0.076 A  
HETATM   18  N   UNL     1      -8.088   4.361  65.467  1.00  0.00    -0.104 NA 
HETATM   19  H1  UNL     1      -7.418   3.688  65.097  1.00  0.00     0.000 HD 
HETATM   20  C   UNL     1      -8.155   3.496  69.090  1.00  0.00    -0.056 A  
HETATM   21  H2  UNL     1      -7.739   5.296  65.257  1.00  0.00     0.000 HD 
BRANCH  20  22
HETATM   22  O   UNL     1      -7.500   2.515  69.788  1.00  0.00    -0.043 OA 
HETATM   23  C   UNL     1      -6.313   2.909  70.469  1.00  0.00    -0.024 C  
ENDBRANCH  20  22
ENDBRANCH   9  12
ENDBRANCH   7   8
ENDBRANCH   6   7
ENDBRANCH   3   6
ENDBRANCH   2   3
TORSDOF 7
ENDMDL
MODEL      344
REMARK 921   NORMALIZED FREE ENERGY PREDICTED BY IDOCK:   -1.84 KCAL/MOL
REMARK 922        TOTAL FREE ENERGY PREDICTED BY IDOCK:   -3.31 KCAL/MOL
REMARK 923 INTER-LIGAND FREE ENERGY PREDICTED BY IDOCK:   -3.17 KCAL/MOL
REMARK 924 INTRA-LIGAND FREE ENERGY PREDICTED BY IDOCK:   -0.13 KCAL/MOL
REMARK 927      BINDING AFFINITY PREDICTED BY RF-SCORE:    0.00 PKD
ROOT
HETATM    1  C   UNL     1     -11.064  13.496  66.499  1.00  0.00    -0.310 C  
HETATM    2  C   UNL     1     -10.821  12.019  66.795  1.00  0.00    -0.266 C  
ENDROOT
BRANCH   2   3
HETATM    3  N   UNL     1      -9.566  11.479  66.243  1.00  0.00    -0.211 NA 
BRANCH   3   4
HETATM    4  C   UNL     1      -8.485  11.349  67.240  1.00  0.00    -0.148 C  
HETATM    5  C   UNL     1      -7.097  11.820  66.809  1.00  0.00    -0.047 C  
ENDBRANCH   3   4
BRANCH   3   6
HETATM    6  C   UNL     1      -9.783  10.191  65.538  1.00  0.00    -0.281 C  
BRANCH   6   7
HETATM    7  C   UNL     1      -8.752   9.093  65.846  1.00  0.00    -0.158 C  
BRANCH   7   8
HETATM    8  N   UNL     1      -9.145   8.250  66.961  1.00  0.00    -0.140 N  
HETATM    9  C   UNL     1      -8.648   6.969  67.097  1.00  0.00    -0.121 C  
HETATM   10  H   UNL     1      -9.800   8.610  67.656  1.00  0.00     0.000 HD 
HETATM   11  O   UNL     1      -7.882   6.463  66.287  1.00  0.00    -0.097 OA 
BRANCH   9  12
HETATM   12  C   UNL     1      -8.997   6.249  68.346  1.00  0.00    -0.116 A  
HETATM   13  C   UNL     1      -8.446   6.746  69.541  1.00  0.00    -0.133 A  
HETATM   14  C   UNL     1      -8.501   5.992  70.714  1.00  0.00    -0.130 A  
HETATM   15  C   UNL     1      -9.072   4.712  70.719  1.00  0.00    -0.130 A  
HETATM   16 CL   UNL     1      -7.748   6.630  72.134  1.00  0.00    -0.096 Cl 
HETATM   17  C   UNL     1      -9.703   4.269  69.551  1.00  0.00    -0.272 A  
HETATM   18  N   UNL     1      -9.189   3.954  71.899  1.00  0.00    -0.117 NA 
HETATM   19  H1  UNL     1      -9.604   3.022  71.903  1.00  0.00     0.000 HD 
HETATM   20  C   UNL     1      -9.660   5.012  68.359  1.00  0.00    -0.144 A  
HETATM   21  H2  UNL     1      -9.688   4.520  72.584  1.00  0.00     0.000 HD 
BRANCH  20  22
HETATM   22  O   UNL     1     -10.206   4.348  67.291  1.00  0.00    -0.108 OA 
HETATM   23  C   UNL     1      -9.411   3.318  66.713  1.00  0.00    -0.147 C  
ENDBRANCH  20  22
ENDBRANCH   9  12
ENDBRANCH   7   8
ENDBRANCH   6   7
ENDBRANCH   3   6
ENDBRANCH   2   3
TORSDOF 7
ENDMDL
MODEL      345
REMARK 921   NORMALIZED FREE ENERGY PREDICTED BY IDOCK:   -1.80 KCAL/MOL
REMARK 922        TOTAL FREE ENERGY PREDICTED BY IDOCK:   -3.25 KCAL/MOL
REMARK 923 INTER-LIGAND FREE ENERGY PREDICTED BY IDOCK:   -3.12 KCAL/MOL
REMARK 924 INTRA-LIGAND FREE ENERGY PREDICTED BY IDOCK:   -0.13 KCAL/MOL
REMARK 927      BINDING AFFINITY PREDICTED BY RF-SCORE:    0.00 PKD
ROOT
HETATM    1  C   UNL     1     -11.209  13.023  64.212  1.00  0.00    -0.411 C  
HETATM    2  C   UNL     1     -11.374  13.292  65.704  1.00  0.00    -0.304 C  
ENDROOT
BRANCH   2   3
HETATM    3  N   UNL     1     -10.121  13.601  66.417  1.00  0.00    -0.287 NA 
BRANCH   3   4
HETATM    4  C   UNL     1     -10.063  14.978  66.947  1.00  0.00    -0.249 C  
HETATM    5  C   UNL     1     -10.894  15.264  68.197  1.00  0.00    -0.273 C  
ENDBRANCH   3   4
BRANCH   3   6
HETATM    6  C   UNL     1      -9.841  12.617  67.491  1.00  0.00    -0.203 C  
BRANCH   6   7
HETATM    7  C   UNL     1      -9.952  11.141  67.074  1.00  0.00    -0.192 C  
BRANCH   7   8
HETATM    8  N   UNL     1      -9.477  10.230  68.101  1.00  0.00    -0.145 N  
HETATM    9  C   UNL     1      -9.782   8.885  68.058  1.00  0.00    -0.156 C  
HETATM   10  H   UNL     1      -8.907  10.591  68.867  1.00  0.00     0.000 HD 
HETATM   11  O   UNL     1     -10.482   8.390  67.185  1.00  0.00    -0.294 OA 
BRANCH   9  12
HETATM   12  C   UNL     1      -9.127   8.021  69.070  1.00  0.00    -0.144 A  
HETATM   13  C   UNL     1      -8.034   8.572  69.763  1.00  0.00    -0.103 A  
HETATM   14  C   UNL     1      -7.200   7.760  70.533  1.00  0.00    -0.057 A  
HETATM   15  C   UNL     1      -7.411   6.376  70.603  1.00  0.00    -0.079 A  
HETATM   16 CL   UNL     1      -5.835   8.487  71.307  1.00  0.00    -0.035 Cl 
HETATM   17  C   UNL     1      -8.556   5.854  69.991  1.00  0.00    -0.130 A  
HETATM   18  N   UNL     1      -6.619   5.542  71.413  1.00  0.00    -0.043 NA 
HETATM   19  H1  UNL     1      -6.772   4.535  71.464  1.00  0.00     0.000 HD 
HETATM   20  C   UNL     1      -9.409   6.654  69.211  1.00  0.00    -0.142 A  
HETATM   21  H2  UNL     1      -6.651   5.910  72.364  1.00  0.00     0.000 HD 
BRANCH  20  22
HETATM   22  O   UNL     1     -10.389   5.936  68.576  1.00  0.00    -0.174 OA 
HETATM   23  C   UNL     1     -10.373   4.527  68.780  1.00  0.00     0.300 C  
ENDBRANCH  20  22
ENDBRANCH   9  12
ENDBRANCH   7   8
ENDBRANCH   6   7
ENDBRANCH   3   6
ENDBRANCH   2   3
TORSDOF 7
ENDMDL
MODEL      346
REMARK 921   NORMALIZED FREE ENERGY PREDICTED BY IDOCK:   -1.79 KCAL/MOL
REMARK 922        TOTAL FREE ENERGY PREDICTED BY IDOCK:   -3.23 KCAL/MOL
REMARK 923 INTER-LIGAND FREE ENERGY PREDICTED BY IDOCK:   -2.56 KCAL/MOL
REMARK 924 INTRA-LIGAND FREE ENERGY PREDICTED BY IDOCK:   -0.67 KCAL/MOL
REMARK 927      BINDING AFFINITY PREDICTED BY RF-SCORE:    0.00 PKD
ROOT
HETATM    1  C   UNL     1     -10.947   9.458  70.925  1.00  0.00    -0.391 C  
HETATM    2  C   UNL     1     -10.958  10.462  69.777  1.00  0.00    -0.293 C  
ENDROOT
BRANCH   2   3
HETATM    3  N   UNL     1     -10.106  10.097  68.630  1.00  0.00    -0.165 NA 
BRANCH   3   4
HETATM    4  C   UNL     1     -10.619  10.579  67.332  1.00  0.00    -0.263 C  
HETATM    5  C   UNL     1     -10.249  12.009  66.939  1.00  0.00    -0.230 C  
ENDBRANCH   3   4
BRANCH   3   6
HETATM    6  C   UNL     1      -8.701  10.529  68.829  1.00  0.00    -0.154 C  
BRANCH   6   7
HETATM    7  C   UNL     1      -7.640   9.637  68.162  1.00  0.00    -0.082 C  
BRANCH   7   8
HETATM    8  N   UNL     1      -7.786   8.235  68.511  1.00  0.00    -0.110 N  
HETATM    9  C   UNL     1      -7.235   7.244  67.725  1.00  0.00    -0.091 C  
HETATM   10  H   UNL     1      -8.305   7.978  69.352  1.00  0.00     0.000 HD 
HETATM   11  O   UNL     1      -6.625   7.478  66.690  1.00  0.00    -0.051 OA 
BRANCH   9  12
HETATM   12  C   UNL     1      -7.315   5.858  68.247  1.00  0.00    -0.081 A  
HETATM   13  C   UNL     1      -7.652   4.850  67.324  1.00  0.00    -0.087 A  
HETATM   14  C   UNL     1      -8.005   3.575  67.765  1.00  0.00    -0.080 A  
HETATM   15  C   UNL     1      -8.070   3.280  69.133  1.00  0.00    -0.059 A  
HETATM   16 CL   UNL     1      -8.472   2.399  66.584  1.00  0.00    -0.093 Cl 
HETATM   17  C   UNL     1      -7.639   4.257  70.037  1.00  0.00    -0.049 A  
HETATM   18  N   UNL     1      -8.371   1.988  69.603  1.00  0.00    -0.044 NA 
HETATM   19  H1  UNL     1      -8.419   1.773  70.599  1.00  0.00     0.000 HD 
HETATM   20  C   UNL     1      -7.278   5.549  69.615  1.00  0.00    -0.065 A  
HETATM   21  H2  UNL     1      -7.711   1.339  69.176  1.00  0.00     0.000 HD 
BRANCH  20  22
HETATM   22  O   UNL     1      -7.029   6.405  70.656  1.00  0.00    -0.061 OA 
HETATM   23  C   UNL     1      -8.157   6.812  71.424  1.00  0.00    -0.110 C  
ENDBRANCH  20  22
ENDBRANCH   9  12
ENDBRANCH   7   8
ENDBRANCH   6   7
ENDBRANCH   3   6
ENDBRANCH   2   3
TORSDOF 7
ENDMDL
MODEL      347
REMARK 921   NORMALIZED FREE ENERGY PREDICTED BY IDOCK:   -1.78 KCAL/MOL
REMARK 922        TOTAL FREE ENERGY PREDICTED BY IDOCK:   -3.22 KCAL/MOL
REMARK 923 INTER-LIGAND FREE ENERGY PREDICTED BY IDOCK:   -2.84 KCAL/MOL
REMARK 924 INTRA-LIGAND FREE ENERGY PREDICTED BY IDOCK:   -0.38 KCAL/MOL
REMARK 927      BINDING AFFINITY PREDICTED BY RF-SCORE:    0.00 PKD
ROOT
HETATM    1  C   UNL     1      -6.598  14.327  68.574  1.00  0.00    -0.095 C  
HETATM    2  C   UNL     1      -6.120  12.971  69.083  1.00  0.00    -0.095 C  
ENDROOT
BRANCH   2   3
HETATM    3  N   UNL     1      -6.742  11.810  68.422  1.00  0.00    -0.061 NA 
BRANCH   3   4
HETATM    4  C   UNL     1      -6.053  11.390  67.185  1.00  0.00    -0.103 C  
HETATM    5  C   UNL     1      -6.355   9.980  66.680  1.00  0.00    -0.070 C  
ENDBRANCH   3   4
BRANCH   3   6
HETATM    6  C   UNL     1      -6.893  10.662  69.350  1.00  0.00    -0.095 C  
BRANCH   6   7
HETATM    7  C   UNL     1      -8.329  10.139  69.520  1.00  0.00    -0.168 C  
BRANCH   7   8
HETATM    8  N   UNL     1      -8.455   8.730  69.192  1.00  0.00    -0.121 N  
HETATM    9  C   UNL     1      -8.098   7.752  70.099  1.00  0.00    -0.117 C  
HETATM   10  H   UNL     1      -8.813   8.458  68.276  1.00  0.00     0.000 HD 
HETATM   11  O   UNL     1      -7.636   8.006  71.204  1.00  0.00    -0.074 OA 
BRANCH   9  12
HETATM   12  C   UNL     1      -8.403   6.351  69.721  1.00  0.00    -0.127 A  
HETATM   13  C   UNL     1      -7.617   5.782  68.702  1.00  0.00    -0.089 A  
HETATM   14  C   UNL     1      -7.994   4.580  68.104  1.00  0.00    -0.080 A  
HETATM   15  C   UNL     1      -9.179   3.932  68.477  1.00  0.00    -0.155 A  
HETATM   16 CL   UNL     1      -7.020   3.967  66.812  1.00  0.00    -0.058 Cl 
HETATM   17  C   UNL     1      -9.901   4.453  69.557  1.00  0.00    -0.258 A  
HETATM   18  N   UNL     1      -9.555   2.692  67.928  1.00  0.00    -0.322 NA 
HETATM   19  H1  UNL     1     -10.418   2.221  68.199  1.00  0.00     0.000 HD 
HETATM   20  C   UNL     1      -9.540   5.663  70.175  1.00  0.00    -0.167 A  
HETATM   21  H2  UNL     1      -8.784   2.040  68.076  1.00  0.00     0.000 HD 
BRANCH  20  22
HETATM   22  O   UNL     1     -10.448   6.082  71.111  1.00  0.00    -0.212 OA 
HETATM   23  C   UNL     1     -11.699   6.547  70.613  1.00  0.00    -0.374 C  
ENDBRANCH  20  22
ENDBRANCH   9  12
ENDBRANCH   7   8
ENDBRANCH   6   7
ENDBRANCH   3   6
ENDBRANCH   2   3
TORSDOF 7
ENDMDL
MODEL      348
REMARK 921   NORMALIZED FREE ENERGY PREDICTED BY IDOCK:   -1.73 KCAL/MOL
REMARK 922        TOTAL FREE ENERGY PREDICTED BY IDOCK:   -3.15 KCAL/MOL
REMARK 923 INTER-LIGAND FREE ENERGY PREDICTED BY IDOCK:   -2.70 KCAL/MOL
REMARK 924 INTRA-LIGAND FREE ENERGY PREDICTED BY IDOCK:   -0.45 KCAL/MOL
REMARK 927      BINDING AFFINITY PREDICTED BY RF-SCORE:    0.00 PKD
ROOT
HETATM    1  C   UNL     1      -9.240  10.356  62.597  1.00  0.00    -0.322 C  
HETATM    2  C   UNL     1      -9.881  11.328  63.582  1.00  0.00    -0.340 C  
ENDROOT
BRANCH   2   3
HETATM    3  N   UNL     1     -10.198  10.751  64.901  1.00  0.00    -0.314 NA 
BRANCH   3   4
HETATM    4  C   UNL     1      -9.560   9.442  65.146  1.00  0.00    -0.124 C  
HETATM    5  C   UNL     1      -9.905   8.749  66.463  1.00  0.00    -0.349 C  
ENDBRANCH   3   4
BRANCH   3   6
HETATM    6  C   UNL     1      -9.891  11.695  66.003  1.00  0.00    -0.230 C  
BRANCH   6   7
HETATM    7  C   UNL     1      -8.451  12.232  66.026  1.00  0.00     0.441 C  
BRANCH   7   8
HETATM    8  N   UNL     1      -8.351  13.543  66.644  1.00  0.00    -0.396 N  
HETATM    9  C   UNL     1      -8.910  14.656  66.048  1.00  0.00     0.327 C  
HETATM   10  H   UNL     1      -7.859  13.643  67.532  1.00  0.00     0.000 HD 
HETATM   11  O   UNL     1      -9.489  14.614  64.971  1.00  0.00     0.164 OA 
BRANCH   9  12
HETATM   12  C   UNL     1      -8.878  15.916  66.831  1.00  0.00    -0.264 A  
HETATM   13  C   UNL     1      -7.610  16.424  67.165  1.00  0.00    -0.224 A  
HETATM   14  C   UNL     1      -7.480  17.443  68.109  1.00  0.00    -0.208 A  
HETATM   15  C   UNL     1      -8.604  17.957  68.770  1.00  0.00    -0.201 A  
HETATM   16 CL   UNL     1      -5.889  17.979  68.525  1.00  0.00    -0.180 Cl 
HETATM   17  C   UNL     1      -9.867  17.514  68.360  1.00  0.00    -0.325 A  
HETATM   18  N   UNL     1      -8.508  19.021  69.686  1.00  0.00     0.423 NA 
HETATM   19  H1  UNL     1      -9.326  19.394  70.168  1.00  0.00     0.000 HD 
HETATM   20  C   UNL     1     -10.020  16.489  67.411  1.00  0.00    -0.267 A  
HETATM   21  H2  UNL     1      -8.043  19.796  69.214  1.00  0.00     0.000 HD 
BRANCH  20  22
HETATM   22  O   UNL     1     -11.323  16.094  67.250  1.00  0.00    -0.084 OA 
HETATM   23  C   UNL     1     -11.858  15.250  68.264  1.00  0.00    -0.228 C  
ENDBRANCH  20  22
ENDBRANCH   9  12
ENDBRANCH   7   8
ENDBRANCH   6   7
ENDBRANCH   3   6
ENDBRANCH   2   3
TORSDOF 7
ENDMDL
MODEL      349
REMARK 921   NORMALIZED FREE ENERGY PREDICTED BY IDOCK:   -1.72 KCAL/MOL
REMARK 922        TOTAL FREE ENERGY PREDICTED BY IDOCK:   -3.14 KCAL/MOL
REMARK 923 INTER-LIGAND FREE ENERGY PREDICTED BY IDOCK:   -2.79 KCAL/MOL
REMARK 924 INTRA-LIGAND FREE ENERGY PREDICTED BY IDOCK:   -0.35 KCAL/MOL
REMARK 927      BINDING AFFINITY PREDICTED BY RF-SCORE:    0.00 PKD
ROOT
HETATM    1  C   UNL     1     -10.860   9.194  71.062  1.00  0.00    -0.362 C  
HETATM    2  C   UNL     1     -10.509   9.986  69.806  1.00  0.00    -0.256 C  
ENDROOT
BRANCH   2   3
HETATM    3  N   UNL     1      -9.237   9.601  69.170  1.00  0.00    -0.160 NA 
BRANCH   3   4
HETATM    4  C   UNL     1      -9.064  10.147  67.808  1.00  0.00    -0.130 C  
HETATM    5  C   UNL     1     -10.214   9.917  66.829  1.00  0.00    -0.301 C  
ENDBRANCH   3   4
BRANCH   3   6
HETATM    6  C   UNL     1      -8.070   9.941  70.020  1.00  0.00    -0.177 C  
BRANCH   6   7
HETATM    7  C   UNL     1      -6.834   9.046  69.828  1.00  0.00    -0.050 C  
BRANCH   7   8
HETATM    8  N   UNL     1      -7.135   7.634  69.983  1.00  0.00    -0.058 N  
HETATM    9  C   UNL     1      -7.483   7.110  71.211  1.00  0.00    -0.080 C  
HETATM   10  H   UNL     1      -7.087   7.019  69.170  1.00  0.00     0.000 HD 
HETATM   11  O   UNL     1      -7.533   7.783  72.232  1.00  0.00    -0.073 OA 
BRANCH   9  12
HETATM   12  C   UNL     1      -7.912   5.690  71.232  1.00  0.00    -0.112 A  
HETATM   13  C   UNL     1      -8.383   5.151  70.020  1.00  0.00    -0.089 A  
HETATM   14  C   UNL     1      -9.045   3.924  70.000  1.00  0.00    -0.120 A  
HETATM   15  C   UNL     1      -9.289   3.219  71.186  1.00  0.00    -0.140 A  
HETATM   16 CL   UNL     1      -9.658   3.347  68.488  1.00  0.00    -0.199 Cl 
HETATM   17  C   UNL     1      -8.731   3.714  72.371  1.00  0.00    -0.103 A  
HETATM   18  N   UNL     1      -9.906   1.955  71.189  1.00  0.00    -0.109 NA 
HETATM   19  H1  UNL     1     -10.084   1.442  72.053  1.00  0.00     0.000 HD 
HETATM   20  C   UNL     1      -8.060   4.949  72.414  1.00  0.00    -0.111 A  
HETATM   21  H2  UNL     1      -9.371   1.346  70.570  1.00  0.00     0.000 HD 
BRANCH  20  22
HETATM   22  O   UNL     1      -7.717   5.331  73.685  1.00  0.00    -0.100 OA 
HETATM   23  C   UNL     1      -6.499   4.798  74.198  1.00  0.00    -0.062 C  
ENDBRANCH  20  22
ENDBRANCH   9  12
ENDBRANCH   7   8
ENDBRANCH   6   7
ENDBRANCH   3   6
ENDBRANCH   2   3
TORSDOF 7
ENDMDL
MODEL      350
REMARK 921   NORMALIZED FREE ENERGY PREDICTED BY IDOCK:   -1.70 KCAL/MOL
REMARK 922        TOTAL FREE ENERGY PREDICTED BY IDOCK:   -3.11 KCAL/MOL
REMARK 923 INTER-LIGAND FREE ENERGY PREDICTED BY IDOCK:   -2.57 KCAL/MOL
REMARK 924 INTRA-LIGAND FREE ENERGY PREDICTED BY IDOCK:   -0.55 KCAL/MOL
REMARK 927      BINDING AFFINITY PREDICTED BY RF-SCORE:    0.00 PKD
ROOT
HETATM    1  C   UNL     1     -13.066   8.493  71.236  1.00  0.00    -0.167 C  
HETATM    2  C   UNL     1     -11.755   8.716  70.489  1.00  0.00    -0.081 C  
ENDROOT
BRANCH   2   3
HETATM    3  N   UNL     1     -10.699   7.732  70.791  1.00  0.00    -0.223 NA 
BRANCH   3   4
HETATM    4  C   UNL     1     -10.473   7.527  72.236  1.00  0.00    -0.230 C  
HETATM    5  C   UNL     1      -9.137   6.902  72.636  1.00  0.00    -0.150 C  
ENDBRANCH   3   4
BRANCH   3   6
HETATM    6  C   UNL     1     -10.942   6.436  70.112  1.00  0.00    -0.334 C  
BRANCH   6   7
HETATM    7  C   UNL     1     -11.315   6.535  68.623  1.00  0.00    -0.109 C  
BRANCH   7   8
HETATM    8  N   UNL     1     -10.557   5.615  67.793  1.00  0.00    -0.222 N  
HETATM    9  C   UNL     1      -9.468   6.047  67.062  1.00  0.00    -0.127 C  
HETATM   10  H   UNL     1     -10.834   4.634  67.749  1.00  0.00     0.000 HD 
HETATM   11  O   UNL     1      -9.098   7.214  67.046  1.00  0.00    -0.126 OA 
BRANCH   9  12
HETATM   12  C   UNL     1      -8.678   5.003  66.365  1.00  0.00    -0.114 A  
HETATM   13  C   UNL     1      -9.296   4.360  65.278  1.00  0.00    -0.164 A  
HETATM   14  C   UNL     1      -8.743   3.200  64.733  1.00  0.00    -0.103 A  
HETATM   15  C   UNL     1      -7.585   2.631  65.280  1.00  0.00    -0.076 A  
HETATM   16 CL   UNL     1      -9.586   2.419  63.440  1.00  0.00    -0.099 Cl 
HETATM   17  C   UNL     1      -6.925   3.332  66.296  1.00  0.00    -0.057 A  
HETATM   18  N   UNL     1      -6.977   1.493  64.718  1.00  0.00    -0.038 NA 
HETATM   19  H1  UNL     1      -6.134   1.079  65.116  1.00  0.00     0.000 HD 
HETATM   20  C   UNL     1      -7.464   4.502  66.859  1.00  0.00    -0.082 A  
HETATM   21  H2  UNL     1      -6.792   1.693  63.735  1.00  0.00     0.000 HD 
BRANCH  20  22
HETATM   22  O   UNL     1      -6.751   4.959  67.936  1.00  0.00    -0.052 OA 
HETATM   23  C   UNL     1      -5.540   5.651  67.646  1.00  0.00    -0.012 C  
ENDBRANCH  20  22
ENDBRANCH   9  12
ENDBRANCH   7   8
ENDBRANCH   6   7
ENDBRANCH   3   6
ENDBRANCH   2   3
TORSDOF 7
ENDMDL
MODEL      351
REMARK 921   NORMALIZED FREE ENERGY PREDICTED BY IDOCK:   -1.67 KCAL/MOL
REMARK 922        TOTAL FREE ENERGY PREDICTED BY IDOCK:   -3.07 KCAL/MOL
REMARK 923 INTER-LIGAND FREE ENERGY PREDICTED BY IDOCK:   -2.60 KCAL/MOL
REMARK 924 INTRA-LIGAND FREE ENERGY PREDICTED BY IDOCK:   -0.47 KCAL/MOL
REMARK 927      BINDING AFFINITY PREDICTED BY RF-SCORE:    0.00 PKD
ROOT
HETATM    1  C   UNL     1     -13.838   6.610  72.400  1.00  0.00     0.316 C  
HETATM    2  C   UNL     1     -12.484   6.910  71.764  1.00  0.00    -0.356 C  
ENDROOT
BRANCH   2   3
HETATM    3  N   UNL     1     -12.304   8.308  71.330  1.00  0.00    -0.305 NA 
BRANCH   3   4
HETATM    4  C   UNL     1     -12.756   9.302  72.325  1.00  0.00    -0.363 C  
HETATM    5  C   UNL     1     -13.195  10.661  71.781  1.00  0.00    -0.526 C  
ENDBRANCH   3   4
BRANCH   3   6
HETATM    6  C   UNL     1     -10.905   8.581  70.919  1.00  0.00    -0.232 C  
BRANCH   6   7
HETATM    7  C   UNL     1      -9.987   7.349  70.855  1.00  0.00    -0.184 C  
BRANCH   7   8
HETATM    8  N   UNL     1      -9.305   7.224  69.579  1.00  0.00    -0.152 N  
HETATM    9  C   UNL     1      -8.084   7.830  69.361  1.00  0.00    -0.126 C  
HETATM   10  H   UNL     1      -9.735   6.679  68.831  1.00  0.00     0.000 HD 
HETATM   11  O   UNL     1      -7.524   8.520  70.203  1.00  0.00    -0.056 OA 
BRANCH   9  12
HETATM   12  C   UNL     1      -7.405   7.519  68.079  1.00  0.00    -0.096 A  
HETATM   13  C   UNL     1      -7.605   8.424  67.020  1.00  0.00    -0.092 A  
HETATM   14  C   UNL     1      -7.230   8.086  65.720  1.00  0.00    -0.071 A  
HETATM   15  C   UNL     1      -6.684   6.827  65.433  1.00  0.00    -0.051 A  
HETATM   16 CL   UNL     1      -7.562   9.215  64.451  1.00  0.00    -0.111 Cl 
HETATM   17  C   UNL     1      -6.399   5.975  66.506  1.00  0.00    -0.045 A  
HETATM   18  N   UNL     1      -6.248   6.481  64.141  1.00  0.00    -0.033 NA 
HETATM   19  H1  UNL     1      -5.851   5.565  63.932  1.00  0.00     0.000 HD 
HETATM   20  C   UNL     1      -6.768   6.295  67.825  1.00  0.00    -0.064 A  
HETATM   21  H2  UNL     1      -5.578   7.188  63.839  1.00  0.00     0.000 HD 
BRANCH  20  22
HETATM   22  O   UNL     1      -6.539   5.275  68.711  1.00  0.00    -0.044 OA 
HETATM   23  C   UNL     1      -5.483   5.475  69.646  1.00  0.00    -0.004 C  
ENDBRANCH  20  22
ENDBRANCH   9  12
ENDBRANCH   7   8
ENDBRANCH   6   7
ENDBRANCH   3   6
ENDBRANCH   2   3
TORSDOF 7
ENDMDL
MODEL      352
REMARK 921   NORMALIZED FREE ENERGY PREDICTED BY IDOCK:   -1.63 KCAL/MOL
REMARK 922        TOTAL FREE ENERGY PREDICTED BY IDOCK:   -3.01 KCAL/MOL
REMARK 923 INTER-LIGAND FREE ENERGY PREDICTED BY IDOCK:   -2.49 KCAL/MOL
REMARK 924 INTRA-LIGAND FREE ENERGY PREDICTED BY IDOCK:   -0.52 KCAL/MOL
REMARK 927      BINDING AFFINITY PREDICTED BY RF-SCORE:    0.00 PKD
ROOT
HETATM    1  C   UNL     1     -10.837  13.992  65.509  1.00  0.00    -0.311 C  
HETATM    2  C   UNL     1     -10.822  13.437  66.930  1.00  0.00    -0.277 C  
ENDROOT
BRANCH   2   3
HETATM    3  N   UNL     1      -9.566  12.770  67.318  1.00  0.00    -0.203 NA 
BRANCH   3   4
HETATM    4  C   UNL     1      -8.659  13.626  68.109  1.00  0.00    -0.176 C  
HETATM    5  C   UNL     1      -7.177  13.576  67.741  1.00  0.00    -0.157 C  
ENDBRANCH   3   4
BRANCH   3   6
HETATM    6  C   UNL     1      -9.816  11.487  68.018  1.00  0.00    -0.188 C  
BRANCH   6   7
HETATM    7  C   UNL     1     -10.467  10.388  67.163  1.00  0.00    -0.256 C  
BRANCH   7   8
HETATM    8  N   UNL     1      -9.522   9.365  66.749  1.00  0.00    -0.156 N  
HETATM    9  C   UNL     1      -9.863   8.028  66.772  1.00  0.00    -0.257 C  
HETATM   10  H   UNL     1      -8.590   9.641  66.436  1.00  0.00     0.000 HD 
HETATM   11  O   UNL     1     -10.951   7.626  67.161  1.00  0.00    -0.266 OA 
BRANCH   9  12
HETATM   12  C   UNL     1      -8.880   7.081  66.192  1.00  0.00    -0.165 A  
HETATM   13  C   UNL     1      -9.156   6.589  64.903  1.00  0.00     0.607 A  
HETATM   14  C   UNL     1      -8.440   5.509  64.388  1.00  0.00    -0.080 A  
HETATM   15  C   UNL     1      -7.459   4.866  65.155  1.00  0.00    -0.076 A  
HETATM   16 CL   UNL     1      -8.871   4.910  62.823  1.00  0.00    -0.121 Cl 
HETATM   17  C   UNL     1      -7.125   5.423  66.395  1.00  0.00    -0.069 A  
HETATM   18  N   UNL     1      -6.685   3.808  64.641  1.00  0.00    -0.043 NA 
HETATM   19  H1  UNL     1      -5.972   3.341  65.199  1.00  0.00     0.000 HD 
HETATM   20  C   UNL     1      -7.833   6.512  66.933  1.00  0.00    -0.107 A  
HETATM   21  H2  UNL     1      -6.244   4.135  63.781  1.00  0.00     0.000 HD 
BRANCH  20  22
HETATM   22  O   UNL     1      -7.457   6.819  68.214  1.00  0.00    -0.094 OA 
HETATM   23  C   UNL     1      -7.895   5.925  69.233  1.00  0.00    -0.095 C  
ENDBRANCH  20  22
ENDBRANCH   9  12
ENDBRANCH   7   8
ENDBRANCH   6   7
ENDBRANCH   3   6
ENDBRANCH   2   3
TORSDOF 7
ENDMDL
MODEL      353
REMARK 921   NORMALIZED FREE ENERGY PREDICTED BY IDOCK:   -1.62 KCAL/MOL
REMARK 922        TOTAL FREE ENERGY PREDICTED BY IDOCK:   -3.00 KCAL/MOL
REMARK 923 INTER-LIGAND FREE ENERGY PREDICTED BY IDOCK:   -2.35 KCAL/MOL
REMARK 924 INTRA-LIGAND FREE ENERGY PREDICTED BY IDOCK:   -0.65 KCAL/MOL
REMARK 927      BINDING AFFINITY PREDICTED BY RF-SCORE:    0.00 PKD
ROOT
HETATM    1  C   UNL     1      -5.837   6.912  66.182  1.00  0.00    -0.034 C  
HETATM    2  C   UNL     1      -6.834   7.865  65.530  1.00  0.00    -0.055 C  
ENDROOT
BRANCH   2   3
HETATM    3  N   UNL     1      -7.945   7.205  64.820  1.00  0.00    -0.126 NA 
BRANCH   3   4
HETATM    4  C   UNL     1      -7.512   6.379  63.675  1.00  0.00    -0.081 C  
HETATM    5  C   UNL     1      -6.891   7.123  62.493  1.00  0.00    -0.060 C  
ENDBRANCH   3   4
BRANCH   3   6
HETATM    6  C   UNL     1      -8.794   6.412  65.743  1.00  0.00    -0.099 C  
BRANCH   6   7
HETATM    7  C   UNL     1      -9.784   7.228  66.589  1.00  0.00    -0.183 C  
BRANCH   7   8
HETATM    8  N   UNL     1      -9.399   7.301  67.988  1.00  0.00    -0.131 N  
HETATM    9  C   UNL     1      -9.494   6.198  68.812  1.00  0.00    -0.121 C  
HETATM   10  H   UNL     1      -9.052   8.183  68.367  1.00  0.00     0.000 HD 
HETATM   11  O   UNL     1      -9.927   5.119  68.432  1.00  0.00    -0.153 OA 
BRANCH   9  12
HETATM   12  C   UNL     1      -8.939   6.340  70.181  1.00  0.00    -0.149 A  
HETATM   13  C   UNL     1      -9.560   5.593  71.198  1.00  0.00    -0.208 A  
HETATM   14  C   UNL     1      -9.285   5.856  72.540  1.00  0.00    -0.138 A  
HETATM   15  C   UNL     1      -8.413   6.892  72.904  1.00  0.00    -0.115 A  
HETATM   16 CL   UNL     1     -10.130   4.948  73.745  1.00  0.00    -0.190 Cl 
HETATM   17  C   UNL     1      -7.727   7.563  71.885  1.00  0.00    -0.088 A  
HETATM   18  N   UNL     1      -8.076   7.144  74.247  1.00  0.00    -0.132 NA 
HETATM   19  H1  UNL     1      -7.443   7.898  74.512  1.00  0.00     0.000 HD 
HETATM   20  C   UNL     1      -7.989   7.313  70.527  1.00  0.00    -0.104 A  
HETATM   21  H2  UNL     1      -7.713   6.278  74.644  1.00  0.00     0.000 HD 
BRANCH  20  22
HETATM   22  O   UNL     1      -7.328   8.168  69.685  1.00  0.00    -0.070 OA 
HETATM   23  C   UNL     1      -7.493   9.560  69.939  1.00  0.00    -0.113 C  
ENDBRANCH  20  22
ENDBRANCH   9  12
ENDBRANCH   7   8
ENDBRANCH   6   7
ENDBRANCH   3   6
ENDBRANCH   2   3
TORSDOF 7
ENDMDL
MODEL      354
REMARK 921   NORMALIZED FREE ENERGY PREDICTED BY IDOCK:   -1.35 KCAL/MOL
REMARK 922        TOTAL FREE ENERGY PREDICTED BY IDOCK:   -2.61 KCAL/MOL
REMARK 923 INTER-LIGAND FREE ENERGY PREDICTED BY IDOCK:   -2.34 KCAL/MOL
REMARK 924 INTRA-LIGAND FREE ENERGY PREDICTED BY IDOCK:   -0.27 KCAL/MOL
REMARK 927      BINDING AFFINITY PREDICTED BY RF-SCORE:    0.00 PKD
ROOT
HETATM    1  C   UNL     1      -5.914   6.935  66.269  1.00  0.00    -0.034 C  
HETATM    2  C   UNL     1      -7.010   7.884  65.796  1.00  0.00    -0.056 C  
ENDROOT
BRANCH   2   3
HETATM    3  N   UNL     1      -8.250   7.221  65.351  1.00  0.00    -0.136 NA 
BRANCH   3   4
HETATM    4  C   UNL     1      -8.053   6.293  64.219  1.00  0.00    -0.080 C  
HETATM    5  C   UNL     1      -7.658   6.920  62.883  1.00  0.00    -0.098 C  
ENDBRANCH   3   4
BRANCH   3   6
HETATM    6  C   UNL     1      -8.942   6.538  66.471  1.00  0.00    -0.143 C  
BRANCH   6   7
HETATM    7  C   UNL     1      -9.846   7.438  67.330  1.00  0.00    -0.175 C  
BRANCH   7   8
HETATM    8  N   UNL     1      -9.334   7.627  68.676  1.00  0.00    -0.147 N  
HETATM    9  C   UNL     1      -9.591   6.707  69.672  1.00  0.00    -0.151 C  
HETATM   10  H   UNL     1      -8.774   8.453  68.888  1.00  0.00     0.000 HD 
HETATM   11  O   UNL     1     -10.277   5.709  69.495  1.00  0.00    -0.203 OA 
BRANCH   9  12
HETATM   12  C   UNL     1      -8.901   6.919  70.968  1.00  0.00    -0.140 A  
HETATM   13  C   UNL     1      -7.785   7.775  70.960  1.00  0.00    -0.084 A  
HETATM   14  C   UNL     1      -6.925   7.828  72.057  1.00  0.00    -0.067 A  
HETATM   15  C   UNL     1      -7.132   7.006  73.173  1.00  0.00    -0.073 A  
HETATM   16 CL   UNL     1      -5.533   8.852  71.960  1.00  0.00    -0.052 Cl 
HETATM   17  C   UNL     1      -8.298   6.232  73.212  1.00  0.00    -0.115 A  
HETATM   18  N   UNL     1      -6.312   7.078  74.315  1.00  0.00    -0.078 NA 
HETATM   19  H1  UNL     1      -6.463   6.480  75.127  1.00  0.00     0.000 HD 
HETATM   20  C   UNL     1      -9.178   6.164  72.118  1.00  0.00    -0.141 A  
HETATM   21  H2  UNL     1      -6.312   8.046  74.636  1.00  0.00     0.000 HD 
BRANCH  20  22
HETATM   22  O   UNL     1     -10.179   5.244  72.289  1.00  0.00    -0.186 OA 
HETATM   23  C   UNL     1     -10.282   4.654  73.582  1.00  0.00    -0.179 C  
ENDBRANCH  20  22
ENDBRANCH   9  12
ENDBRANCH   7   8
ENDBRANCH   6   7
ENDBRANCH   3   6
ENDBRANCH   2   3
TORSDOF 7
ENDMDL
MODEL      355
REMARK 921   NORMALIZED FREE ENERGY PREDICTED BY IDOCK:   -1.28 KCAL/MOL
REMARK 922        TOTAL FREE ENERGY PREDICTED BY IDOCK:   -2.52 KCAL/MOL
REMARK 923 INTER-LIGAND FREE ENERGY PREDICTED BY IDOCK:   -3.12 KCAL/MOL
REMARK 924 INTRA-LIGAND FREE ENERGY PREDICTED BY IDOCK:    0.60 KCAL/MOL
REMARK 927      BINDING AFFINITY PREDICTED BY RF-SCORE:    0.00 PKD
ROOT
HETATM    1  C   UNL     1     -11.958   3.571  73.420  1.00  0.00     0.290 C  
HETATM    2  C   UNL     1     -11.145   4.853  73.567  1.00  0.00    -0.332 C  
ENDROOT
BRANCH   2   3
HETATM    3  N   UNL     1      -9.819   4.674  74.187  1.00  0.00    -0.145 NA 
BRANCH   3   4
HETATM    4  C   UNL     1      -8.971   3.679  73.499  1.00  0.00    -0.094 C  
HETATM    5  C   UNL     1      -9.171   3.538  71.991  1.00  0.00    -0.171 C  
ENDBRANCH   3   4
BRANCH   3   6
HETATM    6  C   UNL     1      -9.099   5.963  74.330  1.00  0.00    -0.133 C  
BRANCH   6   7
HETATM    7  C   UNL     1      -7.960   6.195  73.324  1.00  0.00    -0.103 C  
BRANCH   7   8
HETATM    8  N   UNL     1      -8.441   6.607  72.017  1.00  0.00    -0.116 N  
HETATM    9  C   UNL     1      -9.088   7.814  71.844  1.00  0.00    -0.134 C  
HETATM   10  H   UNL     1      -8.298   5.995  71.214  1.00  0.00     0.000 HD 
HETATM   11  O   UNL     1      -9.318   8.584  72.767  1.00  0.00    -0.254 OA 
BRANCH   9  12
HETATM   12  C   UNL     1      -9.407   8.204  70.449  1.00  0.00    -0.158 A  
HETATM   13  C   UNL     1     -10.145   7.282  69.685  1.00  0.00    -0.195 A  
HETATM   14  C   UNL     1     -10.265   7.441  68.304  1.00  0.00    -0.183 A  
HETATM   15  C   UNL     1      -9.624   8.498  67.644  1.00  0.00    -0.153 A  
HETATM   16 CL   UNL     1     -11.131   6.237  67.412  1.00  0.00    -0.433 Cl 
HETATM   17  C   UNL     1      -8.975   9.462  68.423  1.00  0.00    -0.128 A  
HETATM   18  N   UNL     1      -9.772   8.712  66.261  1.00  0.00    -0.315 NA 
HETATM   19  H1  UNL     1      -9.305   9.481  65.781  1.00  0.00     0.000 HD 
HETATM   20  C   UNL     1      -8.843   9.323  69.816  1.00  0.00    -0.167 A  
HETATM   21  H2  UNL     1     -10.770   8.780  66.062  1.00  0.00     0.000 HD 
BRANCH  20  22
HETATM   22  O   UNL     1      -8.052  10.289  70.382  1.00  0.00    -0.064 OA 
HETATM   23  C   UNL     1      -6.648  10.148  70.191  1.00  0.00    -0.128 C  
ENDBRANCH  20  22
ENDBRANCH   9  12
ENDBRANCH   7   8
ENDBRANCH   6   7
ENDBRANCH   3   6
ENDBRANCH   2   3
TORSDOF 7
ENDMDL
MODEL      356
REMARK 921   NORMALIZED FREE ENERGY PREDICTED BY IDOCK:   -0.52 KCAL/MOL
REMARK 922        TOTAL FREE ENERGY PREDICTED BY IDOCK:   -1.45 KCAL/MOL
REMARK 923 INTER-LIGAND FREE ENERGY PREDICTED BY IDOCK:   -2.99 KCAL/MOL
REMARK 924 INTRA-LIGAND FREE ENERGY PREDICTED BY IDOCK:    1.54 KCAL/MOL
REMARK 927      BINDING AFFINITY PREDICTED BY RF-SCORE:    0.00 PKD
ROOT
HETATM    1  C   UNL     1      -9.123  10.612  68.767  1.00  0.00    -0.170 C  
HETATM    2  C   UNL     1     -10.020  11.495  67.906  1.00  0.00    -0.183 C  
ENDROOT
BRANCH   2   3
HETATM    3  N   UNL     1      -9.307  12.513  67.114  1.00  0.00    -0.195 NA 
BRANCH   3   4
HETATM    4  C   UNL     1      -7.855  12.267  67.000  1.00  0.00    -0.108 C  
HETATM    5  C   UNL     1      -7.429  10.839  66.663  1.00  0.00    -0.135 C  
ENDBRANCH   3   4
BRANCH   3   6
HETATM    6  C   UNL     1      -9.913  12.691  65.772  1.00  0.00    -0.256 C  
BRANCH   6   7
HETATM    7  C   UNL     1     -10.780  11.519  65.282  1.00  0.00    -0.279 C  
BRANCH   7   8
HETATM    8  N   UNL     1     -10.091  10.243  65.355  1.00  0.00    -0.298 N  
HETATM    9  C   UNL     1      -9.275   9.813  64.328  1.00  0.00    -0.232 C  
HETATM   10  H   UNL     1     -10.212   9.654  66.180  1.00  0.00     0.000 HD 
HETATM   11  O   UNL     1      -9.107  10.455  63.299  1.00  0.00    -0.209 OA 
BRANCH   9  12
HETATM   12  C   UNL     1      -8.506   8.567  64.565  1.00  0.00    -0.108 A  
HETATM   13  C   UNL     1      -7.517   8.241  63.619  1.00  0.00    -0.118 A  
HETATM   14  C   UNL     1      -6.931   6.975  63.613  1.00  0.00    -0.057 A  
HETATM   15  C   UNL     1      -7.339   5.991  64.523  1.00  0.00    -0.068 A  
HETATM   16 CL   UNL     1      -5.770   6.615  62.382  1.00  0.00    -0.030 Cl 
HETATM   17  C   UNL     1      -8.250   6.355  65.521  1.00  0.00    -0.142 A  
HETATM   18  N   UNL     1      -6.728   4.724  64.574  1.00  0.00    -0.043 NA 
HETATM   19  H1  UNL     1      -7.025   4.008  65.236  1.00  0.00     0.000 HD 
HETATM   20  C   UNL     1      -8.853   7.625  65.546  1.00  0.00     0.008 A  
HETATM   21  H2  UNL     1      -5.726   4.867  64.699  1.00  0.00     0.000 HD 
BRANCH  20  22
HETATM   22  O   UNL     1      -9.823   7.743  66.507  1.00  0.00    -0.221 OA 
HETATM   23  C   UNL     1     -10.704   6.633  66.655  1.00  0.00    -0.146 C  
ENDBRANCH  20  22
ENDBRANCH   9  12
ENDBRANCH   7   8
ENDBRANCH   6   7
ENDBRANCH   3   6
ENDBRANCH   2   3
TORSDOF 7
ENDMDL
MODEL      357
REMARK 921   NORMALIZED FREE ENERGY PREDICTED BY IDOCK:    1.08 KCAL/MOL
REMARK 922        TOTAL FREE ENERGY PREDICTED BY IDOCK:    0.81 KCAL/MOL
REMARK 923 INTER-LIGAND FREE ENERGY PREDICTED BY IDOCK:   -2.01 KCAL/MOL
REMARK 924 INTRA-LIGAND FREE ENERGY PREDICTED BY IDOCK:    2.82 KCAL/MOL
REMARK 927      BINDING AFFINITY PREDICTED BY RF-SCORE:    0.00 PKD
ROOT
HETATM    1  C   UNL     1      -9.028  15.227  66.183  1.00  0.00    -0.251 C  
HETATM    2  C   UNL     1      -9.656  13.929  66.681  1.00  0.00    -0.289 C  
ENDROOT
BRANCH   2   3
HETATM    3  N   UNL     1      -8.698  12.954  67.234  1.00  0.00    -0.197 NA 
BRANCH   3   4
HETATM    4  C   UNL     1      -7.975  12.181  66.205  1.00  0.00     0.578 C  
HETATM    5  C   UNL     1      -6.643  11.561  66.626  1.00  0.00    -0.081 C  
ENDBRANCH   3   4
BRANCH   3   6
HETATM    6  C   UNL     1      -7.744  13.591  68.174  1.00  0.00    -0.139 C  
BRANCH   6   7
HETATM    7  C   UNL     1      -7.344  12.734  69.386  1.00  0.00     0.360 C  
BRANCH   7   8
HETATM    8  N   UNL     1      -7.853  11.376  69.306  1.00  0.00    -0.361 N  
HETATM    9  C   UNL     1      -9.202  11.129  69.143  1.00  0.00     0.056 C  
HETATM   10  H   UNL     1      -7.204  10.592  69.371  1.00  0.00     0.000 HD 
HETATM   11  O   UNL     1     -10.039  12.020  69.085  1.00  0.00     0.009 OA 
BRANCH   9  12
HETATM   12  C   UNL     1      -9.598   9.716  68.926  1.00  0.00    -0.161 A  
HETATM   13  C   UNL     1      -9.040   9.065  67.811  1.00  0.00    -0.143 A  
HETATM   14  C   UNL     1      -9.547   7.839  67.379  1.00  0.00    -0.151 A  
HETATM   15  C   UNL     1     -10.644   7.249  68.021  1.00  0.00    -0.189 A  
HETATM   16 CL   UNL     1      -8.861   7.121  65.962  1.00  0.00    -0.166 Cl 
HETATM   17  C   UNL     1     -11.127   7.855  69.187  1.00  0.00     0.162 A  
HETATM   18  N   UNL     1     -11.141   5.989  67.641  1.00  0.00    -0.406 NA 
HETATM   19  H1  UNL     1     -11.939   5.559  68.108  1.00  0.00     0.000 HD 
HETATM   20  C   UNL     1     -10.631   9.090  69.640  1.00  0.00    -0.224 A  
HETATM   21  H2  UNL     1     -10.367   5.326  67.675  1.00  0.00     0.000 HD 
BRANCH  20  22
HETATM   22  O   UNL     1     -11.327   9.591  70.708  1.00  0.00    -0.273 OA 
HETATM   23  C   UNL     1     -12.596  10.171  70.420  1.00  0.00    -0.145 C  
ENDBRANCH  20  22
ENDBRANCH   9  12
ENDBRANCH   7   8
ENDBRANCH   6   7
ENDBRANCH   3   6
ENDBRANCH   2   3
TORSDOF 7
ENDMDL
MODEL      358
REMARK 921   NORMALIZED FREE ENERGY PREDICTED BY IDOCK:    1.17 KCAL/MOL
REMARK 922        TOTAL FREE ENERGY PREDICTED BY IDOCK:    0.94 KCAL/MOL
REMARK 923 INTER-LIGAND FREE ENERGY PREDICTED BY IDOCK:    1.44 KCAL/MOL
REMARK 924 INTRA-LIGAND FREE ENERGY PREDICTED BY IDOCK:   -0.51 KCAL/MOL
REMARK 927      BINDING AFFINITY PREDICTED BY RF-SCORE:    0.00 PKD
ROOT
HETATM    1  C   UNL     1      -7.032  10.792  74.566  1.00  0.00     3.589 C  
HETATM    2  C   UNL     1      -6.073   9.610  74.464  1.00  0.00     0.274 C  
ENDROOT
BRANCH   2   3
HETATM    3  N   UNL     1      -6.032   8.962  73.141  1.00  0.00    -0.222 NA 
BRANCH   3   4
HETATM    4  C   UNL     1      -5.408   9.792  72.091  1.00  0.00    -0.014 C  
HETATM    5  C   UNL     1      -5.616   9.338  70.647  1.00  0.00    -0.035 C  
ENDBRANCH   3   4
BRANCH   3   6
HETATM    6  C   UNL     1      -5.387   7.627  73.201  1.00  0.00    -0.041 C  
BRANCH   6   7
HETATM    7  C   UNL     1      -6.335   6.453  73.498  1.00  0.00    -0.065 C  
BRANCH   7   8
HETATM    8  N   UNL     1      -6.974   5.932  72.302  1.00  0.00    -0.080 N  
HETATM    9  C   UNL     1      -8.310   5.584  72.302  1.00  0.00    -0.119 C  
HETATM   10  H   UNL     1      -6.426   5.820  71.449  1.00  0.00     0.000 HD 
HETATM   11  O   UNL     1      -9.019   5.665  73.297  1.00  0.00    -0.128 OA 
BRANCH   9  12
HETATM   12  C   UNL     1      -8.898   5.202  70.995  1.00  0.00    -0.151 A  
HETATM   13  C   UNL     1      -8.141   4.334  70.188  1.00  0.00    -0.060 A  
HETATM   14  C   UNL     1      -8.483   4.131  68.851  1.00  0.00    -0.082 A  
HETATM   15  C   UNL     1      -9.562   4.813  68.273  1.00  0.00    -0.149 A  
HETATM   16 CL   UNL     1      -7.473   3.102  67.893  1.00  0.00    -0.054 Cl 
HETATM   17  C   UNL     1     -10.367   5.597  69.109  1.00  0.00    -0.328 A  
HETATM   18  N   UNL     1      -9.962   4.586  66.943  1.00  0.00    -0.212 NA 
HETATM   19  H1  UNL     1     -10.747   5.083  66.523  1.00  0.00     0.000 HD 
HETATM   20  C   UNL     1     -10.041   5.815  70.459  1.00  0.00    -0.208 A  
HETATM   21  H2  UNL     1     -10.132   3.586  66.836  1.00  0.00     0.000 HD 
BRANCH  20  22
HETATM   22  O   UNL     1     -10.863   6.725  71.071  1.00  0.00    -0.230 OA 
HETATM   23  C   UNL     1     -11.071   7.953  70.381  1.00  0.00    -0.245 C  
ENDBRANCH  20  22
ENDBRANCH   9  12
ENDBRANCH   7   8
ENDBRANCH   6   7
ENDBRANCH   3   6
ENDBRANCH   2   3
TORSDOF 7
ENDMDL
MODEL      359
REMARK 921   NORMALIZED FREE ENERGY PREDICTED BY IDOCK:    2.19 KCAL/MOL
REMARK 922        TOTAL FREE ENERGY PREDICTED BY IDOCK:    2.37 KCAL/MOL
REMARK 923 INTER-LIGAND FREE ENERGY PREDICTED BY IDOCK:    0.55 KCAL/MOL
REMARK 924 INTRA-LIGAND FREE ENERGY PREDICTED BY IDOCK:    1.82 KCAL/MOL
REMARK 927      BINDING AFFINITY PREDICTED BY RF-SCORE:    0.00 PKD
ROOT
HETATM    1  C   UNL     1     -12.615   3.414  73.902  1.00  0.00     1.950 C  
HETATM    2  C   UNL     1     -11.225   3.963  73.596  1.00  0.00    -0.203 C  
ENDROOT
BRANCH   2   3
HETATM    3  N   UNL     1     -10.196   2.935  73.354  1.00  0.00    -0.116 NA 
BRANCH   3   4
HETATM    4  C   UNL     1     -10.597   1.913  72.366  1.00  0.00    -0.078 C  
HETATM    5  C   UNL     1     -12.079   1.545  72.328  1.00  0.00     1.429 C  
ENDBRANCH   3   4
BRANCH   3   6
HETATM    6  C   UNL     1      -8.893   3.538  72.982  1.00  0.00    -0.092 C  
BRANCH   6   7
HETATM    7  C   UNL     1      -8.560   3.507  71.481  1.00  0.00    -0.076 C  
BRANCH   7   8
HETATM    8  N   UNL     1      -8.813   4.777  70.824  1.00  0.00    -0.118 N  
HETATM    9  C   UNL     1      -8.779   5.963  71.528  1.00  0.00    -0.132 C  
HETATM   10  H   UNL     1      -9.020   4.792  69.825  1.00  0.00     0.000 HD 
HETATM   11  O   UNL     1      -8.565   6.016  72.733  1.00  0.00    -0.125 OA 
BRANCH   9  12
HETATM   12  C   UNL     1      -8.906   7.212  70.737  1.00  0.00    -0.148 A  
HETATM   13  C   UNL     1      -8.064   7.342  69.618  1.00  0.00    -0.129 A  
HETATM   14  C   UNL     1      -7.925   8.572  68.975  1.00  0.00    -0.113 A  
HETATM   15  C   UNL     1      -8.590   9.710  69.450  1.00  0.00    -0.158 A  
HETATM   16 CL   UNL     1      -6.823   8.683  67.645  1.00  0.00    -0.070 Cl 
HETATM   17  C   UNL     1      -9.500   9.549  70.502  1.00  0.00    -0.306 A  
HETATM   18  N   UNL     1      -8.509  10.950  68.790  1.00  0.00    -0.148 NA 
HETATM   19  H1  UNL     1      -8.993  11.779  69.136  1.00  0.00     0.000 HD 
HETATM   20  C   UNL     1      -9.656   8.319  71.163  1.00  0.00    -0.163 A  
HETATM   21  H2  UNL     1      -8.794  10.806  67.821  1.00  0.00     0.000 HD 
BRANCH  20  22
HETATM   22  O   UNL     1     -10.479   8.395  72.256  1.00  0.00    -0.292 OA 
HETATM   23  C   UNL     1     -11.870   8.547  71.990  1.00  0.00    -0.362 C  
ENDBRANCH  20  22
ENDBRANCH   9  12
ENDBRANCH   7   8
ENDBRANCH   6   7
ENDBRANCH   3   6
ENDBRANCH   2   3
TORSDOF 7
ENDMDL
MODEL      360
REMARK 921   NORMALIZED FREE ENERGY PREDICTED BY IDOCK:    4.59 KCAL/MOL
REMARK 922        TOTAL FREE ENERGY PREDICTED BY IDOCK:    5.76 KCAL/MOL
REMARK 923 INTER-LIGAND FREE ENERGY PREDICTED BY IDOCK:    3.66 KCAL/MOL
REMARK 924 INTRA-LIGAND FREE ENERGY PREDICTED BY IDOCK:    2.10 KCAL/MOL
REMARK 927      BINDING AFFINITY PREDICTED BY RF-SCORE:    0.00 PKD
ROOT
HETATM    1  C   UNL     1     -10.275  18.891  67.852  1.00  0.00    -0.459 C  
HETATM    2  C   UNL     1     -10.384  17.954  66.653  1.00  0.00    -0.361 C  
ENDROOT
BRANCH   2   3
HETATM    3  N   UNL     1      -9.225  17.065  66.458  1.00  0.00    -0.259 NA 
BRANCH   3   4
HETATM    4  C   UNL     1      -7.930  17.695  66.788  1.00  0.00    -0.239 C  
HETATM    5  C   UNL     1      -7.971  18.867  67.767  1.00  0.00    -0.275 C  
ENDBRANCH   3   4
BRANCH   3   6
HETATM    6  C   UNL     1      -9.383  15.785  67.191  1.00  0.00    -0.213 C  
BRANCH   6   7
HETATM    7  C   UNL     1      -8.820  14.545  66.476  1.00  0.00    -0.122 C  
BRANCH   7   8
HETATM    8  N   UNL     1      -8.131  13.641  67.380  1.00  0.00    -0.203 N  
HETATM    9  C   UNL     1      -8.544  13.489  68.688  1.00  0.00    -0.009 C  
HETATM   10  H   UNL     1      -7.329  13.109  67.042  1.00  0.00     0.000 HD 
HETATM   11  O   UNL     1      -9.480  14.116  69.167  1.00  0.00    -0.011 OA 
BRANCH   9  12
HETATM   12  C   UNL     1      -7.867  12.435  69.482  1.00  0.00     0.921 A  
HETATM   13  C   UNL     1      -7.222  12.846  70.663  1.00  0.00     2.891 A  
HETATM   14  C   UNL     1      -6.347  11.987  71.329  1.00  0.00     1.861 A  
HETATM   15  C   UNL     1      -6.063  10.714  70.818  1.00  0.00    -0.023 A  
HETATM   16 CL   UNL     1      -5.535  12.575  72.739  1.00  0.00     0.646 Cl 
HETATM   17  C   UNL     1      -6.783  10.279  69.699  1.00  0.00    -0.085 A  
HETATM   18  N   UNL     1      -5.227   9.808  71.496  1.00  0.00    -0.070 NA 
HETATM   19  H1  UNL     1      -5.020   8.881  71.124  1.00  0.00     0.000 HD 
HETATM   20  C   UNL     1      -7.670  11.127  69.013  1.00  0.00    -0.114 A  
HETATM   21  H2  UNL     1      -5.597   9.689  72.439  1.00  0.00     0.000 HD 
BRANCH  20  22
HETATM   22  O   UNL     1      -8.166  10.572  67.863  1.00  0.00    -0.106 OA 
HETATM   23  C   UNL     1      -8.212   9.149  67.817  1.00  0.00    -0.109 C  
ENDBRANCH  20  22
ENDBRANCH   9  12
ENDBRANCH   7   8
ENDBRANCH   6   7
ENDBRANCH   3   6
ENDBRANCH   2   3
TORSDOF 7
ENDMDL
