MODEL        1
REMARK 921   NORMALIZED FREE ENERGY PREDICTED BY IDOCK:   -5.13 KCAL/MOL
REMARK 922        TOTAL FREE ENERGY PREDICTED BY IDOCK:   -6.00 KCAL/MOL
REMARK 923 INTER-LIGAND FREE ENERGY PREDICTED BY IDOCK:   -5.73 KCAL/MOL
REMARK 924 INTRA-LIGAND FREE ENERGY PREDICTED BY IDOCK:   -0.28 KCAL/MOL
REMARK 927      BINDING AFFINITY PREDICTED BY RF-SCORE:    0.00 PKD
ROOT
HETATM    1  C   UNL     1     -10.252  11.655  66.837  1.00  0.00    -0.244 C  
HETATM    2  C   UNL     1     -10.264  13.028  66.261  1.00  0.00    -0.288 A  
HETATM    3  N   UNL     1      -9.319  13.926  66.463  1.00  0.00    -0.271 NA 
HETATM    4  C   UNL     1      -9.713  15.051  65.795  1.00  0.00    -0.340 A  
HETATM    5  C   UNL     1     -10.906  14.831  65.156  1.00  0.00    -0.404 A  
HETATM    6  N   UNL     1     -11.270  13.537  65.451  1.00  0.00    -0.288 NA 
HETATM    7  N   UNL     1     -11.628  15.751  64.347  1.00  0.00    -0.338 N  
HETATM    8  O   UNL     1     -11.188  16.904  64.294  1.00  0.00    -1.204 OA 
HETATM    9  O   UNL     1     -12.622  15.333  63.744  1.00  0.00    -0.733 OA 
ENDROOT
BRANCH   6  10
HETATM   10  C   UNL     1     -12.480  12.821  65.077  1.00  0.00    -0.506 C  
BRANCH  10  11
HETATM   11  C   UNL     1     -12.321  11.977  63.815  1.00  0.00    -0.496 C  
HETATM   12  O   UNL     1     -11.595  12.685  62.814  1.00  0.00    -0.617 OA 
HETATM   13  H   UNL     1     -11.495  12.161  62.028  1.00  0.00     0.000 HD 
ENDBRANCH  10  11
ENDBRANCH   6  10
TORSDOF 2
ENDMDL
MODEL        2
REMARK 921   NORMALIZED FREE ENERGY PREDICTED BY IDOCK:   -5.07 KCAL/MOL
REMARK 922        TOTAL FREE ENERGY PREDICTED BY IDOCK:   -5.94 KCAL/MOL
REMARK 923 INTER-LIGAND FREE ENERGY PREDICTED BY IDOCK:   -5.55 KCAL/MOL
REMARK 924 INTRA-LIGAND FREE ENERGY PREDICTED BY IDOCK:   -0.39 KCAL/MOL
REMARK 927      BINDING AFFINITY PREDICTED BY RF-SCORE:    0.00 PKD
ROOT
HETATM    1  C   UNL     1     -11.777  12.762  67.435  1.00  0.00    -0.425 C  
HETATM    2  C   UNL     1     -11.500  14.194  67.733  1.00  0.00    -0.325 A  
HETATM    3  N   UNL     1     -11.717  14.765  68.902  1.00  0.00    -0.300 NA 
HETATM    4  C   UNL     1     -11.365  16.078  68.758  1.00  0.00    -0.380 A  
HETATM    5  C   UNL     1     -10.904  16.308  67.488  1.00  0.00    -0.268 A  
HETATM    6  N   UNL     1     -10.989  15.108  66.820  1.00  0.00    -0.321 NA 
HETATM    7  N   UNL     1     -10.430  17.540  66.958  1.00  0.00    -0.319 N  
HETATM    8  O   UNL     1     -10.538  18.532  67.686  1.00  0.00    -0.412 OA 
HETATM    9  O   UNL     1      -9.930  17.529  65.827  1.00  0.00    -0.546 OA 
ENDROOT
BRANCH   6  10
HETATM   10  C   UNL     1     -10.687  14.813  65.427  1.00  0.00    -0.371 C  
BRANCH  10  11
HETATM   11  C   UNL     1     -11.872  15.031  64.490  1.00  0.00    -0.371 C  
HETATM   12  O   UNL     1     -11.741  16.258  63.776  1.00  0.00    -1.511 OA 
HETATM   13  H   UNL     1     -12.478  16.394  63.192  1.00  0.00     0.000 HD 
ENDBRANCH  10  11
ENDBRANCH   6  10
TORSDOF 2
ENDMDL
MODEL        3
REMARK 921   NORMALIZED FREE ENERGY PREDICTED BY IDOCK:   -4.87 KCAL/MOL
REMARK 922        TOTAL FREE ENERGY PREDICTED BY IDOCK:   -5.72 KCAL/MOL
REMARK 923 INTER-LIGAND FREE ENERGY PREDICTED BY IDOCK:   -5.58 KCAL/MOL
REMARK 924 INTRA-LIGAND FREE ENERGY PREDICTED BY IDOCK:   -0.14 KCAL/MOL
REMARK 927      BINDING AFFINITY PREDICTED BY RF-SCORE:    0.00 PKD
ROOT
HETATM    1  C   UNL     1     -10.636  17.022  67.376  1.00  0.00    -0.289 C  
HETATM    2  C   UNL     1     -11.124  15.663  67.736  1.00  0.00    -0.311 A  
HETATM    3  N   UNL     1     -11.495  15.304  68.949  1.00  0.00    -0.312 NA 
HETATM    4  C   UNL     1     -11.843  13.984  68.868  1.00  0.00    -0.355 A  
HETATM    5  C   UNL     1     -11.702  13.535  67.581  1.00  0.00    -0.363 A  
HETATM    6  N   UNL     1     -11.239  14.603  66.846  1.00  0.00    -0.334 NA 
HETATM    7  N   UNL     1     -11.980  12.228  67.094  1.00  0.00    -0.246 N  
HETATM    8  O   UNL     1     -12.284  11.378  67.936  1.00  0.00    -0.592 OA 
HETATM    9  O   UNL     1     -11.919  12.042  65.873  1.00  0.00    -0.540 OA 
ENDROOT
BRANCH   6  10
HETATM   10  C   UNL     1     -10.863  14.651  65.441  1.00  0.00    -0.356 C  
BRANCH  10  11
HETATM   11  C   UNL     1     -11.973  15.177  64.534  1.00  0.00    -0.319 C  
HETATM   12  O   UNL     1     -11.606  16.420  63.943  1.00  0.00    -1.564 OA 
HETATM   13  H   UNL     1     -12.296  16.748  63.378  1.00  0.00     0.000 HD 
ENDBRANCH  10  11
ENDBRANCH   6  10
TORSDOF 2
ENDMDL
MODEL        4
REMARK 921   NORMALIZED FREE ENERGY PREDICTED BY IDOCK:   -4.86 KCAL/MOL
REMARK 922        TOTAL FREE ENERGY PREDICTED BY IDOCK:   -5.71 KCAL/MOL
REMARK 923 INTER-LIGAND FREE ENERGY PREDICTED BY IDOCK:   -5.48 KCAL/MOL
REMARK 924 INTRA-LIGAND FREE ENERGY PREDICTED BY IDOCK:   -0.22 KCAL/MOL
REMARK 927      BINDING AFFINITY PREDICTED BY RF-SCORE:    0.00 PKD
ROOT
HETATM    1  C   UNL     1      -8.810  14.354  67.805  1.00  0.00    -0.186 C  
HETATM    2  C   UNL     1     -10.016  13.740  67.186  1.00  0.00    -0.243 A  
HETATM    3  N   UNL     1     -10.728  12.779  67.742  1.00  0.00    -0.217 NA 
HETATM    4  C   UNL     1     -11.721  12.476  66.853  1.00  0.00    -0.377 A  
HETATM    5  C   UNL     1     -11.628  13.280  65.746  1.00  0.00    -0.337 A  
HETATM    6  N   UNL     1     -10.536  14.092  65.948  1.00  0.00    -0.296 NA 
HETATM    7  N   UNL     1     -12.487  13.280  64.612  1.00  0.00    -0.372 N  
HETATM    8  O   UNL     1     -13.348  12.396  64.571  1.00  0.00    -0.800 OA 
HETATM    9  O   UNL     1     -12.326  14.168  63.767  1.00  0.00    -0.716 OA 
ENDROOT
BRANCH   6  10
HETATM   10  C   UNL     1      -9.957  15.085  65.054  1.00  0.00    -0.153 C  
BRANCH  10  11
HETATM   11  C   UNL     1     -10.611  16.459  65.168  1.00  0.00    -0.264 C  
HETATM   12  O   UNL     1     -11.468  16.713  64.058  1.00  0.00    -1.523 OA 
HETATM   13  H   UNL     1     -11.875  17.569  64.128  1.00  0.00     0.000 HD 
ENDBRANCH  10  11
ENDBRANCH   6  10
TORSDOF 2
ENDMDL
MODEL        5
REMARK 921   NORMALIZED FREE ENERGY PREDICTED BY IDOCK:   -4.85 KCAL/MOL
REMARK 922        TOTAL FREE ENERGY PREDICTED BY IDOCK:   -5.69 KCAL/MOL
REMARK 923 INTER-LIGAND FREE ENERGY PREDICTED BY IDOCK:   -5.31 KCAL/MOL
REMARK 924 INTRA-LIGAND FREE ENERGY PREDICTED BY IDOCK:   -0.38 KCAL/MOL
REMARK 927      BINDING AFFINITY PREDICTED BY RF-SCORE:    0.00 PKD
ROOT
HETATM    1  C   UNL     1      -9.762  17.451  66.169  1.00  0.00    -0.235 C  
HETATM    2  C   UNL     1     -10.633  16.394  65.586  1.00  0.00    -0.323 A  
HETATM    3  N   UNL     1     -11.226  16.484  64.412  1.00  0.00    -0.980 NA 
HETATM    4  C   UNL     1     -11.949  15.334  64.260  1.00  0.00    -0.223 A  
HETATM    5  C   UNL     1     -11.777  14.518  65.348  1.00  0.00    -0.354 A  
HETATM    6  N   UNL     1     -10.937  15.189  66.206  1.00  0.00    -0.340 NA 
HETATM    7  N   UNL     1     -12.348  13.232  65.554  1.00  0.00    -0.462 N  
HETATM    8  O   UNL     1     -13.167  12.850  64.712  1.00  0.00    -0.764 OA 
HETATM    9  O   UNL     1     -11.975  12.585  66.539  1.00  0.00    -0.522 OA 
ENDROOT
BRANCH   6  10
HETATM   10  C   UNL     1     -10.483  14.798  67.533  1.00  0.00    -0.245 C  
BRANCH  10  11
HETATM   11  C   UNL     1     -11.345  15.361  68.660  1.00  0.00    -0.330 C  
HETATM   12  O   UNL     1     -12.559  14.626  68.792  1.00  0.00    -0.535 OA 
HETATM   13  H   UNL     1     -13.096  14.976  69.494  1.00  0.00     0.000 HD 
ENDBRANCH  10  11
ENDBRANCH   6  10
TORSDOF 2
ENDMDL
MODEL        6
REMARK 921   NORMALIZED FREE ENERGY PREDICTED BY IDOCK:   -4.82 KCAL/MOL
REMARK 922        TOTAL FREE ENERGY PREDICTED BY IDOCK:   -5.66 KCAL/MOL
REMARK 923 INTER-LIGAND FREE ENERGY PREDICTED BY IDOCK:   -5.30 KCAL/MOL
REMARK 924 INTRA-LIGAND FREE ENERGY PREDICTED BY IDOCK:   -0.35 KCAL/MOL
REMARK 927      BINDING AFFINITY PREDICTED BY RF-SCORE:    0.00 PKD
ROOT
HETATM    1  C   UNL     1     -11.536  11.733  67.268  1.00  0.00    -0.373 C  
HETATM    2  C   UNL     1     -11.747  12.838  66.294  1.00  0.00    -0.402 A  
HETATM    3  N   UNL     1     -12.656  12.823  65.339  1.00  0.00    -0.636 NA 
HETATM    4  C   UNL     1     -12.509  13.995  64.652  1.00  0.00    -0.335 A  
HETATM    5  C   UNL     1     -11.509  14.749  65.209  1.00  0.00    -0.352 A  
HETATM    6  N   UNL     1     -11.011  14.015  66.262  1.00  0.00    -0.298 NA 
HETATM    7  N   UNL     1     -11.069  16.035  64.790  1.00  0.00    -0.441 N  
HETATM    8  O   UNL     1     -11.571  16.479  63.753  1.00  0.00    -1.109 OA 
HETATM    9  O   UNL     1     -10.241  16.621  65.497  1.00  0.00    -0.550 OA 
ENDROOT
BRANCH   6  10
HETATM   10  C   UNL     1      -9.899  14.327  67.148  1.00  0.00    -0.252 C  
BRANCH  10  11
HETATM   11  C   UNL     1     -10.339  14.882  68.500  1.00  0.00    -0.237 C  
HETATM   12  O   UNL     1     -11.089  16.083  68.342  1.00  0.00    -0.318 OA 
HETATM   13  H   UNL     1     -11.363  16.430  69.183  1.00  0.00     0.000 HD 
ENDBRANCH  10  11
ENDBRANCH   6  10
TORSDOF 2
ENDMDL
MODEL        7
REMARK 921   NORMALIZED FREE ENERGY PREDICTED BY IDOCK:   -4.79 KCAL/MOL
REMARK 922        TOTAL FREE ENERGY PREDICTED BY IDOCK:   -5.63 KCAL/MOL
REMARK 923 INTER-LIGAND FREE ENERGY PREDICTED BY IDOCK:   -5.52 KCAL/MOL
REMARK 924 INTRA-LIGAND FREE ENERGY PREDICTED BY IDOCK:   -0.11 KCAL/MOL
REMARK 927      BINDING AFFINITY PREDICTED BY RF-SCORE:    0.00 PKD
ROOT
HETATM    1  C   UNL     1     -11.602  11.946  66.885  1.00  0.00    -0.358 C  
HETATM    2  C   UNL     1     -11.210  13.362  66.646  1.00  0.00    -0.309 A  
HETATM    3  N   UNL     1     -10.472  14.077  67.472  1.00  0.00    -0.251 NA 
HETATM    4  C   UNL     1     -10.365  15.319  66.911  1.00  0.00    -0.278 A  
HETATM    5  C   UNL     1     -11.029  15.356  65.712  1.00  0.00    -0.309 A  
HETATM    6  N   UNL     1     -11.577  14.107  65.534  1.00  0.00    -0.329 NA 
HETATM    7  N   UNL     1     -11.133  16.462  64.824  1.00  0.00    -0.348 N  
HETATM    8  O   UNL     1     -10.662  17.533  65.217  1.00  0.00    -0.656 OA 
HETATM    9  O   UNL     1     -11.663  16.271  63.723  1.00  0.00    -0.969 OA 
ENDROOT
BRANCH   6  10
HETATM   10  C   UNL     1     -12.432  13.629  64.457  1.00  0.00    -0.287 C  
BRANCH  10  11
HETATM   11  C   UNL     1     -11.694  12.771  63.432  1.00  0.00    -0.488 C  
HETATM   12  O   UNL     1     -12.417  11.576  63.149  1.00  0.00    -0.936 OA 
HETATM   13  H   UNL     1     -11.958  11.042  62.511  1.00  0.00     0.000 HD 
ENDBRANCH  10  11
ENDBRANCH   6  10
TORSDOF 2
ENDMDL
MODEL        8
REMARK 921   NORMALIZED FREE ENERGY PREDICTED BY IDOCK:   -4.68 KCAL/MOL
REMARK 922        TOTAL FREE ENERGY PREDICTED BY IDOCK:   -5.51 KCAL/MOL
REMARK 923 INTER-LIGAND FREE ENERGY PREDICTED BY IDOCK:   -5.19 KCAL/MOL
REMARK 924 INTRA-LIGAND FREE ENERGY PREDICTED BY IDOCK:   -0.32 KCAL/MOL
REMARK 927      BINDING AFFINITY PREDICTED BY RF-SCORE:    0.00 PKD
ROOT
HETATM    1  C   UNL     1      -9.961  16.190  68.078  1.00  0.00    -0.238 C  
HETATM    2  C   UNL     1     -10.462  15.796  66.733  1.00  0.00    -0.305 A  
HETATM    3  N   UNL     1     -10.100  16.377  65.606  1.00  0.00    -0.523 NA 
HETATM    4  C   UNL     1     -10.797  15.751  64.611  1.00  0.00    -0.227 A  
HETATM    5  C   UNL     1     -11.582  14.757  65.136  1.00  0.00    -0.358 A  
HETATM    6  N   UNL     1     -11.377  14.779  66.496  1.00  0.00    -0.351 NA 
HETATM    7  N   UNL     1     -12.438  13.874  64.422  1.00  0.00    -0.330 N  
HETATM    8  O   UNL     1     -12.569  14.088  63.212  1.00  0.00    -0.801 OA 
HETATM    9  O   UNL     1     -12.970  12.951  65.050  1.00  0.00    -0.777 OA 
ENDROOT
BRANCH   6  10
HETATM   10  C   UNL     1     -12.012  13.973  67.529  1.00  0.00    -0.395 C  
BRANCH  10  11
HETATM   11  C   UNL     1     -11.252  12.689  67.850  1.00  0.00    -0.266 C  
HETATM   12  O   UNL     1     -11.965  11.543  67.393  1.00  0.00    -0.623 OA 
HETATM   13  H   UNL     1     -11.492  10.744  67.593  1.00  0.00     0.000 HD 
ENDBRANCH  10  11
ENDBRANCH   6  10
TORSDOF 2
ENDMDL
MODEL        9
REMARK 921   NORMALIZED FREE ENERGY PREDICTED BY IDOCK:   -4.67 KCAL/MOL
REMARK 922        TOTAL FREE ENERGY PREDICTED BY IDOCK:   -5.49 KCAL/MOL
REMARK 923 INTER-LIGAND FREE ENERGY PREDICTED BY IDOCK:   -5.28 KCAL/MOL
REMARK 924 INTRA-LIGAND FREE ENERGY PREDICTED BY IDOCK:   -0.21 KCAL/MOL
REMARK 927      BINDING AFFINITY PREDICTED BY RF-SCORE:    0.00 PKD
ROOT
HETATM    1  C   UNL     1     -11.648  15.775  68.805  1.00  0.00    -0.401 C  
HETATM    2  C   UNL     1     -11.895  14.473  69.481  1.00  0.00    -0.329 A  
HETATM    3  N   UNL     1     -11.404  13.319  69.073  1.00  0.00    -0.270 NA 
HETATM    4  C   UNL     1     -11.883  12.373  69.936  1.00  0.00    -0.305 A  
HETATM    5  C   UNL     1     -12.660  12.961  70.900  1.00  0.00    -0.270 A  
HETATM    6  N   UNL     1     -12.678  14.307  70.616  1.00  0.00    -0.345 NA 
HETATM    7  N   UNL     1     -13.320  12.314  71.981  1.00  0.00    -0.477 N  
HETATM    8  O   UNL     1     -13.272  11.080  71.999  1.00  0.00    -0.499 OA 
HETATM    9  O   UNL     1     -13.871  13.024  72.830  1.00  0.00    -0.593 OA 
ENDROOT
BRANCH   6  10
HETATM   10  C   UNL     1     -13.404  15.374  71.290  1.00  0.00    -0.520 C  
BRANCH  10  11
HETATM   11  C   UNL     1     -12.634  15.991  72.454  1.00  0.00    -0.442 C  
HETATM   12  O   UNL     1     -13.444  16.063  73.624  1.00  0.00    -0.829 OA 
HETATM   13  H   UNL     1     -12.965  16.447  74.349  1.00  0.00     0.000 HD 
ENDBRANCH  10  11
ENDBRANCH   6  10
TORSDOF 2
ENDMDL
MODEL       10
REMARK 921   NORMALIZED FREE ENERGY PREDICTED BY IDOCK:   -4.58 KCAL/MOL
REMARK 922        TOTAL FREE ENERGY PREDICTED BY IDOCK:   -5.39 KCAL/MOL
REMARK 923 INTER-LIGAND FREE ENERGY PREDICTED BY IDOCK:   -5.03 KCAL/MOL
REMARK 924 INTRA-LIGAND FREE ENERGY PREDICTED BY IDOCK:   -0.36 KCAL/MOL
REMARK 927      BINDING AFFINITY PREDICTED BY RF-SCORE:    0.00 PKD
ROOT
HETATM    1  C   UNL     1      -9.778  16.960  65.978  1.00  0.00    -0.260 C  
HETATM    2  C   UNL     1     -10.707  15.957  65.389  1.00  0.00    -0.399 A  
HETATM    3  N   UNL     1     -11.393  16.142  64.279  1.00  0.00    -0.667 NA 
HETATM    4  C   UNL     1     -12.141  15.012  64.098  1.00  0.00    -0.223 A  
HETATM    5  C   UNL     1     -11.891  14.112  65.102  1.00  0.00    -0.372 A  
HETATM    6  N   UNL     1     -10.975  14.709  65.938  1.00  0.00    -0.324 NA 
HETATM    7  N   UNL     1     -12.460  12.818  65.255  1.00  0.00    -0.496 N  
HETATM    8  O   UNL     1     -13.349  12.507  64.457  1.00  0.00    -0.780 OA 
HETATM    9  O   UNL     1     -12.015  12.094  66.154  1.00  0.00    -0.593 OA 
ENDROOT
BRANCH   6  10
HETATM   10  C   UNL     1     -10.418  14.213  67.188  1.00  0.00    -0.270 C  
BRANCH  10  11
HETATM   11  C   UNL     1      -9.021  13.618  67.037  1.00  0.00    -0.236 C  
HETATM   12  O   UNL     1      -9.034  12.497  66.156  1.00  0.00    -0.415 OA 
HETATM   13  H   UNL     1      -8.164  12.126  66.062  1.00  0.00     0.000 HD 
ENDBRANCH  10  11
ENDBRANCH   6  10
TORSDOF 2
ENDMDL
MODEL       11
REMARK 921   NORMALIZED FREE ENERGY PREDICTED BY IDOCK:   -4.54 KCAL/MOL
REMARK 922        TOTAL FREE ENERGY PREDICTED BY IDOCK:   -5.35 KCAL/MOL
REMARK 923 INTER-LIGAND FREE ENERGY PREDICTED BY IDOCK:   -5.11 KCAL/MOL
REMARK 924 INTRA-LIGAND FREE ENERGY PREDICTED BY IDOCK:   -0.25 KCAL/MOL
REMARK 927      BINDING AFFINITY PREDICTED BY RF-SCORE:    0.00 PKD
ROOT
HETATM    1  C   UNL     1     -11.086  11.389  65.407  1.00  0.00    -0.196 C  
HETATM    2  C   UNL     1     -11.281  12.408  66.474  1.00  0.00    -0.319 A  
HETATM    3  N   UNL     1     -11.735  12.140  67.683  1.00  0.00    -0.472 NA 
HETATM    4  C   UNL     1     -11.795  13.335  68.343  1.00  0.00    -0.360 A  
HETATM    5  C   UNL     1     -11.349  14.347  67.532  1.00  0.00    -0.328 A  
HETATM    6  N   UNL     1     -11.019  13.764  66.330  1.00  0.00    -0.297 NA 
HETATM    7  N   UNL     1     -11.243  15.727  67.862  1.00  0.00    -0.336 N  
HETATM    8  O   UNL     1     -11.695  16.069  68.959  1.00  0.00    -0.370 OA 
HETATM    9  O   UNL     1     -10.694  16.475  67.045  1.00  0.00    -0.286 OA 
ENDROOT
BRANCH   6  10
HETATM   10  C   UNL     1     -10.555  14.397  65.104  1.00  0.00    -0.410 C  
BRANCH  10  11
HETATM   11  C   UNL     1     -11.687  14.913  64.221  1.00  0.00    -0.247 C  
HETATM   12  O   UNL     1     -11.486  16.282  63.878  1.00  0.00    -1.484 OA 
HETATM   13  H   UNL     1     -12.191  16.604  63.329  1.00  0.00     0.000 HD 
ENDBRANCH  10  11
ENDBRANCH   6  10
TORSDOF 2
ENDMDL
MODEL       12
REMARK 921   NORMALIZED FREE ENERGY PREDICTED BY IDOCK:   -4.45 KCAL/MOL
REMARK 922        TOTAL FREE ENERGY PREDICTED BY IDOCK:   -5.25 KCAL/MOL
REMARK 923 INTER-LIGAND FREE ENERGY PREDICTED BY IDOCK:   -4.88 KCAL/MOL
REMARK 924 INTRA-LIGAND FREE ENERGY PREDICTED BY IDOCK:   -0.36 KCAL/MOL
REMARK 927      BINDING AFFINITY PREDICTED BY RF-SCORE:    0.00 PKD
ROOT
HETATM    1  C   UNL     1      -9.367   9.995  64.576  1.00  0.00    -0.345 C  
HETATM    2  C   UNL     1     -10.415  11.050  64.517  1.00  0.00    -0.342 A  
HETATM    3  N   UNL     1     -11.067  11.389  63.423  1.00  0.00    -0.317 NA 
HETATM    4  C   UNL     1     -11.911  12.404  63.778  1.00  0.00    -0.502 A  
HETATM    5  C   UNL     1     -11.788  12.675  65.116  1.00  0.00    -0.396 A  
HETATM    6  N   UNL     1     -10.829  11.815  65.600  1.00  0.00    -0.286 NA 
HETATM    7  N   UNL     1     -12.507  13.649  65.863  1.00  0.00    -0.461 N  
HETATM    8  O   UNL     1     -13.248  14.401  65.222  1.00  0.00    -0.619 OA 
HETATM    9  O   UNL     1     -12.357  13.662  67.090  1.00  0.00    -0.336 OA 
ENDROOT
BRANCH   6  10
HETATM   10  C   UNL     1     -10.274  11.727  66.943  1.00  0.00    -0.209 C  
BRANCH  10  11
HETATM   11  C   UNL     1     -10.936  10.654  67.803  1.00  0.00    -0.306 C  
HETATM   12  O   UNL     1     -12.250  11.046  68.190  1.00  0.00    -0.765 OA 
HETATM   13  H   UNL     1     -12.663  10.379  68.726  1.00  0.00     0.000 HD 
ENDBRANCH  10  11
ENDBRANCH   6  10
TORSDOF 2
ENDMDL
MODEL       13
REMARK 921   NORMALIZED FREE ENERGY PREDICTED BY IDOCK:   -4.43 KCAL/MOL
REMARK 922        TOTAL FREE ENERGY PREDICTED BY IDOCK:   -5.23 KCAL/MOL
REMARK 923 INTER-LIGAND FREE ENERGY PREDICTED BY IDOCK:   -5.11 KCAL/MOL
REMARK 924 INTRA-LIGAND FREE ENERGY PREDICTED BY IDOCK:   -0.12 KCAL/MOL
REMARK 927      BINDING AFFINITY PREDICTED BY RF-SCORE:    0.00 PKD
ROOT
HETATM    1  C   UNL     1     -12.081  14.150  68.316  1.00  0.00    -0.297 C  
HETATM    2  C   UNL     1     -11.670  13.133  67.309  1.00  0.00    -0.374 A  
HETATM    3  N   UNL     1     -11.087  11.988  67.606  1.00  0.00    -0.247 NA 
HETATM    4  C   UNL     1     -10.847  11.362  66.415  1.00  0.00    -0.271 A  
HETATM    5  C   UNL     1     -11.311  12.126  65.375  1.00  0.00    -0.338 A  
HETATM    6  N   UNL     1     -11.838  13.266  65.937  1.00  0.00    -0.372 NA 
HETATM    7  N   UNL     1     -11.262  11.809  63.990  1.00  0.00    -0.369 N  
HETATM    8  O   UNL     1     -10.647  10.784  63.679  1.00  0.00    -0.253 OA 
HETATM    9  O   UNL     1     -11.850  12.561  63.204  1.00  0.00    -0.437 OA 
ENDROOT
BRANCH   6  10
HETATM   10  C   UNL     1     -12.404  14.433  65.277  1.00  0.00    -0.371 C  
BRANCH  10  11
HETATM   11  C   UNL     1     -11.353  15.445  64.828  1.00  0.00    -0.376 C  
HETATM   12  O   UNL     1     -11.814  16.201  63.711  1.00  0.00    -1.408 OA 
HETATM   13  H   UNL     1     -11.160  16.832  63.431  1.00  0.00     0.000 HD 
ENDBRANCH  10  11
ENDBRANCH   6  10
TORSDOF 2
ENDMDL
MODEL       14
REMARK 921   NORMALIZED FREE ENERGY PREDICTED BY IDOCK:   -4.43 KCAL/MOL
REMARK 922        TOTAL FREE ENERGY PREDICTED BY IDOCK:   -5.22 KCAL/MOL
REMARK 923 INTER-LIGAND FREE ENERGY PREDICTED BY IDOCK:   -4.88 KCAL/MOL
REMARK 924 INTRA-LIGAND FREE ENERGY PREDICTED BY IDOCK:   -0.34 KCAL/MOL
REMARK 927      BINDING AFFINITY PREDICTED BY RF-SCORE:    0.00 PKD
ROOT
HETATM    1  C   UNL     1      -9.100  14.492  68.249  1.00  0.00    -0.196 C  
HETATM    2  C   UNL     1     -10.154  14.391  67.203  1.00  0.00    -0.253 A  
HETATM    3  N   UNL     1     -11.012  13.395  67.107  1.00  0.00    -0.276 NA 
HETATM    4  C   UNL     1     -11.784  13.659  66.011  1.00  0.00    -0.358 A  
HETATM    5  C   UNL     1     -11.407  14.847  65.440  1.00  0.00    -0.346 A  
HETATM    6  N   UNL     1     -10.360  15.324  66.195  1.00  0.00    -0.286 NA 
HETATM    7  N   UNL     1     -11.980  15.469  64.297  1.00  0.00    -0.293 N  
HETATM    8  O   UNL     1     -12.843  14.825  63.692  1.00  0.00    -0.619 OA 
HETATM    9  O   UNL     1     -11.595  16.607  64.005  1.00  0.00    -1.197 OA 
ENDROOT
BRANCH   6  10
HETATM   10  C   UNL     1      -9.553  16.517  65.987  1.00  0.00    -0.290 C  
BRANCH  10  11
HETATM   11  C   UNL     1     -10.059  17.734  66.758  1.00  0.00    -0.349 C  
HETATM   12  O   UNL     1     -10.756  18.632  65.897  1.00  0.00    -0.420 OA 
HETATM   13  H   UNL     1     -11.071  19.389  66.376  1.00  0.00     0.000 HD 
ENDBRANCH  10  11
ENDBRANCH   6  10
TORSDOF 2
ENDMDL
MODEL       15
REMARK 921   NORMALIZED FREE ENERGY PREDICTED BY IDOCK:   -4.41 KCAL/MOL
REMARK 922        TOTAL FREE ENERGY PREDICTED BY IDOCK:   -5.20 KCAL/MOL
REMARK 923 INTER-LIGAND FREE ENERGY PREDICTED BY IDOCK:   -4.89 KCAL/MOL
REMARK 924 INTRA-LIGAND FREE ENERGY PREDICTED BY IDOCK:   -0.31 KCAL/MOL
REMARK 927      BINDING AFFINITY PREDICTED BY RF-SCORE:    0.00 PKD
ROOT
HETATM    1  C   UNL     1      -9.815  10.137  67.052  1.00  0.00    -0.238 C  
HETATM    2  C   UNL     1     -10.381  10.907  65.911  1.00  0.00    -0.250 A  
HETATM    3  N   UNL     1     -10.041  10.724  64.650  1.00  0.00    -0.322 NA 
HETATM    4  C   UNL     1     -10.755  11.636  63.925  1.00  0.00    -0.398 A  
HETATM    5  C   UNL     1     -11.561  12.374  64.753  1.00  0.00    -0.341 A  
HETATM    6  N   UNL     1     -11.327  11.917  66.029  1.00  0.00    -0.335 NA 
HETATM    7  N   UNL     1     -12.462  13.407  64.375  1.00  0.00    -0.317 N  
HETATM    8  O   UNL     1     -12.446  13.747  63.188  1.00  0.00    -0.786 OA 
HETATM    9  O   UNL     1     -13.205  13.873  65.246  1.00  0.00    -0.774 OA 
ENDROOT
BRANCH   6  10
HETATM   10  C   UNL     1     -11.875  12.400  67.288  1.00  0.00    -0.287 C  
BRANCH  10  11
HETATM   11  C   UNL     1     -11.188  13.661  67.805  1.00  0.00    -0.285 C  
HETATM   12  O   UNL     1     -12.091  14.763  67.831  1.00  0.00    -0.560 OA 
HETATM   13  H   UNL     1     -11.664  15.549  68.153  1.00  0.00     0.000 HD 
ENDBRANCH  10  11
ENDBRANCH   6  10
TORSDOF 2
ENDMDL
MODEL       16
REMARK 921   NORMALIZED FREE ENERGY PREDICTED BY IDOCK:   -4.39 KCAL/MOL
REMARK 922        TOTAL FREE ENERGY PREDICTED BY IDOCK:   -5.18 KCAL/MOL
REMARK 923 INTER-LIGAND FREE ENERGY PREDICTED BY IDOCK:   -4.81 KCAL/MOL
REMARK 924 INTRA-LIGAND FREE ENERGY PREDICTED BY IDOCK:   -0.37 KCAL/MOL
REMARK 927      BINDING AFFINITY PREDICTED BY RF-SCORE:    0.00 PKD
ROOT
HETATM    1  C   UNL     1     -11.721  10.390  70.264  1.00  0.00    -0.406 C  
HETATM    2  C   UNL     1     -12.364  11.590  70.865  1.00  0.00    -0.359 A  
HETATM    3  N   UNL     1     -13.221  11.551  71.866  1.00  0.00    -0.456 NA 
HETATM    4  C   UNL     1     -13.597  12.844  72.099  1.00  0.00    -0.495 A  
HETATM    5  C   UNL     1     -12.942  13.690  71.241  1.00  0.00    -0.322 A  
HETATM    6  N   UNL     1     -12.151  12.896  70.443  1.00  0.00    -0.353 NA 
HETATM    7  N   UNL     1     -13.053  15.107  71.184  1.00  0.00    -0.414 N  
HETATM    8  O   UNL     1     -13.903  15.625  71.914  1.00  0.00    -0.471 OA 
HETATM    9  O   UNL     1     -12.284  15.716  70.431  1.00  0.00    -0.381 OA 
ENDROOT
BRANCH   6  10
HETATM   10  C   UNL     1     -11.299  13.282  69.327  1.00  0.00    -0.253 C  
BRANCH  10  11
HETATM   11  C   UNL     1     -12.002  13.208  67.974  1.00  0.00    -0.304 C  
HETATM   12  O   UNL     1     -12.530  14.478  67.601  1.00  0.00    -0.595 OA 
HETATM   13  H   UNL     1     -12.968  14.433  66.759  1.00  0.00     0.000 HD 
ENDBRANCH  10  11
ENDBRANCH   6  10
TORSDOF 2
ENDMDL
MODEL       17
REMARK 921   NORMALIZED FREE ENERGY PREDICTED BY IDOCK:   -4.35 KCAL/MOL
REMARK 922        TOTAL FREE ENERGY PREDICTED BY IDOCK:   -5.14 KCAL/MOL
REMARK 923 INTER-LIGAND FREE ENERGY PREDICTED BY IDOCK:   -4.77 KCAL/MOL
REMARK 924 INTRA-LIGAND FREE ENERGY PREDICTED BY IDOCK:   -0.37 KCAL/MOL
REMARK 927      BINDING AFFINITY PREDICTED BY RF-SCORE:    0.00 PKD
ROOT
HETATM    1  C   UNL     1     -12.272  14.117  66.934  1.00  0.00    -0.400 C  
HETATM    2  C   UNL     1     -11.729  12.731  66.911  1.00  0.00    -0.380 A  
HETATM    3  N   UNL     1     -11.775  11.898  67.932  1.00  0.00    -0.487 NA 
HETATM    4  C   UNL     1     -11.151  10.754  67.520  1.00  0.00    -0.308 A  
HETATM    5  C   UNL     1     -10.738  10.881  66.219  1.00  0.00    -0.176 A  
HETATM    6  N   UNL     1     -11.101  12.146  65.819  1.00  0.00    -0.307 NA 
HETATM    7  N   UNL     1     -10.068   9.903  65.433  1.00  0.00    -0.281 N  
HETATM    8  O   UNL     1      -9.732   8.865  66.011  1.00  0.00    -0.260 OA 
HETATM    9  O   UNL     1      -9.890  10.149  64.235  1.00  0.00    -0.315 OA 
ENDROOT
BRANCH   6  10
HETATM   10  C   UNL     1     -10.844  12.813  64.551  1.00  0.00    -0.347 C  
BRANCH  10  11
HETATM   11  C   UNL     1     -12.049  12.819  63.614  1.00  0.00    -0.543 C  
HETATM   12  O   UNL     1     -12.232  11.544  63.005  1.00  0.00    -0.968 OA 
HETATM   13  H   UNL     1     -12.982  11.547  62.422  1.00  0.00     0.000 HD 
ENDBRANCH  10  11
ENDBRANCH   6  10
TORSDOF 2
ENDMDL
MODEL       18
REMARK 921   NORMALIZED FREE ENERGY PREDICTED BY IDOCK:   -4.31 KCAL/MOL
REMARK 922        TOTAL FREE ENERGY PREDICTED BY IDOCK:   -5.09 KCAL/MOL
REMARK 923 INTER-LIGAND FREE ENERGY PREDICTED BY IDOCK:   -4.69 KCAL/MOL
REMARK 924 INTRA-LIGAND FREE ENERGY PREDICTED BY IDOCK:   -0.40 KCAL/MOL
REMARK 927      BINDING AFFINITY PREDICTED BY RF-SCORE:    0.00 PKD
ROOT
HETATM    1  C   UNL     1     -14.223  15.540  72.283  1.00  0.00    -0.617 C  
HETATM    2  C   UNL     1     -13.647  14.222  71.904  1.00  0.00    -0.413 A  
HETATM    3  N   UNL     1     -13.893  13.093  72.540  1.00  0.00    -0.684 NA 
HETATM    4  C   UNL     1     -13.159  12.129  71.906  1.00  0.00    -0.369 A  
HETATM    5  C   UNL     1     -12.471  12.673  70.853  1.00  0.00    -0.278 A  
HETATM    6  N   UNL     1     -12.774  14.016  70.844  1.00  0.00    -0.345 NA 
HETATM    7  N   UNL     1     -11.614  11.992  69.945  1.00  0.00    -0.275 N  
HETATM    8  O   UNL     1     -11.383  10.803  70.189  1.00  0.00    -0.290 OA 
HETATM    9  O   UNL     1     -11.181  12.624  68.975  1.00  0.00    -0.256 OA 
ENDROOT
BRANCH   6  10
HETATM   10  C   UNL     1     -12.262  15.062  69.972  1.00  0.00    -0.328 C  
BRANCH  10  11
HETATM   11  C   UNL     1     -11.014  15.751  70.519  1.00  0.00    -0.343 C  
HETATM   12  O   UNL     1      -9.836  15.028  70.173  1.00  0.00    -0.488 OA 
HETATM   13  H   UNL     1      -9.059  15.456  70.513  1.00  0.00     0.000 HD 
ENDBRANCH  10  11
ENDBRANCH   6  10
TORSDOF 2
ENDMDL
MODEL       19
REMARK 921   NORMALIZED FREE ENERGY PREDICTED BY IDOCK:   -4.27 KCAL/MOL
REMARK 922        TOTAL FREE ENERGY PREDICTED BY IDOCK:   -5.05 KCAL/MOL
REMARK 923 INTER-LIGAND FREE ENERGY PREDICTED BY IDOCK:   -4.68 KCAL/MOL
REMARK 924 INTRA-LIGAND FREE ENERGY PREDICTED BY IDOCK:   -0.37 KCAL/MOL
REMARK 927      BINDING AFFINITY PREDICTED BY RF-SCORE:    0.00 PKD
ROOT
HETATM    1  C   UNL     1     -12.540  11.984  63.544  1.00  0.00    -0.625 C  
HETATM    2  C   UNL     1     -12.054  13.302  64.036  1.00  0.00    -0.447 A  
HETATM    3  N   UNL     1     -12.610  14.459  63.733  1.00  0.00    -0.770 NA 
HETATM    4  C   UNL     1     -11.859  15.418  64.352  1.00  0.00    -0.256 A  
HETATM    5  C   UNL     1     -10.841  14.838  65.063  1.00  0.00    -0.425 A  
HETATM    6  N   UNL     1     -10.955  13.480  64.866  1.00  0.00    -0.332 NA 
HETATM    7  N   UNL     1      -9.860  15.500  65.852  1.00  0.00    -0.326 N  
HETATM    8  O   UNL     1      -9.860  16.734  65.813  1.00  0.00    -0.505 OA 
HETATM    9  O   UNL     1      -9.097  14.802  66.530  1.00  0.00    -0.265 OA 
ENDROOT
BRANCH   6  10
HETATM   10  C   UNL     1     -10.091  12.411  65.344  1.00  0.00    -0.269 C  
BRANCH  10  11
HETATM   11  C   UNL     1     -10.650  11.677  66.560  1.00  0.00    -0.253 C  
HETATM   12  O   UNL     1     -10.509  12.461  67.742  1.00  0.00    -0.211 OA 
HETATM   13  H   UNL     1     -10.857  12.005  68.499  1.00  0.00     0.000 HD 
ENDBRANCH  10  11
ENDBRANCH   6  10
TORSDOF 2
ENDMDL
MODEL       20
REMARK 921   NORMALIZED FREE ENERGY PREDICTED BY IDOCK:   -4.25 KCAL/MOL
REMARK 922        TOTAL FREE ENERGY PREDICTED BY IDOCK:   -5.03 KCAL/MOL
REMARK 923 INTER-LIGAND FREE ENERGY PREDICTED BY IDOCK:   -4.66 KCAL/MOL
REMARK 924 INTRA-LIGAND FREE ENERGY PREDICTED BY IDOCK:   -0.36 KCAL/MOL
REMARK 927      BINDING AFFINITY PREDICTED BY RF-SCORE:    0.00 PKD
ROOT
HETATM    1  C   UNL     1     -10.517  16.272  65.367  1.00  0.00    -0.365 C  
HETATM    2  C   UNL     1     -10.930  15.389  66.492  1.00  0.00    -0.271 A  
HETATM    3  N   UNL     1     -11.135  15.805  67.726  1.00  0.00    -0.331 NA 
HETATM    4  C   UNL     1     -11.467  14.697  68.454  1.00  0.00    -0.311 A  
HETATM    5  C   UNL     1     -11.486  13.588  67.647  1.00  0.00    -0.318 A  
HETATM    6  N   UNL     1     -11.140  14.020  66.387  1.00  0.00    -0.312 NA 
HETATM    7  N   UNL     1     -11.801  12.255  68.029  1.00  0.00    -0.348 N  
HETATM    8  O   UNL     1     -11.979  12.053  69.234  1.00  0.00    -0.302 OA 
HETATM    9  O   UNL     1     -11.896  11.406  67.136  1.00  0.00    -0.566 OA 
ENDROOT
BRANCH   6  10
HETATM   10  C   UNL     1     -10.950  13.240  65.173  1.00  0.00    -0.299 C  
BRANCH  10  11
HETATM   11  C   UNL     1     -12.144  13.295  64.224  1.00  0.00    -0.416 C  
HETATM   12  O   UNL     1     -13.146  12.356  64.605  1.00  0.00    -0.825 OA 
HETATM   13  H   UNL     1     -13.890  12.391  64.014  1.00  0.00     0.000 HD 
ENDBRANCH  10  11
ENDBRANCH   6  10
TORSDOF 2
ENDMDL
MODEL       21
REMARK 921   NORMALIZED FREE ENERGY PREDICTED BY IDOCK:   -4.23 KCAL/MOL
REMARK 922        TOTAL FREE ENERGY PREDICTED BY IDOCK:   -5.00 KCAL/MOL
REMARK 923 INTER-LIGAND FREE ENERGY PREDICTED BY IDOCK:   -4.69 KCAL/MOL
REMARK 924 INTRA-LIGAND FREE ENERGY PREDICTED BY IDOCK:   -0.31 KCAL/MOL
REMARK 927      BINDING AFFINITY PREDICTED BY RF-SCORE:    0.00 PKD
ROOT
HETATM    1  C   UNL     1      -9.756  14.161  68.739  1.00  0.00    -0.148 C  
HETATM    2  C   UNL     1     -10.076  14.912  67.494  1.00  0.00    -0.228 A  
HETATM    3  N   UNL     1      -9.502  16.046  67.143  1.00  0.00    -0.214 NA 
HETATM    4  C   UNL     1     -10.087  16.422  65.966  1.00  0.00    -0.353 A  
HETATM    5  C   UNL     1     -11.017  15.492  65.581  1.00  0.00    -0.303 A  
HETATM    6  N   UNL     1     -11.021  14.521  66.555  1.00  0.00    -0.315 NA 
HETATM    7  N   UNL     1     -11.822  15.519  64.408  1.00  0.00    -0.322 N  
HETATM    8  O   UNL     1     -11.749  16.537  63.712  1.00  0.00    -1.086 OA 
HETATM    9  O   UNL     1     -12.514  14.525  64.160  1.00  0.00    -0.707 OA 
ENDROOT
BRANCH   6  10
HETATM   10  C   UNL     1     -11.867  13.341  66.667  1.00  0.00    -0.395 C  
BRANCH  10  11
HETATM   11  C   UNL     1     -11.276  12.105  65.995  1.00  0.00    -0.336 C  
HETATM   12  O   UNL     1     -11.879  11.873  64.725  1.00  0.00    -0.286 OA 
HETATM   13  H   UNL     1     -11.512  11.103  64.307  1.00  0.00     0.000 HD 
ENDBRANCH  10  11
ENDBRANCH   6  10
TORSDOF 2
ENDMDL
MODEL       22
REMARK 921   NORMALIZED FREE ENERGY PREDICTED BY IDOCK:   -4.21 KCAL/MOL
REMARK 922        TOTAL FREE ENERGY PREDICTED BY IDOCK:   -4.98 KCAL/MOL
REMARK 923 INTER-LIGAND FREE ENERGY PREDICTED BY IDOCK:   -4.87 KCAL/MOL
REMARK 924 INTRA-LIGAND FREE ENERGY PREDICTED BY IDOCK:   -0.11 KCAL/MOL
REMARK 927      BINDING AFFINITY PREDICTED BY RF-SCORE:    0.00 PKD
ROOT
HETATM    1  C   UNL     1     -12.232  12.521  63.374  1.00  0.00    -0.613 C  
HETATM    2  C   UNL     1     -11.317  12.343  64.535  1.00  0.00    -0.328 A  
HETATM    3  N   UNL     1     -10.639  11.240  64.783  1.00  0.00    -0.315 NA 
HETATM    4  C   UNL     1      -9.949  11.467  65.941  1.00  0.00    -0.230 A  
HETATM    5  C   UNL     1     -10.192  12.737  66.396  1.00  0.00    -0.253 A  
HETATM    6  N   UNL     1     -11.071  13.307  65.503  1.00  0.00    -0.281 NA 
HETATM    7  N   UNL     1      -9.648  13.351  67.558  1.00  0.00    -0.215 N  
HETATM    8  O   UNL     1      -8.961  12.633  68.291  1.00  0.00    -0.194 OA 
HETATM    9  O   UNL     1      -9.880  14.552  67.739  1.00  0.00    -0.217 OA 
ENDROOT
BRANCH   6  10
HETATM   10  C   UNL     1     -11.701  14.619  65.551  1.00  0.00    -0.316 C  
BRANCH  10  11
HETATM   11  C   UNL     1     -10.928  15.690  64.786  1.00  0.00    -0.400 C  
HETATM   12  O   UNL     1     -11.747  16.305  63.795  1.00  0.00    -1.511 OA 
HETATM   13  H   UNL     1     -11.267  16.972  63.319  1.00  0.00     0.000 HD 
ENDBRANCH  10  11
ENDBRANCH   6  10
TORSDOF 2
ENDMDL
MODEL       23
REMARK 921   NORMALIZED FREE ENERGY PREDICTED BY IDOCK:   -4.21 KCAL/MOL
REMARK 922        TOTAL FREE ENERGY PREDICTED BY IDOCK:   -4.98 KCAL/MOL
REMARK 923 INTER-LIGAND FREE ENERGY PREDICTED BY IDOCK:   -4.74 KCAL/MOL
REMARK 924 INTRA-LIGAND FREE ENERGY PREDICTED BY IDOCK:   -0.24 KCAL/MOL
REMARK 927      BINDING AFFINITY PREDICTED BY RF-SCORE:    0.00 PKD
ROOT
HETATM    1  C   UNL     1     -10.717  15.309  68.234  1.00  0.00    -0.254 C  
HETATM    2  C   UNL     1     -11.657  15.006  69.348  1.00  0.00    -0.315 A  
HETATM    3  N   UNL     1     -12.399  15.908  69.959  1.00  0.00    -0.247 NA 
HETATM    4  C   UNL     1     -13.092  15.239  70.930  1.00  0.00    -0.464 A  
HETATM    5  C   UNL     1     -12.785  13.904  70.896  1.00  0.00    -0.340 A  
HETATM    6  N   UNL     1     -11.863  13.743  69.887  1.00  0.00    -0.316 NA 
HETATM    7  N   UNL     1     -13.312  12.882  71.733  1.00  0.00    -0.408 N  
HETATM    8  O   UNL     1     -14.047  13.247  72.655  1.00  0.00    -0.744 OA 
HETATM    9  O   UNL     1     -13.017  11.710  71.470  1.00  0.00    -0.424 OA 
ENDROOT
BRANCH   6  10
HETATM   10  C   UNL     1     -11.163  12.536  69.472  1.00  0.00    -0.093 C  
BRANCH  10  11
HETATM   11  C   UNL     1     -11.733  11.912  68.201  1.00  0.00    -0.320 C  
HETATM   12  O   UNL     1     -12.374  10.670  68.482  1.00  0.00    -0.814 OA 
HETATM   13  H   UNL     1     -12.728  10.281  67.690  1.00  0.00     0.000 HD 
ENDBRANCH  10  11
ENDBRANCH   6  10
TORSDOF 2
ENDMDL
MODEL       24
REMARK 921   NORMALIZED FREE ENERGY PREDICTED BY IDOCK:   -4.18 KCAL/MOL
REMARK 922        TOTAL FREE ENERGY PREDICTED BY IDOCK:   -4.94 KCAL/MOL
REMARK 923 INTER-LIGAND FREE ENERGY PREDICTED BY IDOCK:   -4.58 KCAL/MOL
REMARK 924 INTRA-LIGAND FREE ENERGY PREDICTED BY IDOCK:   -0.37 KCAL/MOL
REMARK 927      BINDING AFFINITY PREDICTED BY RF-SCORE:    0.00 PKD
ROOT
HETATM    1  C   UNL     1     -10.938  12.274  68.718  1.00  0.00    -0.277 C  
HETATM    2  C   UNL     1     -11.415  12.872  67.441  1.00  0.00    -0.336 A  
HETATM    3  N   UNL     1     -12.005  14.048  67.346  1.00  0.00    -0.409 NA 
HETATM    4  C   UNL     1     -12.312  14.216  66.025  1.00  0.00    -0.445 A  
HETATM    5  C   UNL     1     -11.884  13.136  65.297  1.00  0.00    -0.365 A  
HETATM    6  N   UNL     1     -11.310  12.266  66.196  1.00  0.00    -0.336 NA 
HETATM    7  N   UNL     1     -12.004  12.947  63.893  1.00  0.00    -0.442 N  
HETATM    8  O   UNL     1     -12.652  13.796  63.274  1.00  0.00    -0.830 OA 
HETATM    9  O   UNL     1     -11.441  11.967  63.392  1.00  0.00    -0.412 OA 
ENDROOT
BRANCH   6  10
HETATM   10  C   UNL     1     -10.754  10.942  65.959  1.00  0.00    -0.140 C  
BRANCH  10  11
HETATM   11  C   UNL     1      -9.238  10.943  65.784  1.00  0.00    -0.201 C  
HETATM   12  O   UNL     1      -8.877  11.231  64.436  1.00  0.00    -0.383 OA 
HETATM   13  H   UNL     1      -7.933  11.232  64.327  1.00  0.00     0.000 HD 
ENDBRANCH  10  11
ENDBRANCH   6  10
TORSDOF 2
ENDMDL
MODEL       25
REMARK 921   NORMALIZED FREE ENERGY PREDICTED BY IDOCK:   -4.18 KCAL/MOL
REMARK 922        TOTAL FREE ENERGY PREDICTED BY IDOCK:   -4.94 KCAL/MOL
REMARK 923 INTER-LIGAND FREE ENERGY PREDICTED BY IDOCK:   -4.57 KCAL/MOL
REMARK 924 INTRA-LIGAND FREE ENERGY PREDICTED BY IDOCK:   -0.37 KCAL/MOL
REMARK 927      BINDING AFFINITY PREDICTED BY RF-SCORE:    0.00 PKD
ROOT
HETATM    1  C   UNL     1     -10.503  13.952  64.797  1.00  0.00    -0.451 C  
HETATM    2  C   UNL     1     -10.519  15.272  65.484  1.00  0.00    -0.374 A  
HETATM    3  N   UNL     1     -10.542  16.434  64.861  1.00  0.00    -0.683 NA 
HETATM    4  C   UNL     1     -10.521  17.392  65.836  1.00  0.00    -0.252 A  
HETATM    5  C   UNL     1     -10.507  16.806  67.076  1.00  0.00    -0.285 A  
HETATM    6  N   UNL     1     -10.503  15.446  66.862  1.00  0.00    -0.289 NA 
HETATM    7  N   UNL     1     -10.500  17.465  68.336  1.00  0.00    -0.377 N  
HETATM    8  O   UNL     1     -10.393  18.695  68.315  1.00  0.00    -0.374 OA 
HETATM    9  O   UNL     1     -10.621  16.771  69.352  1.00  0.00    -0.324 OA 
ENDROOT
BRANCH   6  10
HETATM   10  C   UNL     1     -10.427  14.368  67.837  1.00  0.00    -0.239 C  
BRANCH  10  11
HETATM   11  C   UNL     1     -11.782  13.744  68.158  1.00  0.00    -0.357 C  
HETATM   12  O   UNL     1     -12.609  14.656  68.876  1.00  0.00    -0.563 OA 
HETATM   13  H   UNL     1     -13.453  14.268  69.077  1.00  0.00     0.000 HD 
ENDBRANCH  10  11
ENDBRANCH   6  10
TORSDOF 2
ENDMDL
MODEL       26
REMARK 921   NORMALIZED FREE ENERGY PREDICTED BY IDOCK:   -4.17 KCAL/MOL
REMARK 922        TOTAL FREE ENERGY PREDICTED BY IDOCK:   -4.93 KCAL/MOL
REMARK 923 INTER-LIGAND FREE ENERGY PREDICTED BY IDOCK:   -4.58 KCAL/MOL
REMARK 924 INTRA-LIGAND FREE ENERGY PREDICTED BY IDOCK:   -0.35 KCAL/MOL
REMARK 927      BINDING AFFINITY PREDICTED BY RF-SCORE:    0.00 PKD
ROOT
HETATM    1  C   UNL     1     -11.611  10.824  69.814  1.00  0.00    -0.393 C  
HETATM    2  C   UNL     1     -12.330  11.835  70.637  1.00  0.00    -0.328 A  
HETATM    3  N   UNL     1     -12.939  11.569  71.775  1.00  0.00    -0.438 NA 
HETATM    4  C   UNL     1     -13.495  12.745  72.196  1.00  0.00    -0.492 A  
HETATM    5  C   UNL     1     -13.202  13.751  71.312  1.00  0.00    -0.261 A  
HETATM    6  N   UNL     1     -12.457  13.178  70.307  1.00  0.00    -0.217 NA 
HETATM    7  N   UNL     1     -13.585  15.117  71.410  1.00  0.00    -0.454 N  
HETATM    8  O   UNL     1     -14.349  15.412  72.334  1.00  0.00    -0.543 OA 
HETATM    9  O   UNL     1     -13.117  15.908  70.584  1.00  0.00    -0.467 OA 
ENDROOT
BRANCH   6  10
HETATM   10  C   UNL     1     -11.942  13.788  69.089  1.00  0.00    -0.361 C  
BRANCH  10  11
HETATM   11  C   UNL     1     -10.471  14.186  69.185  1.00  0.00    -0.129 C  
HETATM   12  O   UNL     1     -10.254  15.089  70.266  1.00  0.00    -0.497 OA 
HETATM   13  H   UNL     1      -9.339  15.336  70.327  1.00  0.00     0.000 HD 
ENDBRANCH  10  11
ENDBRANCH   6  10
TORSDOF 2
ENDMDL
MODEL       27
REMARK 921   NORMALIZED FREE ENERGY PREDICTED BY IDOCK:   -4.15 KCAL/MOL
REMARK 922        TOTAL FREE ENERGY PREDICTED BY IDOCK:   -4.91 KCAL/MOL
REMARK 923 INTER-LIGAND FREE ENERGY PREDICTED BY IDOCK:   -4.59 KCAL/MOL
REMARK 924 INTRA-LIGAND FREE ENERGY PREDICTED BY IDOCK:   -0.32 KCAL/MOL
REMARK 927      BINDING AFFINITY PREDICTED BY RF-SCORE:    0.00 PKD
ROOT
HETATM    1  C   UNL     1      -8.235  13.394  67.659  1.00  0.00    -0.177 C  
HETATM    2  C   UNL     1      -9.423  12.881  66.924  1.00  0.00    -0.237 A  
HETATM    3  N   UNL     1      -9.584  11.624  66.558  1.00  0.00    -0.203 NA 
HETATM    4  C   UNL     1     -10.775  11.570  65.890  1.00  0.00    -0.272 A  
HETATM    5  C   UNL     1     -11.362  12.808  65.866  1.00  0.00    -0.324 A  
HETATM    6  N   UNL     1     -10.502  13.658  66.523  1.00  0.00    -0.278 NA 
HETATM    7  N   UNL     1     -12.612  13.154  65.281  1.00  0.00    -0.495 N  
HETATM    8  O   UNL     1     -13.184  12.269  64.637  1.00  0.00    -0.763 OA 
HETATM    9  O   UNL     1     -13.043  14.297  65.472  1.00  0.00    -0.639 OA 
ENDROOT
BRANCH   6  10
HETATM   10  C   UNL     1     -10.614  15.095  66.727  1.00  0.00    -0.298 C  
BRANCH  10  11
HETATM   11  C   UNL     1     -11.072  15.474  68.133  1.00  0.00    -0.325 C  
HETATM   12  O   UNL     1     -12.283  14.806  68.476  1.00  0.00    -0.580 OA 
HETATM   13  H   UNL     1     -12.568  15.041  69.352  1.00  0.00     0.000 HD 
ENDBRANCH  10  11
ENDBRANCH   6  10
TORSDOF 2
ENDMDL
MODEL       28
REMARK 921   NORMALIZED FREE ENERGY PREDICTED BY IDOCK:   -4.14 KCAL/MOL
REMARK 922        TOTAL FREE ENERGY PREDICTED BY IDOCK:   -4.90 KCAL/MOL
REMARK 923 INTER-LIGAND FREE ENERGY PREDICTED BY IDOCK:   -4.82 KCAL/MOL
REMARK 924 INTRA-LIGAND FREE ENERGY PREDICTED BY IDOCK:   -0.08 KCAL/MOL
REMARK 927      BINDING AFFINITY PREDICTED BY RF-SCORE:    0.00 PKD
ROOT
HETATM    1  C   UNL     1      -9.273  14.054  68.197  1.00  0.00    -0.196 C  
HETATM    2  C   UNL     1      -9.961  14.236  66.889  1.00  0.00    -0.263 A  
HETATM    3  N   UNL     1      -9.632  15.150  65.998  1.00  0.00    -0.312 NA 
HETATM    4  C   UNL     1     -10.512  15.009  64.962  1.00  0.00    -0.386 A  
HETATM    5  C   UNL     1     -11.380  13.977  65.215  1.00  0.00    -0.321 A  
HETATM    6  N   UNL     1     -11.037  13.477  66.450  1.00  0.00    -0.300 NA 
HETATM    7  N   UNL     1     -12.427  13.512  64.372  1.00  0.00    -0.311 N  
HETATM    8  O   UNL     1     -12.645  14.168  63.349  1.00  0.00    -0.818 OA 
HETATM    9  O   UNL     1     -13.024  12.483  64.708  1.00  0.00    -0.827 OA 
ENDROOT
BRANCH   6  10
HETATM   10  C   UNL     1     -11.678  12.418  67.216  1.00  0.00    -0.349 C  
BRANCH  10  11
HETATM   11  C   UNL     1     -10.936  11.086  67.148  1.00  0.00    -0.283 C  
HETATM   12  O   UNL     1     -11.292  10.244  68.242  1.00  0.00    -0.454 OA 
HETATM   13  H   UNL     1     -10.830   9.414  68.200  1.00  0.00     0.000 HD 
ENDBRANCH  10  11
ENDBRANCH   6  10
TORSDOF 2
ENDMDL
MODEL       29
REMARK 921   NORMALIZED FREE ENERGY PREDICTED BY IDOCK:   -4.12 KCAL/MOL
REMARK 922        TOTAL FREE ENERGY PREDICTED BY IDOCK:   -4.88 KCAL/MOL
REMARK 923 INTER-LIGAND FREE ENERGY PREDICTED BY IDOCK:   -4.76 KCAL/MOL
REMARK 924 INTRA-LIGAND FREE ENERGY PREDICTED BY IDOCK:   -0.12 KCAL/MOL
REMARK 927      BINDING AFFINITY PREDICTED BY RF-SCORE:    0.00 PKD
ROOT
HETATM    1  C   UNL     1     -12.565  11.028  71.118  1.00  0.00    -0.522 C  
HETATM    2  C   UNL     1     -12.272  11.882  69.935  1.00  0.00    -0.199 A  
HETATM    3  N   UNL     1     -12.043  11.418  68.722  1.00  0.00    -0.514 NA 
HETATM    4  C   UNL     1     -11.791  12.508  67.937  1.00  0.00    -0.323 A  
HETATM    5  C   UNL     1     -11.890  13.658  68.676  1.00  0.00    -0.374 A  
HETATM    6  N   UNL     1     -12.195  13.269  69.960  1.00  0.00    -0.305 NA 
HETATM    7  N   UNL     1     -11.715  14.992  68.214  1.00  0.00    -0.330 N  
HETATM    8  O   UNL     1     -11.334  15.127  67.047  1.00  0.00    -0.336 OA 
HETATM    9  O   UNL     1     -11.973  15.913  68.997  1.00  0.00    -0.378 OA 
ENDROOT
BRANCH   6  10
HETATM   10  C   UNL     1     -12.349  14.090  71.152  1.00  0.00    -0.365 C  
BRANCH  10  11
HETATM   11  C   UNL     1     -13.804  14.400  71.492  1.00  0.00    -0.379 C  
HETATM   12  O   UNL     1     -14.243  13.635  72.612  1.00  0.00    -0.735 OA 
HETATM   13  H   UNL     1     -15.150  13.828  72.823  1.00  0.00     0.000 HD 
ENDBRANCH  10  11
ENDBRANCH   6  10
TORSDOF 2
ENDMDL
MODEL       30
REMARK 921   NORMALIZED FREE ENERGY PREDICTED BY IDOCK:   -4.08 KCAL/MOL
REMARK 922        TOTAL FREE ENERGY PREDICTED BY IDOCK:   -4.84 KCAL/MOL
REMARK 923 INTER-LIGAND FREE ENERGY PREDICTED BY IDOCK:   -4.66 KCAL/MOL
REMARK 924 INTRA-LIGAND FREE ENERGY PREDICTED BY IDOCK:   -0.17 KCAL/MOL
REMARK 927      BINDING AFFINITY PREDICTED BY RF-SCORE:    0.00 PKD
ROOT
HETATM    1  C   UNL     1      -8.704  16.473  66.277  1.00  0.00    -0.369 C  
HETATM    2  C   UNL     1      -8.976  15.053  66.628  1.00  0.00    -0.281 A  
HETATM    3  N   UNL     1      -8.069  14.215  67.090  1.00  0.00    -0.160 NA 
HETATM    4  C   UNL     1      -8.705  13.016  67.258  1.00  0.00    -0.209 A  
HETATM    5  C   UNL     1     -10.028  13.129  66.914  1.00  0.00    -0.245 A  
HETATM    6  N   UNL     1     -10.212  14.431  66.506  1.00  0.00    -0.268 NA 
HETATM    7  N   UNL     1     -11.017  12.110  66.967  1.00  0.00    -0.257 N  
HETATM    8  O   UNL     1     -10.627  10.975  67.257  1.00  0.00    -0.217 OA 
HETATM    9  O   UNL     1     -12.190  12.431  66.742  1.00  0.00    -0.551 OA 
ENDROOT
BRANCH   6  10
HETATM   10  C   UNL     1     -11.413  15.062  65.979  1.00  0.00    -0.221 C  
BRANCH  10  11
HETATM   11  C   UNL     1     -11.498  15.029  64.455  1.00  0.00    -0.318 C  
HETATM   12  O   UNL     1     -11.440  16.344  63.910  1.00  0.00    -1.569 OA 
HETATM   13  H   UNL     1     -11.493  16.324  62.961  1.00  0.00     0.000 HD 
ENDBRANCH  10  11
ENDBRANCH   6  10
TORSDOF 2
ENDMDL
MODEL       31
REMARK 921   NORMALIZED FREE ENERGY PREDICTED BY IDOCK:   -4.05 KCAL/MOL
REMARK 922        TOTAL FREE ENERGY PREDICTED BY IDOCK:   -4.80 KCAL/MOL
REMARK 923 INTER-LIGAND FREE ENERGY PREDICTED BY IDOCK:   -4.49 KCAL/MOL
REMARK 924 INTRA-LIGAND FREE ENERGY PREDICTED BY IDOCK:   -0.32 KCAL/MOL
REMARK 927      BINDING AFFINITY PREDICTED BY RF-SCORE:    0.00 PKD
ROOT
HETATM    1  C   UNL     1     -12.274  12.617  65.604  1.00  0.00    -0.474 C  
HETATM    2  C   UNL     1     -11.779  14.014  65.469  1.00  0.00    -0.350 A  
HETATM    3  N   UNL     1     -11.961  14.767  64.402  1.00  0.00    -0.447 NA 
HETATM    4  C   UNL     1     -11.338  15.955  64.661  1.00  0.00    -0.322 A  
HETATM    5  C   UNL     1     -10.785  15.937  65.916  1.00  0.00    -0.296 A  
HETATM    6  N   UNL     1     -11.060  14.695  66.442  1.00  0.00    -0.329 NA 
HETATM    7  N   UNL     1     -10.070  16.988  66.553  1.00  0.00    -0.302 N  
HETATM    8  O   UNL     1      -9.833  17.989  65.870  1.00  0.00    -0.535 OA 
HETATM    9  O   UNL     1      -9.758  16.838  67.740  1.00  0.00    -0.241 OA 
ENDROOT
BRANCH   6  10
HETATM   10  C   UNL     1     -10.647  14.132  67.720  1.00  0.00    -0.243 C  
BRANCH  10  11
HETATM   11  C   UNL     1     -11.734  14.194  68.789  1.00  0.00    -0.345 C  
HETATM   12  O   UNL     1     -12.311  15.496  68.859  1.00  0.00    -0.602 OA 
HETATM   13  H   UNL     1     -12.988  15.535  69.525  1.00  0.00     0.000 HD 
ENDBRANCH  10  11
ENDBRANCH   6  10
TORSDOF 2
ENDMDL
MODEL       32
REMARK 921   NORMALIZED FREE ENERGY PREDICTED BY IDOCK:   -4.05 KCAL/MOL
REMARK 922        TOTAL FREE ENERGY PREDICTED BY IDOCK:   -4.80 KCAL/MOL
REMARK 923 INTER-LIGAND FREE ENERGY PREDICTED BY IDOCK:   -4.54 KCAL/MOL
REMARK 924 INTRA-LIGAND FREE ENERGY PREDICTED BY IDOCK:   -0.25 KCAL/MOL
REMARK 927      BINDING AFFINITY PREDICTED BY RF-SCORE:    0.00 PKD
ROOT
HETATM    1  C   UNL     1      -9.087  11.166  63.065  1.00  0.00    -0.285 C  
HETATM    2  C   UNL     1      -9.684  10.985  64.417  1.00  0.00    -0.280 A  
HETATM    3  N   UNL     1      -9.551   9.896  65.148  1.00  0.00    -0.284 NA 
HETATM    4  C   UNL     1     -10.265  10.115  66.293  1.00  0.00    -0.219 A  
HETATM    5  C   UNL     1     -10.824  11.366  66.272  1.00  0.00    -0.263 A  
HETATM    6  N   UNL     1     -10.460  11.932  65.071  1.00  0.00    -0.277 NA 
HETATM    7  N   UNL     1     -11.621  11.967  67.285  1.00  0.00    -0.316 N  
HETATM    8  O   UNL     1     -11.928  11.251  68.243  1.00  0.00    -0.582 OA 
HETATM    9  O   UNL     1     -11.930  13.156  67.148  1.00  0.00    -0.371 OA 
ENDROOT
BRANCH   6  10
HETATM   10  C   UNL     1     -10.839  13.225  64.518  1.00  0.00    -0.394 C  
BRANCH  10  11
HETATM   11  C   UNL     1     -12.110  13.175  63.675  1.00  0.00    -0.513 C  
HETATM   12  O   UNL     1     -13.157  12.498  64.366  1.00  0.00    -0.759 OA 
HETATM   13  H   UNL     1     -13.949  12.467  63.841  1.00  0.00     0.000 HD 
ENDBRANCH  10  11
ENDBRANCH   6  10
TORSDOF 2
ENDMDL
MODEL       33
REMARK 921   NORMALIZED FREE ENERGY PREDICTED BY IDOCK:   -4.04 KCAL/MOL
REMARK 922        TOTAL FREE ENERGY PREDICTED BY IDOCK:   -4.79 KCAL/MOL
REMARK 923 INTER-LIGAND FREE ENERGY PREDICTED BY IDOCK:   -4.41 KCAL/MOL
REMARK 924 INTRA-LIGAND FREE ENERGY PREDICTED BY IDOCK:   -0.38 KCAL/MOL
REMARK 927      BINDING AFFINITY PREDICTED BY RF-SCORE:    0.00 PKD
ROOT
HETATM    1  C   UNL     1      -9.593   7.337  69.452  1.00  0.00    -0.154 C  
HETATM    2  C   UNL     1     -10.821   7.489  70.278  1.00  0.00    -0.246 A  
HETATM    3  N   UNL     1     -11.554   6.483  70.712  1.00  0.00    -0.364 NA 
HETATM    4  C   UNL     1     -12.596   7.037  71.401  1.00  0.00    -0.386 A  
HETATM    5  C   UNL     1     -12.487   8.404  71.406  1.00  0.00    -0.288 A  
HETATM    6  N   UNL     1     -11.354   8.705  70.686  1.00  0.00    -0.260 NA 
HETATM    7  N   UNL     1     -13.366   9.332  72.031  1.00  0.00    -0.417 N  
HETATM    8  O   UNL     1     -14.392   8.866  72.537  1.00  0.00    -0.579 OA 
HETATM    9  O   UNL     1     -13.035  10.523  72.041  1.00  0.00    -0.458 OA 
ENDROOT
BRANCH   6  10
HETATM   10  C   UNL     1     -10.814  10.010  70.334  1.00  0.00    -0.318 C  
BRANCH  10  11
HETATM   11  C   UNL     1     -11.292  10.518  68.977  1.00  0.00    -0.257 C  
HETATM   12  O   UNL     1     -12.653  10.937  69.036  1.00  0.00    -0.683 OA 
HETATM   13  H   UNL     1     -12.951  11.253  68.190  1.00  0.00     0.000 HD 
ENDBRANCH  10  11
ENDBRANCH   6  10
TORSDOF 2
ENDMDL
MODEL       34
REMARK 921   NORMALIZED FREE ENERGY PREDICTED BY IDOCK:   -4.02 KCAL/MOL
REMARK 922        TOTAL FREE ENERGY PREDICTED BY IDOCK:   -4.77 KCAL/MOL
REMARK 923 INTER-LIGAND FREE ENERGY PREDICTED BY IDOCK:   -4.39 KCAL/MOL
REMARK 924 INTRA-LIGAND FREE ENERGY PREDICTED BY IDOCK:   -0.38 KCAL/MOL
REMARK 927      BINDING AFFINITY PREDICTED BY RF-SCORE:    0.00 PKD
ROOT
HETATM    1  C   UNL     1     -12.482  12.007  63.414  1.00  0.00    -0.625 C  
HETATM    2  C   UNL     1     -12.325  12.669  64.738  1.00  0.00    -0.489 A  
HETATM    3  N   UNL     1     -12.903  13.805  65.074  1.00  0.00    -0.735 NA 
HETATM    4  C   UNL     1     -12.488  14.085  66.346  1.00  0.00    -0.355 A  
HETATM    5  C   UNL     1     -11.659  13.093  66.803  1.00  0.00    -0.366 A  
HETATM    6  N   UNL     1     -11.545  12.181  65.779  1.00  0.00    -0.373 NA 
HETATM    7  N   UNL     1     -11.039  13.014  68.080  1.00  0.00    -0.243 N  
HETATM    8  O   UNL     1     -11.178  13.991  68.823  1.00  0.00    -0.244 OA 
HETATM    9  O   UNL     1     -10.429  11.977  68.363  1.00  0.00    -0.206 OA 
ENDROOT
BRANCH   6  10
HETATM   10  C   UNL     1     -10.736  10.973  65.716  1.00  0.00    -0.148 C  
BRANCH  10  11
HETATM   11  C   UNL     1      -9.365  11.193  65.081  1.00  0.00    -0.213 C  
HETATM   12  O   UNL     1      -8.488  11.871  65.977  1.00  0.00    -0.391 OA 
HETATM   13  H   UNL     1      -7.635  12.008  65.582  1.00  0.00     0.000 HD 
ENDBRANCH  10  11
ENDBRANCH   6  10
TORSDOF 2
ENDMDL
MODEL       35
REMARK 921   NORMALIZED FREE ENERGY PREDICTED BY IDOCK:   -4.02 KCAL/MOL
REMARK 922        TOTAL FREE ENERGY PREDICTED BY IDOCK:   -4.76 KCAL/MOL
REMARK 923 INTER-LIGAND FREE ENERGY PREDICTED BY IDOCK:   -4.41 KCAL/MOL
REMARK 924 INTRA-LIGAND FREE ENERGY PREDICTED BY IDOCK:   -0.35 KCAL/MOL
REMARK 927      BINDING AFFINITY PREDICTED BY RF-SCORE:    0.00 PKD
ROOT
HETATM    1  C   UNL     1     -10.860  14.948  68.678  1.00  0.00    -0.253 C  
HETATM    2  C   UNL     1     -10.412  16.360  68.528  1.00  0.00    -0.291 A  
HETATM    3  N   UNL     1     -10.548  17.284  69.459  1.00  0.00    -0.153 NA 
HETATM    4  C   UNL     1     -10.044  18.439  68.927  1.00  0.00    -0.321 A  
HETATM    5  C   UNL     1      -9.572  18.211  67.661  1.00  0.00    -0.278 A  
HETATM    6  N   UNL     1      -9.805  16.881  67.393  1.00  0.00    -0.255 NA 
HETATM    7  N   UNL     1      -8.960  19.155  66.791  1.00  0.00    -0.299 N  
HETATM    8  O   UNL     1      -8.941  20.329  67.175  1.00  0.00    -0.343 OA 
HETATM    9  O   UNL     1      -8.476  18.737  65.733  1.00  0.00    -0.436 OA 
ENDROOT
BRANCH   6  10
HETATM   10  C   UNL     1      -9.554  16.138  66.167  1.00  0.00    -0.327 C  
BRANCH  10  11
HETATM   11  C   UNL     1     -10.773  16.047  65.252  1.00  0.00    -0.399 C  
HETATM   12  O   UNL     1     -11.048  17.304  64.639  1.00  0.00    -1.052 OA 
HETATM   13  H   UNL     1     -11.806  17.248  64.070  1.00  0.00     0.000 HD 
ENDBRANCH  10  11
ENDBRANCH   6  10
TORSDOF 2
ENDMDL
MODEL       36
REMARK 921   NORMALIZED FREE ENERGY PREDICTED BY IDOCK:   -3.98 KCAL/MOL
REMARK 922        TOTAL FREE ENERGY PREDICTED BY IDOCK:   -4.73 KCAL/MOL
REMARK 923 INTER-LIGAND FREE ENERGY PREDICTED BY IDOCK:   -4.42 KCAL/MOL
REMARK 924 INTRA-LIGAND FREE ENERGY PREDICTED BY IDOCK:   -0.31 KCAL/MOL
REMARK 927      BINDING AFFINITY PREDICTED BY RF-SCORE:    0.00 PKD
ROOT
HETATM    1  C   UNL     1     -11.425  11.405  63.989  1.00  0.00    -0.217 C  
HETATM    2  C   UNL     1     -11.782  12.446  64.990  1.00  0.00    -0.371 A  
HETATM    3  N   UNL     1     -12.598  13.455  64.754  1.00  0.00    -0.637 NA 
HETATM    4  C   UNL     1     -12.639  14.191  65.905  1.00  0.00    -0.417 A  
HETATM    5  C   UNL     1     -11.853  13.611  66.868  1.00  0.00    -0.411 A  
HETATM    6  N   UNL     1     -11.296  12.492  66.290  1.00  0.00    -0.319 NA 
HETATM    7  N   UNL     1     -11.651  14.067  68.199  1.00  0.00    -0.314 N  
HETATM    8  O   UNL     1     -12.154  15.156  68.493  1.00  0.00    -0.250 OA 
HETATM    9  O   UNL     1     -11.010  13.341  68.967  1.00  0.00    -0.247 OA 
ENDROOT
BRANCH   6  10
HETATM   10  C   UNL     1     -10.337  11.554  66.855  1.00  0.00    -0.223 C  
BRANCH  10  11
HETATM   11  C   UNL     1     -10.978  10.271  67.377  1.00  0.00    -0.252 C  
HETATM   12  O   UNL     1     -12.129  10.558  68.167  1.00  0.00    -0.756 OA 
HETATM   13  H   UNL     1     -12.528   9.759  68.492  1.00  0.00     0.000 HD 
ENDBRANCH  10  11
ENDBRANCH   6  10
TORSDOF 2
ENDMDL
MODEL       37
REMARK 921   NORMALIZED FREE ENERGY PREDICTED BY IDOCK:   -3.94 KCAL/MOL
REMARK 922        TOTAL FREE ENERGY PREDICTED BY IDOCK:   -4.68 KCAL/MOL
REMARK 923 INTER-LIGAND FREE ENERGY PREDICTED BY IDOCK:   -4.56 KCAL/MOL
REMARK 924 INTRA-LIGAND FREE ENERGY PREDICTED BY IDOCK:   -0.12 KCAL/MOL
REMARK 927      BINDING AFFINITY PREDICTED BY RF-SCORE:    0.00 PKD
ROOT
HETATM    1  C   UNL     1     -13.395  12.858  72.178  1.00  0.00    -0.615 C  
HETATM    2  C   UNL     1     -12.639  12.270  71.039  1.00  0.00    -0.257 A  
HETATM    3  N   UNL     1     -12.270  12.943  69.966  1.00  0.00    -0.265 NA 
HETATM    4  C   UNL     1     -11.633  12.048  69.153  1.00  0.00    -0.312 A  
HETATM    5  C   UNL     1     -11.591  10.814  69.748  1.00  0.00    -0.317 A  
HETATM    6  N   UNL     1     -12.236  10.944  70.957  1.00  0.00    -0.358 NA 
HETATM    7  N   UNL     1     -10.999   9.630  69.227  1.00  0.00    -0.204 N  
HETATM    8  O   UNL     1     -10.565   9.692  68.073  1.00  0.00    -0.222 OA 
HETATM    9  O   UNL     1     -10.943   8.640  69.964  1.00  0.00    -0.246 OA 
ENDROOT
BRANCH   6  10
HETATM   10  C   UNL     1     -12.528   9.923  71.952  1.00  0.00    -0.347 C  
BRANCH  10  11
HETATM   11  C   UNL     1     -13.903   9.283  71.780  1.00  0.00    -0.325 C  
HETATM   12  O   UNL     1     -14.407   8.809  73.026  1.00  0.00    -1.089 OA 
HETATM   13  H   UNL     1     -15.263   8.410  72.920  1.00  0.00     0.000 HD 
ENDBRANCH  10  11
ENDBRANCH   6  10
TORSDOF 2
ENDMDL
MODEL       38
REMARK 921   NORMALIZED FREE ENERGY PREDICTED BY IDOCK:   -3.92 KCAL/MOL
REMARK 922        TOTAL FREE ENERGY PREDICTED BY IDOCK:   -4.65 KCAL/MOL
REMARK 923 INTER-LIGAND FREE ENERGY PREDICTED BY IDOCK:   -4.36 KCAL/MOL
REMARK 924 INTRA-LIGAND FREE ENERGY PREDICTED BY IDOCK:   -0.30 KCAL/MOL
REMARK 927      BINDING AFFINITY PREDICTED BY RF-SCORE:    0.00 PKD
ROOT
HETATM    1  C   UNL     1     -10.339  18.543  66.896  1.00  0.00    -0.431 C  
HETATM    2  C   UNL     1     -10.499  17.188  66.301  1.00  0.00    -0.260 A  
HETATM    3  N   UNL     1     -10.701  16.960  65.018  1.00  0.00    -0.693 NA 
HETATM    4  C   UNL     1     -10.823  15.605  64.885  1.00  0.00    -0.418 A  
HETATM    5  C   UNL     1     -10.669  14.994  66.102  1.00  0.00    -0.327 A  
HETATM    6  N   UNL     1     -10.464  16.000  67.018  1.00  0.00    -0.304 NA 
HETATM    7  N   UNL     1     -10.711  13.598  66.372  1.00  0.00    -0.280 N  
HETATM    8  O   UNL     1     -11.018  12.862  65.429  1.00  0.00    -0.274 OA 
HETATM    9  O   UNL     1     -10.420  13.221  67.513  1.00  0.00    -0.233 OA 
ENDROOT
BRANCH   6  10
HETATM   10  C   UNL     1     -10.307  15.904  68.462  1.00  0.00    -0.232 C  
BRANCH  10  11
HETATM   11  C   UNL     1     -11.629  15.972  69.222  1.00  0.00    -0.331 C  
HETATM   12  O   UNL     1     -12.499  14.913  68.832  1.00  0.00    -0.576 OA 
HETATM   13  H   UNL     1     -13.323  14.955  69.305  1.00  0.00     0.000 HD 
ENDBRANCH  10  11
ENDBRANCH   6  10
TORSDOF 2
ENDMDL
MODEL       39
REMARK 921   NORMALIZED FREE ENERGY PREDICTED BY IDOCK:   -3.92 KCAL/MOL
REMARK 922        TOTAL FREE ENERGY PREDICTED BY IDOCK:   -4.65 KCAL/MOL
REMARK 923 INTER-LIGAND FREE ENERGY PREDICTED BY IDOCK:   -4.48 KCAL/MOL
REMARK 924 INTRA-LIGAND FREE ENERGY PREDICTED BY IDOCK:   -0.18 KCAL/MOL
REMARK 927      BINDING AFFINITY PREDICTED BY RF-SCORE:    0.00 PKD
ROOT
HETATM    1  C   UNL     1      -9.655  10.175  64.931  1.00  0.00    -0.369 C  
HETATM    2  C   UNL     1      -9.799  11.527  65.535  1.00  0.00    -0.234 A  
HETATM    3  N   UNL     1      -9.382  11.849  66.743  1.00  0.00    -0.195 NA 
HETATM    4  C   UNL     1      -9.724  13.160  66.930  1.00  0.00    -0.243 A  
HETATM    5  C   UNL     1     -10.339  13.653  65.809  1.00  0.00    -0.298 A  
HETATM    6  N   UNL     1     -10.396  12.614  64.908  1.00  0.00    -0.304 NA 
HETATM    7  N   UNL     1     -10.824  14.975  65.608  1.00  0.00    -0.332 N  
HETATM    8  O   UNL     1     -10.779  15.734  66.582  1.00  0.00    -0.314 OA 
HETATM    9  O   UNL     1     -11.234  15.275  64.481  1.00  0.00    -0.356 OA 
ENDROOT
BRANCH   6  10
HETATM   10  C   UNL     1     -11.005  12.581  63.587  1.00  0.00    -0.456 C  
BRANCH  10  11
HETATM   11  C   UNL     1     -12.433  12.042  63.589  1.00  0.00    -0.525 C  
HETATM   12  O   UNL     1     -13.179  12.575  64.680  1.00  0.00    -0.848 OA 
HETATM   13  H   UNL     1     -14.069  12.239  64.682  1.00  0.00     0.000 HD 
ENDBRANCH  10  11
ENDBRANCH   6  10
TORSDOF 2
ENDMDL
MODEL       40
REMARK 921   NORMALIZED FREE ENERGY PREDICTED BY IDOCK:   -3.89 KCAL/MOL
REMARK 922        TOTAL FREE ENERGY PREDICTED BY IDOCK:   -4.62 KCAL/MOL
REMARK 923 INTER-LIGAND FREE ENERGY PREDICTED BY IDOCK:   -4.25 KCAL/MOL
REMARK 924 INTRA-LIGAND FREE ENERGY PREDICTED BY IDOCK:   -0.37 KCAL/MOL
REMARK 927      BINDING AFFINITY PREDICTED BY RF-SCORE:    0.00 PKD
ROOT
HETATM    1  C   UNL     1     -10.322  15.308  65.569  1.00  0.00    -0.408 C  
HETATM    2  C   UNL     1     -10.375  16.769  65.848  1.00  0.00    -0.328 A  
HETATM    3  N   UNL     1     -10.834  17.671  65.002  1.00  0.00    -0.733 NA 
HETATM    4  C   UNL     1     -10.685  18.883  65.616  1.00  0.00    -0.151 A  
HETATM    5  C   UNL     1     -10.147  18.717  66.867  1.00  0.00    -0.358 A  
HETATM    6  N   UNL     1      -9.942  17.366  67.024  1.00  0.00    -0.284 NA 
HETATM    7  N   UNL     1      -9.859  19.735  67.817  1.00  0.00    -0.375 N  
HETATM    8  O   UNL     1     -10.013  20.901  67.442  1.00  0.00    -0.397 OA 
HETATM    9  O   UNL     1      -9.497  19.385  68.946  1.00  0.00    -0.391 OA 
ENDROOT
BRANCH   6  10
HETATM   10  C   UNL     1      -9.335  16.658  68.143  1.00  0.00    -0.224 C  
BRANCH  10  11
HETATM   11  C   UNL     1     -10.356  16.045  69.098  1.00  0.00    -0.247 C  
HETATM   12  O   UNL     1     -10.906  17.034  69.964  1.00  0.00    -0.354 OA 
HETATM   13  H   UNL     1     -11.541  16.653  70.559  1.00  0.00     0.000 HD 
ENDBRANCH  10  11
ENDBRANCH   6  10
TORSDOF 2
ENDMDL
MODEL       41
REMARK 921   NORMALIZED FREE ENERGY PREDICTED BY IDOCK:   -3.87 KCAL/MOL
REMARK 922        TOTAL FREE ENERGY PREDICTED BY IDOCK:   -4.60 KCAL/MOL
REMARK 923 INTER-LIGAND FREE ENERGY PREDICTED BY IDOCK:   -4.24 KCAL/MOL
REMARK 924 INTRA-LIGAND FREE ENERGY PREDICTED BY IDOCK:   -0.36 KCAL/MOL
REMARK 927      BINDING AFFINITY PREDICTED BY RF-SCORE:    0.00 PKD
ROOT
HETATM    1  C   UNL     1     -11.810  12.647  69.314  1.00  0.00    -0.358 C  
HETATM    2  C   UNL     1     -11.503  13.748  68.360  1.00  0.00    -0.316 A  
HETATM    3  N   UNL     1     -11.308  15.003  68.713  1.00  0.00    -0.275 NA 
HETATM    4  C   UNL     1     -11.086  15.696  67.556  1.00  0.00    -0.289 A  
HETATM    5  C   UNL     1     -11.124  14.847  66.480  1.00  0.00    -0.341 A  
HETATM    6  N   UNL     1     -11.394  13.595  66.984  1.00  0.00    -0.312 NA 
HETATM    7  N   UNL     1     -10.923  15.185  65.114  1.00  0.00    -0.392 N  
HETATM    8  O   UNL     1     -10.802  16.386  64.854  1.00  0.00    -0.655 OA 
HETATM    9  O   UNL     1     -10.864  14.262  64.293  1.00  0.00    -0.238 OA 
ENDROOT
BRANCH   6  10
HETATM   10  C   UNL     1     -11.601  12.346  66.266  1.00  0.00    -0.393 C  
BRANCH  10  11
HETATM   11  C   UNL     1     -10.352  11.472  66.196  1.00  0.00    -0.245 C  
HETATM   12  O   UNL     1      -9.318  12.113  65.455  1.00  0.00    -0.427 OA 
HETATM   13  H   UNL     1      -8.540  11.570  65.411  1.00  0.00     0.000 HD 
ENDBRANCH  10  11
ENDBRANCH   6  10
TORSDOF 2
ENDMDL
MODEL       42
REMARK 921   NORMALIZED FREE ENERGY PREDICTED BY IDOCK:   -3.87 KCAL/MOL
REMARK 922        TOTAL FREE ENERGY PREDICTED BY IDOCK:   -4.60 KCAL/MOL
REMARK 923 INTER-LIGAND FREE ENERGY PREDICTED BY IDOCK:   -4.24 KCAL/MOL
REMARK 924 INTRA-LIGAND FREE ENERGY PREDICTED BY IDOCK:   -0.36 KCAL/MOL
REMARK 927      BINDING AFFINITY PREDICTED BY RF-SCORE:    0.00 PKD
ROOT
HETATM    1  C   UNL     1     -13.349  11.587  71.989  1.00  0.00    -0.397 C  
HETATM    2  C   UNL     1     -13.066  10.142  71.774  1.00  0.00    -0.463 A  
HETATM    3  N   UNL     1     -13.739   9.161  72.343  1.00  0.00    -0.484 NA 
HETATM    4  C   UNL     1     -13.157   8.000  71.916  1.00  0.00    -0.311 A  
HETATM    5  C   UNL     1     -12.127   8.275  71.055  1.00  0.00    -0.208 A  
HETATM    6  N   UNL     1     -12.058   9.646  70.959  1.00  0.00    -0.320 NA 
HETATM    7  N   UNL     1     -11.292   7.336  70.389  1.00  0.00    -0.283 N  
HETATM    8  O   UNL     1     -11.443   6.149  70.694  1.00  0.00    -0.338 OA 
HETATM    9  O   UNL     1     -10.497   7.766  69.545  1.00  0.00    -0.219 OA 
ENDROOT
BRANCH   6  10
HETATM   10  C   UNL     1     -11.102  10.464  70.226  1.00  0.00    -0.307 C  
BRANCH  10  11
HETATM   11  C   UNL     1     -11.648  10.995  68.903  1.00  0.00    -0.314 C  
HETATM   12  O   UNL     1     -11.455  10.051  67.853  1.00  0.00    -0.595 OA 
HETATM   13  H   UNL     1     -11.795  10.381  67.029  1.00  0.00     0.000 HD 
ENDBRANCH  10  11
ENDBRANCH   6  10
TORSDOF 2
ENDMDL
MODEL       43
REMARK 921   NORMALIZED FREE ENERGY PREDICTED BY IDOCK:   -3.86 KCAL/MOL
REMARK 922        TOTAL FREE ENERGY PREDICTED BY IDOCK:   -4.59 KCAL/MOL
REMARK 923 INTER-LIGAND FREE ENERGY PREDICTED BY IDOCK:   -4.56 KCAL/MOL
REMARK 924 INTRA-LIGAND FREE ENERGY PREDICTED BY IDOCK:   -0.03 KCAL/MOL
REMARK 927      BINDING AFFINITY PREDICTED BY RF-SCORE:    0.00 PKD
ROOT
HETATM    1  C   UNL     1     -10.765   9.221  68.935  1.00  0.00    -0.182 C  
HETATM    2  C   UNL     1     -11.298  10.563  69.296  1.00  0.00    -0.262 A  
HETATM    3  N   UNL     1     -11.229  11.624  68.516  1.00  0.00    -0.232 NA 
HETATM    4  C   UNL     1     -11.798  12.651  69.216  1.00  0.00    -0.302 A  
HETATM    5  C   UNL     1     -12.242  12.205  70.434  1.00  0.00    -0.294 A  
HETATM    6  N   UNL     1     -11.924  10.868  70.497  1.00  0.00    -0.343 NA 
HETATM    7  N   UNL     1     -12.902  12.967  71.437  1.00  0.00    -0.344 N  
HETATM    8  O   UNL     1     -12.997  14.182  71.235  1.00  0.00    -0.326 OA 
HETATM    9  O   UNL     1     -13.348  12.365  72.421  1.00  0.00    -0.481 OA 
ENDROOT
BRANCH   6  10
HETATM   10  C   UNL     1     -12.116   9.933  71.597  1.00  0.00    -0.373 C  
BRANCH  10  11
HETATM   11  C   UNL     1     -13.517   9.330  71.642  1.00  0.00    -0.398 C  
HETATM   12  O   UNL     1     -13.941   9.119  72.987  1.00  0.00    -1.026 OA 
HETATM   13  H   UNL     1     -14.814   8.744  73.016  1.00  0.00     0.000 HD 
ENDBRANCH  10  11
ENDBRANCH   6  10
TORSDOF 2
ENDMDL
MODEL       44
REMARK 921   NORMALIZED FREE ENERGY PREDICTED BY IDOCK:   -3.81 KCAL/MOL
REMARK 922        TOTAL FREE ENERGY PREDICTED BY IDOCK:   -4.54 KCAL/MOL
REMARK 923 INTER-LIGAND FREE ENERGY PREDICTED BY IDOCK:   -4.16 KCAL/MOL
REMARK 924 INTRA-LIGAND FREE ENERGY PREDICTED BY IDOCK:   -0.37 KCAL/MOL
REMARK 927      BINDING AFFINITY PREDICTED BY RF-SCORE:    0.00 PKD
ROOT
HETATM    1  C   UNL     1     -13.050  10.176  71.707  1.00  0.00    -0.568 C  
HETATM    2  C   UNL     1     -12.834  11.620  71.418  1.00  0.00    -0.356 A  
HETATM    3  N   UNL     1     -13.158  12.598  72.240  1.00  0.00    -0.350 NA 
HETATM    4  C   UNL     1     -12.830  13.761  71.600  1.00  0.00    -0.352 A  
HETATM    5  C   UNL     1     -12.275  13.487  70.376  1.00  0.00    -0.356 A  
HETATM    6  N   UNL     1     -12.276  12.117  70.248  1.00  0.00    -0.299 NA 
HETATM    7  N   UNL     1     -11.792  14.427  69.425  1.00  0.00    -0.306 N  
HETATM    8  O   UNL     1     -11.983  15.620  69.681  1.00  0.00    -0.351 OA 
HETATM    9  O   UNL     1     -11.204  13.991  68.429  1.00  0.00    -0.244 OA 
ENDROOT
BRANCH   6  10
HETATM   10  C   UNL     1     -11.856  11.305  69.115  1.00  0.00    -0.355 C  
BRANCH  10  11
HETATM   11  C   UNL     1     -10.457  10.716  69.276  1.00  0.00    -0.227 C  
HETATM   12  O   UNL     1      -9.460  11.731  69.191  1.00  0.00    -0.400 OA 
HETATM   13  H   UNL     1      -8.589  11.364  69.291  1.00  0.00     0.000 HD 
ENDBRANCH  10  11
ENDBRANCH   6  10
TORSDOF 2
ENDMDL
MODEL       45
REMARK 921   NORMALIZED FREE ENERGY PREDICTED BY IDOCK:   -3.78 KCAL/MOL
REMARK 922        TOTAL FREE ENERGY PREDICTED BY IDOCK:   -4.50 KCAL/MOL
REMARK 923 INTER-LIGAND FREE ENERGY PREDICTED BY IDOCK:   -4.41 KCAL/MOL
REMARK 924 INTRA-LIGAND FREE ENERGY PREDICTED BY IDOCK:   -0.08 KCAL/MOL
REMARK 927      BINDING AFFINITY PREDICTED BY RF-SCORE:    0.00 PKD
ROOT
HETATM    1  C   UNL     1      -8.204  15.158  68.835  1.00  0.00    -0.181 C  
HETATM    2  C   UNL     1      -9.048  15.381  67.629  1.00  0.00    -0.182 A  
HETATM    3  N   UNL     1      -9.575  14.416  66.902  1.00  0.00    -0.246 NA 
HETATM    4  C   UNL     1     -10.246  15.029  65.881  1.00  0.00    -0.315 A  
HETATM    5  C   UNL     1     -10.147  16.391  65.999  1.00  0.00    -0.353 A  
HETATM    6  N   UNL     1      -9.378  16.628  67.115  1.00  0.00    -0.225 NA 
HETATM    7  N   UNL     1     -10.722  17.370  65.143  1.00  0.00    -0.067 N  
HETATM    8  O   UNL     1     -11.288  16.952  64.127  1.00  0.00    -1.208 OA 
HETATM    9  O   UNL     1     -10.636  18.556  65.481  1.00  0.00    -0.621 OA 
ENDROOT
BRANCH   6  10
HETATM   10  C   UNL     1      -8.916  17.900  67.654  1.00  0.00    -0.250 C  
BRANCH  10  11
HETATM   11  C   UNL     1      -7.628  18.400  67.007  1.00  0.00    -0.220 C  
HETATM   12  O   UNL     1      -7.494  17.902  65.678  1.00  0.00    -0.544 OA 
HETATM   13  H   UNL     1      -6.692  18.213  65.275  1.00  0.00     0.000 HD 
ENDBRANCH  10  11
ENDBRANCH   6  10
TORSDOF 2
ENDMDL
MODEL       46
REMARK 921   NORMALIZED FREE ENERGY PREDICTED BY IDOCK:   -3.78 KCAL/MOL
REMARK 922        TOTAL FREE ENERGY PREDICTED BY IDOCK:   -4.49 KCAL/MOL
REMARK 923 INTER-LIGAND FREE ENERGY PREDICTED BY IDOCK:   -4.41 KCAL/MOL
REMARK 924 INTRA-LIGAND FREE ENERGY PREDICTED BY IDOCK:   -0.09 KCAL/MOL
REMARK 927      BINDING AFFINITY PREDICTED BY RF-SCORE:    0.00 PKD
ROOT
HETATM    1  C   UNL     1     -11.063   7.071  70.216  1.00  0.00    -0.323 C  
HETATM    2  C   UNL     1     -11.160   8.514  69.863  1.00  0.00    -0.112 A  
HETATM    3  N   UNL     1     -10.710   9.035  68.739  1.00  0.00    -0.159 NA 
HETATM    4  C   UNL     1     -10.962  10.377  68.812  1.00  0.00    -0.245 A  
HETATM    5  C   UNL     1     -11.597  10.677  69.989  1.00  0.00    -0.325 A  
HETATM    6  N   UNL     1     -11.726   9.489  70.673  1.00  0.00    -0.273 NA 
HETATM    7  N   UNL     1     -12.038  11.957  70.424  1.00  0.00    -0.358 N  
HETATM    8  O   UNL     1     -11.728  12.918  69.714  1.00  0.00    -0.307 OA 
HETATM    9  O   UNL     1     -12.710  12.015  71.460  1.00  0.00    -0.336 OA 
ENDROOT
BRANCH   6  10
HETATM   10  C   UNL     1     -12.272   9.254  72.002  1.00  0.00    -0.348 C  
BRANCH  10  11
HETATM   11  C   UNL     1     -13.742   8.845  71.991  1.00  0.00    -0.459 C  
HETATM   12  O   UNL     1     -14.262   8.764  73.316  1.00  0.00    -1.164 OA 
HETATM   13  H   UNL     1     -15.177   8.509  73.309  1.00  0.00     0.000 HD 
ENDBRANCH  10  11
ENDBRANCH   6  10
TORSDOF 2
ENDMDL
MODEL       47
REMARK 921   NORMALIZED FREE ENERGY PREDICTED BY IDOCK:   -3.77 KCAL/MOL
REMARK 922        TOTAL FREE ENERGY PREDICTED BY IDOCK:   -4.48 KCAL/MOL
REMARK 923 INTER-LIGAND FREE ENERGY PREDICTED BY IDOCK:   -4.08 KCAL/MOL
REMARK 924 INTRA-LIGAND FREE ENERGY PREDICTED BY IDOCK:   -0.41 KCAL/MOL
REMARK 927      BINDING AFFINITY PREDICTED BY RF-SCORE:    0.00 PKD
ROOT
HETATM    1  C   UNL     1     -11.031   7.825  70.204  1.00  0.00    -0.246 C  
HETATM    2  C   UNL     1     -11.767   8.956  70.832  1.00  0.00    -0.267 A  
HETATM    3  N   UNL     1     -12.652   8.820  71.800  1.00  0.00    -0.335 NA 
HETATM    4  C   UNL     1     -13.114  10.077  72.075  1.00  0.00    -0.441 A  
HETATM    5  C   UNL     1     -12.486  10.998  71.278  1.00  0.00    -0.370 A  
HETATM    6  N   UNL     1     -11.622  10.290  70.475  1.00  0.00    -0.314 NA 
HETATM    7  N   UNL     1     -12.682  12.407  71.277  1.00  0.00    -0.320 N  
HETATM    8  O   UNL     1     -13.586  12.839  71.998  1.00  0.00    -0.466 OA 
HETATM    9  O   UNL     1     -11.929  13.094  70.578  1.00  0.00    -0.320 OA 
ENDROOT
BRANCH   6  10
HETATM   10  C   UNL     1     -10.760  10.777  69.407  1.00  0.00    -0.233 C  
BRANCH  10  11
HETATM   11  C   UNL     1     -11.434  10.778  68.037  1.00  0.00    -0.256 C  
HETATM   12  O   UNL     1     -12.199  11.965  67.844  1.00  0.00    -0.508 OA 
HETATM   13  H   UNL     1     -12.619  11.967  66.991  1.00  0.00     0.000 HD 
ENDBRANCH  10  11
ENDBRANCH   6  10
TORSDOF 2
ENDMDL
MODEL       48
REMARK 921   NORMALIZED FREE ENERGY PREDICTED BY IDOCK:   -3.75 KCAL/MOL
REMARK 922        TOTAL FREE ENERGY PREDICTED BY IDOCK:   -4.46 KCAL/MOL
REMARK 923 INTER-LIGAND FREE ENERGY PREDICTED BY IDOCK:   -4.07 KCAL/MOL
REMARK 924 INTRA-LIGAND FREE ENERGY PREDICTED BY IDOCK:   -0.39 KCAL/MOL
REMARK 927      BINDING AFFINITY PREDICTED BY RF-SCORE:    0.00 PKD
ROOT
HETATM    1  C   UNL     1     -12.397  15.255  70.223  1.00  0.00    -0.407 C  
HETATM    2  C   UNL     1     -12.107  13.872  69.754  1.00  0.00    -0.345 A  
HETATM    3  N   UNL     1     -12.099  12.810  70.534  1.00  0.00    -0.349 NA 
HETATM    4  C   UNL     1     -11.763  11.752  69.736  1.00  0.00    -0.335 A  
HETATM    5  C   UNL     1     -11.586  12.171  68.443  1.00  0.00    -0.327 A  
HETATM    6  N   UNL     1     -11.801  13.530  68.443  1.00  0.00    -0.360 NA 
HETATM    7  N   UNL     1     -11.248  11.367  67.319  1.00  0.00    -0.301 N  
HETATM    8  O   UNL     1     -10.988  10.182  67.547  1.00  0.00    -0.298 OA 
HETATM    9  O   UNL     1     -11.259  11.900  66.204  1.00  0.00    -0.319 OA 
ENDROOT
BRANCH   6  10
HETATM   10  C   UNL     1     -11.679  14.476  67.343  1.00  0.00    -0.400 C  
BRANCH  10  11
HETATM   11  C   UNL     1     -10.276  15.060  67.198  1.00  0.00    -0.249 C  
HETATM   12  O   UNL     1      -9.535  14.373  66.193  1.00  0.00    -0.380 OA 
HETATM   13  H   UNL     1      -8.662  14.737  66.103  1.00  0.00     0.000 HD 
ENDBRANCH  10  11
ENDBRANCH   6  10
TORSDOF 2
ENDMDL
MODEL       49
REMARK 921   NORMALIZED FREE ENERGY PREDICTED BY IDOCK:   -3.75 KCAL/MOL
REMARK 922        TOTAL FREE ENERGY PREDICTED BY IDOCK:   -4.46 KCAL/MOL
REMARK 923 INTER-LIGAND FREE ENERGY PREDICTED BY IDOCK:   -4.06 KCAL/MOL
REMARK 924 INTRA-LIGAND FREE ENERGY PREDICTED BY IDOCK:   -0.40 KCAL/MOL
REMARK 927      BINDING AFFINITY PREDICTED BY RF-SCORE:    0.00 PKD
ROOT
HETATM    1  C   UNL     1     -10.126  10.349  65.821  1.00  0.00    -0.329 C  
HETATM    2  C   UNL     1     -10.644  11.084  67.007  1.00  0.00    -0.256 A  
HETATM    3  N   UNL     1     -10.774  10.557  68.208  1.00  0.00    -0.212 NA 
HETATM    4  C   UNL     1     -11.303  11.537  69.001  1.00  0.00    -0.276 A  
HETATM    5  C   UNL     1     -11.478  12.688  68.278  1.00  0.00    -0.313 A  
HETATM    6  N   UNL     1     -11.061  12.408  66.996  1.00  0.00    -0.264 NA 
HETATM    7  N   UNL     1     -11.987  13.929  68.751  1.00  0.00    -0.356 N  
HETATM    8  O   UNL     1     -12.412  13.946  69.910  1.00  0.00    -0.320 OA 
HETATM    9  O   UNL     1     -11.950  14.899  67.984  1.00  0.00    -0.306 OA 
ENDROOT
BRANCH   6  10
HETATM   10  C   UNL     1     -11.093  13.262  65.818  1.00  0.00    -0.279 C  
BRANCH  10  11
HETATM   11  C   UNL     1     -12.399  13.165  65.034  1.00  0.00    -0.459 C  
HETATM   12  O   UNL     1     -13.398  14.011  65.596  1.00  0.00    -0.690 OA 
HETATM   13  H   UNL     1     -14.211  13.952  65.108  1.00  0.00     0.000 HD 
ENDBRANCH  10  11
ENDBRANCH   6  10
TORSDOF 2
ENDMDL
MODEL       50
REMARK 921   NORMALIZED FREE ENERGY PREDICTED BY IDOCK:   -3.74 KCAL/MOL
REMARK 922        TOTAL FREE ENERGY PREDICTED BY IDOCK:   -4.46 KCAL/MOL
REMARK 923 INTER-LIGAND FREE ENERGY PREDICTED BY IDOCK:   -4.11 KCAL/MOL
REMARK 924 INTRA-LIGAND FREE ENERGY PREDICTED BY IDOCK:   -0.35 KCAL/MOL
REMARK 927      BINDING AFFINITY PREDICTED BY RF-SCORE:    0.00 PKD
ROOT
HETATM    1  C   UNL     1     -10.985  13.238  67.562  1.00  0.00    -0.281 C  
HETATM    2  C   UNL     1     -11.641  13.463  68.879  1.00  0.00    -0.314 A  
HETATM    3  N   UNL     1     -11.863  14.652  69.405  1.00  0.00    -0.312 NA 
HETATM    4  C   UNL     1     -12.450  14.430  70.619  1.00  0.00    -0.350 A  
HETATM    5  C   UNL     1     -12.610  13.085  70.829  1.00  0.00    -0.241 A  
HETATM    6  N   UNL     1     -12.092  12.455  69.721  1.00  0.00    -0.262 NA 
HETATM    7  N   UNL     1     -13.196  12.458  71.964  1.00  0.00    -0.469 N  
HETATM    8  O   UNL     1     -13.502  13.195  72.906  1.00  0.00    -0.535 OA 
HETATM    9  O   UNL     1     -13.375  11.236  71.920  1.00  0.00    -0.429 OA 
ENDROOT
BRANCH   6  10
HETATM   10  C   UNL     1     -11.955  11.030  69.460  1.00  0.00    -0.342 C  
BRANCH  10  11
HETATM   11  C   UNL     1     -10.605  10.462  69.888  1.00  0.00    -0.251 C  
HETATM   12  O   UNL     1     -10.713   9.755  71.121  1.00  0.00    -0.324 OA 
HETATM   13  H   UNL     1      -9.872   9.402  71.387  1.00  0.00     0.000 HD 
ENDBRANCH  10  11
ENDBRANCH   6  10
TORSDOF 2
ENDMDL
MODEL       51
REMARK 921   NORMALIZED FREE ENERGY PREDICTED BY IDOCK:   -3.74 KCAL/MOL
REMARK 922        TOTAL FREE ENERGY PREDICTED BY IDOCK:   -4.46 KCAL/MOL
REMARK 923 INTER-LIGAND FREE ENERGY PREDICTED BY IDOCK:   -4.05 KCAL/MOL
REMARK 924 INTRA-LIGAND FREE ENERGY PREDICTED BY IDOCK:   -0.40 KCAL/MOL
REMARK 927      BINDING AFFINITY PREDICTED BY RF-SCORE:    0.00 PKD
ROOT
HETATM    1  C   UNL     1     -10.329  15.994  68.299  1.00  0.00    -0.261 C  
HETATM    2  C   UNL     1     -10.521  15.373  66.960  1.00  0.00    -0.295 A  
HETATM    3  N   UNL     1     -10.782  16.049  65.858  1.00  0.00    -0.309 NA 
HETATM    4  C   UNL     1     -10.914  15.122  64.863  1.00  0.00    -0.419 A  
HETATM    5  C   UNL     1     -10.709  13.860  65.359  1.00  0.00    -0.325 A  
HETATM    6  N   UNL     1     -10.459  14.010  66.704  1.00  0.00    -0.270 NA 
HETATM    7  N   UNL     1     -10.745  12.637  64.635  1.00  0.00    -0.308 N  
HETATM    8  O   UNL     1     -11.097  12.705  63.453  1.00  0.00    -0.450 OA 
HETATM    9  O   UNL     1     -10.406  11.606  65.226  1.00  0.00    -0.247 OA 
ENDROOT
BRANCH   6  10
HETATM   10  C   UNL     1     -10.238  12.983  67.713  1.00  0.00    -0.228 C  
BRANCH  10  11
HETATM   11  C   UNL     1     -11.526  12.483  68.362  1.00  0.00    -0.312 C  
HETATM   12  O   UNL     1     -12.096  11.413  67.613  1.00  0.00    -0.630 OA 
HETATM   13  H   UNL     1     -12.898  11.102  68.016  1.00  0.00     0.000 HD 
ENDBRANCH  10  11
ENDBRANCH   6  10
TORSDOF 2
ENDMDL
MODEL       52
REMARK 921   NORMALIZED FREE ENERGY PREDICTED BY IDOCK:   -3.74 KCAL/MOL
REMARK 922        TOTAL FREE ENERGY PREDICTED BY IDOCK:   -4.45 KCAL/MOL
REMARK 923 INTER-LIGAND FREE ENERGY PREDICTED BY IDOCK:   -4.38 KCAL/MOL
REMARK 924 INTRA-LIGAND FREE ENERGY PREDICTED BY IDOCK:   -0.08 KCAL/MOL
REMARK 927      BINDING AFFINITY PREDICTED BY RF-SCORE:    0.00 PKD
ROOT
HETATM    1  C   UNL     1      -7.453  19.316  69.017  1.00  0.00    -0.372 C  
HETATM    2  C   UNL     1      -8.375  19.104  67.868  1.00  0.00    -0.298 A  
HETATM    3  N   UNL     1      -8.879  20.075  67.132  1.00  0.00    -0.331 NA 
HETATM    4  C   UNL     1      -9.691  19.474  66.211  1.00  0.00    -0.402 A  
HETATM    5  C   UNL     1      -9.666  18.113  66.373  1.00  0.00    -0.327 A  
HETATM    6  N   UNL     1      -8.827  17.865  67.435  1.00  0.00    -0.243 NA 
HETATM    7  N   UNL     1     -10.363  17.145  65.599  1.00  0.00    -0.253 N  
HETATM    8  O   UNL     1     -11.155  17.577  64.756  1.00  0.00    -0.959 OA 
HETATM    9  O   UNL     1     -10.116  15.952  65.808  1.00  0.00    -0.314 OA 
ENDROOT
BRANCH   6  10
HETATM   10  C   UNL     1      -8.499  16.593  68.063  1.00  0.00    -0.192 C  
BRANCH  10  11
HETATM   11  C   UNL     1      -9.548  16.124  69.068  1.00  0.00    -0.251 C  
HETATM   12  O   UNL     1      -9.203  14.854  69.614  1.00  0.00    -0.434 OA 
HETATM   13  H   UNL     1      -9.856  14.562  70.240  1.00  0.00     0.000 HD 
ENDBRANCH  10  11
ENDBRANCH   6  10
TORSDOF 2
ENDMDL
MODEL       53
REMARK 921   NORMALIZED FREE ENERGY PREDICTED BY IDOCK:   -3.74 KCAL/MOL
REMARK 922        TOTAL FREE ENERGY PREDICTED BY IDOCK:   -4.45 KCAL/MOL
REMARK 923 INTER-LIGAND FREE ENERGY PREDICTED BY IDOCK:   -4.05 KCAL/MOL
REMARK 924 INTRA-LIGAND FREE ENERGY PREDICTED BY IDOCK:   -0.40 KCAL/MOL
REMARK 927      BINDING AFFINITY PREDICTED BY RF-SCORE:    0.00 PKD
ROOT
HETATM    1  C   UNL     1     -11.053   7.761  72.404  1.00  0.00    -0.379 C  
HETATM    2  C   UNL     1     -11.392   8.795  71.388  1.00  0.00    -0.294 A  
HETATM    3  N   UNL     1     -12.111   9.872  71.635  1.00  0.00    -0.398 NA 
HETATM    4  C   UNL     1     -12.218  10.541  70.448  1.00  0.00    -0.328 A  
HETATM    5  C   UNL     1     -11.535   9.874  69.464  1.00  0.00    -0.068 A  
HETATM    6  N   UNL     1     -11.004   8.751  70.055  1.00  0.00    -0.236 NA 
HETATM    7  N   UNL     1     -11.397  10.261  68.103  1.00  0.00    -0.233 N  
HETATM    8  O   UNL     1     -12.044  11.249  67.741  1.00  0.00    -0.631 OA 
HETATM    9  O   UNL     1     -10.633   9.602  67.389  1.00  0.00    -0.258 OA 
ENDROOT
BRANCH   6  10
HETATM   10  C   UNL     1     -10.243   7.670  69.445  1.00  0.00    -0.206 C  
BRANCH  10  11
HETATM   11  C   UNL     1     -11.116   6.527  68.935  1.00  0.00    -0.301 C  
HETATM   12  O   UNL     1     -11.422   6.692  67.552  1.00  0.00    -0.721 OA 
HETATM   13  H   UNL     1     -11.965   5.981  67.234  1.00  0.00     0.000 HD 
ENDBRANCH  10  11
ENDBRANCH   6  10
TORSDOF 2
ENDMDL
MODEL       54
REMARK 921   NORMALIZED FREE ENERGY PREDICTED BY IDOCK:   -3.73 KCAL/MOL
REMARK 922        TOTAL FREE ENERGY PREDICTED BY IDOCK:   -4.44 KCAL/MOL
REMARK 923 INTER-LIGAND FREE ENERGY PREDICTED BY IDOCK:   -4.06 KCAL/MOL
REMARK 924 INTRA-LIGAND FREE ENERGY PREDICTED BY IDOCK:   -0.38 KCAL/MOL
REMARK 927      BINDING AFFINITY PREDICTED BY RF-SCORE:    0.00 PKD
ROOT
HETATM    1  C   UNL     1      -9.857   7.524  69.028  1.00  0.00    -0.170 C  
HETATM    2  C   UNL     1     -10.608   8.657  69.633  1.00  0.00    -0.218 A  
HETATM    3  N   UNL     1     -10.417   9.924  69.324  1.00  0.00    -0.208 NA 
HETATM    4  C   UNL     1     -11.272  10.644  70.112  1.00  0.00    -0.302 A  
HETATM    5  C   UNL     1     -12.014   9.801  70.899  1.00  0.00    -0.328 A  
HETATM    6  N   UNL     1     -11.594   8.524  70.602  1.00  0.00    -0.241 NA 
HETATM    7  N   UNL     1     -13.019  10.166  71.836  1.00  0.00    -0.441 N  
HETATM    8  O   UNL     1     -13.173  11.375  72.038  1.00  0.00    -0.503 OA 
HETATM    9  O   UNL     1     -13.676   9.260  72.361  1.00  0.00    -0.465 OA 
ENDROOT
BRANCH   6  10
HETATM   10  C   UNL     1     -12.011   7.263  71.199  1.00  0.00    -0.328 C  
BRANCH  10  11
HETATM   11  C   UNL     1     -11.149   6.839  72.385  1.00  0.00    -0.257 C  
HETATM   12  O   UNL     1     -11.418   7.646  73.529  1.00  0.00    -0.597 OA 
HETATM   13  H   UNL     1     -10.882   7.383  74.268  1.00  0.00     0.000 HD 
ENDBRANCH  10  11
ENDBRANCH   6  10
TORSDOF 2
ENDMDL
MODEL       55
REMARK 921   NORMALIZED FREE ENERGY PREDICTED BY IDOCK:   -3.71 KCAL/MOL
REMARK 922        TOTAL FREE ENERGY PREDICTED BY IDOCK:   -4.42 KCAL/MOL
REMARK 923 INTER-LIGAND FREE ENERGY PREDICTED BY IDOCK:   -4.45 KCAL/MOL
REMARK 924 INTRA-LIGAND FREE ENERGY PREDICTED BY IDOCK:    0.03 KCAL/MOL
REMARK 927      BINDING AFFINITY PREDICTED BY RF-SCORE:    0.00 PKD
ROOT
HETATM    1  C   UNL     1     -11.753  13.549  69.244  1.00  0.00    -0.382 C  
HETATM    2  C   UNL     1     -11.344  14.867  68.685  1.00  0.00    -0.292 A  
HETATM    3  N   UNL     1     -11.265  15.979  69.389  1.00  0.00    -0.328 NA 
HETATM    4  C   UNL     1     -10.887  16.959  68.514  1.00  0.00    -0.335 A  
HETATM    5  C   UNL     1     -10.710  16.433  67.260  1.00  0.00    -0.257 A  
HETATM    6  N   UNL     1     -11.003  15.092  67.358  1.00  0.00    -0.307 NA 
HETATM    7  N   UNL     1     -10.303  17.128  66.088  1.00  0.00    -0.343 N  
HETATM    8  O   UNL     1     -10.195  18.354  66.182  1.00  0.00    -0.396 OA 
HETATM    9  O   UNL     1     -10.069  16.461  65.073  1.00  0.00    -0.486 OA 
ENDROOT
BRANCH   6  10
HETATM   10  C   UNL     1     -11.034  14.084  66.308  1.00  0.00    -0.300 C  
BRANCH  10  11
HETATM   11  C   UNL     1     -12.444  13.615  65.959  1.00  0.00    -0.426 C  
HETATM   12  O   UNL     1     -12.440  12.257  65.526  1.00  0.00    -0.597 OA 
HETATM   13  H   UNL     1     -13.318  11.965  65.309  1.00  0.00     0.000 HD 
ENDBRANCH  10  11
ENDBRANCH   6  10
TORSDOF 2
ENDMDL
MODEL       56
REMARK 921   NORMALIZED FREE ENERGY PREDICTED BY IDOCK:   -3.67 KCAL/MOL
REMARK 922        TOTAL FREE ENERGY PREDICTED BY IDOCK:   -4.38 KCAL/MOL
REMARK 923 INTER-LIGAND FREE ENERGY PREDICTED BY IDOCK:   -4.24 KCAL/MOL
REMARK 924 INTRA-LIGAND FREE ENERGY PREDICTED BY IDOCK:   -0.14 KCAL/MOL
REMARK 927      BINDING AFFINITY PREDICTED BY RF-SCORE:    0.00 PKD
ROOT
HETATM    1  C   UNL     1     -12.881  14.005  65.853  1.00  0.00    -0.354 C  
HETATM    2  C   UNL     1     -12.182  13.115  64.886  1.00  0.00    -0.428 A  
HETATM    3  N   UNL     1     -12.512  12.994  63.616  1.00  0.00    -0.723 NA 
HETATM    4  C   UNL     1     -11.657  12.070  63.084  1.00  0.00    -0.177 A  
HETATM    5  C   UNL     1     -10.776  11.635  64.040  1.00  0.00    -0.384 A  
HETATM    6  N   UNL     1     -11.105  12.296  65.201  1.00  0.00    -0.308 NA 
HETATM    7  N   UNL     1      -9.727  10.689  63.872  1.00  0.00    -0.296 N  
HETATM    8  O   UNL     1      -9.663  10.123  62.777  1.00  0.00    -0.260 OA 
HETATM    9  O   UNL     1      -8.947  10.517  64.817  1.00  0.00    -0.187 OA 
ENDROOT
BRANCH   6  10
HETATM   10  C   UNL     1     -10.526  12.156  66.529  1.00  0.00    -0.225 C  
BRANCH  10  11
HETATM   11  C   UNL     1     -11.089  10.975  67.315  1.00  0.00    -0.294 C  
HETATM   12  O   UNL     1     -12.208  11.370  68.104  1.00  0.00    -0.602 OA 
HETATM   13  H   UNL     1     -12.559  10.635  68.593  1.00  0.00     0.000 HD 
ENDBRANCH  10  11
ENDBRANCH   6  10
TORSDOF 2
ENDMDL
MODEL       57
REMARK 921   NORMALIZED FREE ENERGY PREDICTED BY IDOCK:   -3.64 KCAL/MOL
REMARK 922        TOTAL FREE ENERGY PREDICTED BY IDOCK:   -4.34 KCAL/MOL
REMARK 923 INTER-LIGAND FREE ENERGY PREDICTED BY IDOCK:   -4.17 KCAL/MOL
REMARK 924 INTRA-LIGAND FREE ENERGY PREDICTED BY IDOCK:   -0.17 KCAL/MOL
REMARK 927      BINDING AFFINITY PREDICTED BY RF-SCORE:    0.00 PKD
ROOT
HETATM    1  C   UNL     1     -12.041  11.429  70.358  1.00  0.00    -0.473 C  
HETATM    2  C   UNL     1     -11.703  11.630  68.923  1.00  0.00    -0.334 A  
HETATM    3  N   UNL     1     -11.349  10.662  68.100  1.00  0.00    -0.336 NA 
HETATM    4  C   UNL     1     -11.097  11.257  66.896  1.00  0.00    -0.275 A  
HETATM    5  C   UNL     1     -11.322  12.607  66.977  1.00  0.00    -0.323 A  
HETATM    6  N   UNL     1     -11.707  12.858  68.274  1.00  0.00    -0.333 NA 
HETATM    7  N   UNL     1     -11.186  13.564  65.933  1.00  0.00    -0.299 N  
HETATM    8  O   UNL     1     -10.720  13.154  64.866  1.00  0.00    -0.312 OA 
HETATM    9  O   UNL     1     -11.559  14.721  66.158  1.00  0.00    -0.355 OA 
ENDROOT
BRANCH   6  10
HETATM   10  C   UNL     1     -12.004  14.134  68.909  1.00  0.00    -0.341 C  
BRANCH  10  11
HETATM   11  C   UNL     1     -10.786  14.785  69.560  1.00  0.00    -0.250 C  
HETATM   12  O   UNL     1     -10.983  14.955  70.961  1.00  0.00    -0.537 OA 
HETATM   13  H   UNL     1     -10.226  15.360  71.367  1.00  0.00     0.000 HD 
ENDBRANCH  10  11
ENDBRANCH   6  10
TORSDOF 2
ENDMDL
MODEL       58
REMARK 921   NORMALIZED FREE ENERGY PREDICTED BY IDOCK:   -3.62 KCAL/MOL
REMARK 922        TOTAL FREE ENERGY PREDICTED BY IDOCK:   -4.33 KCAL/MOL
REMARK 923 INTER-LIGAND FREE ENERGY PREDICTED BY IDOCK:   -4.19 KCAL/MOL
REMARK 924 INTRA-LIGAND FREE ENERGY PREDICTED BY IDOCK:   -0.14 KCAL/MOL
REMARK 927      BINDING AFFINITY PREDICTED BY RF-SCORE:    0.00 PKD
ROOT
HETATM    1  C   UNL     1     -10.194  16.493  67.246  1.00  0.00    -0.287 C  
HETATM    2  C   UNL     1     -10.725  15.358  68.051  1.00  0.00    -0.279 A  
HETATM    3  N   UNL     1     -11.013  15.430  69.335  1.00  0.00    -0.257 NA 
HETATM    4  C   UNL     1     -11.440  14.184  69.701  1.00  0.00    -0.273 A  
HETATM    5  C   UNL     1     -11.435  13.344  68.618  1.00  0.00    -0.310 A  
HETATM    6  N   UNL     1     -10.975  14.086  67.554  1.00  0.00    -0.273 NA 
HETATM    7  N   UNL     1     -11.827  11.977  68.592  1.00  0.00    -0.322 N  
HETATM    8  O   UNL     1     -12.106  11.461  69.678  1.00  0.00    -0.308 OA 
HETATM    9  O   UNL     1     -11.880  11.413  67.493  1.00  0.00    -0.614 OA 
ENDROOT
BRANCH   6  10
HETATM   10  C   UNL     1     -10.718  13.660  66.186  1.00  0.00    -0.286 C  
BRANCH  10  11
HETATM   11  C   UNL     1     -11.832  14.039  65.214  1.00  0.00    -0.359 C  
HETATM   12  O   UNL     1     -11.349  14.911  64.195  1.00  0.00    -0.622 OA 
HETATM   13  H   UNL     1     -12.042  15.147  63.589  1.00  0.00     0.000 HD 
ENDBRANCH  10  11
ENDBRANCH   6  10
TORSDOF 2
ENDMDL
MODEL       59
REMARK 921   NORMALIZED FREE ENERGY PREDICTED BY IDOCK:   -3.62 KCAL/MOL
REMARK 922        TOTAL FREE ENERGY PREDICTED BY IDOCK:   -4.32 KCAL/MOL
REMARK 923 INTER-LIGAND FREE ENERGY PREDICTED BY IDOCK:   -4.00 KCAL/MOL
REMARK 924 INTRA-LIGAND FREE ENERGY PREDICTED BY IDOCK:   -0.33 KCAL/MOL
REMARK 927      BINDING AFFINITY PREDICTED BY RF-SCORE:    0.00 PKD
ROOT
HETATM    1  C   UNL     1     -10.455  16.202  65.352  1.00  0.00    -0.396 C  
HETATM    2  C   UNL     1     -10.984  14.865  65.738  1.00  0.00    -0.345 A  
HETATM    3  N   UNL     1     -12.002  14.271  65.148  1.00  0.00    -0.378 NA 
HETATM    4  C   UNL     1     -12.190  13.088  65.808  1.00  0.00    -0.453 A  
HETATM    5  C   UNL     1     -11.258  12.948  66.803  1.00  0.00    -0.298 A  
HETATM    6  N   UNL     1     -10.480  14.083  66.769  1.00  0.00    -0.276 NA 
HETATM    7  N   UNL     1     -11.115  11.849  67.695  1.00  0.00    -0.240 N  
HETATM    8  O   UNL     1     -11.983  10.973  67.637  1.00  0.00    -0.583 OA 
HETATM    9  O   UNL     1     -10.131  11.838  68.444  1.00  0.00    -0.192 OA 
ENDROOT
BRANCH   6  10
HETATM   10  C   UNL     1      -9.389  14.470  67.651  1.00  0.00    -0.202 C  
BRANCH  10  11
HETATM   11  C   UNL     1      -9.846  15.266  68.870  1.00  0.00    -0.221 C  
HETATM   12  O   UNL     1     -10.688  14.479  69.709  1.00  0.00    -0.414 OA 
HETATM   13  H   UNL     1     -10.974  14.974  70.469  1.00  0.00     0.000 HD 
ENDBRANCH  10  11
ENDBRANCH   6  10
TORSDOF 2
ENDMDL
MODEL       60
REMARK 921   NORMALIZED FREE ENERGY PREDICTED BY IDOCK:   -3.61 KCAL/MOL
REMARK 922        TOTAL FREE ENERGY PREDICTED BY IDOCK:   -4.31 KCAL/MOL
REMARK 923 INTER-LIGAND FREE ENERGY PREDICTED BY IDOCK:   -3.92 KCAL/MOL
REMARK 924 INTRA-LIGAND FREE ENERGY PREDICTED BY IDOCK:   -0.40 KCAL/MOL
REMARK 927      BINDING AFFINITY PREDICTED BY RF-SCORE:    0.00 PKD
ROOT
HETATM    1  C   UNL     1      -6.263  20.062  70.629  1.00  0.00    -0.316 C  
HETATM    2  C   UNL     1      -6.217  20.289  69.159  1.00  0.00    -0.327 A  
HETATM    3  N   UNL     1      -5.385  21.120  68.562  1.00  0.00    -0.314 NA 
HETATM    4  C   UNL     1      -5.679  21.062  67.228  1.00  0.00    -0.263 A  
HETATM    5  C   UNL     1      -6.691  20.165  67.004  1.00  0.00    -0.223 A  
HETATM    6  N   UNL     1      -7.046  19.665  68.236  1.00  0.00    -0.292 NA 
HETATM    7  N   UNL     1      -7.264  19.814  65.750  1.00  0.00    -0.309 N  
HETATM    8  O   UNL     1      -6.881  20.458  64.768  1.00  0.00    -0.285 OA 
HETATM    9  O   UNL     1      -8.080  18.886  65.728  1.00  0.00    -0.472 OA 
ENDROOT
BRANCH   6  10
HETATM   10  C   UNL     1      -8.108  18.728  68.571  1.00  0.00    -0.346 C  
BRANCH  10  11
HETATM   11  C   UNL     1      -9.458  19.400  68.808  1.00  0.00    -0.404 C  
HETATM   12  O   UNL     1     -10.238  19.419  67.615  1.00  0.00    -0.363 OA 
HETATM   13  H   UNL     1     -11.078  19.838  67.762  1.00  0.00     0.000 HD 
ENDBRANCH  10  11
ENDBRANCH   6  10
TORSDOF 2
ENDMDL
MODEL       61
REMARK 921   NORMALIZED FREE ENERGY PREDICTED BY IDOCK:   -3.61 KCAL/MOL
REMARK 922        TOTAL FREE ENERGY PREDICTED BY IDOCK:   -4.31 KCAL/MOL
REMARK 923 INTER-LIGAND FREE ENERGY PREDICTED BY IDOCK:   -3.98 KCAL/MOL
REMARK 924 INTRA-LIGAND FREE ENERGY PREDICTED BY IDOCK:   -0.33 KCAL/MOL
REMARK 927      BINDING AFFINITY PREDICTED BY RF-SCORE:    0.00 PKD
ROOT
HETATM    1  C   UNL     1      -9.664   7.427  69.832  1.00  0.00    -0.171 C  
HETATM    2  C   UNL     1     -10.436   8.680  70.054  1.00  0.00    -0.223 A  
HETATM    3  N   UNL     1     -10.259   9.792  69.368  1.00  0.00    -0.196 NA 
HETATM    4  C   UNL     1     -11.131  10.706  69.890  1.00  0.00    -0.298 A  
HETATM    5  C   UNL     1     -11.869  10.137  70.895  1.00  0.00    -0.374 A  
HETATM    6  N   UNL     1     -11.430   8.838  71.011  1.00  0.00    -0.277 NA 
HETATM    7  N   UNL     1     -12.888  10.759  71.668  1.00  0.00    -0.449 N  
HETATM    8  O   UNL     1     -13.060  11.968  71.486  1.00  0.00    -0.390 OA 
HETATM    9  O   UNL     1     -13.538  10.049  72.445  1.00  0.00    -0.341 OA 
ENDROOT
BRANCH   6  10
HETATM   10  C   UNL     1     -11.836   7.817  71.966  1.00  0.00    -0.307 C  
BRANCH  10  11
HETATM   11  C   UNL     1     -12.888   6.857  71.417  1.00  0.00    -0.311 C  
HETATM   12  O   UNL     1     -14.007   7.568  70.894  1.00  0.00    -0.639 OA 
HETATM   13  H   UNL     1     -14.663   6.971  70.553  1.00  0.00     0.000 HD 
ENDBRANCH  10  11
ENDBRANCH   6  10
TORSDOF 2
ENDMDL
MODEL       62
REMARK 921   NORMALIZED FREE ENERGY PREDICTED BY IDOCK:   -3.59 KCAL/MOL
REMARK 922        TOTAL FREE ENERGY PREDICTED BY IDOCK:   -4.28 KCAL/MOL
REMARK 923 INTER-LIGAND FREE ENERGY PREDICTED BY IDOCK:   -4.13 KCAL/MOL
REMARK 924 INTRA-LIGAND FREE ENERGY PREDICTED BY IDOCK:   -0.15 KCAL/MOL
REMARK 927      BINDING AFFINITY PREDICTED BY RF-SCORE:    0.00 PKD
ROOT
HETATM    1  C   UNL     1     -14.100   8.792  72.376  1.00  0.00    -0.485 C  
HETATM    2  C   UNL     1     -12.906   9.297  71.645  1.00  0.00    -0.372 A  
HETATM    3  N   UNL     1     -12.945  10.228  70.711  1.00  0.00    -0.365 NA 
HETATM    4  C   UNL     1     -11.660  10.385  70.273  1.00  0.00    -0.327 A  
HETATM    5  C   UNL     1     -10.818   9.554  70.965  1.00  0.00    -0.353 A  
HETATM    6  N   UNL     1     -11.607   8.849  71.846  1.00  0.00    -0.354 NA 
HETATM    7  N   UNL     1      -9.409   9.438  70.810  1.00  0.00    -0.252 N  
HETATM    8  O   UNL     1      -8.900  10.080  69.886  1.00  0.00    -0.205 OA 
HETATM    9  O   UNL     1      -8.796   8.728  71.615  1.00  0.00    -0.206 OA 
ENDROOT
BRANCH   6  10
HETATM   10  C   UNL     1     -11.225   7.791  72.770  1.00  0.00    -0.398 C  
BRANCH  10  11
HETATM   11  C   UNL     1     -11.419   6.389  72.201  1.00  0.00    -0.301 C  
HETATM   12  O   UNL     1     -12.240   5.597  73.055  1.00  0.00    -0.512 OA 
HETATM   13  H   UNL     1     -12.362   4.724  72.701  1.00  0.00     0.000 HD 
ENDBRANCH  10  11
ENDBRANCH   6  10
TORSDOF 2
ENDMDL
MODEL       63
REMARK 921   NORMALIZED FREE ENERGY PREDICTED BY IDOCK:   -3.59 KCAL/MOL
REMARK 922        TOTAL FREE ENERGY PREDICTED BY IDOCK:   -4.28 KCAL/MOL
REMARK 923 INTER-LIGAND FREE ENERGY PREDICTED BY IDOCK:   -3.99 KCAL/MOL
REMARK 924 INTRA-LIGAND FREE ENERGY PREDICTED BY IDOCK:   -0.30 KCAL/MOL
REMARK 927      BINDING AFFINITY PREDICTED BY RF-SCORE:    0.00 PKD
ROOT
HETATM    1  C   UNL     1      -9.825  13.453  66.315  1.00  0.00    -0.295 C  
HETATM    2  C   UNL     1     -10.597  14.183  67.357  1.00  0.00    -0.279 A  
HETATM    3  N   UNL     1     -10.879  15.470  67.307  1.00  0.00    -0.313 NA 
HETATM    4  C   UNL     1     -11.567  15.756  68.453  1.00  0.00    -0.338 A  
HETATM    5  C   UNL     1     -11.727  14.621  69.205  1.00  0.00    -0.312 A  
HETATM    6  N   UNL     1     -11.106  13.607  68.513  1.00  0.00    -0.262 NA 
HETATM    7  N   UNL     1     -12.401  14.507  70.453  1.00  0.00    -0.319 N  
HETATM    8  O   UNL     1     -12.798  15.559  70.964  1.00  0.00    -0.437 OA 
HETATM    9  O   UNL     1     -12.559  13.375  70.922  1.00  0.00    -0.352 OA 
ENDROOT
BRANCH   6  10
HETATM   10  C   UNL     1     -10.927  12.214  68.898  1.00  0.00    -0.224 C  
BRANCH  10  11
HETATM   11  C   UNL     1     -12.002  11.287  68.336  1.00  0.00    -0.185 C  
HETATM   12  O   UNL     1     -12.752  10.678  69.383  1.00  0.00    -0.671 OA 
HETATM   13  H   UNL     1     -13.422  10.101  69.034  1.00  0.00     0.000 HD 
ENDBRANCH  10  11
ENDBRANCH   6  10
TORSDOF 2
ENDMDL
MODEL       64
REMARK 921   NORMALIZED FREE ENERGY PREDICTED BY IDOCK:   -3.56 KCAL/MOL
REMARK 922        TOTAL FREE ENERGY PREDICTED BY IDOCK:   -4.26 KCAL/MOL
REMARK 923 INTER-LIGAND FREE ENERGY PREDICTED BY IDOCK:   -4.13 KCAL/MOL
REMARK 924 INTRA-LIGAND FREE ENERGY PREDICTED BY IDOCK:   -0.13 KCAL/MOL
REMARK 927      BINDING AFFINITY PREDICTED BY RF-SCORE:    0.00 PKD
ROOT
HETATM    1  C   UNL     1     -12.160  14.109  68.785  1.00  0.00    -0.326 C  
HETATM    2  C   UNL     1     -11.778  13.058  67.803  1.00  0.00    -0.359 A  
HETATM    3  N   UNL     1     -11.595  11.788  68.108  1.00  0.00    -0.360 NA 
HETATM    4  C   UNL     1     -11.230  11.165  66.948  1.00  0.00    -0.186 A  
HETATM    5  C   UNL     1     -11.211  12.063  65.912  1.00  0.00    -0.337 A  
HETATM    6  N   UNL     1     -11.558  13.282  66.450  1.00  0.00    -0.331 NA 
HETATM    7  N   UNL     1     -10.897  11.797  64.551  1.00  0.00    -0.305 N  
HETATM    8  O   UNL     1     -10.502  10.657  64.288  1.00  0.00    -0.349 OA 
HETATM    9  O   UNL     1     -11.061  12.708  63.732  1.00  0.00    -0.402 OA 
ENDROOT
BRANCH   6  10
HETATM   10  C   UNL     1     -11.629  14.582  65.799  1.00  0.00    -0.347 C  
BRANCH  10  11
HETATM   11  C   UNL     1     -10.362  15.416  65.972  1.00  0.00    -0.324 C  
HETATM   12  O   UNL     1      -9.195  14.609  65.840  1.00  0.00    -0.502 OA 
HETATM   13  H   UNL     1      -8.406  15.128  65.947  1.00  0.00     0.000 HD 
ENDBRANCH  10  11
ENDBRANCH   6  10
TORSDOF 2
ENDMDL
MODEL       65
REMARK 921   NORMALIZED FREE ENERGY PREDICTED BY IDOCK:   -3.55 KCAL/MOL
REMARK 922        TOTAL FREE ENERGY PREDICTED BY IDOCK:   -4.24 KCAL/MOL
REMARK 923 INTER-LIGAND FREE ENERGY PREDICTED BY IDOCK:   -4.22 KCAL/MOL
REMARK 924 INTRA-LIGAND FREE ENERGY PREDICTED BY IDOCK:   -0.02 KCAL/MOL
REMARK 927      BINDING AFFINITY PREDICTED BY RF-SCORE:    0.00 PKD
ROOT
HETATM    1  C   UNL     1     -10.636  19.693  66.759  1.00  0.00    -0.602 C  
HETATM    2  C   UNL     1      -9.703  18.537  66.656  1.00  0.00    -0.341 A  
HETATM    3  N   UNL     1      -9.888  17.502  65.860  1.00  0.00    -0.548 NA 
HETATM    4  C   UNL     1      -8.837  16.658  66.080  1.00  0.00    -0.288 A  
HETATM    5  C   UNL     1      -7.983  17.195  67.009  1.00  0.00    -0.201 A  
HETATM    6  N   UNL     1      -8.531  18.399  67.387  1.00  0.00    -0.251 NA 
HETATM    7  N   UNL     1      -6.771  16.627  67.489  1.00  0.00    -0.141 N  
HETATM    8  O   UNL     1      -6.507  15.483  67.107  1.00  0.00    -0.302 OA 
HETATM    9  O   UNL     1      -6.064  17.318  68.231  1.00  0.00    -0.144 OA 
ENDROOT
BRANCH   6  10
HETATM   10  C   UNL     1      -8.060  19.342  68.391  1.00  0.00    -0.343 C  
BRANCH  10  11
HETATM   11  C   UNL     1      -7.071  20.368  67.844  1.00  0.00    -0.292 C  
HETATM   12  O   UNL     1      -7.739  21.363  67.072  1.00  0.00    -0.772 OA 
HETATM   13  H   UNL     1      -7.124  22.002  66.731  1.00  0.00     0.000 HD 
ENDBRANCH  10  11
ENDBRANCH   6  10
TORSDOF 2
ENDMDL
MODEL       66
REMARK 921   NORMALIZED FREE ENERGY PREDICTED BY IDOCK:   -3.54 KCAL/MOL
REMARK 922        TOTAL FREE ENERGY PREDICTED BY IDOCK:   -4.23 KCAL/MOL
REMARK 923 INTER-LIGAND FREE ENERGY PREDICTED BY IDOCK:   -3.93 KCAL/MOL
REMARK 924 INTRA-LIGAND FREE ENERGY PREDICTED BY IDOCK:   -0.30 KCAL/MOL
REMARK 927      BINDING AFFINITY PREDICTED BY RF-SCORE:    0.00 PKD
ROOT
HETATM    1  C   UNL     1     -10.912   6.015  70.023  1.00  0.00    -0.450 C  
HETATM    2  C   UNL     1     -11.591   7.157  70.694  1.00  0.00    -0.314 A  
HETATM    3  N   UNL     1     -12.471   7.029  71.668  1.00  0.00    -0.359 NA 
HETATM    4  C   UNL     1     -12.876   8.295  71.986  1.00  0.00    -0.340 A  
HETATM    5  C   UNL     1     -12.216   9.213  71.211  1.00  0.00    -0.327 A  
HETATM    6  N   UNL     1     -11.391   8.494  70.376  1.00  0.00    -0.228 NA 
HETATM    7  N   UNL     1     -12.351  10.628  71.255  1.00  0.00    -0.379 N  
HETATM    8  O   UNL     1     -13.228  11.076  72.000  1.00  0.00    -0.499 OA 
HETATM    9  O   UNL     1     -11.576  11.304  70.569  1.00  0.00    -0.298 OA 
ENDROOT
BRANCH   6  10
HETATM   10  C   UNL     1     -10.520   8.976  69.314  1.00  0.00    -0.228 C  
BRANCH  10  11
HETATM   11  C   UNL     1      -9.042   8.968  69.692  1.00  0.00    -0.154 C  
HETATM   12  O   UNL     1      -8.799   9.789  70.832  1.00  0.00    -0.355 OA 
HETATM   13  H   UNL     1      -7.879   9.785  71.067  1.00  0.00     0.000 HD 
ENDBRANCH  10  11
ENDBRANCH   6  10
TORSDOF 2
ENDMDL
MODEL       67
REMARK 921   NORMALIZED FREE ENERGY PREDICTED BY IDOCK:   -3.49 KCAL/MOL
REMARK 922        TOTAL FREE ENERGY PREDICTED BY IDOCK:   -4.18 KCAL/MOL
REMARK 923 INTER-LIGAND FREE ENERGY PREDICTED BY IDOCK:   -3.79 KCAL/MOL
REMARK 924 INTRA-LIGAND FREE ENERGY PREDICTED BY IDOCK:   -0.39 KCAL/MOL
REMARK 927      BINDING AFFINITY PREDICTED BY RF-SCORE:    0.00 PKD
ROOT
HETATM    1  C   UNL     1      -9.518   6.726  68.078  1.00  0.00    -0.119 C  
HETATM    2  C   UNL     1     -10.457   7.026  69.193  1.00  0.00    -0.207 A  
HETATM    3  N   UNL     1     -11.125   6.111  69.867  1.00  0.00    -0.382 NA 
HETATM    4  C   UNL     1     -11.890   6.787  70.776  1.00  0.00    -0.392 A  
HETATM    5  C   UNL     1     -11.669   8.136  70.670  1.00  0.00    -0.143 A  
HETATM    6  N   UNL     1     -10.754   8.301  69.656  1.00  0.00    -0.221 NA 
HETATM    7  N   UNL     1     -12.263   9.166  71.451  1.00  0.00    -0.319 N  
HETATM    8  O   UNL     1     -13.147   8.821  72.240  1.00  0.00    -0.373 OA 
HETATM    9  O   UNL     1     -11.843  10.319  71.301  1.00  0.00    -0.364 OA 
ENDROOT
BRANCH   6  10
HETATM   10  C   UNL     1     -10.223   9.535  69.095  1.00  0.00    -0.201 C  
BRANCH  10  11
HETATM   11  C   UNL     1     -11.074  10.100  67.960  1.00  0.00    -0.240 C  
HETATM   12  O   UNL     1     -12.189  10.827  68.469  1.00  0.00    -0.824 OA 
HETATM   13  H   UNL     1     -12.719  11.179  67.763  1.00  0.00     0.000 HD 
ENDBRANCH  10  11
ENDBRANCH   6  10
TORSDOF 2
ENDMDL
MODEL       68
REMARK 921   NORMALIZED FREE ENERGY PREDICTED BY IDOCK:   -3.49 KCAL/MOL
REMARK 922        TOTAL FREE ENERGY PREDICTED BY IDOCK:   -4.17 KCAL/MOL
REMARK 923 INTER-LIGAND FREE ENERGY PREDICTED BY IDOCK:   -4.04 KCAL/MOL
REMARK 924 INTRA-LIGAND FREE ENERGY PREDICTED BY IDOCK:   -0.13 KCAL/MOL
REMARK 927      BINDING AFFINITY PREDICTED BY RF-SCORE:    0.00 PKD
ROOT
HETATM    1  C   UNL     1     -10.222  15.962  65.766  1.00  0.00    -0.389 C  
HETATM    2  C   UNL     1     -10.475  16.239  67.207  1.00  0.00    -0.300 A  
HETATM    3  N   UNL     1      -9.945  17.245  67.874  1.00  0.00    -0.284 NA 
HETATM    4  C   UNL     1     -10.397  17.133  69.159  1.00  0.00    -0.297 A  
HETATM    5  C   UNL     1     -11.235  16.054  69.274  1.00  0.00    -0.346 A  
HETATM    6  N   UNL     1     -11.290  15.471  68.028  1.00  0.00    -0.339 NA 
HETATM    7  N   UNL     1     -11.916  15.618  70.444  1.00  0.00    -0.356 N  
HETATM    8  O   UNL     1     -11.648  16.213  71.493  1.00  0.00    -0.450 OA 
HETATM    9  O   UNL     1     -12.734  14.700  70.327  1.00  0.00    -0.335 OA 
ENDROOT
BRANCH   6  10
HETATM   10  C   UNL     1     -11.985  14.261  67.616  1.00  0.00    -0.365 C  
BRANCH  10  11
HETATM   11  C   UNL     1     -11.109  13.012  67.664  1.00  0.00    -0.267 C  
HETATM   12  O   UNL     1     -11.368  12.160  66.552  1.00  0.00    -0.313 OA 
HETATM   13  H   UNL     1     -10.823  11.382  66.582  1.00  0.00     0.000 HD 
ENDBRANCH  10  11
ENDBRANCH   6  10
TORSDOF 2
ENDMDL
MODEL       69
REMARK 921   NORMALIZED FREE ENERGY PREDICTED BY IDOCK:   -3.48 KCAL/MOL
REMARK 922        TOTAL FREE ENERGY PREDICTED BY IDOCK:   -4.17 KCAL/MOL
REMARK 923 INTER-LIGAND FREE ENERGY PREDICTED BY IDOCK:   -3.77 KCAL/MOL
REMARK 924 INTRA-LIGAND FREE ENERGY PREDICTED BY IDOCK:   -0.40 KCAL/MOL
REMARK 927      BINDING AFFINITY PREDICTED BY RF-SCORE:    0.00 PKD
ROOT
HETATM    1  C   UNL     1      -8.917   7.819  69.679  1.00  0.00    -0.143 C  
HETATM    2  C   UNL     1     -10.115   8.466  70.281  1.00  0.00    -0.189 A  
HETATM    3  N   UNL     1     -10.256   9.767  70.440  1.00  0.00    -0.284 NA 
HETATM    4  C   UNL     1     -11.467   9.950  71.047  1.00  0.00    -0.388 A  
HETATM    5  C   UNL     1     -12.087   8.742  71.241  1.00  0.00    -0.296 A  
HETATM    6  N   UNL     1     -11.228   7.783  70.756  1.00  0.00    -0.269 NA 
HETATM    7  N   UNL     1     -13.364   8.519  71.825  1.00  0.00    -0.353 N  
HETATM    8  O   UNL     1     -13.935   9.505  72.301  1.00  0.00    -0.371 OA 
HETATM    9  O   UNL     1     -13.818   7.369  71.797  1.00  0.00    -0.363 OA 
ENDROOT
BRANCH   6  10
HETATM   10  C   UNL     1     -11.371   6.335  70.773  1.00  0.00    -0.332 C  
BRANCH  10  11
HETATM   11  C   UNL     1     -10.842   5.688  72.051  1.00  0.00    -0.242 C  
HETATM   12  O   UNL     1     -11.856   5.620  73.049  1.00  0.00    -0.536 OA 
HETATM   13  H   UNL     1     -11.527   5.217  73.845  1.00  0.00     0.000 HD 
ENDBRANCH  10  11
ENDBRANCH   6  10
TORSDOF 2
ENDMDL
MODEL       70
REMARK 921   NORMALIZED FREE ENERGY PREDICTED BY IDOCK:   -3.48 KCAL/MOL
REMARK 922        TOTAL FREE ENERGY PREDICTED BY IDOCK:   -4.17 KCAL/MOL
REMARK 923 INTER-LIGAND FREE ENERGY PREDICTED BY IDOCK:   -3.83 KCAL/MOL
REMARK 924 INTRA-LIGAND FREE ENERGY PREDICTED BY IDOCK:   -0.34 KCAL/MOL
REMARK 927      BINDING AFFINITY PREDICTED BY RF-SCORE:    0.00 PKD
ROOT
HETATM    1  C   UNL     1      -8.752  10.644  68.482  1.00  0.00    -0.141 C  
HETATM    2  C   UNL     1      -9.487  10.069  69.642  1.00  0.00    -0.223 A  
HETATM    3  N   UNL     1      -8.932   9.320  70.575  1.00  0.00    -0.234 NA 
HETATM    4  C   UNL     1      -9.937   8.972  71.434  1.00  0.00    -0.318 A  
HETATM    5  C   UNL     1     -11.120   9.536  71.032  1.00  0.00    -0.363 A  
HETATM    6  N   UNL     1     -10.844  10.239  69.882  1.00  0.00    -0.283 NA 
HETATM    7  N   UNL     1     -12.385   9.422  71.673  1.00  0.00    -0.360 N  
HETATM    8  O   UNL     1     -12.449   8.653  72.637  1.00  0.00    -0.375 OA 
HETATM    9  O   UNL     1     -13.316  10.109  71.238  1.00  0.00    -0.368 OA 
ENDROOT
BRANCH   6  10
HETATM   10  C   UNL     1     -11.757  10.970  69.016  1.00  0.00    -0.333 C  
BRANCH  10  11
HETATM   11  C   UNL     1     -11.715  12.481  69.228  1.00  0.00    -0.321 C  
HETATM   12  O   UNL     1     -11.995  12.816  70.585  1.00  0.00    -0.510 OA 
HETATM   13  H   UNL     1     -11.969  13.757  70.718  1.00  0.00     0.000 HD 
ENDBRANCH  10  11
ENDBRANCH   6  10
TORSDOF 2
ENDMDL
MODEL       71
REMARK 921   NORMALIZED FREE ENERGY PREDICTED BY IDOCK:   -3.48 KCAL/MOL
REMARK 922        TOTAL FREE ENERGY PREDICTED BY IDOCK:   -4.16 KCAL/MOL
REMARK 923 INTER-LIGAND FREE ENERGY PREDICTED BY IDOCK:   -4.02 KCAL/MOL
REMARK 924 INTRA-LIGAND FREE ENERGY PREDICTED BY IDOCK:   -0.14 KCAL/MOL
REMARK 927      BINDING AFFINITY PREDICTED BY RF-SCORE:    0.00 PKD
ROOT
HETATM    1  C   UNL     1     -13.347  12.590  72.284  1.00  0.00    -0.475 C  
HETATM    2  C   UNL     1     -12.709  12.610  70.940  1.00  0.00    -0.188 A  
HETATM    3  N   UNL     1     -12.283  11.537  70.303  1.00  0.00    -0.339 NA 
HETATM    4  C   UNL     1     -11.741  11.978  69.129  1.00  0.00    -0.330 A  
HETATM    5  C   UNL     1     -11.858  13.341  69.035  1.00  0.00    -0.321 A  
HETATM    6  N   UNL     1     -12.474  13.757  70.193  1.00  0.00    -0.303 NA 
HETATM    7  N   UNL     1     -11.430  14.166  67.958  1.00  0.00    -0.294 N  
HETATM    8  O   UNL     1     -10.796  13.612  67.056  1.00  0.00    -0.282 OA 
HETATM    9  O   UNL     1     -11.738  15.363  67.991  1.00  0.00    -0.336 OA 
ENDROOT
BRANCH   6  10
HETATM   10  C   UNL     1     -12.780  15.112  70.629  1.00  0.00    -0.398 C  
BRANCH  10  11
HETATM   11  C   UNL     1     -11.621  15.791  71.355  1.00  0.00    -0.445 C  
HETATM   12  O   UNL     1     -10.380  15.512  70.713  1.00  0.00    -0.306 OA 
HETATM   13  H   UNL     1      -9.658  15.934  71.165  1.00  0.00     0.000 HD 
ENDBRANCH  10  11
ENDBRANCH   6  10
TORSDOF 2
ENDMDL
MODEL       72
REMARK 921   NORMALIZED FREE ENERGY PREDICTED BY IDOCK:   -3.46 KCAL/MOL
REMARK 922        TOTAL FREE ENERGY PREDICTED BY IDOCK:   -4.14 KCAL/MOL
REMARK 923 INTER-LIGAND FREE ENERGY PREDICTED BY IDOCK:   -4.02 KCAL/MOL
REMARK 924 INTRA-LIGAND FREE ENERGY PREDICTED BY IDOCK:   -0.12 KCAL/MOL
REMARK 927      BINDING AFFINITY PREDICTED BY RF-SCORE:    0.00 PKD
ROOT
HETATM    1  C   UNL     1     -10.884   7.076  73.369  1.00  0.00    -0.332 C  
HETATM    2  C   UNL     1     -10.715   8.116  72.317  1.00  0.00    -0.313 A  
HETATM    3  N   UNL     1      -9.579   8.367  71.697  1.00  0.00    -0.197 NA 
HETATM    4  C   UNL     1      -9.833   9.399  70.838  1.00  0.00    -0.268 A  
HETATM    5  C   UNL     1     -11.150   9.770  70.917  1.00  0.00    -0.357 A  
HETATM    6  N   UNL     1     -11.725   8.955  71.866  1.00  0.00    -0.350 NA 
HETATM    7  N   UNL     1     -11.800  10.791  70.171  1.00  0.00    -0.312 N  
HETATM    8  O   UNL     1     -11.083  11.487  69.446  1.00  0.00    -0.247 OA 
HETATM    9  O   UNL     1     -13.027  10.896  70.283  1.00  0.00    -0.214 OA 
ENDROOT
BRANCH   6  10
HETATM   10  C   UNL     1     -13.087   8.971  72.380  1.00  0.00    -0.423 C  
BRANCH  10  11
HETATM   11  C   UNL     1     -14.030   8.035  71.628  1.00  0.00    -0.400 C  
HETATM   12  O   UNL     1     -14.317   6.870  72.397  1.00  0.00    -0.606 OA 
HETATM   13  H   UNL     1     -14.904   6.287  71.929  1.00  0.00     0.000 HD 
ENDBRANCH  10  11
ENDBRANCH   6  10
TORSDOF 2
ENDMDL
MODEL       73
REMARK 921   NORMALIZED FREE ENERGY PREDICTED BY IDOCK:   -3.42 KCAL/MOL
REMARK 922        TOTAL FREE ENERGY PREDICTED BY IDOCK:   -4.10 KCAL/MOL
REMARK 923 INTER-LIGAND FREE ENERGY PREDICTED BY IDOCK:   -3.76 KCAL/MOL
REMARK 924 INTRA-LIGAND FREE ENERGY PREDICTED BY IDOCK:   -0.34 KCAL/MOL
REMARK 927      BINDING AFFINITY PREDICTED BY RF-SCORE:    0.00 PKD
ROOT
HETATM    1  C   UNL     1     -11.029  10.465  67.718  1.00  0.00    -0.369 C  
HETATM    2  C   UNL     1     -11.440  11.582  68.611  1.00  0.00    -0.293 A  
HETATM    3  N   UNL     1     -11.852  11.426  69.854  1.00  0.00    -0.330 NA 
HETATM    4  C   UNL     1     -12.158  12.676  70.315  1.00  0.00    -0.294 A  
HETATM    5  C   UNL     1     -11.907  13.613  69.346  1.00  0.00    -0.339 A  
HETATM    6  N   UNL     1     -11.449  12.922  68.248  1.00  0.00    -0.288 NA 
HETATM    7  N   UNL     1     -12.082  15.021  69.449  1.00  0.00    -0.281 N  
HETATM    8  O   UNL     1     -12.611  15.438  70.485  1.00  0.00    -0.394 OA 
HETATM    9  O   UNL     1     -11.678  15.723  68.515  1.00  0.00    -0.383 OA 
ENDROOT
BRANCH   6  10
HETATM   10  C   UNL     1     -11.097  13.430  66.930  1.00  0.00    -0.292 C  
BRANCH  10  11
HETATM   11  C   UNL     1      -9.611  13.739  66.775  1.00  0.00    -0.279 C  
HETATM   12  O   UNL     1      -9.377  15.145  66.768  1.00  0.00    -0.219 OA 
HETATM   13  H   UNL     1      -8.452  15.338  66.672  1.00  0.00     0.000 HD 
ENDBRANCH  10  11
ENDBRANCH   6  10
TORSDOF 2
ENDMDL
MODEL       74
REMARK 921   NORMALIZED FREE ENERGY PREDICTED BY IDOCK:   -3.40 KCAL/MOL
REMARK 922        TOTAL FREE ENERGY PREDICTED BY IDOCK:   -4.08 KCAL/MOL
REMARK 923 INTER-LIGAND FREE ENERGY PREDICTED BY IDOCK:   -3.75 KCAL/MOL
REMARK 924 INTRA-LIGAND FREE ENERGY PREDICTED BY IDOCK:   -0.33 KCAL/MOL
REMARK 927      BINDING AFFINITY PREDICTED BY RF-SCORE:    0.00 PKD
ROOT
HETATM    1  C   UNL     1     -10.777  11.391  66.044  1.00  0.00    -0.318 C  
HETATM    2  C   UNL     1     -11.148  11.081  67.452  1.00  0.00    -0.305 A  
HETATM    3  N   UNL     1     -12.014  11.775  68.163  1.00  0.00    -0.557 NA 
HETATM    4  C   UNL     1     -12.051  11.192  69.398  1.00  0.00    -0.326 A  
HETATM    5  C   UNL     1     -11.211  10.109  69.436  1.00  0.00    -0.215 A  
HETATM    6  N   UNL     1     -10.624  10.031  68.194  1.00  0.00    -0.212 NA 
HETATM    7  N   UNL     1     -10.986   9.237  70.537  1.00  0.00    -0.248 N  
HETATM    8  O   UNL     1     -11.527   9.542  71.604  1.00  0.00    -0.381 OA 
HETATM    9  O   UNL     1     -10.290   8.233  70.345  1.00  0.00    -0.199 OA 
ENDROOT
BRANCH   6  10
HETATM   10  C   UNL     1      -9.606   9.103  67.721  1.00  0.00    -0.146 C  
BRANCH  10  11
HETATM   11  C   UNL     1     -10.177   7.923  66.939  1.00  0.00    -0.310 C  
HETATM   12  O   UNL     1     -11.205   7.268  67.678  1.00  0.00    -0.530 OA 
HETATM   13  H   UNL     1     -11.561   6.533  67.191  1.00  0.00     0.000 HD 
ENDBRANCH  10  11
ENDBRANCH   6  10
TORSDOF 2
ENDMDL
MODEL       75
REMARK 921   NORMALIZED FREE ENERGY PREDICTED BY IDOCK:   -3.40 KCAL/MOL
REMARK 922        TOTAL FREE ENERGY PREDICTED BY IDOCK:   -4.07 KCAL/MOL
REMARK 923 INTER-LIGAND FREE ENERGY PREDICTED BY IDOCK:   -3.81 KCAL/MOL
REMARK 924 INTRA-LIGAND FREE ENERGY PREDICTED BY IDOCK:   -0.26 KCAL/MOL
REMARK 927      BINDING AFFINITY PREDICTED BY RF-SCORE:    0.00 PKD
ROOT
HETATM    1  C   UNL     1     -10.316  16.528  69.125  1.00  0.00    -0.316 C  
HETATM    2  C   UNL     1      -9.418  16.828  67.976  1.00  0.00    -0.233 A  
HETATM    3  N   UNL     1      -9.015  15.934  67.095  1.00  0.00    -0.200 NA 
HETATM    4  C   UNL     1      -8.190  16.594  66.229  1.00  0.00    -0.330 A  
HETATM    5  C   UNL     1      -8.105  17.919  66.573  1.00  0.00    -0.272 A  
HETATM    6  N   UNL     1      -8.886  18.079  67.694  1.00  0.00    -0.252 NA 
HETATM    7  N   UNL     1      -7.360  18.931  65.907  1.00  0.00    -0.256 N  
HETATM    8  O   UNL     1      -6.632  18.562  64.980  1.00  0.00    -0.497 OA 
HETATM    9  O   UNL     1      -7.508  20.099  66.284  1.00  0.00    -0.277 OA 
ENDROOT
BRANCH   6  10
HETATM   10  C   UNL     1      -9.094  19.274  68.500  1.00  0.00    -0.377 C  
BRANCH  10  11
HETATM   11  C   UNL     1     -10.347  20.056  68.114  1.00  0.00    -0.362 C  
HETATM   12  O   UNL     1     -10.578  19.992  66.709  1.00  0.00    -0.442 OA 
HETATM   13  H   UNL     1     -11.358  20.478  66.468  1.00  0.00     0.000 HD 
ENDBRANCH  10  11
ENDBRANCH   6  10
TORSDOF 2
ENDMDL
MODEL       76
REMARK 921   NORMALIZED FREE ENERGY PREDICTED BY IDOCK:   -3.40 KCAL/MOL
REMARK 922        TOTAL FREE ENERGY PREDICTED BY IDOCK:   -4.07 KCAL/MOL
REMARK 923 INTER-LIGAND FREE ENERGY PREDICTED BY IDOCK:   -3.96 KCAL/MOL
REMARK 924 INTRA-LIGAND FREE ENERGY PREDICTED BY IDOCK:   -0.11 KCAL/MOL
REMARK 927      BINDING AFFINITY PREDICTED BY RF-SCORE:    0.00 PKD
ROOT
HETATM    1  C   UNL     1      -9.516  18.585  68.727  1.00  0.00    -0.334 C  
HETATM    2  C   UNL     1     -10.293  17.336  68.501  1.00  0.00    -0.371 A  
HETATM    3  N   UNL     1     -11.024  16.739  69.423  1.00  0.00    -0.252 NA 
HETATM    4  C   UNL     1     -11.546  15.622  68.833  1.00  0.00    -0.383 A  
HETATM    5  C   UNL     1     -11.146  15.546  67.524  1.00  0.00    -0.305 A  
HETATM    6  N   UNL     1     -10.339  16.639  67.301  1.00  0.00    -0.295 NA 
HETATM    7  N   UNL     1     -11.492  14.542  66.578  1.00  0.00    -0.354 N  
HETATM    8  O   UNL     1     -12.140  13.581  67.004  1.00  0.00    -0.384 OA 
HETATM    9  O   UNL     1     -11.142  14.710  65.404  1.00  0.00    -0.317 OA 
ENDROOT
BRANCH   6  10
HETATM   10  C   UNL     1      -9.604  17.003  66.099  1.00  0.00    -0.240 C  
BRANCH  10  11
HETATM   11  C   UNL     1      -8.134  16.594  66.140  1.00  0.00    -0.238 C  
HETATM   12  O   UNL     1      -7.298  17.633  65.636  1.00  0.00    -0.487 OA 
HETATM   13  H   UNL     1      -6.383  17.379  65.661  1.00  0.00     0.000 HD 
ENDBRANCH  10  11
ENDBRANCH   6  10
TORSDOF 2
ENDMDL
MODEL       77
REMARK 921   NORMALIZED FREE ENERGY PREDICTED BY IDOCK:   -3.39 KCAL/MOL
REMARK 922        TOTAL FREE ENERGY PREDICTED BY IDOCK:   -4.06 KCAL/MOL
REMARK 923 INTER-LIGAND FREE ENERGY PREDICTED BY IDOCK:   -3.69 KCAL/MOL
REMARK 924 INTRA-LIGAND FREE ENERGY PREDICTED BY IDOCK:   -0.37 KCAL/MOL
REMARK 927      BINDING AFFINITY PREDICTED BY RF-SCORE:    0.00 PKD
ROOT
HETATM    1  C   UNL     1     -11.092   8.372  72.549  1.00  0.00    -0.397 C  
HETATM    2  C   UNL     1     -11.533   9.361  71.528  1.00  0.00    -0.397 A  
HETATM    3  N   UNL     1     -12.586  10.144  71.659  1.00  0.00    -0.411 NA 
HETATM    4  C   UNL     1     -12.665  10.874  70.506  1.00  0.00    -0.280 A  
HETATM    5  C   UNL     1     -11.632  10.548  69.666  1.00  0.00    -0.271 A  
HETATM    6  N   UNL     1     -10.901   9.576  70.311  1.00  0.00    -0.249 NA 
HETATM    7  N   UNL     1     -11.362  11.101  68.384  1.00  0.00    -0.262 N  
HETATM    8  O   UNL     1     -12.201  11.886  67.933  1.00  0.00    -0.508 OA 
HETATM    9  O   UNL     1     -10.307  10.778  67.827  1.00  0.00    -0.177 OA 
ENDROOT
BRANCH   6  10
HETATM   10  C   UNL     1      -9.738   8.841  69.835  1.00  0.00    -0.178 C  
BRANCH  10  11
HETATM   11  C   UNL     1      -8.414   9.404  70.344  1.00  0.00    -0.214 C  
HETATM   12  O   UNL     1      -8.090  10.626  69.687  1.00  0.00    -0.345 OA 
HETATM   13  H   UNL     1      -7.266  10.977  70.004  1.00  0.00     0.000 HD 
ENDBRANCH  10  11
ENDBRANCH   6  10
TORSDOF 2
ENDMDL
MODEL       78
REMARK 921   NORMALIZED FREE ENERGY PREDICTED BY IDOCK:   -3.38 KCAL/MOL
REMARK 922        TOTAL FREE ENERGY PREDICTED BY IDOCK:   -4.06 KCAL/MOL
REMARK 923 INTER-LIGAND FREE ENERGY PREDICTED BY IDOCK:   -3.95 KCAL/MOL
REMARK 924 INTRA-LIGAND FREE ENERGY PREDICTED BY IDOCK:   -0.10 KCAL/MOL
REMARK 927      BINDING AFFINITY PREDICTED BY RF-SCORE:    0.00 PKD
ROOT
HETATM    1  C   UNL     1      -9.060  17.882  66.400  1.00  0.00    -0.253 C  
HETATM    2  C   UNL     1      -9.832  17.067  67.378  1.00  0.00    -0.262 A  
HETATM    3  N   UNL     1      -9.847  17.284  68.678  1.00  0.00    -0.298 NA 
HETATM    4  C   UNL     1     -10.641  16.312  69.220  1.00  0.00    -0.293 A  
HETATM    5  C   UNL     1     -11.137  15.501  68.232  1.00  0.00    -0.322 A  
HETATM    6  N   UNL     1     -10.622  15.974  67.047  1.00  0.00    -0.312 NA 
HETATM    7  N   UNL     1     -12.011  14.391  68.393  1.00  0.00    -0.321 N  
HETATM    8  O   UNL     1     -12.273  14.057  69.553  1.00  0.00    -0.330 OA 
HETATM    9  O   UNL     1     -12.460  13.856  67.373  1.00  0.00    -0.215 OA 
ENDROOT
BRANCH   6  10
HETATM   10  C   UNL     1     -10.782  15.438  65.703  1.00  0.00    -0.369 C  
BRANCH  10  11
HETATM   11  C   UNL     1      -9.796  14.320  65.374  1.00  0.00    -0.221 C  
HETATM   12  O   UNL     1     -10.145  13.670  64.155  1.00  0.00    -0.757 OA 
HETATM   13  H   UNL     1      -9.531  12.974  63.950  1.00  0.00     0.000 HD 
ENDBRANCH  10  11
ENDBRANCH   6  10
TORSDOF 2
ENDMDL
MODEL       79
REMARK 921   NORMALIZED FREE ENERGY PREDICTED BY IDOCK:   -3.38 KCAL/MOL
REMARK 922        TOTAL FREE ENERGY PREDICTED BY IDOCK:   -4.06 KCAL/MOL
REMARK 923 INTER-LIGAND FREE ENERGY PREDICTED BY IDOCK:   -3.88 KCAL/MOL
REMARK 924 INTRA-LIGAND FREE ENERGY PREDICTED BY IDOCK:   -0.18 KCAL/MOL
REMARK 927      BINDING AFFINITY PREDICTED BY RF-SCORE:    0.00 PKD
ROOT
HETATM    1  C   UNL     1     -11.639  11.129  68.928  1.00  0.00    -0.385 C  
HETATM    2  C   UNL     1     -11.408  11.457  67.495  1.00  0.00    -0.292 A  
HETATM    3  N   UNL     1     -12.035  12.416  66.842  1.00  0.00    -0.575 NA 
HETATM    4  C   UNL     1     -11.567  12.375  65.559  1.00  0.00    -0.385 A  
HETATM    5  C   UNL     1     -10.621  11.391  65.430  1.00  0.00    -0.275 A  
HETATM    6  N   UNL     1     -10.514  10.793  66.665  1.00  0.00    -0.245 NA 
HETATM    7  N   UNL     1      -9.892  11.050  64.258  1.00  0.00    -0.275 N  
HETATM    8  O   UNL     1     -10.214  11.633  63.218  1.00  0.00    -0.386 OA 
HETATM    9  O   UNL     1      -8.984  10.218  64.364  1.00  0.00    -0.190 OA 
ENDROOT
BRANCH   6  10
HETATM   10  C   UNL     1      -9.700   9.653  67.062  1.00  0.00    -0.181 C  
BRANCH  10  11
HETATM   11  C   UNL     1     -10.407   8.312  66.885  1.00  0.00    -0.320 C  
HETATM   12  O   UNL     1     -10.696   7.715  68.146  1.00  0.00    -0.368 OA 
HETATM   13  H   UNL     1     -11.136   6.880  68.036  1.00  0.00     0.000 HD 
ENDBRANCH  10  11
ENDBRANCH   6  10
TORSDOF 2
ENDMDL
MODEL       80
REMARK 921   NORMALIZED FREE ENERGY PREDICTED BY IDOCK:   -3.38 KCAL/MOL
REMARK 922        TOTAL FREE ENERGY PREDICTED BY IDOCK:   -4.05 KCAL/MOL
REMARK 923 INTER-LIGAND FREE ENERGY PREDICTED BY IDOCK:   -3.69 KCAL/MOL
REMARK 924 INTRA-LIGAND FREE ENERGY PREDICTED BY IDOCK:   -0.36 KCAL/MOL
REMARK 927      BINDING AFFINITY PREDICTED BY RF-SCORE:    0.00 PKD
ROOT
HETATM    1  C   UNL     1     -10.580  19.738  66.234  1.00  0.00    -0.572 C  
HETATM    2  C   UNL     1      -9.413  19.479  67.121  1.00  0.00    -0.332 A  
HETATM    3  N   UNL     1      -8.543  20.398  67.492  1.00  0.00    -0.311 NA 
HETATM    4  C   UNL     1      -7.620  19.759  68.271  1.00  0.00    -0.303 A  
HETATM    5  C   UNL     1      -7.943  18.432  68.397  1.00  0.00    -0.307 A  
HETATM    6  N   UNL     1      -9.090  18.241  67.661  1.00  0.00    -0.261 NA 
HETATM    7  N   UNL     1      -7.239  17.445  69.140  1.00  0.00    -0.219 N  
HETATM    8  O   UNL     1      -6.166  17.794  69.644  1.00  0.00    -0.247 OA 
HETATM    9  O   UNL     1      -7.753  16.326  69.246  1.00  0.00    -0.231 OA 
ENDROOT
BRANCH   6  10
HETATM   10  C   UNL     1      -9.818  17.006  67.408  1.00  0.00    -0.262 C  
BRANCH  10  11
HETATM   11  C   UNL     1     -11.036  16.825  68.310  1.00  0.00    -0.327 C  
HETATM   12  O   UNL     1     -10.652  16.749  69.681  1.00  0.00    -0.319 OA 
HETATM   13  H   UNL     1     -11.409  16.636  70.243  1.00  0.00     0.000 HD 
ENDBRANCH  10  11
ENDBRANCH   6  10
TORSDOF 2
ENDMDL
MODEL       81
REMARK 921   NORMALIZED FREE ENERGY PREDICTED BY IDOCK:   -3.36 KCAL/MOL
REMARK 922        TOTAL FREE ENERGY PREDICTED BY IDOCK:   -4.03 KCAL/MOL
REMARK 923 INTER-LIGAND FREE ENERGY PREDICTED BY IDOCK:   -3.89 KCAL/MOL
REMARK 924 INTRA-LIGAND FREE ENERGY PREDICTED BY IDOCK:   -0.14 KCAL/MOL
REMARK 927      BINDING AFFINITY PREDICTED BY RF-SCORE:    0.00 PKD
ROOT
HETATM    1  C   UNL     1     -12.294  14.318  64.715  1.00  0.00    -0.440 C  
HETATM    2  C   UNL     1     -11.070  14.952  65.276  1.00  0.00    -0.378 A  
HETATM    3  N   UNL     1     -10.757  16.224  65.125  1.00  0.00    -0.604 NA 
HETATM    4  C   UNL     1      -9.558  16.400  65.756  1.00  0.00    -0.192 A  
HETATM    5  C   UNL     1      -9.142  15.222  66.322  1.00  0.00    -0.302 A  
HETATM    6  N   UNL     1     -10.104  14.286  66.017  1.00  0.00    -0.305 NA 
HETATM    7  N   UNL     1      -7.956  15.005  67.076  1.00  0.00    -0.202 N  
HETATM    8  O   UNL     1      -7.164  15.950  67.145  1.00  0.00    -0.196 OA 
HETATM    9  O   UNL     1      -7.812  13.904  67.621  1.00  0.00    -0.150 OA 
ENDROOT
BRANCH   6  10
HETATM   10  C   UNL     1     -10.122  12.863  66.322  1.00  0.00    -0.276 C  
BRANCH  10  11
HETATM   11  C   UNL     1     -10.946  12.519  67.561  1.00  0.00    -0.251 C  
HETATM   12  O   UNL     1     -12.090  11.743  67.216  1.00  0.00    -0.595 OA 
HETATM   13  H   UNL     1     -12.603  11.529  67.987  1.00  0.00     0.000 HD 
ENDBRANCH  10  11
ENDBRANCH   6  10
TORSDOF 2
ENDMDL
MODEL       82
REMARK 921   NORMALIZED FREE ENERGY PREDICTED BY IDOCK:   -3.34 KCAL/MOL
REMARK 922        TOTAL FREE ENERGY PREDICTED BY IDOCK:   -4.01 KCAL/MOL
REMARK 923 INTER-LIGAND FREE ENERGY PREDICTED BY IDOCK:   -3.73 KCAL/MOL
REMARK 924 INTRA-LIGAND FREE ENERGY PREDICTED BY IDOCK:   -0.28 KCAL/MOL
REMARK 927      BINDING AFFINITY PREDICTED BY RF-SCORE:    0.00 PKD
ROOT
HETATM    1  C   UNL     1     -10.779  19.777  66.873  1.00  0.00    -0.541 C  
HETATM    2  C   UNL     1      -9.844  18.836  67.548  1.00  0.00    -0.320 A  
HETATM    3  N   UNL     1     -10.217  17.726  68.155  1.00  0.00    -0.361 NA 
HETATM    4  C   UNL     1      -9.079  17.168  68.666  1.00  0.00    -0.268 A  
HETATM    5  C   UNL     1      -7.990  17.937  68.346  1.00  0.00    -0.298 A  
HETATM    6  N   UNL     1      -8.469  19.011  67.632  1.00  0.00    -0.284 NA 
HETATM    7  N   UNL     1      -6.631  17.681  68.682  1.00  0.00    -0.200 N  
HETATM    8  O   UNL     1      -6.418  16.718  69.425  1.00  0.00    -0.210 OA 
HETATM    9  O   UNL     1      -5.767  18.418  68.194  1.00  0.00    -0.173 OA 
ENDROOT
BRANCH   6  10
HETATM   10  C   UNL     1      -7.743  20.158  67.108  1.00  0.00    -0.308 C  
BRANCH  10  11
HETATM   11  C   UNL     1      -7.431  20.051  65.618  1.00  0.00    -0.257 C  
HETATM   12  O   UNL     1      -7.014  18.732  65.276  1.00  0.00    -0.509 OA 
HETATM   13  H   UNL     1      -6.820  18.664  64.348  1.00  0.00     0.000 HD 
ENDBRANCH  10  11
ENDBRANCH   6  10
TORSDOF 2
ENDMDL
MODEL       83
REMARK 921   NORMALIZED FREE ENERGY PREDICTED BY IDOCK:   -3.33 KCAL/MOL
REMARK 922        TOTAL FREE ENERGY PREDICTED BY IDOCK:   -3.99 KCAL/MOL
REMARK 923 INTER-LIGAND FREE ENERGY PREDICTED BY IDOCK:   -3.60 KCAL/MOL
REMARK 924 INTRA-LIGAND FREE ENERGY PREDICTED BY IDOCK:   -0.40 KCAL/MOL
REMARK 927      BINDING AFFINITY PREDICTED BY RF-SCORE:    0.00 PKD
ROOT
HETATM    1  C   UNL     1     -10.581   5.810  69.461  1.00  0.00    -0.390 C  
HETATM    2  C   UNL     1     -11.331   6.817  70.261  1.00  0.00    -0.352 A  
HETATM    3  N   UNL     1     -12.239   6.517  71.169  1.00  0.00    -0.285 NA 
HETATM    4  C   UNL     1     -12.707   7.708  71.649  1.00  0.00    -0.343 A  
HETATM    5  C   UNL     1     -12.059   8.752  71.041  1.00  0.00    -0.225 A  
HETATM    6  N   UNL     1     -11.176   8.192  70.147  1.00  0.00    -0.192 NA 
HETATM    7  N   UNL     1     -12.254  10.140  71.283  1.00  0.00    -0.369 N  
HETATM    8  O   UNL     1     -13.175  10.444  72.048  1.00  0.00    -0.456 OA 
HETATM    9  O   UNL     1     -11.483  10.936  70.734  1.00  0.00    -0.268 OA 
ENDROOT
BRANCH   6  10
HETATM   10  C   UNL     1     -10.288   8.854  69.202  1.00  0.00    -0.220 C  
BRANCH  10  11
HETATM   11  C   UNL     1     -10.919   9.073  67.829  1.00  0.00     0.067 C  
HETATM   12  O   UNL     1     -11.832  10.167  67.853  1.00  0.00    -0.567 OA 
HETATM   13  H   UNL     1     -12.225  10.304  66.998  1.00  0.00     0.000 HD 
ENDBRANCH  10  11
ENDBRANCH   6  10
TORSDOF 2
ENDMDL
MODEL       84
REMARK 921   NORMALIZED FREE ENERGY PREDICTED BY IDOCK:   -3.31 KCAL/MOL
REMARK 922        TOTAL FREE ENERGY PREDICTED BY IDOCK:   -3.97 KCAL/MOL
REMARK 923 INTER-LIGAND FREE ENERGY PREDICTED BY IDOCK:   -3.88 KCAL/MOL
REMARK 924 INTRA-LIGAND FREE ENERGY PREDICTED BY IDOCK:   -0.10 KCAL/MOL
REMARK 927      BINDING AFFINITY PREDICTED BY RF-SCORE:    0.00 PKD
ROOT
HETATM    1  C   UNL     1     -12.906  14.025  65.583  1.00  0.00    -0.442 C  
HETATM    2  C   UNL     1     -11.871  13.207  66.273  1.00  0.00    -0.401 A  
HETATM    3  N   UNL     1     -11.952  11.902  66.450  1.00  0.00    -0.524 NA 
HETATM    4  C   UNL     1     -10.831  11.540  67.144  1.00  0.00    -0.268 A  
HETATM    5  C   UNL     1     -10.042  12.637  67.375  1.00  0.00    -0.218 A  
HETATM    6  N   UNL     1     -10.701  13.712  66.824  1.00  0.00    -0.272 NA 
HETATM    7  N   UNL     1      -8.790  12.665  68.049  1.00  0.00    -0.188 N  
HETATM    8  O   UNL     1      -8.419  11.609  68.570  1.00  0.00    -0.154 OA 
HETATM    9  O   UNL     1      -8.158  13.728  68.048  1.00  0.00    -0.137 OA 
ENDROOT
BRANCH   6  10
HETATM   10  C   UNL     1     -10.331  15.120  66.844  1.00  0.00    -0.272 C  
BRANCH  10  11
HETATM   11  C   UNL     1      -9.791  15.624  65.508  1.00  0.00    -0.291 C  
HETATM   12  O   UNL     1     -10.663  16.596  64.937  1.00  0.00    -0.710 OA 
HETATM   13  H   UNL     1     -10.327  16.910  64.105  1.00  0.00     0.000 HD 
ENDBRANCH  10  11
ENDBRANCH   6  10
TORSDOF 2
ENDMDL
MODEL       85
REMARK 921   NORMALIZED FREE ENERGY PREDICTED BY IDOCK:   -3.28 KCAL/MOL
REMARK 922        TOTAL FREE ENERGY PREDICTED BY IDOCK:   -3.95 KCAL/MOL
REMARK 923 INTER-LIGAND FREE ENERGY PREDICTED BY IDOCK:   -4.01 KCAL/MOL
REMARK 924 INTRA-LIGAND FREE ENERGY PREDICTED BY IDOCK:    0.06 KCAL/MOL
REMARK 927      BINDING AFFINITY PREDICTED BY RF-SCORE:    0.00 PKD
ROOT
HETATM    1  C   UNL     1      -7.617  15.066  67.116  1.00  0.00    -0.174 C  
HETATM    2  C   UNL     1      -8.925  15.188  66.416  1.00  0.00    -0.279 A  
HETATM    3  N   UNL     1      -9.281  16.225  65.684  1.00  0.00    -0.423 NA 
HETATM    4  C   UNL     1     -10.550  15.966  65.246  1.00  0.00    -0.419 A  
HETATM    5  C   UNL     1     -10.967  14.742  65.699  1.00  0.00    -0.344 A  
HETATM    6  N   UNL     1      -9.934  14.235  66.453  1.00  0.00    -0.282 NA 
HETATM    7  N   UNL     1     -12.217  14.113  65.443  1.00  0.00    -0.415 N  
HETATM    8  O   UNL     1     -13.057  14.781  64.833  1.00  0.00    -0.311 OA 
HETATM    9  O   UNL     1     -12.366  12.947  65.827  1.00  0.00    -0.483 OA 
ENDROOT
BRANCH   6  10
HETATM   10  C   UNL     1      -9.879  12.994  67.213  1.00  0.00    -0.227 C  
BRANCH  10  11
HETATM   11  C   UNL     1      -9.570  11.770  66.354  1.00  0.00    -0.218 C  
HETATM   12  O   UNL     1      -9.361  12.139  64.993  1.00  0.00    -0.435 OA 
HETATM   13  H   UNL     1      -9.168  11.377  64.458  1.00  0.00     0.000 HD 
ENDBRANCH  10  11
ENDBRANCH   6  10
TORSDOF 2
ENDMDL
MODEL       86
REMARK 921   NORMALIZED FREE ENERGY PREDICTED BY IDOCK:   -3.23 KCAL/MOL
REMARK 922        TOTAL FREE ENERGY PREDICTED BY IDOCK:   -3.88 KCAL/MOL
REMARK 923 INTER-LIGAND FREE ENERGY PREDICTED BY IDOCK:   -3.58 KCAL/MOL
REMARK 924 INTRA-LIGAND FREE ENERGY PREDICTED BY IDOCK:   -0.31 KCAL/MOL
REMARK 927      BINDING AFFINITY PREDICTED BY RF-SCORE:    0.00 PKD
ROOT
HETATM    1  C   UNL     1      -8.988  12.656  68.201  1.00  0.00    -0.199 C  
HETATM    2  C   UNL     1      -9.133  11.898  66.928  1.00  0.00    -0.196 A  
HETATM    3  N   UNL     1      -8.652  10.687  66.727  1.00  0.00    -0.127 NA 
HETATM    4  C   UNL     1      -8.967  10.360  65.438  1.00  0.00    -0.183 A  
HETATM    5  C   UNL     1      -9.672  11.378  64.849  1.00  0.00    -0.247 A  
HETATM    6  N   UNL     1      -9.781  12.371  65.795  1.00  0.00    -0.233 NA 
HETATM    7  N   UNL     1     -10.190  11.407  63.525  1.00  0.00    -0.372 N  
HETATM    8  O   UNL     1      -9.890  10.460  62.792  1.00  0.00    -0.277 OA 
HETATM    9  O   UNL     1     -10.915  12.358  63.210  1.00  0.00    -0.438 OA 
ENDROOT
BRANCH   6  10
HETATM   10  C   UNL     1     -10.380  13.692  65.669  1.00  0.00    -0.300 C  
BRANCH  10  11
HETATM   11  C   UNL     1     -11.831  13.747  66.141  1.00  0.00    -0.398 C  
HETATM   12  O   UNL     1     -12.638  12.813  65.430  1.00  0.00    -0.607 OA 
HETATM   13  H   UNL     1     -13.541  12.848  65.723  1.00  0.00     0.000 HD 
ENDBRANCH  10  11
ENDBRANCH   6  10
TORSDOF 2
ENDMDL
MODEL       87
REMARK 921   NORMALIZED FREE ENERGY PREDICTED BY IDOCK:   -3.22 KCAL/MOL
REMARK 922        TOTAL FREE ENERGY PREDICTED BY IDOCK:   -3.88 KCAL/MOL
REMARK 923 INTER-LIGAND FREE ENERGY PREDICTED BY IDOCK:   -3.81 KCAL/MOL
REMARK 924 INTRA-LIGAND FREE ENERGY PREDICTED BY IDOCK:   -0.07 KCAL/MOL
REMARK 927      BINDING AFFINITY PREDICTED BY RF-SCORE:    0.00 PKD
ROOT
HETATM    1  C   UNL     1     -10.277  10.220  65.888  1.00  0.00    -0.293 C  
HETATM    2  C   UNL     1     -10.661  11.504  65.240  1.00  0.00    -0.279 A  
HETATM    3  N   UNL     1     -11.066  11.612  63.990  1.00  0.00    -0.373 NA 
HETATM    4  C   UNL     1     -11.290  12.943  63.774  1.00  0.00    -0.435 A  
HETATM    5  C   UNL     1     -11.040  13.657  64.918  1.00  0.00    -0.351 A  
HETATM    6  N   UNL     1     -10.633  12.744  65.863  1.00  0.00    -0.270 NA 
HETATM    7  N   UNL     1     -11.174  15.061  65.099  1.00  0.00    -0.373 N  
HETATM    8  O   UNL     1     -11.447  15.724  64.093  1.00  0.00    -0.307 OA 
HETATM    9  O   UNL     1     -11.029  15.513  66.240  1.00  0.00    -0.314 OA 
ENDROOT
BRANCH   6  10
HETATM   10  C   UNL     1     -10.186  12.979  67.229  1.00  0.00    -0.239 C  
BRANCH  10  11
HETATM   11  C   UNL     1      -8.748  13.482  67.318  1.00  0.00    -0.225 C  
HETATM   12  O   UNL     1      -7.826  12.473  66.916  1.00  0.00    -0.355 OA 
HETATM   13  H   UNL     1      -6.930  12.785  66.972  1.00  0.00     0.000 HD 
ENDBRANCH  10  11
ENDBRANCH   6  10
TORSDOF 2
ENDMDL
MODEL       88
REMARK 921   NORMALIZED FREE ENERGY PREDICTED BY IDOCK:   -3.21 KCAL/MOL
REMARK 922        TOTAL FREE ENERGY PREDICTED BY IDOCK:   -3.86 KCAL/MOL
REMARK 923 INTER-LIGAND FREE ENERGY PREDICTED BY IDOCK:   -3.49 KCAL/MOL
REMARK 924 INTRA-LIGAND FREE ENERGY PREDICTED BY IDOCK:   -0.37 KCAL/MOL
REMARK 927      BINDING AFFINITY PREDICTED BY RF-SCORE:    0.00 PKD
ROOT
HETATM    1  C   UNL     1     -10.036   9.644  66.333  1.00  0.00    -0.317 C  
HETATM    2  C   UNL     1     -10.802  10.362  67.388  1.00  0.00    -0.286 A  
HETATM    3  N   UNL     1     -11.444  11.498  67.197  1.00  0.00    -0.497 NA 
HETATM    4  C   UNL     1     -11.987  11.839  68.404  1.00  0.00    -0.183 A  
HETATM    5  C   UNL     1     -11.691  10.885  69.343  1.00  0.00    -0.325 A  
HETATM    6  N   UNL     1     -10.929   9.934  68.703  1.00  0.00    -0.209 NA 
HETATM    7  N   UNL     1     -12.091  10.872  70.708  1.00  0.00    -0.350 N  
HETATM    8  O   UNL     1     -12.681  11.875  71.120  1.00  0.00    -0.371 OA 
HETATM    9  O   UNL     1     -11.840   9.861  71.374  1.00  0.00    -0.369 OA 
ENDROOT
BRANCH   6  10
HETATM   10  C   UNL     1     -10.300   8.743  69.255  1.00  0.00    -0.214 C  
BRANCH  10  11
HETATM   11  C   UNL     1      -8.898   8.995  69.802  1.00  0.00    -0.153 C  
HETATM   12  O   UNL     1      -8.898   9.012  71.227  1.00  0.00    -0.215 OA 
HETATM   13  H   UNL     1      -8.024   9.169  71.568  1.00  0.00     0.000 HD 
ENDBRANCH  10  11
ENDBRANCH   6  10
TORSDOF 2
ENDMDL
MODEL       89
REMARK 921   NORMALIZED FREE ENERGY PREDICTED BY IDOCK:   -3.20 KCAL/MOL
REMARK 922        TOTAL FREE ENERGY PREDICTED BY IDOCK:   -3.86 KCAL/MOL
REMARK 923 INTER-LIGAND FREE ENERGY PREDICTED BY IDOCK:   -3.50 KCAL/MOL
REMARK 924 INTRA-LIGAND FREE ENERGY PREDICTED BY IDOCK:   -0.36 KCAL/MOL
REMARK 927      BINDING AFFINITY PREDICTED BY RF-SCORE:    0.00 PKD
ROOT
HETATM    1  C   UNL     1     -12.181  12.275  70.522  1.00  0.00    -0.387 C  
HETATM    2  C   UNL     1     -11.983  12.810  69.147  1.00  0.00    -0.246 A  
HETATM    3  N   UNL     1     -12.127  14.079  68.816  1.00  0.00    -0.340 NA 
HETATM    4  C   UNL     1     -11.889  14.152  67.472  1.00  0.00    -0.401 A  
HETATM    5  C   UNL     1     -11.573  12.913  66.978  1.00  0.00    -0.362 A  
HETATM    6  N   UNL     1     -11.634  12.044  68.043  1.00  0.00    -0.331 NA 
HETATM    7  N   UNL     1     -11.246  12.585  65.633  1.00  0.00    -0.305 N  
HETATM    8  O   UNL     1     -11.355  13.490  64.801  1.00  0.00    -0.323 OA 
HETATM    9  O   UNL     1     -10.859  11.434  65.398  1.00  0.00    -0.281 OA 
ENDROOT
BRANCH   6  10
HETATM   10  C   UNL     1     -11.447  10.601  68.056  1.00  0.00    -0.212 C  
BRANCH  10  11
HETATM   11  C   UNL     1     -10.039  10.174  68.463  1.00  0.00    -0.169 C  
HETATM   12  O   UNL     1      -9.214   9.975  67.318  1.00  0.00    -0.140 OA 
HETATM   13  H   UNL     1      -8.337   9.709  67.570  1.00  0.00     0.000 HD 
ENDBRANCH  10  11
ENDBRANCH   6  10
TORSDOF 2
ENDMDL
MODEL       90
REMARK 921   NORMALIZED FREE ENERGY PREDICTED BY IDOCK:   -3.20 KCAL/MOL
REMARK 922        TOTAL FREE ENERGY PREDICTED BY IDOCK:   -3.85 KCAL/MOL
REMARK 923 INTER-LIGAND FREE ENERGY PREDICTED BY IDOCK:   -3.82 KCAL/MOL
REMARK 924 INTRA-LIGAND FREE ENERGY PREDICTED BY IDOCK:   -0.03 KCAL/MOL
REMARK 927      BINDING AFFINITY PREDICTED BY RF-SCORE:    0.00 PKD
ROOT
HETATM    1  C   UNL     1      -8.796  13.582  67.082  1.00  0.00    -0.231 C  
HETATM    2  C   UNL     1      -8.649  15.049  66.876  1.00  0.00    -0.249 A  
HETATM    3  N   UNL     1      -7.547  15.728  67.130  1.00  0.00    -0.207 NA 
HETATM    4  C   UNL     1      -7.827  17.034  66.839  1.00  0.00    -0.213 A  
HETATM    5  C   UNL     1      -9.112  17.152  66.378  1.00  0.00    -0.256 A  
HETATM    6  N   UNL     1      -9.650  15.885  66.400  1.00  0.00    -0.264 NA 
HETATM    7  N   UNL     1      -9.766  18.343  65.958  1.00  0.00    -0.192 N  
HETATM    8  O   UNL     1      -9.147  19.399  66.118  1.00  0.00    -0.352 OA 
HETATM    9  O   UNL     1     -10.887  18.237  65.447  1.00  0.00    -0.569 OA 
ENDROOT
BRANCH   6  10
HETATM   10  C   UNL     1     -11.003  15.461  66.071  1.00  0.00    -0.286 C  
BRANCH  10  11
HETATM   11  C   UNL     1     -11.192  15.127  64.594  1.00  0.00    -0.343 C  
HETATM   12  O   UNL     1     -12.534  14.731  64.325  1.00  0.00    -0.661 OA 
HETATM   13  H   UNL     1     -12.652  14.523  63.405  1.00  0.00     0.000 HD 
ENDBRANCH  10  11
ENDBRANCH   6  10
TORSDOF 2
ENDMDL
MODEL       91
REMARK 921   NORMALIZED FREE ENERGY PREDICTED BY IDOCK:   -3.17 KCAL/MOL
REMARK 922        TOTAL FREE ENERGY PREDICTED BY IDOCK:   -3.82 KCAL/MOL
REMARK 923 INTER-LIGAND FREE ENERGY PREDICTED BY IDOCK:   -3.45 KCAL/MOL
REMARK 924 INTRA-LIGAND FREE ENERGY PREDICTED BY IDOCK:   -0.37 KCAL/MOL
REMARK 927      BINDING AFFINITY PREDICTED BY RF-SCORE:    0.00 PKD
ROOT
HETATM    1  C   UNL     1     -10.751  19.171  67.216  1.00  0.00    -0.585 C  
HETATM    2  C   UNL     1      -9.341  18.976  66.782  1.00  0.00    -0.326 A  
HETATM    3  N   UNL     1      -8.601  19.911  66.220  1.00  0.00    -0.354 NA 
HETATM    4  C   UNL     1      -7.393  19.331  65.948  1.00  0.00    -0.273 A  
HETATM    5  C   UNL     1      -7.387  18.027  66.371  1.00  0.00    -0.257 A  
HETATM    6  N   UNL     1      -8.633  17.787  66.905  1.00  0.00    -0.236 NA 
HETATM    7  N   UNL     1      -6.312  17.102  66.280  1.00  0.00    -0.190 N  
HETATM    8  O   UNL     1      -5.309  17.478  65.665  1.00  0.00    -0.227 OA 
HETATM    9  O   UNL     1      -6.445  16.005  66.835  1.00  0.00    -0.295 OA 
ENDROOT
BRANCH   6  10
HETATM   10  C   UNL     1      -9.175  16.546  67.438  1.00  0.00    -0.216 C  
BRANCH  10  11
HETATM   11  C   UNL     1      -9.090  16.451  68.959  1.00  0.00    -0.252 C  
HETATM   12  O   UNL     1      -7.766  16.130  69.379  1.00  0.00    -0.236 OA 
HETATM   13  H   UNL     1      -7.712  16.071  70.326  1.00  0.00     0.000 HD 
ENDBRANCH  10  11
ENDBRANCH   6  10
TORSDOF 2
ENDMDL
MODEL       92
REMARK 921   NORMALIZED FREE ENERGY PREDICTED BY IDOCK:   -3.17 KCAL/MOL
REMARK 922        TOTAL FREE ENERGY PREDICTED BY IDOCK:   -3.82 KCAL/MOL
REMARK 923 INTER-LIGAND FREE ENERGY PREDICTED BY IDOCK:   -3.51 KCAL/MOL
REMARK 924 INTRA-LIGAND FREE ENERGY PREDICTED BY IDOCK:   -0.30 KCAL/MOL
REMARK 927      BINDING AFFINITY PREDICTED BY RF-SCORE:    0.00 PKD
ROOT
HETATM    1  C   UNL     1     -10.688  11.625  65.034  1.00  0.00    -0.351 C  
HETATM    2  C   UNL     1     -10.712  13.079  65.352  1.00  0.00    -0.291 A  
HETATM    3  N   UNL     1     -11.043  14.022  64.492  1.00  0.00    -0.374 NA 
HETATM    4  C   UNL     1     -10.911  15.209  65.156  1.00  0.00    -0.417 A  
HETATM    5  C   UNL     1     -10.515  14.987  66.450  1.00  0.00    -0.294 A  
HETATM    6  N   UNL     1     -10.381  13.624  66.585  1.00  0.00    -0.271 NA 
HETATM    7  N   UNL     1     -10.287  15.965  67.457  1.00  0.00    -0.277 N  
HETATM    8  O   UNL     1     -10.354  17.146  67.104  1.00  0.00    -0.303 OA 
HETATM    9  O   UNL     1     -10.060  15.569  68.606  1.00  0.00    -0.202 OA 
ENDROOT
BRANCH   6  10
HETATM   10  C   UNL     1      -9.923  12.860  67.737  1.00  0.00    -0.230 C  
BRANCH  10  11
HETATM   11  C   UNL     1      -8.407  12.701  67.796  1.00  0.00    -0.172 C  
HETATM   12  O   UNL     1      -7.877  13.271  68.991  1.00  0.00    -0.329 OA 
HETATM   13  H   UNL     1      -6.933  13.172  69.028  1.00  0.00     0.000 HD 
ENDBRANCH  10  11
ENDBRANCH   6  10
TORSDOF 2
ENDMDL
MODEL       93
REMARK 921   NORMALIZED FREE ENERGY PREDICTED BY IDOCK:   -3.16 KCAL/MOL
REMARK 922        TOTAL FREE ENERGY PREDICTED BY IDOCK:   -3.81 KCAL/MOL
REMARK 923 INTER-LIGAND FREE ENERGY PREDICTED BY IDOCK:   -3.68 KCAL/MOL
REMARK 924 INTRA-LIGAND FREE ENERGY PREDICTED BY IDOCK:   -0.13 KCAL/MOL
REMARK 927      BINDING AFFINITY PREDICTED BY RF-SCORE:    0.00 PKD
ROOT
HETATM    1  C   UNL     1      -8.842  15.873  68.395  1.00  0.00    -0.184 C  
HETATM    2  C   UNL     1      -7.914  17.002  68.677  1.00  0.00    -0.258 A  
HETATM    3  N   UNL     1      -6.878  16.926  69.489  1.00  0.00    -0.196 NA 
HETATM    4  C   UNL     1      -6.307  18.168  69.498  1.00  0.00    -0.220 A  
HETATM    5  C   UNL     1      -6.992  19.011  68.661  1.00  0.00    -0.287 A  
HETATM    6  N   UNL     1      -8.027  18.274  68.132  1.00  0.00    -0.275 NA 
HETATM    7  N   UNL     1      -6.698  20.375  68.389  1.00  0.00    -0.280 N  
HETATM    8  O   UNL     1      -5.790  20.887  69.051  1.00  0.00    -0.361 OA 
HETATM    9  O   UNL     1      -7.349  20.941  67.504  1.00  0.00    -0.335 OA 
ENDROOT
BRANCH   6  10
HETATM   10  C   UNL     1      -9.091  18.704  67.235  1.00  0.00    -0.277 C  
BRANCH  10  11
HETATM   11  C   UNL     1     -10.413  18.972  67.948  1.00  0.00    -0.393 C  
HETATM   12  O   UNL     1     -10.211  19.739  69.133  1.00  0.00    -0.615 OA 
HETATM   13  H   UNL     1     -11.034  19.906  69.577  1.00  0.00     0.000 HD 
ENDBRANCH  10  11
ENDBRANCH   6  10
TORSDOF 2
ENDMDL
MODEL       94
REMARK 921   NORMALIZED FREE ENERGY PREDICTED BY IDOCK:   -3.13 KCAL/MOL
REMARK 922        TOTAL FREE ENERGY PREDICTED BY IDOCK:   -3.78 KCAL/MOL
REMARK 923 INTER-LIGAND FREE ENERGY PREDICTED BY IDOCK:   -3.63 KCAL/MOL
REMARK 924 INTRA-LIGAND FREE ENERGY PREDICTED BY IDOCK:   -0.14 KCAL/MOL
REMARK 927      BINDING AFFINITY PREDICTED BY RF-SCORE:    0.00 PKD
ROOT
HETATM    1  C   UNL     1     -11.695  15.310  68.910  1.00  0.00    -0.362 C  
HETATM    2  C   UNL     1     -10.584  14.450  68.421  1.00  0.00    -0.247 A  
HETATM    3  N   UNL     1      -9.314  14.631  68.728  1.00  0.00    -0.202 NA 
HETATM    4  C   UNL     1      -8.618  13.660  68.064  1.00  0.00    -0.175 A  
HETATM    5  C   UNL     1      -9.477  12.859  67.357  1.00  0.00    -0.198 A  
HETATM    6  N   UNL     1     -10.741  13.358  67.577  1.00  0.00    -0.253 NA 
HETATM    7  N   UNL     1      -9.138  11.734  66.557  1.00  0.00    -0.200 N  
HETATM    8  O   UNL     1      -7.934  11.512  66.396  1.00  0.00    -0.139 OA 
HETATM    9  O   UNL     1     -10.062  11.051  66.099  1.00  0.00    -0.221 OA 
ENDROOT
BRANCH   6  10
HETATM   10  C   UNL     1     -12.009  12.918  67.013  1.00  0.00    -0.325 C  
BRANCH  10  11
HETATM   11  C   UNL     1     -12.358  13.606  65.696  1.00  0.00    -0.478 C  
HETATM   12  O   UNL     1     -13.143  12.754  64.866  1.00  0.00    -0.833 OA 
HETATM   13  H   UNL     1     -13.361  13.182  64.045  1.00  0.00     0.000 HD 
ENDBRANCH  10  11
ENDBRANCH   6  10
TORSDOF 2
ENDMDL
MODEL       95
REMARK 921   NORMALIZED FREE ENERGY PREDICTED BY IDOCK:   -3.12 KCAL/MOL
REMARK 922        TOTAL FREE ENERGY PREDICTED BY IDOCK:   -3.77 KCAL/MOL
REMARK 923 INTER-LIGAND FREE ENERGY PREDICTED BY IDOCK:   -3.39 KCAL/MOL
REMARK 924 INTRA-LIGAND FREE ENERGY PREDICTED BY IDOCK:   -0.37 KCAL/MOL
REMARK 927      BINDING AFFINITY PREDICTED BY RF-SCORE:    0.00 PKD
ROOT
HETATM    1  C   UNL     1     -12.401  11.493  69.880  1.00  0.00    -0.247 C  
HETATM    2  C   UNL     1     -11.998  12.909  69.661  1.00  0.00    -0.292 A  
HETATM    3  N   UNL     1     -12.222  13.885  70.518  1.00  0.00    -0.353 NA 
HETATM    4  C   UNL     1     -11.732  15.022  69.939  1.00  0.00    -0.307 A  
HETATM    5  C   UNL     1     -11.179  14.732  68.719  1.00  0.00    -0.270 A  
HETATM    6  N   UNL     1     -11.347  13.379  68.529  1.00  0.00    -0.269 NA 
HETATM    7  N   UNL     1     -10.553  15.642  67.823  1.00  0.00    -0.275 N  
HETATM    8  O   UNL     1     -10.600  16.838  68.127  1.00  0.00    -0.319 OA 
HETATM    9  O   UNL     1      -9.993  15.176  66.823  1.00  0.00    -0.232 OA 
ENDROOT
BRANCH   6  10
HETATM   10  C   UNL     1     -10.997  12.568  67.372  1.00  0.00    -0.259 C  
BRANCH  10  11
HETATM   11  C   UNL     1     -12.066  12.574  66.282  1.00  0.00    -0.243 C  
HETATM   12  O   UNL     1     -11.831  13.616  65.338  1.00  0.00    -0.327 OA 
HETATM   13  H   UNL     1     -12.496  13.620  64.660  1.00  0.00     0.000 HD 
ENDBRANCH  10  11
ENDBRANCH   6  10
TORSDOF 2
ENDMDL
MODEL       96
REMARK 921   NORMALIZED FREE ENERGY PREDICTED BY IDOCK:   -3.12 KCAL/MOL
REMARK 922        TOTAL FREE ENERGY PREDICTED BY IDOCK:   -3.76 KCAL/MOL
REMARK 923 INTER-LIGAND FREE ENERGY PREDICTED BY IDOCK:   -3.45 KCAL/MOL
REMARK 924 INTRA-LIGAND FREE ENERGY PREDICTED BY IDOCK:   -0.31 KCAL/MOL
REMARK 927      BINDING AFFINITY PREDICTED BY RF-SCORE:    0.00 PKD
ROOT
HETATM    1  C   UNL     1      -9.225   9.585  66.280  1.00  0.00    -0.219 C  
HETATM    2  C   UNL     1     -10.088  10.797  66.323  1.00  0.00    -0.232 A  
HETATM    3  N   UNL     1     -10.596  11.385  65.258  1.00  0.00    -0.280 NA 
HETATM    4  C   UNL     1     -11.295  12.467  65.716  1.00  0.00    -0.336 A  
HETATM    5  C   UNL     1     -11.231  12.529  67.084  1.00  0.00    -0.300 A  
HETATM    6  N   UNL     1     -10.457  11.464  67.484  1.00  0.00    -0.195 NA 
HETATM    7  N   UNL     1     -11.843  13.496  67.928  1.00  0.00    -0.358 N  
HETATM    8  O   UNL     1     -12.408  14.440  67.367  1.00  0.00    -0.300 OA 
HETATM    9  O   UNL     1     -11.785  13.316  69.150  1.00  0.00    -0.289 OA 
ENDROOT
BRANCH   6  10
HETATM   10  C   UNL     1     -10.023  11.102  68.826  1.00  0.00    -0.198 C  
BRANCH  10  11
HETATM   11  C   UNL     1     -10.810   9.939  69.424  1.00  0.00    -0.237 C  
HETATM   12  O   UNL     1     -12.210  10.205  69.407  1.00  0.00    -0.502 OA 
HETATM   13  H   UNL     1     -12.701   9.481  69.780  1.00  0.00     0.000 HD 
ENDBRANCH  10  11
ENDBRANCH   6  10
TORSDOF 2
ENDMDL
MODEL       97
REMARK 921   NORMALIZED FREE ENERGY PREDICTED BY IDOCK:   -3.12 KCAL/MOL
REMARK 922        TOTAL FREE ENERGY PREDICTED BY IDOCK:   -3.76 KCAL/MOL
REMARK 923 INTER-LIGAND FREE ENERGY PREDICTED BY IDOCK:   -3.71 KCAL/MOL
REMARK 924 INTRA-LIGAND FREE ENERGY PREDICTED BY IDOCK:   -0.04 KCAL/MOL
REMARK 927      BINDING AFFINITY PREDICTED BY RF-SCORE:    0.00 PKD
ROOT
HETATM    1  C   UNL     1     -12.277  15.030  64.167  1.00  0.00    -0.234 C  
HETATM    2  C   UNL     1     -11.164  14.746  65.114  1.00  0.00    -0.382 A  
HETATM    3  N   UNL     1     -10.311  15.651  65.551  1.00  0.00    -0.370 NA 
HETATM    4  C   UNL     1      -9.437  14.991  66.369  1.00  0.00    -0.297 A  
HETATM    5  C   UNL     1      -9.775  13.665  66.451  1.00  0.00    -0.292 A  
HETATM    6  N   UNL     1     -10.880  13.496  65.648  1.00  0.00    -0.284 NA 
HETATM    7  N   UNL     1      -9.120  12.659  67.214  1.00  0.00    -0.184 N  
HETATM    8  O   UNL     1      -8.076  12.990  67.784  1.00  0.00    -0.140 OA 
HETATM    9  O   UNL     1      -9.646  11.542  67.270  1.00  0.00    -0.171 OA 
ENDROOT
BRANCH   6  10
HETATM   10  C   UNL     1     -11.600  12.271  65.331  1.00  0.00    -0.363 C  
BRANCH  10  11
HETATM   11  C   UNL     1     -10.945  11.451  64.223  1.00  0.00    -0.321 C  
HETATM   12  O   UNL     1     -10.941  12.166  62.990  1.00  0.00    -0.674 OA 
HETATM   13  H   UNL     1     -10.533  11.656  62.300  1.00  0.00     0.000 HD 
ENDBRANCH  10  11
ENDBRANCH   6  10
TORSDOF 2
ENDMDL
MODEL       98
REMARK 921   NORMALIZED FREE ENERGY PREDICTED BY IDOCK:   -3.10 KCAL/MOL
REMARK 922        TOTAL FREE ENERGY PREDICTED BY IDOCK:   -3.74 KCAL/MOL
REMARK 923 INTER-LIGAND FREE ENERGY PREDICTED BY IDOCK:   -3.64 KCAL/MOL
REMARK 924 INTRA-LIGAND FREE ENERGY PREDICTED BY IDOCK:   -0.10 KCAL/MOL
REMARK 927      BINDING AFFINITY PREDICTED BY RF-SCORE:    0.00 PKD
ROOT
HETATM    1  C   UNL     1     -10.372  16.117  68.129  1.00  0.00    -0.269 C  
HETATM    2  C   UNL     1     -10.561  15.497  66.790  1.00  0.00    -0.307 A  
HETATM    3  N   UNL     1     -10.765  16.177  65.679  1.00  0.00    -0.336 NA 
HETATM    4  C   UNL     1     -10.917  15.250  64.685  1.00  0.00    -0.304 A  
HETATM    5  C   UNL     1     -10.781  13.984  65.194  1.00  0.00    -0.382 A  
HETATM    6  N   UNL     1     -10.555  14.130  66.543  1.00  0.00    -0.280 NA 
HETATM    7  N   UNL     1     -10.855  12.759  64.475  1.00  0.00    -0.325 N  
HETATM    8  O   UNL     1     -11.177  12.835  63.285  1.00  0.00    -0.397 OA 
HETATM    9  O   UNL     1     -10.576  11.717  65.079  1.00  0.00    -0.268 OA 
ENDROOT
BRANCH   6  10
HETATM   10  C   UNL     1     -10.404  13.101  67.562  1.00  0.00    -0.225 C  
BRANCH  10  11
HETATM   11  C   UNL     1      -8.959  12.651  67.759  1.00  0.00    -0.189 C  
HETATM   12  O   UNL     1      -8.386  13.258  68.915  1.00  0.00    -0.355 OA 
HETATM   13  H   UNL     1      -7.487  12.978  69.039  1.00  0.00     0.000 HD 
ENDBRANCH  10  11
ENDBRANCH   6  10
TORSDOF 2
ENDMDL
MODEL       99
REMARK 921   NORMALIZED FREE ENERGY PREDICTED BY IDOCK:   -3.09 KCAL/MOL
REMARK 922        TOTAL FREE ENERGY PREDICTED BY IDOCK:   -3.72 KCAL/MOL
REMARK 923 INTER-LIGAND FREE ENERGY PREDICTED BY IDOCK:   -3.63 KCAL/MOL
REMARK 924 INTRA-LIGAND FREE ENERGY PREDICTED BY IDOCK:   -0.09 KCAL/MOL
REMARK 927      BINDING AFFINITY PREDICTED BY RF-SCORE:    0.00 PKD
ROOT
HETATM    1  C   UNL     1     -12.311  11.205  70.664  1.00  0.00    -0.482 C  
HETATM    2  C   UNL     1     -11.788  11.081  69.276  1.00  0.00    -0.340 A  
HETATM    3  N   UNL     1     -12.007  11.960  68.319  1.00  0.00    -0.493 NA 
HETATM    4  C   UNL     1     -11.389  11.472  67.202  1.00  0.00    -0.284 A  
HETATM    5  C   UNL     1     -10.762  10.286  67.487  1.00  0.00    -0.294 A  
HETATM    6  N   UNL     1     -11.014  10.025  68.814  1.00  0.00    -0.220 NA 
HETATM    7  N   UNL     1     -10.001   9.483  66.594  1.00  0.00    -0.229 N  
HETATM    8  O   UNL     1      -9.984   9.835  65.411  1.00  0.00    -0.320 OA 
HETATM    9  O   UNL     1      -9.399   8.510  67.064  1.00  0.00    -0.147 OA 
ENDROOT
BRANCH   6  10
HETATM   10  C   UNL     1     -10.634   8.863  69.605  1.00  0.00    -0.226 C  
BRANCH  10  11
HETATM   11  C   UNL     1      -9.496   9.142  70.584  1.00  0.00    -0.261 C  
HETATM   12  O   UNL     1      -9.926   8.973  71.932  1.00  0.00    -0.332 OA 
HETATM   13  H   UNL     1      -9.218   9.147  72.541  1.00  0.00     0.000 HD 
ENDBRANCH  10  11
ENDBRANCH   6  10
TORSDOF 2
ENDMDL
MODEL      100
REMARK 921   NORMALIZED FREE ENERGY PREDICTED BY IDOCK:   -3.07 KCAL/MOL
REMARK 922        TOTAL FREE ENERGY PREDICTED BY IDOCK:   -3.71 KCAL/MOL
REMARK 923 INTER-LIGAND FREE ENERGY PREDICTED BY IDOCK:   -3.55 KCAL/MOL
REMARK 924 INTRA-LIGAND FREE ENERGY PREDICTED BY IDOCK:   -0.15 KCAL/MOL
REMARK 927      BINDING AFFINITY PREDICTED BY RF-SCORE:    0.00 PKD
ROOT
HETATM    1  C   UNL     1     -12.006  13.705  67.896  1.00  0.00    -0.382 C  
HETATM    2  C   UNL     1     -11.610  12.317  68.262  1.00  0.00    -0.331 A  
HETATM    3  N   UNL     1     -11.603  11.847  69.494  1.00  0.00    -0.312 NA 
HETATM    4  C   UNL     1     -11.155  10.559  69.409  1.00  0.00    -0.258 A  
HETATM    5  C   UNL     1     -10.907  10.228  68.102  1.00  0.00    -0.265 A  
HETATM    6  N   UNL     1     -11.192  11.350  67.357  1.00  0.00    -0.310 NA 
HETATM    7  N   UNL     1     -10.447   8.977  67.606  1.00  0.00    -0.259 N  
HETATM    8  O   UNL     1     -10.141   8.128  68.449  1.00  0.00    -0.188 OA 
HETATM    9  O   UNL     1     -10.405   8.822  66.380  1.00  0.00    -0.271 OA 
ENDROOT
BRANCH   6  10
HETATM   10  C   UNL     1     -11.041  11.560  65.925  1.00  0.00    -0.214 C  
BRANCH  10  11
HETATM   11  C   UNL     1      -9.712  12.207  65.544  1.00  0.00    -0.181 C  
HETATM   12  O   UNL     1      -9.917  13.361  64.733  1.00  0.00    -0.582 OA 
HETATM   13  H   UNL     1      -9.090  13.764  64.496  1.00  0.00     0.000 HD 
ENDBRANCH  10  11
ENDBRANCH   6  10
TORSDOF 2
ENDMDL
MODEL      101
REMARK 921   NORMALIZED FREE ENERGY PREDICTED BY IDOCK:   -3.05 KCAL/MOL
REMARK 922        TOTAL FREE ENERGY PREDICTED BY IDOCK:   -3.68 KCAL/MOL
REMARK 923 INTER-LIGAND FREE ENERGY PREDICTED BY IDOCK:   -3.31 KCAL/MOL
REMARK 924 INTRA-LIGAND FREE ENERGY PREDICTED BY IDOCK:   -0.37 KCAL/MOL
REMARK 927      BINDING AFFINITY PREDICTED BY RF-SCORE:    0.00 PKD
ROOT
HETATM    1  C   UNL     1     -11.372   9.660  71.148  1.00  0.00    -0.456 C  
HETATM    2  C   UNL     1     -11.633  10.809  70.239  1.00  0.00    -0.338 A  
HETATM    3  N   UNL     1     -12.097  11.978  70.634  1.00  0.00    -0.347 NA 
HETATM    4  C   UNL     1     -12.223  12.741  69.506  1.00  0.00    -0.102 A  
HETATM    5  C   UNL     1     -11.808  12.034  68.407  1.00  0.00    -0.300 A  
HETATM    6  N   UNL     1     -11.430  10.793  68.865  1.00  0.00    -0.281 NA 
HETATM    7  N   UNL     1     -11.771  12.488  67.060  1.00  0.00    -0.372 N  
HETATM    8  O   UNL     1     -12.259  13.601  66.838  1.00  0.00    -0.399 OA 
HETATM    9  O   UNL     1     -11.241  11.754  66.218  1.00  0.00    -0.316 OA 
ENDROOT
BRANCH   6  10
HETATM   10  C   UNL     1     -10.971   9.639  68.105  1.00  0.00    -0.132 C  
BRANCH  10  11
HETATM   11  C   UNL     1      -9.454   9.469  68.117  1.00  0.00    -0.133 C  
HETATM   12  O   UNL     1      -8.815  10.513  67.387  1.00  0.00    -0.132 OA 
HETATM   13  H   UNL     1      -7.871  10.407  67.394  1.00  0.00     0.000 HD 
ENDBRANCH  10  11
ENDBRANCH   6  10
TORSDOF 2
ENDMDL
MODEL      102
REMARK 921   NORMALIZED FREE ENERGY PREDICTED BY IDOCK:   -3.03 KCAL/MOL
REMARK 922        TOTAL FREE ENERGY PREDICTED BY IDOCK:   -3.67 KCAL/MOL
REMARK 923 INTER-LIGAND FREE ENERGY PREDICTED BY IDOCK:   -3.54 KCAL/MOL
REMARK 924 INTRA-LIGAND FREE ENERGY PREDICTED BY IDOCK:   -0.12 KCAL/MOL
REMARK 927      BINDING AFFINITY PREDICTED BY RF-SCORE:    0.00 PKD
ROOT
HETATM    1  C   UNL     1     -11.688  12.198  63.523  1.00  0.00    -0.579 C  
HETATM    2  C   UNL     1     -10.547  11.784  64.385  1.00  0.00    -0.317 A  
HETATM    3  N   UNL     1      -9.838  10.688  64.201  1.00  0.00    -0.311 NA 
HETATM    4  C   UNL     1      -8.915  10.656  65.209  1.00  0.00    -0.190 A  
HETATM    5  C   UNL     1      -9.047  11.763  66.008  1.00  0.00    -0.155 A  
HETATM    6  N   UNL     1     -10.093  12.492  65.490  1.00  0.00    -0.269 NA 
HETATM    7  N   UNL     1      -8.263  12.097  67.146  1.00  0.00    -0.178 N  
HETATM    8  O   UNL     1      -7.439  11.255  67.517  1.00  0.00    -0.097 OA 
HETATM    9  O   UNL     1      -8.443  13.204  67.666  1.00  0.00    -0.167 OA 
ENDROOT
BRANCH   6  10
HETATM   10  C   UNL     1     -10.690  13.720  65.994  1.00  0.00    -0.284 C  
BRANCH  10  11
HETATM   11  C   UNL     1     -11.817  13.481  66.996  1.00  0.00    -0.402 C  
HETATM   12  O   UNL     1     -12.227  14.701  67.607  1.00  0.00    -0.593 OA 
HETATM   13  H   UNL     1     -12.929  14.552  68.231  1.00  0.00     0.000 HD 
ENDBRANCH  10  11
ENDBRANCH   6  10
TORSDOF 2
ENDMDL
MODEL      103
REMARK 921   NORMALIZED FREE ENERGY PREDICTED BY IDOCK:   -3.03 KCAL/MOL
REMARK 922        TOTAL FREE ENERGY PREDICTED BY IDOCK:   -3.66 KCAL/MOL
REMARK 923 INTER-LIGAND FREE ENERGY PREDICTED BY IDOCK:   -3.85 KCAL/MOL
REMARK 924 INTRA-LIGAND FREE ENERGY PREDICTED BY IDOCK:    0.19 KCAL/MOL
REMARK 927      BINDING AFFINITY PREDICTED BY RF-SCORE:    0.00 PKD
ROOT
HETATM    1  C   UNL     1     -10.449  15.933  69.576  1.00  0.00    -0.281 C  
HETATM    2  C   UNL     1     -10.812  15.192  68.337  1.00  0.00    -0.255 A  
HETATM    3  N   UNL     1     -10.830  15.724  67.131  1.00  0.00    -0.315 NA 
HETATM    4  C   UNL     1     -11.238  14.735  66.282  1.00  0.00    -0.343 A  
HETATM    5  C   UNL     1     -11.451  13.572  66.976  1.00  0.00    -0.340 A  
HETATM    6  N   UNL     1     -11.184  13.854  68.296  1.00  0.00    -0.259 NA 
HETATM    7  N   UNL     1     -11.865  12.319  66.445  1.00  0.00    -0.361 N  
HETATM    8  O   UNL     1     -12.163  12.299  65.247  1.00  0.00    -0.508 OA 
HETATM    9  O   UNL     1     -11.879  11.345  67.206  1.00  0.00    -0.594 OA 
ENDROOT
BRANCH   6  10
HETATM   10  C   UNL     1     -11.314  12.990  69.461  1.00  0.00    -0.155 C  
BRANCH  10  11
HETATM   11  C   UNL     1     -12.338  13.490  70.476  1.00  0.00    -0.342 C  
HETATM   12  O   UNL     1     -12.287  12.723  71.676  1.00  0.00    -0.093 OA 
HETATM   13  H   UNL     1     -12.925  13.034  72.308  1.00  0.00     0.000 HD 
ENDBRANCH  10  11
ENDBRANCH   6  10
TORSDOF 2
ENDMDL
MODEL      104
REMARK 921   NORMALIZED FREE ENERGY PREDICTED BY IDOCK:   -3.02 KCAL/MOL
REMARK 922        TOTAL FREE ENERGY PREDICTED BY IDOCK:   -3.65 KCAL/MOL
REMARK 923 INTER-LIGAND FREE ENERGY PREDICTED BY IDOCK:   -3.54 KCAL/MOL
REMARK 924 INTRA-LIGAND FREE ENERGY PREDICTED BY IDOCK:   -0.10 KCAL/MOL
REMARK 927      BINDING AFFINITY PREDICTED BY RF-SCORE:    0.00 PKD
ROOT
HETATM    1  C   UNL     1      -9.357  14.280  66.517  1.00  0.00    -0.292 C  
HETATM    2  C   UNL     1      -9.130  15.733  66.743  1.00  0.00    -0.249 A  
HETATM    3  N   UNL     1      -8.469  16.519  65.917  1.00  0.00    -0.401 NA 
HETATM    4  C   UNL     1      -8.458  17.759  66.494  1.00  0.00    -0.260 A  
HETATM    5  C   UNL     1      -9.143  17.735  67.681  1.00  0.00    -0.246 A  
HETATM    6  N   UNL     1      -9.575  16.440  67.853  1.00  0.00    -0.227 NA 
HETATM    7  N   UNL     1      -9.366  18.827  68.564  1.00  0.00    -0.337 N  
HETATM    8  O   UNL     1      -8.799  19.888  68.285  1.00  0.00    -0.306 OA 
HETATM    9  O   UNL     1     -10.120  18.646  69.527  1.00  0.00    -0.088 OA 
ENDROOT
BRANCH   6  10
HETATM   10  C   UNL     1     -10.295  15.858  68.977  1.00  0.00    -0.231 C  
BRANCH  10  11
HETATM   11  C   UNL     1     -11.812  15.933  68.830  1.00  0.00    -0.304 C  
HETATM   12  O   UNL     1     -12.354  14.670  68.453  1.00  0.00    -0.603 OA 
HETATM   13  H   UNL     1     -13.299  14.717  68.362  1.00  0.00     0.000 HD 
ENDBRANCH  10  11
ENDBRANCH   6  10
TORSDOF 2
ENDMDL
MODEL      105
REMARK 921   NORMALIZED FREE ENERGY PREDICTED BY IDOCK:   -3.02 KCAL/MOL
REMARK 922        TOTAL FREE ENERGY PREDICTED BY IDOCK:   -3.65 KCAL/MOL
REMARK 923 INTER-LIGAND FREE ENERGY PREDICTED BY IDOCK:   -3.28 KCAL/MOL
REMARK 924 INTRA-LIGAND FREE ENERGY PREDICTED BY IDOCK:   -0.37 KCAL/MOL
REMARK 927      BINDING AFFINITY PREDICTED BY RF-SCORE:    0.00 PKD
ROOT
HETATM    1  C   UNL     1      -8.043   6.688  69.591  1.00  0.00    -0.126 C  
HETATM    2  C   UNL     1      -9.461   6.761  70.035  1.00  0.00    -0.157 A  
HETATM    3  N   UNL     1     -10.322   5.767  69.936  1.00  0.00    -0.236 NA 
HETATM    4  C   UNL     1     -11.510   6.240  70.421  1.00  0.00    -0.344 A  
HETATM    5  C   UNL     1     -11.366   7.536  70.844  1.00  0.00    -0.277 A  
HETATM    6  N   UNL     1     -10.057   7.882  70.598  1.00  0.00    -0.194 NA 
HETATM    7  N   UNL     1     -12.367   8.364  71.423  1.00  0.00    -0.304 N  
HETATM    8  O   UNL     1     -13.513   7.905  71.458  1.00  0.00    -0.338 OA 
HETATM    9  O   UNL     1     -12.020   9.465  71.866  1.00  0.00    -0.369 OA 
ENDROOT
BRANCH   6  10
HETATM   10  C   UNL     1      -9.396   9.163  70.801  1.00  0.00    -0.264 C  
BRANCH  10  11
HETATM   11  C   UNL     1      -9.445  10.071  69.576  1.00  0.00    -0.226 C  
HETATM   12  O   UNL     1     -10.445  11.076  69.722  1.00  0.00    -0.444 OA 
HETATM   13  H   UNL     1     -10.475  11.642  68.960  1.00  0.00     0.000 HD 
ENDBRANCH  10  11
ENDBRANCH   6  10
TORSDOF 2
ENDMDL
MODEL      106
REMARK 921   NORMALIZED FREE ENERGY PREDICTED BY IDOCK:   -3.00 KCAL/MOL
REMARK 922        TOTAL FREE ENERGY PREDICTED BY IDOCK:   -3.63 KCAL/MOL
REMARK 923 INTER-LIGAND FREE ENERGY PREDICTED BY IDOCK:   -3.52 KCAL/MOL
REMARK 924 INTRA-LIGAND FREE ENERGY PREDICTED BY IDOCK:   -0.11 KCAL/MOL
REMARK 927      BINDING AFFINITY PREDICTED BY RF-SCORE:    0.00 PKD
ROOT
HETATM    1  C   UNL     1      -6.732  19.016  69.302  1.00  0.00    -0.330 C  
HETATM    2  C   UNL     1      -6.426  19.776  68.059  1.00  0.00    -0.241 A  
HETATM    3  N   UNL     1      -6.060  21.043  68.034  1.00  0.00    -0.341 NA 
HETATM    4  C   UNL     1      -5.904  21.370  66.716  1.00  0.00    -0.326 A  
HETATM    5  C   UNL     1      -6.156  20.280  65.924  1.00  0.00    -0.198 A  
HETATM    6  N   UNL     1      -6.495  19.252  66.775  1.00  0.00    -0.187 NA 
HETATM    7  N   UNL     1      -6.083  20.216  64.505  1.00  0.00    -0.265 N  
HETATM    8  O   UNL     1      -5.869  21.278  63.914  1.00  0.00    -0.255 OA 
HETATM    9  O   UNL     1      -6.218  19.109  63.969  1.00  0.00    -0.418 OA 
ENDROOT
BRANCH   6  10
HETATM   10  C   UNL     1      -6.915  17.897  66.450  1.00  0.00    -0.249 C  
BRANCH  10  11
HETATM   11  C   UNL     1      -8.431  17.726  66.404  1.00  0.00    -0.239 C  
HETATM   12  O   UNL     1      -8.791  16.523  65.731  1.00  0.00    -0.474 OA 
HETATM   13  H   UNL     1      -9.735  16.416  65.702  1.00  0.00     0.000 HD 
ENDBRANCH  10  11
ENDBRANCH   6  10
TORSDOF 2
ENDMDL
MODEL      107
REMARK 921   NORMALIZED FREE ENERGY PREDICTED BY IDOCK:   -2.99 KCAL/MOL
REMARK 922        TOTAL FREE ENERGY PREDICTED BY IDOCK:   -3.62 KCAL/MOL
REMARK 923 INTER-LIGAND FREE ENERGY PREDICTED BY IDOCK:   -3.28 KCAL/MOL
REMARK 924 INTRA-LIGAND FREE ENERGY PREDICTED BY IDOCK:   -0.34 KCAL/MOL
REMARK 927      BINDING AFFINITY PREDICTED BY RF-SCORE:    0.00 PKD
ROOT
HETATM    1  C   UNL     1     -10.859   8.028  72.371  1.00  0.00    -0.392 C  
HETATM    2  C   UNL     1     -10.620   8.432  70.958  1.00  0.00    -0.214 A  
HETATM    3  N   UNL     1     -10.185   9.621  70.589  1.00  0.00    -0.288 NA 
HETATM    4  C   UNL     1     -10.126   9.599  69.224  1.00  0.00    -0.193 A  
HETATM    5  C   UNL     1     -10.510   8.371  68.752  1.00  0.00    -0.178 A  
HETATM    6  N   UNL     1     -10.832   7.615  69.856  1.00  0.00    -0.250 NA 
HETATM    7  N   UNL     1     -10.566   7.953  67.393  1.00  0.00    -0.285 N  
HETATM    8  O   UNL     1     -10.342   8.817  66.540  1.00  0.00    -0.279 OA 
HETATM    9  O   UNL     1     -10.810   6.763  67.165  1.00  0.00    -0.324 OA 
ENDROOT
BRANCH   6  10
HETATM   10  C   UNL     1     -11.356   6.258  69.913  1.00  0.00    -0.434 C  
BRANCH  10  11
HETATM   11  C   UNL     1     -10.282   5.202  70.155  1.00  0.00    -0.278 C  
HETATM   12  O   UNL     1      -9.992   4.482  68.959  1.00  0.00    -0.165 OA 
HETATM   13  H   UNL     1      -9.323   3.824  69.109  1.00  0.00     0.000 HD 
ENDBRANCH  10  11
ENDBRANCH   6  10
TORSDOF 2
ENDMDL
MODEL      108
REMARK 921   NORMALIZED FREE ENERGY PREDICTED BY IDOCK:   -2.99 KCAL/MOL
REMARK 922        TOTAL FREE ENERGY PREDICTED BY IDOCK:   -3.62 KCAL/MOL
REMARK 923 INTER-LIGAND FREE ENERGY PREDICTED BY IDOCK:   -3.53 KCAL/MOL
REMARK 924 INTRA-LIGAND FREE ENERGY PREDICTED BY IDOCK:   -0.09 KCAL/MOL
REMARK 927      BINDING AFFINITY PREDICTED BY RF-SCORE:    0.00 PKD
ROOT
HETATM    1  C   UNL     1      -8.145  12.010  67.696  1.00  0.00    -0.155 C  
HETATM    2  C   UNL     1      -8.663  13.404  67.625  1.00  0.00    -0.198 A  
HETATM    3  N   UNL     1      -7.994  14.419  67.116  1.00  0.00    -0.171 NA 
HETATM    4  C   UNL     1      -8.794  15.517  67.264  1.00  0.00    -0.201 A  
HETATM    5  C   UNL     1      -9.980  15.163  67.853  1.00  0.00    -0.221 A  
HETATM    6  N   UNL     1      -9.906  13.810  68.091  1.00  0.00    -0.232 NA 
HETATM    7  N   UNL     1     -11.075  16.019  68.158  1.00  0.00    -0.345 N  
HETATM    8  O   UNL     1     -10.903  17.226  67.966  1.00  0.00    -0.381 OA 
HETATM    9  O   UNL     1     -12.118  15.498  68.569  1.00  0.00    -0.246 OA 
ENDROOT
BRANCH   6  10
HETATM   10  C   UNL     1     -10.870  12.945  68.755  1.00  0.00    -0.242 C  
BRANCH  10  11
HETATM   11  C   UNL     1     -11.744  12.155  67.784  1.00  0.00    -0.320 C  
HETATM   12  O   UNL     1     -12.163  10.920  68.360  1.00  0.00    -0.813 OA 
HETATM   13  H   UNL     1     -12.707  10.428  67.756  1.00  0.00     0.000 HD 
ENDBRANCH  10  11
ENDBRANCH   6  10
TORSDOF 2
ENDMDL
MODEL      109
REMARK 921   NORMALIZED FREE ENERGY PREDICTED BY IDOCK:   -2.97 KCAL/MOL
REMARK 922        TOTAL FREE ENERGY PREDICTED BY IDOCK:   -3.60 KCAL/MOL
REMARK 923 INTER-LIGAND FREE ENERGY PREDICTED BY IDOCK:   -3.47 KCAL/MOL
REMARK 924 INTRA-LIGAND FREE ENERGY PREDICTED BY IDOCK:   -0.13 KCAL/MOL
REMARK 927      BINDING AFFINITY PREDICTED BY RF-SCORE:    0.00 PKD
ROOT
HETATM    1  C   UNL     1      -9.992  12.522  65.408  1.00  0.00    -0.236 C  
HETATM    2  C   UNL     1     -10.750  12.677  66.679  1.00  0.00    -0.253 A  
HETATM    3  N   UNL     1     -11.519  13.710  66.964  1.00  0.00    -0.327 NA 
HETATM    4  C   UNL     1     -12.006  13.489  68.222  1.00  0.00    -0.342 A  
HETATM    5  C   UNL     1     -11.544  12.291  68.705  1.00  0.00    -0.330 A  
HETATM    6  N   UNL     1     -10.735  11.764  67.725  1.00  0.00    -0.198 NA 
HETATM    7  N   UNL     1     -11.840  11.705  69.966  1.00  0.00    -0.344 N  
HETATM    8  O   UNL     1     -12.501  12.390  70.753  1.00  0.00    -0.349 OA 
HETATM    9  O   UNL     1     -11.438  10.555  70.177  1.00  0.00    -0.276 OA 
ENDROOT
BRANCH   6  10
HETATM   10  C   UNL     1      -9.947  10.540  67.751  1.00  0.00    -0.171 C  
BRANCH  10  11
HETATM   11  C   UNL     1     -10.654   9.350  67.108  1.00  0.00    -0.224 C  
HETATM   12  O   UNL     1     -10.131   9.083  65.809  1.00  0.00    -0.421 OA 
HETATM   13  H   UNL     1     -10.570   8.342  65.408  1.00  0.00     0.000 HD 
ENDBRANCH  10  11
ENDBRANCH   6  10
TORSDOF 2
ENDMDL
MODEL      110
REMARK 921   NORMALIZED FREE ENERGY PREDICTED BY IDOCK:   -2.97 KCAL/MOL
REMARK 922        TOTAL FREE ENERGY PREDICTED BY IDOCK:   -3.59 KCAL/MOL
REMARK 923 INTER-LIGAND FREE ENERGY PREDICTED BY IDOCK:   -3.59 KCAL/MOL
REMARK 924 INTRA-LIGAND FREE ENERGY PREDICTED BY IDOCK:   -0.00 KCAL/MOL
REMARK 927      BINDING AFFINITY PREDICTED BY RF-SCORE:    0.00 PKD
ROOT
HETATM    1  C   UNL     1      -9.312  16.052  66.665  1.00  0.00    -0.268 C  
HETATM    2  C   UNL     1      -8.860  17.469  66.716  1.00  0.00    -0.256 A  
HETATM    3  N   UNL     1      -9.233  18.399  65.858  1.00  0.00    -0.452 NA 
HETATM    4  C   UNL     1      -8.584  19.543  66.228  1.00  0.00    -0.361 A  
HETATM    5  C   UNL     1      -7.819  19.315  67.343  1.00  0.00    -0.255 A  
HETATM    6  N   UNL     1      -7.986  17.987  67.662  1.00  0.00    -0.219 NA 
HETATM    7  N   UNL     1      -7.011  20.258  68.036  1.00  0.00    -0.294 N  
HETATM    8  O   UNL     1      -6.906  21.377  67.525  1.00  0.00    -0.548 OA 
HETATM    9  O   UNL     1      -6.494  19.903  69.101  1.00  0.00    -0.303 OA 
ENDROOT
BRANCH   6  10
HETATM   10  C   UNL     1      -7.351  17.214  68.720  1.00  0.00    -0.241 C  
BRANCH  10  11
HETATM   11  C   UNL     1      -5.889  16.880  68.432  1.00  0.00    -0.134 C  
HETATM   12  O   UNL     1      -5.749  16.245  67.164  1.00  0.00    -0.261 OA 
HETATM   13  H   UNL     1      -4.839  16.037  66.984  1.00  0.00     0.000 HD 
ENDBRANCH  10  11
ENDBRANCH   6  10
TORSDOF 2
ENDMDL
MODEL      111
REMARK 921   NORMALIZED FREE ENERGY PREDICTED BY IDOCK:   -2.93 KCAL/MOL
REMARK 922        TOTAL FREE ENERGY PREDICTED BY IDOCK:   -3.55 KCAL/MOL
REMARK 923 INTER-LIGAND FREE ENERGY PREDICTED BY IDOCK:   -3.21 KCAL/MOL
REMARK 924 INTRA-LIGAND FREE ENERGY PREDICTED BY IDOCK:   -0.34 KCAL/MOL
REMARK 927      BINDING AFFINITY PREDICTED BY RF-SCORE:    0.00 PKD
ROOT
HETATM    1  C   UNL     1     -10.076   4.939  71.436  1.00  0.00    -0.268 C  
HETATM    2  C   UNL     1     -10.874   6.195  71.422  1.00  0.00    -0.265 A  
HETATM    3  N   UNL     1     -12.105   6.299  71.884  1.00  0.00    -0.314 NA 
HETATM    4  C   UNL     1     -12.490   7.591  71.663  1.00  0.00    -0.342 A  
HETATM    5  C   UNL     1     -11.470   8.296  71.076  1.00  0.00    -0.275 A  
HETATM    6  N   UNL     1     -10.430   7.409  70.915  1.00  0.00    -0.216 NA 
HETATM    7  N   UNL     1     -11.477   9.669  70.708  1.00  0.00    -0.302 N  
HETATM    8  O   UNL     1     -12.549  10.269  70.835  1.00  0.00    -0.322 OA 
HETATM    9  O   UNL     1     -10.418  10.166  70.310  1.00  0.00    -0.281 OA 
ENDROOT
BRANCH   6  10
HETATM   10  C   UNL     1      -9.135   7.624  70.286  1.00  0.00    -0.149 C  
BRANCH  10  11
HETATM   11  C   UNL     1      -8.006   7.861  71.286  1.00  0.00    -0.092 C  
HETATM   12  O   UNL     1      -8.303   8.961  72.142  1.00  0.00    -0.381 OA 
HETATM   13  H   UNL     1      -7.601   9.109  72.765  1.00  0.00     0.000 HD 
ENDBRANCH  10  11
ENDBRANCH   6  10
TORSDOF 2
ENDMDL
MODEL      112
REMARK 921   NORMALIZED FREE ENERGY PREDICTED BY IDOCK:   -2.92 KCAL/MOL
REMARK 922        TOTAL FREE ENERGY PREDICTED BY IDOCK:   -3.53 KCAL/MOL
REMARK 923 INTER-LIGAND FREE ENERGY PREDICTED BY IDOCK:   -3.14 KCAL/MOL
REMARK 924 INTRA-LIGAND FREE ENERGY PREDICTED BY IDOCK:   -0.40 KCAL/MOL
REMARK 927      BINDING AFFINITY PREDICTED BY RF-SCORE:    0.00 PKD
ROOT
HETATM    1  C   UNL     1     -11.149   5.271  73.316  1.00  0.00    -0.376 C  
HETATM    2  C   UNL     1     -10.473   6.431  72.671  1.00  0.00    -0.210 A  
HETATM    3  N   UNL     1      -9.344   6.962  73.097  1.00  0.00    -0.138 NA 
HETATM    4  C   UNL     1      -9.076   8.011  72.262  1.00  0.00    -0.176 A  
HETATM    5  C   UNL     1     -10.046   8.109  71.298  1.00  0.00    -0.195 A  
HETATM    6  N   UNL     1     -10.949   7.102  71.553  1.00  0.00    -0.234 NA 
HETATM    7  N   UNL     1     -10.112   9.058  70.241  1.00  0.00    -0.187 N  
HETATM    8  O   UNL     1      -9.261   9.953  70.249  1.00  0.00    -0.215 OA 
HETATM    9  O   UNL     1     -10.993   8.911  69.387  1.00  0.00    -0.173 OA 
ENDROOT
BRANCH   6  10
HETATM   10  C   UNL     1     -12.197   6.798  70.868  1.00  0.00    -0.331 C  
BRANCH  10  11
HETATM   11  C   UNL     1     -13.412   7.481  71.491  1.00  0.00    -0.359 C  
HETATM   12  O   UNL     1     -13.530   8.828  71.041  1.00  0.00    -0.539 OA 
HETATM   13  H   UNL     1     -14.286   9.253  71.429  1.00  0.00     0.000 HD 
ENDBRANCH  10  11
ENDBRANCH   6  10
TORSDOF 2
ENDMDL
MODEL      113
REMARK 921   NORMALIZED FREE ENERGY PREDICTED BY IDOCK:   -2.90 KCAL/MOL
REMARK 922        TOTAL FREE ENERGY PREDICTED BY IDOCK:   -3.52 KCAL/MOL
REMARK 923 INTER-LIGAND FREE ENERGY PREDICTED BY IDOCK:   -3.16 KCAL/MOL
REMARK 924 INTRA-LIGAND FREE ENERGY PREDICTED BY IDOCK:   -0.36 KCAL/MOL
REMARK 927      BINDING AFFINITY PREDICTED BY RF-SCORE:    0.00 PKD
ROOT
HETATM    1  C   UNL     1     -10.801   5.627  72.045  1.00  0.00    -0.300 C  
HETATM    2  C   UNL     1     -10.697   6.537  70.871  1.00  0.00    -0.242 A  
HETATM    3  N   UNL     1     -10.331   6.152  69.664  1.00  0.00    -0.199 NA 
HETATM    4  C   UNL     1     -10.334   7.277  68.887  1.00  0.00    -0.201 A  
HETATM    5  C   UNL     1     -10.729   8.362  69.625  1.00  0.00    -0.198 A  
HETATM    6  N   UNL     1     -10.962   7.899  70.900  1.00  0.00    -0.239 NA 
HETATM    7  N   UNL     1     -10.874   9.702  69.170  1.00  0.00    -0.214 N  
HETATM    8  O   UNL     1     -10.509   9.935  68.014  1.00  0.00    -0.194 OA 
HETATM    9  O   UNL     1     -11.369  10.525  69.948  1.00  0.00    -0.263 OA 
ENDROOT
BRANCH   6  10
HETATM   10  C   UNL     1     -11.341   8.648  72.090  1.00  0.00    -0.364 C  
BRANCH  10  11
HETATM   11  C   UNL     1     -12.843   8.632  72.363  1.00  0.00    -0.355 C  
HETATM   12  O   UNL     1     -13.491   9.731  71.729  1.00  0.00    -0.390 OA 
HETATM   13  H   UNL     1     -14.426   9.722  71.899  1.00  0.00     0.000 HD 
ENDBRANCH  10  11
ENDBRANCH   6  10
TORSDOF 2
ENDMDL
MODEL      114
REMARK 921   NORMALIZED FREE ENERGY PREDICTED BY IDOCK:   -2.89 KCAL/MOL
REMARK 922        TOTAL FREE ENERGY PREDICTED BY IDOCK:   -3.51 KCAL/MOL
REMARK 923 INTER-LIGAND FREE ENERGY PREDICTED BY IDOCK:   -3.17 KCAL/MOL
REMARK 924 INTRA-LIGAND FREE ENERGY PREDICTED BY IDOCK:   -0.34 KCAL/MOL
REMARK 927      BINDING AFFINITY PREDICTED BY RF-SCORE:    0.00 PKD
ROOT
HETATM    1  C   UNL     1     -13.661   7.105  71.459  1.00  0.00    -0.408 C  
HETATM    2  C   UNL     1     -12.356   7.779  71.698  1.00  0.00    -0.321 A  
HETATM    3  N   UNL     1     -12.037   8.968  71.225  1.00  0.00    -0.304 NA 
HETATM    4  C   UNL     1     -10.758   9.214  71.639  1.00  0.00    -0.371 A  
HETATM    5  C   UNL     1     -10.296   8.169  72.397  1.00  0.00    -0.311 A  
HETATM    6  N   UNL     1     -11.312   7.242  72.439  1.00  0.00    -0.272 NA 
HETATM    7  N   UNL     1      -9.022   8.059  73.020  1.00  0.00    -0.220 N  
HETATM    8  O   UNL     1      -8.206   8.951  72.771  1.00  0.00    -0.387 OA 
HETATM    9  O   UNL     1      -8.829   7.099  73.775  1.00  0.00    -0.150 OA 
ENDROOT
BRANCH   6  10
HETATM   10  C   UNL     1     -11.322   5.923  73.056  1.00  0.00    -0.170 C  
BRANCH  10  11
HETATM   11  C   UNL     1     -10.676   4.844  72.192  1.00  0.00    -0.123 C  
HETATM   12  O   UNL     1      -9.471   4.365  72.784  1.00  0.00    -0.129 OA 
HETATM   13  H   UNL     1      -9.069   3.693  72.246  1.00  0.00     0.000 HD 
ENDBRANCH  10  11
ENDBRANCH   6  10
TORSDOF 2
ENDMDL
MODEL      115
REMARK 921   NORMALIZED FREE ENERGY PREDICTED BY IDOCK:   -2.88 KCAL/MOL
REMARK 922        TOTAL FREE ENERGY PREDICTED BY IDOCK:   -3.50 KCAL/MOL
REMARK 923 INTER-LIGAND FREE ENERGY PREDICTED BY IDOCK:   -3.15 KCAL/MOL
REMARK 924 INTRA-LIGAND FREE ENERGY PREDICTED BY IDOCK:   -0.35 KCAL/MOL
REMARK 927      BINDING AFFINITY PREDICTED BY RF-SCORE:    0.00 PKD
ROOT
HETATM    1  C   UNL     1      -8.256   5.076  71.973  1.00  0.00    -0.116 C  
HETATM    2  C   UNL     1      -9.305   6.073  72.322  1.00  0.00    -0.143 A  
HETATM    3  N   UNL     1      -9.760   6.276  73.542  1.00  0.00    -0.159 NA 
HETATM    4  C   UNL     1     -10.723   7.240  73.436  1.00  0.00    -0.369 A  
HETATM    5  C   UNL     1     -10.843   7.649  72.133  1.00  0.00    -0.247 A  
HETATM    6  N   UNL     1      -9.940   6.904  71.409  1.00  0.00    -0.182 NA 
HETATM    7  N   UNL     1     -11.722   8.644  71.623  1.00  0.00    -0.291 N  
HETATM    8  O   UNL     1     -12.536   9.122  72.419  1.00  0.00    -0.368 OA 
HETATM    9  O   UNL     1     -11.598   8.973  70.438  1.00  0.00    -0.226 OA 
ENDROOT
BRANCH   6  10
HETATM   10  C   UNL     1      -9.705   6.897  69.972  1.00  0.00    -0.167 C  
BRANCH  10  11
HETATM   11  C   UNL     1     -10.609   5.929  69.214  1.00  0.00    -0.308 C  
HETATM   12  O   UNL     1     -11.532   6.631  68.386  1.00  0.00    -0.571 OA 
HETATM   13  H   UNL     1     -12.095   6.029  67.914  1.00  0.00     0.000 HD 
ENDBRANCH  10  11
ENDBRANCH   6  10
TORSDOF 2
ENDMDL
MODEL      116
REMARK 921   NORMALIZED FREE ENERGY PREDICTED BY IDOCK:   -2.87 KCAL/MOL
REMARK 922        TOTAL FREE ENERGY PREDICTED BY IDOCK:   -3.49 KCAL/MOL
REMARK 923 INTER-LIGAND FREE ENERGY PREDICTED BY IDOCK:   -3.14 KCAL/MOL
REMARK 924 INTRA-LIGAND FREE ENERGY PREDICTED BY IDOCK:   -0.35 KCAL/MOL
REMARK 927      BINDING AFFINITY PREDICTED BY RF-SCORE:    0.00 PKD
ROOT
HETATM    1  C   UNL     1      -9.550   5.596  70.636  1.00  0.00    -0.213 C  
HETATM    2  C   UNL     1     -10.041   6.897  70.105  1.00  0.00    -0.182 A  
HETATM    3  N   UNL     1     -10.624   7.825  70.838  1.00  0.00    -0.212 NA 
HETATM    4  C   UNL     1     -10.948   8.841  69.982  1.00  0.00    -0.209 A  
HETATM    5  C   UNL     1     -10.536   8.538  68.710  1.00  0.00    -0.184 A  
HETATM    6  N   UNL     1      -9.955   7.292  68.777  1.00  0.00    -0.162 NA 
HETATM    7  N   UNL     1     -10.675   9.347  67.548  1.00  0.00    -0.268 N  
HETATM    8  O   UNL     1     -11.326  10.388  67.675  1.00  0.00    -0.371 OA 
HETATM    9  O   UNL     1     -10.124   8.965  66.509  1.00  0.00    -0.277 OA 
ENDROOT
BRANCH   6  10
HETATM   10  C   UNL     1      -9.410   6.479  67.700  1.00  0.00    -0.118 C  
BRANCH  10  11
HETATM   11  C   UNL     1     -10.424   5.507  67.101  1.00  0.00    -0.257 C  
HETATM   12  O   UNL     1     -11.488   6.207  66.460  1.00  0.00    -0.686 OA 
HETATM   13  H   UNL     1     -12.119   5.603  66.087  1.00  0.00     0.000 HD 
ENDBRANCH  10  11
ENDBRANCH   6  10
TORSDOF 2
ENDMDL
MODEL      117
REMARK 921   NORMALIZED FREE ENERGY PREDICTED BY IDOCK:   -2.86 KCAL/MOL
REMARK 922        TOTAL FREE ENERGY PREDICTED BY IDOCK:   -3.47 KCAL/MOL
REMARK 923 INTER-LIGAND FREE ENERGY PREDICTED BY IDOCK:   -3.34 KCAL/MOL
REMARK 924 INTRA-LIGAND FREE ENERGY PREDICTED BY IDOCK:   -0.13 KCAL/MOL
REMARK 927      BINDING AFFINITY PREDICTED BY RF-SCORE:    0.00 PKD
ROOT
HETATM    1  C   UNL     1      -9.259  12.820  67.055  1.00  0.00    -0.221 C  
HETATM    2  C   UNL     1      -9.597  11.399  66.771  1.00  0.00    -0.188 A  
HETATM    3  N   UNL     1      -9.638  10.872  65.563  1.00  0.00    -0.208 NA 
HETATM    4  C   UNL     1     -10.012   9.568  65.728  1.00  0.00    -0.245 A  
HETATM    5  C   UNL     1     -10.182   9.287  67.059  1.00  0.00    -0.262 A  
HETATM    6  N   UNL     1      -9.921  10.455  67.737  1.00  0.00    -0.171 NA 
HETATM    7  N   UNL     1     -10.552   8.039  67.631  1.00  0.00    -0.222 N  
HETATM    8  O   UNL     1     -10.851   7.136  66.844  1.00  0.00    -0.352 OA 
HETATM    9  O   UNL     1     -10.528   7.939  68.864  1.00  0.00    -0.214 OA 
ENDROOT
BRANCH   6  10
HETATM   10  C   UNL     1     -10.017  10.724  69.165  1.00  0.00    -0.187 C  
BRANCH  10  11
HETATM   11  C   UNL     1     -11.317  11.416  69.566  1.00  0.00    -0.289 C  
HETATM   12  O   UNL     1     -12.437  10.819  68.916  1.00  0.00    -0.782 OA 
HETATM   13  H   UNL     1     -13.247  11.249  69.166  1.00  0.00     0.000 HD 
ENDBRANCH  10  11
ENDBRANCH   6  10
TORSDOF 2
ENDMDL
MODEL      118
REMARK 921   NORMALIZED FREE ENERGY PREDICTED BY IDOCK:   -2.86 KCAL/MOL
REMARK 922        TOTAL FREE ENERGY PREDICTED BY IDOCK:   -3.47 KCAL/MOL
REMARK 923 INTER-LIGAND FREE ENERGY PREDICTED BY IDOCK:   -3.25 KCAL/MOL
REMARK 924 INTRA-LIGAND FREE ENERGY PREDICTED BY IDOCK:   -0.22 KCAL/MOL
REMARK 927      BINDING AFFINITY PREDICTED BY RF-SCORE:    0.00 PKD
ROOT
HETATM    1  C   UNL     1     -10.376   5.447  67.550  1.00  0.00    -0.246 C  
HETATM    2  C   UNL     1     -10.469   6.916  67.773  1.00  0.00    -0.223 A  
HETATM    3  N   UNL     1     -10.636   7.803  66.813  1.00  0.00    -0.285 NA 
HETATM    4  C   UNL     1     -10.641   9.028  67.420  1.00  0.00    -0.239 A  
HETATM    5  C   UNL     1     -10.495   8.885  68.775  1.00  0.00    -0.200 A  
HETATM    6  N   UNL     1     -10.381   7.535  69.013  1.00  0.00    -0.209 NA 
HETATM    7  N   UNL     1     -10.469   9.922  69.749  1.00  0.00    -0.242 N  
HETATM    8  O   UNL     1     -10.476  11.081  69.322  1.00  0.00    -0.219 OA 
HETATM    9  O   UNL     1     -10.462   9.595  70.941  1.00  0.00    -0.300 OA 
ENDROOT
BRANCH   6  10
HETATM   10  C   UNL     1     -10.146   6.845  70.273  1.00  0.00    -0.183 C  
BRANCH  10  11
HETATM   11  C   UNL     1     -11.428   6.380  70.959  1.00  0.00    -0.334 C  
HETATM   12  O   UNL     1     -12.526   7.224  70.619  1.00  0.00    -0.568 OA 
HETATM   13  H   UNL     1     -13.324   6.935  71.046  1.00  0.00     0.000 HD 
ENDBRANCH  10  11
ENDBRANCH   6  10
TORSDOF 2
ENDMDL
MODEL      119
REMARK 921   NORMALIZED FREE ENERGY PREDICTED BY IDOCK:   -2.85 KCAL/MOL
REMARK 922        TOTAL FREE ENERGY PREDICTED BY IDOCK:   -3.46 KCAL/MOL
REMARK 923 INTER-LIGAND FREE ENERGY PREDICTED BY IDOCK:   -3.35 KCAL/MOL
REMARK 924 INTRA-LIGAND FREE ENERGY PREDICTED BY IDOCK:   -0.12 KCAL/MOL
REMARK 927      BINDING AFFINITY PREDICTED BY RF-SCORE:    0.00 PKD
ROOT
HETATM    1  C   UNL     1     -11.315  10.931  69.711  1.00  0.00    -0.374 C  
HETATM    2  C   UNL     1     -11.550   9.748  70.582  1.00  0.00    -0.313 A  
HETATM    3  N   UNL     1     -12.167   9.794  71.747  1.00  0.00    -0.388 NA 
HETATM    4  C   UNL     1     -12.152   8.519  72.238  1.00  0.00    -0.387 A  
HETATM    5  C   UNL     1     -11.537   7.675  71.350  1.00  0.00    -0.274 A  
HETATM    6  N   UNL     1     -11.144   8.454  70.285  1.00  0.00    -0.240 NA 
HETATM    7  N   UNL     1     -11.341   6.274  71.492  1.00  0.00    -0.289 N  
HETATM    8  O   UNL     1     -11.669   5.777  72.574  1.00  0.00    -0.309 OA 
HETATM    9  O   UNL     1     -10.881   5.654  70.527  1.00  0.00    -0.283 OA 
ENDROOT
BRANCH   6  10
HETATM   10  C   UNL     1     -10.393   8.068  69.099  1.00  0.00    -0.220 C  
BRANCH  10  11
HETATM   11  C   UNL     1      -8.881   8.147  69.285  1.00  0.00    -0.144 C  
HETATM   12  O   UNL     1      -8.202   7.995  68.042  1.00  0.00    -0.126 OA 
HETATM   13  H   UNL     1      -7.260   8.044  68.157  1.00  0.00     0.000 HD 
ENDBRANCH  10  11
ENDBRANCH   6  10
TORSDOF 2
ENDMDL
MODEL      120
REMARK 921   NORMALIZED FREE ENERGY PREDICTED BY IDOCK:   -2.84 KCAL/MOL
REMARK 922        TOTAL FREE ENERGY PREDICTED BY IDOCK:   -3.45 KCAL/MOL
REMARK 923 INTER-LIGAND FREE ENERGY PREDICTED BY IDOCK:   -3.16 KCAL/MOL
REMARK 924 INTRA-LIGAND FREE ENERGY PREDICTED BY IDOCK:   -0.29 KCAL/MOL
REMARK 927      BINDING AFFINITY PREDICTED BY RF-SCORE:    0.00 PKD
ROOT
HETATM    1  C   UNL     1      -7.646   9.703  70.183  1.00  0.00    -0.165 C  
HETATM    2  C   UNL     1      -8.644   8.841  70.874  1.00  0.00    -0.192 A  
HETATM    3  N   UNL     1      -8.916   8.907  72.162  1.00  0.00    -0.384 NA 
HETATM    4  C   UNL     1      -9.854   7.943  72.405  1.00  0.00    -0.225 A  
HETATM    5  C   UNL     1     -10.176   7.291  71.243  1.00  0.00    -0.189 A  
HETATM    6  N   UNL     1      -9.403   7.858  70.254  1.00  0.00    -0.159 NA 
HETATM    7  N   UNL     1     -11.120   6.240  71.082  1.00  0.00    -0.286 N  
HETATM    8  O   UNL     1     -11.633   5.795  72.114  1.00  0.00    -0.276 OA 
HETATM    9  O   UNL     1     -11.374   5.863  69.932  1.00  0.00    -0.364 OA 
ENDROOT
BRANCH   6  10
HETATM   10  C   UNL     1      -9.309   7.495  68.848  1.00  0.00    -0.142 C  
BRANCH  10  11
HETATM   11  C   UNL     1     -10.316   8.227  67.964  1.00  0.00    -0.213 C  
HETATM   12  O   UNL     1     -11.281   7.324  67.432  1.00  0.00    -0.565 OA 
HETATM   13  H   UNL     1     -11.909   7.779  66.882  1.00  0.00     0.000 HD 
ENDBRANCH  10  11
ENDBRANCH   6  10
TORSDOF 2
ENDMDL
MODEL      121
REMARK 921   NORMALIZED FREE ENERGY PREDICTED BY IDOCK:   -2.81 KCAL/MOL
REMARK 922        TOTAL FREE ENERGY PREDICTED BY IDOCK:   -3.42 KCAL/MOL
REMARK 923 INTER-LIGAND FREE ENERGY PREDICTED BY IDOCK:   -3.29 KCAL/MOL
REMARK 924 INTRA-LIGAND FREE ENERGY PREDICTED BY IDOCK:   -0.13 KCAL/MOL
REMARK 927      BINDING AFFINITY PREDICTED BY RF-SCORE:    0.00 PKD
ROOT
HETATM    1  C   UNL     1      -8.291  10.718  68.717  1.00  0.00    -0.147 C  
HETATM    2  C   UNL     1      -8.850  10.906  67.350  1.00  0.00    -0.133 A  
HETATM    3  N   UNL     1      -8.373  10.327  66.266  1.00  0.00    -0.130 NA 
HETATM    4  C   UNL     1      -9.136  10.776  65.225  1.00  0.00    -0.195 A  
HETATM    5  C   UNL     1     -10.110  11.626  65.682  1.00  0.00    -0.240 A  
HETATM    6  N   UNL     1      -9.934  11.719  67.044  1.00  0.00    -0.203 NA 
HETATM    7  N   UNL     1     -11.107  12.283  64.910  1.00  0.00    -0.302 N  
HETATM    8  O   UNL     1     -11.029  12.156  63.684  1.00  0.00    -0.387 OA 
HETATM    9  O   UNL     1     -11.985  12.910  65.513  1.00  0.00    -0.385 OA 
ENDROOT
BRANCH   6  10
HETATM   10  C   UNL     1     -10.659  12.537  68.006  1.00  0.00    -0.223 C  
BRANCH  10  11
HETATM   11  C   UNL     1     -11.570  11.729  68.925  1.00  0.00    -0.309 C  
HETATM   12  O   UNL     1     -12.399  10.844  68.176  1.00  0.00    -0.636 OA 
HETATM   13  H   UNL     1     -12.967  10.340  68.748  1.00  0.00     0.000 HD 
ENDBRANCH  10  11
ENDBRANCH   6  10
TORSDOF 2
ENDMDL
MODEL      122
REMARK 921   NORMALIZED FREE ENERGY PREDICTED BY IDOCK:   -2.79 KCAL/MOL
REMARK 922        TOTAL FREE ENERGY PREDICTED BY IDOCK:   -3.39 KCAL/MOL
REMARK 923 INTER-LIGAND FREE ENERGY PREDICTED BY IDOCK:   -3.60 KCAL/MOL
REMARK 924 INTRA-LIGAND FREE ENERGY PREDICTED BY IDOCK:    0.21 KCAL/MOL
REMARK 927      BINDING AFFINITY PREDICTED BY RF-SCORE:    0.00 PKD
ROOT
HETATM    1  C   UNL     1     -11.181  12.424  69.438  1.00  0.00    -0.225 C  
HETATM    2  C   UNL     1     -11.236  13.344  68.269  1.00  0.00    -0.279 A  
HETATM    3  N   UNL     1     -12.316  13.560  67.544  1.00  0.00    -0.177 NA 
HETATM    4  C   UNL     1     -11.947  14.435  66.560  1.00  0.00    -0.386 A  
HETATM    5  C   UNL     1     -10.627  14.776  66.699  1.00  0.00    -0.299 A  
HETATM    6  N   UNL     1     -10.160  14.080  67.790  1.00  0.00    -0.236 NA 
HETATM    7  N   UNL     1      -9.882  15.672  65.883  1.00  0.00    -0.324 N  
HETATM    8  O   UNL     1     -10.455  16.113  64.882  1.00  0.00    -0.605 OA 
HETATM    9  O   UNL     1      -8.734  15.959  66.240  1.00  0.00    -0.306 OA 
ENDROOT
BRANCH   6  10
HETATM   10  C   UNL     1      -8.810  14.031  68.334  1.00  0.00    -0.180 C  
BRANCH  10  11
HETATM   11  C   UNL     1      -7.839  13.223  67.477  1.00  0.00    -0.171 C  
HETATM   12  O   UNL     1      -8.514  12.599  66.388  1.00  0.00    -0.413 OA 
HETATM   13  H   UNL     1      -7.910  12.095  65.855  1.00  0.00     0.000 HD 
ENDBRANCH  10  11
ENDBRANCH   6  10
TORSDOF 2
ENDMDL
MODEL      123
REMARK 921   NORMALIZED FREE ENERGY PREDICTED BY IDOCK:   -2.77 KCAL/MOL
REMARK 922        TOTAL FREE ENERGY PREDICTED BY IDOCK:   -3.38 KCAL/MOL
REMARK 923 INTER-LIGAND FREE ENERGY PREDICTED BY IDOCK:   -3.20 KCAL/MOL
REMARK 924 INTRA-LIGAND FREE ENERGY PREDICTED BY IDOCK:   -0.17 KCAL/MOL
REMARK 927      BINDING AFFINITY PREDICTED BY RF-SCORE:    0.00 PKD
ROOT
HETATM    1  C   UNL     1      -9.627   9.203  67.204  1.00  0.00    -0.215 C  
HETATM    2  C   UNL     1     -10.275  10.402  67.802  1.00  0.00    -0.193 A  
HETATM    3  N   UNL     1     -10.831  10.427  68.998  1.00  0.00    -0.220 NA 
HETATM    4  C   UNL     1     -11.333  11.688  69.160  1.00  0.00    -0.283 A  
HETATM    5  C   UNL     1     -11.061  12.453  68.054  1.00  0.00    -0.245 A  
HETATM    6  N   UNL     1     -10.385  11.637  67.176  1.00  0.00    -0.212 NA 
HETATM    7  N   UNL     1     -11.404  13.817  67.850  1.00  0.00    -0.283 N  
HETATM    8  O   UNL     1     -12.110  14.345  68.715  1.00  0.00    -0.308 OA 
HETATM    9  O   UNL     1     -10.960  14.380  66.843  1.00  0.00    -0.296 OA 
ENDROOT
BRANCH   6  10
HETATM   10  C   UNL     1      -9.920  11.931  65.828  1.00  0.00    -0.236 C  
BRANCH  10  11
HETATM   11  C   UNL     1     -10.970  11.669  64.753  1.00  0.00    -0.289 C  
HETATM   12  O   UNL     1     -10.605  10.557  63.939  1.00  0.00    -0.423 OA 
HETATM   13  H   UNL     1     -11.259  10.394  63.269  1.00  0.00     0.000 HD 
ENDBRANCH  10  11
ENDBRANCH   6  10
TORSDOF 2
ENDMDL
MODEL      124
REMARK 921   NORMALIZED FREE ENERGY PREDICTED BY IDOCK:   -2.75 KCAL/MOL
REMARK 922        TOTAL FREE ENERGY PREDICTED BY IDOCK:   -3.35 KCAL/MOL
REMARK 923 INTER-LIGAND FREE ENERGY PREDICTED BY IDOCK:   -3.27 KCAL/MOL
REMARK 924 INTRA-LIGAND FREE ENERGY PREDICTED BY IDOCK:   -0.07 KCAL/MOL
REMARK 927      BINDING AFFINITY PREDICTED BY RF-SCORE:    0.00 PKD
ROOT
HETATM    1  C   UNL     1     -10.070  10.624  68.158  1.00  0.00    -0.179 C  
HETATM    2  C   UNL     1     -11.027  10.470  69.287  1.00  0.00    -0.244 A  
HETATM    3  N   UNL     1     -11.834  11.423  69.712  1.00  0.00    -0.332 NA 
HETATM    4  C   UNL     1     -12.521  10.898  70.771  1.00  0.00    -0.394 A  
HETATM    5  C   UNL     1     -12.145   9.597  70.983  1.00  0.00    -0.337 A  
HETATM    6  N   UNL     1     -11.184   9.313  70.039  1.00  0.00    -0.210 NA 
HETATM    7  N   UNL     1     -12.644   8.711  71.977  1.00  0.00    -0.354 N  
HETATM    8  O   UNL     1     -13.426   9.192  72.803  1.00  0.00    -0.424 OA 
HETATM    9  O   UNL     1     -12.280   7.530  71.934  1.00  0.00    -0.292 OA 
ENDROOT
BRANCH   6  10
HETATM   10  C   UNL     1     -10.410   8.093  69.861  1.00  0.00    -0.214 C  
BRANCH  10  11
HETATM   11  C   UNL     1      -9.225   7.983  70.816  1.00  0.00    -0.157 C  
HETATM   12  O   UNL     1      -8.742   6.643  70.883  1.00  0.00    -0.137 OA 
HETATM   13  H   UNL     1      -8.004   6.574  71.477  1.00  0.00     0.000 HD 
ENDBRANCH  10  11
ENDBRANCH   6  10
TORSDOF 2
ENDMDL
MODEL      125
REMARK 921   NORMALIZED FREE ENERGY PREDICTED BY IDOCK:   -2.75 KCAL/MOL
REMARK 922        TOTAL FREE ENERGY PREDICTED BY IDOCK:   -3.34 KCAL/MOL
REMARK 923 INTER-LIGAND FREE ENERGY PREDICTED BY IDOCK:   -3.14 KCAL/MOL
REMARK 924 INTRA-LIGAND FREE ENERGY PREDICTED BY IDOCK:   -0.20 KCAL/MOL
REMARK 927      BINDING AFFINITY PREDICTED BY RF-SCORE:    0.00 PKD
ROOT
HETATM    1  C   UNL     1     -13.154   6.858  71.374  1.00  0.00    -0.316 C  
HETATM    2  C   UNL     1     -12.068   7.850  71.148  1.00  0.00    -0.276 A  
HETATM    3  N   UNL     1     -12.083   9.086  71.606  1.00  0.00    -0.328 NA 
HETATM    4  C   UNL     1     -10.932   9.673  71.162  1.00  0.00    -0.360 A  
HETATM    5  C   UNL     1     -10.190   8.775  70.438  1.00  0.00    -0.197 A  
HETATM    6  N   UNL     1     -10.911   7.603  70.420  1.00  0.00    -0.241 NA 
HETATM    7  N   UNL     1      -8.926   9.002  69.827  1.00  0.00    -0.146 N  
HETATM    8  O   UNL     1      -8.495  10.158  69.864  1.00  0.00    -0.176 OA 
HETATM    9  O   UNL     1      -8.345   8.033  69.326  1.00  0.00    -0.130 OA 
ENDROOT
BRANCH   6  10
HETATM   10  C   UNL     1     -10.607   6.353  69.739  1.00  0.00    -0.254 C  
BRANCH  10  11
HETATM   11  C   UNL     1     -11.130   6.301  68.306  1.00  0.00    -0.269 C  
HETATM   12  O   UNL     1     -10.842   7.511  67.611  1.00  0.00    -0.447 OA 
HETATM   13  H   UNL     1     -11.167   7.480  66.718  1.00  0.00     0.000 HD 
ENDBRANCH  10  11
ENDBRANCH   6  10
TORSDOF 2
ENDMDL
MODEL      126
REMARK 921   NORMALIZED FREE ENERGY PREDICTED BY IDOCK:   -2.73 KCAL/MOL
REMARK 922        TOTAL FREE ENERGY PREDICTED BY IDOCK:   -3.32 KCAL/MOL
REMARK 923 INTER-LIGAND FREE ENERGY PREDICTED BY IDOCK:   -2.95 KCAL/MOL
REMARK 924 INTRA-LIGAND FREE ENERGY PREDICTED BY IDOCK:   -0.37 KCAL/MOL
REMARK 927      BINDING AFFINITY PREDICTED BY RF-SCORE:    0.00 PKD
ROOT
HETATM    1  C   UNL     1      -8.040  11.989  67.016  1.00  0.00    -0.158 C  
HETATM    2  C   UNL     1      -9.082  11.587  68.000  1.00  0.00    -0.174 A  
HETATM    3  N   UNL     1      -9.185  10.381  68.522  1.00  0.00    -0.139 NA 
HETATM    4  C   UNL     1     -10.275  10.412  69.346  1.00  0.00    -0.234 A  
HETATM    5  C   UNL     1     -10.833  11.664  69.346  1.00  0.00    -0.096 A  
HETATM    6  N   UNL     1     -10.078  12.425  68.483  1.00  0.00    -0.212 NA 
HETATM    7  N   UNL     1     -11.967  12.098  70.088  1.00  0.00    -0.345 N  
HETATM    8  O   UNL     1     -12.575  11.232  70.723  1.00  0.00    -0.344 OA 
HETATM    9  O   UNL     1     -12.248  13.301  70.062  1.00  0.00    -0.317 OA 
ENDROOT
BRANCH   6  10
HETATM   10  C   UNL     1     -10.276  13.807  68.071  1.00  0.00    -0.248 C  
BRANCH  10  11
HETATM   11  C   UNL     1      -9.418  14.801  68.849  1.00  0.00    -0.191 C  
HETATM   12  O   UNL     1     -10.018  15.127  70.100  1.00  0.00    -0.492 OA 
HETATM   13  H   UNL     1      -9.484  15.746  70.585  1.00  0.00     0.000 HD 
ENDBRANCH  10  11
ENDBRANCH   6  10
TORSDOF 2
ENDMDL
MODEL      127
REMARK 921   NORMALIZED FREE ENERGY PREDICTED BY IDOCK:   -2.71 KCAL/MOL
REMARK 922        TOTAL FREE ENERGY PREDICTED BY IDOCK:   -3.31 KCAL/MOL
REMARK 923 INTER-LIGAND FREE ENERGY PREDICTED BY IDOCK:   -2.93 KCAL/MOL
REMARK 924 INTRA-LIGAND FREE ENERGY PREDICTED BY IDOCK:   -0.38 KCAL/MOL
REMARK 927      BINDING AFFINITY PREDICTED BY RF-SCORE:    0.00 PKD
ROOT
HETATM    1  C   UNL     1      -9.925   6.455  68.052  1.00  0.00    -0.144 C  
HETATM    2  C   UNL     1     -10.118   6.444  69.527  1.00  0.00    -0.170 A  
HETATM    3  N   UNL     1     -10.752   5.494  70.186  1.00  0.00    -0.304 NA 
HETATM    4  C   UNL     1     -10.738   5.865  71.502  1.00  0.00    -0.256 A  
HETATM    5  C   UNL     1     -10.065   7.051  71.652  1.00  0.00    -0.182 A  
HETATM    6  N   UNL     1      -9.666   7.432  70.392  1.00  0.00    -0.176 NA 
HETATM    7  N   UNL     1      -9.823   7.751  72.866  1.00  0.00    -0.238 N  
HETATM    8  O   UNL     1     -10.361   7.299  73.881  1.00  0.00    -0.352 OA 
HETATM    9  O   UNL     1      -9.083   8.740  72.824  1.00  0.00    -0.338 OA 
ENDROOT
BRANCH   6  10
HETATM   10  C   UNL     1      -8.972   8.644  69.980  1.00  0.00    -0.147 C  
BRANCH  10  11
HETATM   11  C   UNL     1      -9.914   9.769  69.560  1.00  0.00    -0.214 C  
HETATM   12  O   UNL     1     -10.580  10.330  70.689  1.00  0.00    -0.410 OA 
HETATM   13  H   UNL     1     -11.166  11.030  70.427  1.00  0.00     0.000 HD 
ENDBRANCH  10  11
ENDBRANCH   6  10
TORSDOF 2
ENDMDL
MODEL      128
REMARK 921   NORMALIZED FREE ENERGY PREDICTED BY IDOCK:   -2.69 KCAL/MOL
REMARK 922        TOTAL FREE ENERGY PREDICTED BY IDOCK:   -3.29 KCAL/MOL
REMARK 923 INTER-LIGAND FREE ENERGY PREDICTED BY IDOCK:   -2.92 KCAL/MOL
REMARK 924 INTRA-LIGAND FREE ENERGY PREDICTED BY IDOCK:   -0.37 KCAL/MOL
REMARK 927      BINDING AFFINITY PREDICTED BY RF-SCORE:    0.00 PKD
ROOT
HETATM    1  C   UNL     1      -9.548   7.716  69.244  1.00  0.00    -0.159 C  
HETATM    2  C   UNL     1      -9.484   6.686  70.316  1.00  0.00    -0.162 A  
HETATM    3  N   UNL     1      -8.395   6.015  70.637  1.00  0.00    -0.123 NA 
HETATM    4  C   UNL     1      -8.755   5.155  71.637  1.00  0.00    -0.133 A  
HETATM    5  C   UNL     1     -10.081   5.319  71.947  1.00  0.00    -0.197 A  
HETATM    6  N   UNL     1     -10.559   6.296  71.104  1.00  0.00    -0.230 NA 
HETATM    7  N   UNL     1     -10.820   4.622  72.942  1.00  0.00    -0.224 N  
HETATM    8  O   UNL     1     -10.236   3.700  73.521  1.00  0.00    -0.125 OA 
HETATM    9  O   UNL     1     -11.976   4.996  73.170  1.00  0.00    -0.222 OA 
ENDROOT
BRANCH   6  10
HETATM   10  C   UNL     1     -11.916   6.806  70.973  1.00  0.00    -0.379 C  
BRANCH  10  11
HETATM   11  C   UNL     1     -12.133   8.140  71.682  1.00  0.00    -0.304 C  
HETATM   12  O   UNL     1     -12.134   7.973  73.098  1.00  0.00    -0.656 OA 
HETATM   13  H   UNL     1     -12.270   8.803  73.540  1.00  0.00     0.000 HD 
ENDBRANCH  10  11
ENDBRANCH   6  10
TORSDOF 2
ENDMDL
MODEL      129
REMARK 921   NORMALIZED FREE ENERGY PREDICTED BY IDOCK:   -2.69 KCAL/MOL
REMARK 922        TOTAL FREE ENERGY PREDICTED BY IDOCK:   -3.28 KCAL/MOL
REMARK 923 INTER-LIGAND FREE ENERGY PREDICTED BY IDOCK:   -3.24 KCAL/MOL
REMARK 924 INTRA-LIGAND FREE ENERGY PREDICTED BY IDOCK:   -0.04 KCAL/MOL
REMARK 927      BINDING AFFINITY PREDICTED BY RF-SCORE:    0.00 PKD
ROOT
HETATM    1  C   UNL     1     -10.236  10.397  66.886  1.00  0.00    -0.281 C  
HETATM    2  C   UNL     1     -10.423   9.022  67.425  1.00  0.00    -0.269 A  
HETATM    3  N   UNL     1     -10.497   7.936  66.682  1.00  0.00    -0.242 NA 
HETATM    4  C   UNL     1     -10.697   6.895  67.544  1.00  0.00    -0.298 A  
HETATM    5  C   UNL     1     -10.724   7.349  68.837  1.00  0.00    -0.130 A  
HETATM    6  N   UNL     1     -10.553   8.713  68.773  1.00  0.00    -0.184 NA 
HETATM    7  N   UNL     1     -10.894   6.571  70.016  1.00  0.00    -0.259 N  
HETATM    8  O   UNL     1     -11.145   5.373  69.856  1.00  0.00    -0.164 OA 
HETATM    9  O   UNL     1     -10.760   7.138  71.106  1.00  0.00    -0.229 OA 
ENDROOT
BRANCH   6  10
HETATM   10  C   UNL     1     -10.565   9.688  69.854  1.00  0.00    -0.249 C  
BRANCH  10  11
HETATM   11  C   UNL     1     -11.970  10.046  70.331  1.00  0.00    -0.236 C  
HETATM   12  O   UNL     1     -12.761  10.556  69.261  1.00  0.00    -0.703 OA 
HETATM   13  H   UNL     1     -13.635  10.779  69.558  1.00  0.00     0.000 HD 
ENDBRANCH  10  11
ENDBRANCH   6  10
TORSDOF 2
ENDMDL
MODEL      130
REMARK 921   NORMALIZED FREE ENERGY PREDICTED BY IDOCK:   -2.68 KCAL/MOL
REMARK 922        TOTAL FREE ENERGY PREDICTED BY IDOCK:   -3.27 KCAL/MOL
REMARK 923 INTER-LIGAND FREE ENERGY PREDICTED BY IDOCK:   -2.98 KCAL/MOL
REMARK 924 INTRA-LIGAND FREE ENERGY PREDICTED BY IDOCK:   -0.30 KCAL/MOL
REMARK 927      BINDING AFFINITY PREDICTED BY RF-SCORE:    0.00 PKD
ROOT
HETATM    1  C   UNL     1      -9.298   4.312  67.837  1.00  0.00    -0.200 C  
HETATM    2  C   UNL     1      -9.619   4.385  69.288  1.00  0.00    -0.191 A  
HETATM    3  N   UNL     1      -9.112   3.580  70.202  1.00  0.00    -0.116 NA 
HETATM    4  C   UNL     1      -9.673   3.951  71.392  1.00  0.00    -0.176 A  
HETATM    5  C   UNL     1     -10.519   5.013  71.207  1.00  0.00    -0.143 A  
HETATM    6  N   UNL     1     -10.494   5.298  69.860  1.00  0.00    -0.307 NA 
HETATM    7  N   UNL     1     -11.273   5.692  72.203  1.00  0.00    -0.250 N  
HETATM    8  O   UNL     1     -11.244   5.213  73.340  1.00  0.00    -0.313 OA 
HETATM    9  O   UNL     1     -11.882   6.715  71.869  1.00  0.00    -0.303 OA 
ENDROOT
BRANCH   6  10
HETATM   10  C   UNL     1     -11.258   6.293  69.123  1.00  0.00    -0.371 C  
BRANCH  10  11
HETATM   11  C   UNL     1     -10.559   7.646  69.026  1.00  0.00    -0.174 C  
HETATM   12  O   UNL     1     -11.280   8.648  69.739  1.00  0.00    -0.433 OA 
HETATM   13  H   UNL     1     -10.845   9.491  69.680  1.00  0.00     0.000 HD 
ENDBRANCH  10  11
ENDBRANCH   6  10
TORSDOF 2
ENDMDL
MODEL      131
REMARK 921   NORMALIZED FREE ENERGY PREDICTED BY IDOCK:   -2.68 KCAL/MOL
REMARK 922        TOTAL FREE ENERGY PREDICTED BY IDOCK:   -3.27 KCAL/MOL
REMARK 923 INTER-LIGAND FREE ENERGY PREDICTED BY IDOCK:   -2.87 KCAL/MOL
REMARK 924 INTRA-LIGAND FREE ENERGY PREDICTED BY IDOCK:   -0.40 KCAL/MOL
REMARK 927      BINDING AFFINITY PREDICTED BY RF-SCORE:    0.00 PKD
ROOT
HETATM    1  C   UNL     1      -7.372   7.520  72.554  1.00  0.00    -0.081 C  
HETATM    2  C   UNL     1      -8.853   7.528  72.406  1.00  0.00    -0.127 A  
HETATM    3  N   UNL     1      -9.686   8.035  73.293  1.00  0.00    -0.278 NA 
HETATM    4  C   UNL     1     -10.944   7.820  72.804  1.00  0.00    -0.388 A  
HETATM    5  C   UNL     1     -10.879   7.192  71.587  1.00  0.00    -0.224 A  
HETATM    6  N   UNL     1      -9.542   6.997  71.323  1.00  0.00    -0.165 NA 
HETATM    7  N   UNL     1     -11.970   6.815  70.757  1.00  0.00    -0.389 N  
HETATM    8  O   UNL     1     -13.102   6.979  71.224  1.00  0.00    -0.369 OA 
HETATM    9  O   UNL     1     -11.714   6.375  69.630  1.00  0.00    -0.389 OA 
ENDROOT
BRANCH   6  10
HETATM   10  C   UNL     1      -8.923   6.319  70.193  1.00  0.00    -0.149 C  
BRANCH  10  11
HETATM   11  C   UNL     1      -8.755   4.817  70.406  1.00  0.00    -0.098 C  
HETATM   12  O   UNL     1      -9.923   4.108  70.001  1.00  0.00    -0.213 OA 
HETATM   13  H   UNL     1      -9.818   3.172  70.133  1.00  0.00     0.000 HD 
ENDBRANCH  10  11
ENDBRANCH   6  10
TORSDOF 2
ENDMDL
MODEL      132
REMARK 921   NORMALIZED FREE ENERGY PREDICTED BY IDOCK:   -2.68 KCAL/MOL
REMARK 922        TOTAL FREE ENERGY PREDICTED BY IDOCK:   -3.27 KCAL/MOL
REMARK 923 INTER-LIGAND FREE ENERGY PREDICTED BY IDOCK:   -2.92 KCAL/MOL
REMARK 924 INTRA-LIGAND FREE ENERGY PREDICTED BY IDOCK:   -0.35 KCAL/MOL
REMARK 927      BINDING AFFINITY PREDICTED BY RF-SCORE:    0.00 PKD
ROOT
HETATM    1  C   UNL     1      -9.434   4.291  66.112  1.00  0.00    -0.181 C  
HETATM    2  C   UNL     1      -9.697   4.514  67.560  1.00  0.00    -0.169 A  
HETATM    3  N   UNL     1      -9.201   3.767  68.528  1.00  0.00    -0.144 NA 
HETATM    4  C   UNL     1      -9.697   4.276  69.695  1.00  0.00    -0.214 A  
HETATM    5  C   UNL     1     -10.491   5.364  69.439  1.00  0.00    -0.261 A  
HETATM    6  N   UNL     1     -10.500   5.523  68.072  1.00  0.00    -0.195 NA 
HETATM    7  N   UNL     1     -11.172   6.172  70.391  1.00  0.00    -0.353 N  
HETATM    8  O   UNL     1     -11.127   5.797  71.567  1.00  0.00    -0.265 OA 
HETATM    9  O   UNL     1     -11.737   7.193  69.983  1.00  0.00    -0.178 OA 
ENDROOT
BRANCH   6  10
HETATM   10  C   UNL     1     -11.237   6.489  67.270  1.00  0.00    -0.231 C  
BRANCH  10  11
HETATM   11  C   UNL     1     -10.426   7.736  66.926  1.00  0.00    -0.317 C  
HETATM   12  O   UNL     1     -10.747   8.814  67.801  1.00  0.00    -0.414 OA 
HETATM   13  H   UNL     1     -10.242   9.590  67.587  1.00  0.00     0.000 HD 
ENDBRANCH  10  11
ENDBRANCH   6  10
TORSDOF 2
ENDMDL
MODEL      133
REMARK 921   NORMALIZED FREE ENERGY PREDICTED BY IDOCK:   -2.67 KCAL/MOL
REMARK 922        TOTAL FREE ENERGY PREDICTED BY IDOCK:   -3.26 KCAL/MOL
REMARK 923 INTER-LIGAND FREE ENERGY PREDICTED BY IDOCK:   -3.18 KCAL/MOL
REMARK 924 INTRA-LIGAND FREE ENERGY PREDICTED BY IDOCK:   -0.08 KCAL/MOL
REMARK 927      BINDING AFFINITY PREDICTED BY RF-SCORE:    0.00 PKD
ROOT
HETATM    1  C   UNL     1     -11.649   4.363  73.188  1.00  0.00    -0.177 C  
HETATM    2  C   UNL     1     -10.529   5.291  73.505  1.00  0.00    -0.241 A  
HETATM    3  N   UNL     1      -9.614   5.062  74.426  1.00  0.00    -0.129 NA 
HETATM    4  C   UNL     1      -8.791   6.154  74.427  1.00  0.00    -0.135 A  
HETATM    5  C   UNL     1      -9.197   7.054  73.476  1.00  0.00    -0.163 A  
HETATM    6  N   UNL     1     -10.313   6.512  72.880  1.00  0.00    -0.199 NA 
HETATM    7  N   UNL     1      -8.589   8.301  73.161  1.00  0.00    -0.226 N  
HETATM    8  O   UNL     1      -7.658   8.661  73.887  1.00  0.00    -0.387 OA 
HETATM    9  O   UNL     1      -9.018   8.921  72.180  1.00  0.00    -0.381 OA 
ENDROOT
BRANCH   6  10
HETATM   10  C   UNL     1     -11.170   7.085  71.852  1.00  0.00    -0.249 C  
BRANCH  10  11
HETATM   11  C   UNL     1     -10.761   6.695  70.435  1.00  0.00    -0.250 C  
HETATM   12  O   UNL     1     -11.903   6.523  69.600  1.00  0.00    -0.645 OA 
HETATM   13  H   UNL     1     -11.649   6.280  68.717  1.00  0.00     0.000 HD 
ENDBRANCH  10  11
ENDBRANCH   6  10
TORSDOF 2
ENDMDL
MODEL      134
REMARK 921   NORMALIZED FREE ENERGY PREDICTED BY IDOCK:   -2.66 KCAL/MOL
REMARK 922        TOTAL FREE ENERGY PREDICTED BY IDOCK:   -3.24 KCAL/MOL
REMARK 923 INTER-LIGAND FREE ENERGY PREDICTED BY IDOCK:   -2.89 KCAL/MOL
REMARK 924 INTRA-LIGAND FREE ENERGY PREDICTED BY IDOCK:   -0.35 KCAL/MOL
REMARK 927      BINDING AFFINITY PREDICTED BY RF-SCORE:    0.00 PKD
ROOT
HETATM    1  C   UNL     1     -10.804   6.346  68.401  1.00  0.00    -0.383 C  
HETATM    2  C   UNL     1     -11.032   6.180  69.862  1.00  0.00    -0.389 A  
HETATM    3  N   UNL     1     -12.035   6.722  70.524  1.00  0.00    -0.376 NA 
HETATM    4  C   UNL     1     -11.872   6.360  71.832  1.00  0.00    -0.329 A  
HETATM    5  C   UNL     1     -10.763   5.565  71.968  1.00  0.00    -0.234 A  
HETATM    6  N   UNL     1     -10.215   5.446  70.712  1.00  0.00    -0.228 NA 
HETATM    7  N   UNL     1     -10.273   4.976  73.166  1.00  0.00    -0.170 N  
HETATM    8  O   UNL     1     -10.845   5.295  74.213  1.00  0.00    -0.285 OA 
HETATM    9  O   UNL     1      -9.331   4.180  73.075  1.00  0.00    -0.110 OA 
ENDROOT
BRANCH   6  10
HETATM   10  C   UNL     1      -8.995   4.763  70.308  1.00  0.00    -0.103 C  
BRANCH  10  11
HETATM   11  C   UNL     1      -9.233   3.342  69.803  1.00  0.00    -0.150 C  
HETATM   12  O   UNL     1      -9.432   2.439  70.888  1.00  0.00    -0.134 OA 
HETATM   13  H   UNL     1      -9.581   1.555  70.574  1.00  0.00     0.000 HD 
ENDBRANCH  10  11
ENDBRANCH   6  10
TORSDOF 2
ENDMDL
MODEL      135
REMARK 921   NORMALIZED FREE ENERGY PREDICTED BY IDOCK:   -2.60 KCAL/MOL
REMARK 922        TOTAL FREE ENERGY PREDICTED BY IDOCK:   -3.18 KCAL/MOL
REMARK 923 INTER-LIGAND FREE ENERGY PREDICTED BY IDOCK:   -3.02 KCAL/MOL
REMARK 924 INTRA-LIGAND FREE ENERGY PREDICTED BY IDOCK:   -0.16 KCAL/MOL
REMARK 927      BINDING AFFINITY PREDICTED BY RF-SCORE:    0.00 PKD
ROOT
HETATM    1  C   UNL     1      -7.051  10.595  68.075  1.00  0.00    -0.085 C  
HETATM    2  C   UNL     1      -8.392  11.140  67.729  1.00  0.00    -0.123 A  
HETATM    3  N   UNL     1      -9.172  11.784  68.575  1.00  0.00    -0.183 NA 
HETATM    4  C   UNL     1     -10.313  12.090  67.886  1.00  0.00    -0.197 A  
HETATM    5  C   UNL     1     -10.219  11.646  66.593  1.00  0.00    -0.216 A  
HETATM    6  N   UNL     1      -8.993  11.032  66.482  1.00  0.00    -0.167 NA 
HETATM    7  N   UNL     1     -11.192  11.788  65.565  1.00  0.00    -0.292 N  
HETATM    8  O   UNL     1     -12.278  12.274  65.895  1.00  0.00    -0.634 OA 
HETATM    9  O   UNL     1     -10.878  11.439  64.421  1.00  0.00    -0.335 OA 
ENDROOT
BRANCH   6  10
HETATM   10  C   UNL     1      -8.419  10.336  65.339  1.00  0.00    -0.161 C  
BRANCH  10  11
HETATM   11  C   UNL     1      -8.690   8.833  65.346  1.00  0.00    -0.183 C  
HETATM   12  O   UNL     1     -10.003   8.551  65.821  1.00  0.00    -0.441 OA 
HETATM   13  H   UNL     1     -10.173   7.616  65.826  1.00  0.00     0.000 HD 
ENDBRANCH  10  11
ENDBRANCH   6  10
TORSDOF 2
ENDMDL
MODEL      136
REMARK 921   NORMALIZED FREE ENERGY PREDICTED BY IDOCK:   -2.59 KCAL/MOL
REMARK 922        TOTAL FREE ENERGY PREDICTED BY IDOCK:   -3.17 KCAL/MOL
REMARK 923 INTER-LIGAND FREE ENERGY PREDICTED BY IDOCK:   -2.88 KCAL/MOL
REMARK 924 INTRA-LIGAND FREE ENERGY PREDICTED BY IDOCK:   -0.29 KCAL/MOL
REMARK 927      BINDING AFFINITY PREDICTED BY RF-SCORE:    0.00 PKD
ROOT
HETATM    1  C   UNL     1      -9.057   9.212  67.661  1.00  0.00    -0.133 C  
HETATM    2  C   UNL     1      -9.670  10.151  66.682  1.00  0.00    -0.192 A  
HETATM    3  N   UNL     1     -10.609  11.027  66.981  1.00  0.00    -0.243 NA 
HETATM    4  C   UNL     1     -10.920  11.668  65.815  1.00  0.00    -0.274 A  
HETATM    5  C   UNL     1     -10.143  11.191  64.790  1.00  0.00    -0.295 A  
HETATM    6  N   UNL     1      -9.340  10.215  65.335  1.00  0.00    -0.196 NA 
HETATM    7  N   UNL     1     -10.158  11.616  63.433  1.00  0.00    -0.410 N  
HETATM    8  O   UNL     1     -11.032  12.430  63.119  1.00  0.00    -0.374 OA 
HETATM    9  O   UNL     1      -9.292  11.163  62.676  1.00  0.00    -0.327 OA 
ENDROOT
BRANCH   6  10
HETATM   10  C   UNL     1      -8.375   9.350  64.672  1.00  0.00    -0.157 C  
BRANCH  10  11
HETATM   11  C   UNL     1      -6.934   9.835  64.803  1.00  0.00    -0.122 C  
HETATM   12  O   UNL     1      -6.412  10.240  63.541  1.00  0.00    -0.151 OA 
HETATM   13  H   UNL     1      -5.515  10.542  63.622  1.00  0.00     0.000 HD 
ENDBRANCH  10  11
ENDBRANCH   6  10
TORSDOF 2
ENDMDL
MODEL      137
REMARK 921   NORMALIZED FREE ENERGY PREDICTED BY IDOCK:   -2.59 KCAL/MOL
REMARK 922        TOTAL FREE ENERGY PREDICTED BY IDOCK:   -3.17 KCAL/MOL
REMARK 923 INTER-LIGAND FREE ENERGY PREDICTED BY IDOCK:   -3.14 KCAL/MOL
REMARK 924 INTRA-LIGAND FREE ENERGY PREDICTED BY IDOCK:   -0.03 KCAL/MOL
REMARK 927      BINDING AFFINITY PREDICTED BY RF-SCORE:    0.00 PKD
ROOT
HETATM    1  C   UNL     1      -9.492   4.183  69.095  1.00  0.00    -0.248 C  
HETATM    2  C   UNL     1     -10.118   5.383  69.713  1.00  0.00    -0.249 A  
HETATM    3  N   UNL     1     -10.836   5.360  70.819  1.00  0.00    -0.181 NA 
HETATM    4  C   UNL     1     -11.249   6.645  71.034  1.00  0.00    -0.300 A  
HETATM    5  C   UNL     1     -10.758   7.470  70.056  1.00  0.00    -0.240 A  
HETATM    6  N   UNL     1     -10.034   6.671  69.202  1.00  0.00    -0.154 NA 
HETATM    7  N   UNL     1     -10.954   8.874  69.942  1.00  0.00    -0.217 N  
HETATM    8  O   UNL     1     -11.730   9.392  70.751  1.00  0.00    -0.276 OA 
HETATM    9  O   UNL     1     -10.324   9.476  69.064  1.00  0.00    -0.192 OA 
ENDROOT
BRANCH   6  10
HETATM   10  C   UNL     1      -9.356   7.033  67.965  1.00  0.00    -0.127 C  
BRANCH  10  11
HETATM   11  C   UNL     1     -10.233   6.880  66.726  1.00  0.00    -0.206 C  
HETATM   12  O   UNL     1     -11.586   6.613  67.085  1.00  0.00    -0.749 OA 
HETATM   13  H   UNL     1     -12.133   6.518  66.314  1.00  0.00     0.000 HD 
ENDBRANCH  10  11
ENDBRANCH   6  10
TORSDOF 2
ENDMDL
MODEL      138
REMARK 921   NORMALIZED FREE ENERGY PREDICTED BY IDOCK:   -2.59 KCAL/MOL
REMARK 922        TOTAL FREE ENERGY PREDICTED BY IDOCK:   -3.16 KCAL/MOL
REMARK 923 INTER-LIGAND FREE ENERGY PREDICTED BY IDOCK:   -2.77 KCAL/MOL
REMARK 924 INTRA-LIGAND FREE ENERGY PREDICTED BY IDOCK:   -0.40 KCAL/MOL
REMARK 927      BINDING AFFINITY PREDICTED BY RF-SCORE:    0.00 PKD
ROOT
HETATM    1  C   UNL     1     -11.129   6.242  68.351  1.00  0.00    -0.371 C  
HETATM    2  C   UNL     1     -11.178   6.354  69.834  1.00  0.00    -0.420 A  
HETATM    3  N   UNL     1     -12.271   6.619  70.523  1.00  0.00    -0.284 NA 
HETATM    4  C   UNL     1     -11.893   6.665  71.836  1.00  0.00    -0.332 A  
HETATM    5  C   UNL     1     -10.553   6.402  71.954  1.00  0.00    -0.214 A  
HETATM    6  N   UNL     1     -10.083   6.204  70.675  1.00  0.00    -0.188 NA 
HETATM    7  N   UNL     1      -9.793   6.343  73.154  1.00  0.00    -0.163 N  
HETATM    8  O   UNL     1     -10.378   6.661  74.195  1.00  0.00    -0.356 OA 
HETATM    9  O   UNL     1      -8.620   5.962  73.077  1.00  0.00    -0.124 OA 
ENDROOT
BRANCH   6  10
HETATM   10  C   UNL     1      -8.720   5.956  70.231  1.00  0.00    -0.142 C  
BRANCH  10  11
HETATM   11  C   UNL     1      -7.952   7.229  69.888  1.00  0.00    -0.122 C  
HETATM   12  O   UNL     1      -7.255   7.730  71.025  1.00  0.00    -0.053 OA 
HETATM   13  H   UNL     1      -6.777   8.523  70.812  1.00  0.00     0.000 HD 
ENDBRANCH  10  11
ENDBRANCH   6  10
TORSDOF 2
ENDMDL
MODEL      139
REMARK 921   NORMALIZED FREE ENERGY PREDICTED BY IDOCK:   -2.58 KCAL/MOL
REMARK 922        TOTAL FREE ENERGY PREDICTED BY IDOCK:   -3.16 KCAL/MOL
REMARK 923 INTER-LIGAND FREE ENERGY PREDICTED BY IDOCK:   -3.07 KCAL/MOL
REMARK 924 INTRA-LIGAND FREE ENERGY PREDICTED BY IDOCK:   -0.09 KCAL/MOL
REMARK 927      BINDING AFFINITY PREDICTED BY RF-SCORE:    0.00 PKD
ROOT
HETATM    1  C   UNL     1     -11.007   4.382  73.633  1.00  0.00    -0.374 C  
HETATM    2  C   UNL     1     -10.301   4.902  72.430  1.00  0.00    -0.204 A  
HETATM    3  N   UNL     1      -9.123   4.476  72.020  1.00  0.00    -0.128 NA 
HETATM    4  C   UNL     1      -8.814   5.216  70.913  1.00  0.00    -0.134 A  
HETATM    5  C   UNL     1      -9.829   6.092  70.629  1.00  0.00    -0.179 A  
HETATM    6  N   UNL     1     -10.788   5.901  71.598  1.00  0.00    -0.256 NA 
HETATM    7  N   UNL     1      -9.888   7.016  69.549  1.00  0.00    -0.160 N  
HETATM    8  O   UNL     1      -8.876   7.114  68.849  1.00  0.00    -0.131 OA 
HETATM    9  O   UNL     1     -10.944   7.635  69.376  1.00  0.00    -0.178 OA 
ENDROOT
BRANCH   6  10
HETATM   10  C   UNL     1     -12.039   6.617  71.800  1.00  0.00    -0.353 C  
BRANCH  10  11
HETATM   11  C   UNL     1     -11.874   7.919  72.578  1.00  0.00    -0.335 C  
HETATM   12  O   UNL     1     -13.133   8.554  72.788  1.00  0.00    -0.636 OA 
HETATM   13  H   UNL     1     -13.031   9.365  73.273  1.00  0.00     0.000 HD 
ENDBRANCH  10  11
ENDBRANCH   6  10
TORSDOF 2
ENDMDL
MODEL      140
REMARK 921   NORMALIZED FREE ENERGY PREDICTED BY IDOCK:   -2.52 KCAL/MOL
REMARK 922        TOTAL FREE ENERGY PREDICTED BY IDOCK:   -3.09 KCAL/MOL
REMARK 923 INTER-LIGAND FREE ENERGY PREDICTED BY IDOCK:   -2.73 KCAL/MOL
REMARK 924 INTRA-LIGAND FREE ENERGY PREDICTED BY IDOCK:   -0.36 KCAL/MOL
REMARK 927      BINDING AFFINITY PREDICTED BY RF-SCORE:    0.00 PKD
ROOT
HETATM    1  C   UNL     1      -9.826   4.882  68.521  1.00  0.00    -0.208 C  
HETATM    2  C   UNL     1      -9.120   6.090  69.031  1.00  0.00    -0.122 A  
HETATM    3  N   UNL     1      -8.073   6.639  68.448  1.00  0.00    -0.114 NA 
HETATM    4  C   UNL     1      -7.709   7.697  69.234  1.00  0.00    -0.104 A  
HETATM    5  C   UNL     1      -8.560   7.809  70.302  1.00  0.00    -0.138 A  
HETATM    6  N   UNL     1      -9.468   6.781  70.184  1.00  0.00    -0.159 NA 
HETATM    7  N   UNL     1      -8.521   8.790  71.331  1.00  0.00    -0.186 N  
HETATM    8  O   UNL     1      -7.559   9.564  71.319  1.00  0.00    -0.327 OA 
HETATM    9  O   UNL     1      -9.452   8.813  72.143  1.00  0.00    -0.301 OA 
ENDROOT
BRANCH   6  10
HETATM   10  C   UNL     1     -10.547   6.406  71.086  1.00  0.00    -0.236 C  
BRANCH  10  11
HETATM   11  C   UNL     1     -11.911   6.942  70.657  1.00  0.00    -0.368 C  
HETATM   12  O   UNL     1     -11.924   8.367  70.655  1.00  0.00    -0.471 OA 
HETATM   13  H   UNL     1     -12.773   8.701  70.388  1.00  0.00     0.000 HD 
ENDBRANCH  10  11
ENDBRANCH   6  10
TORSDOF 2
ENDMDL
MODEL      141
REMARK 921   NORMALIZED FREE ENERGY PREDICTED BY IDOCK:   -2.51 KCAL/MOL
REMARK 922        TOTAL FREE ENERGY PREDICTED BY IDOCK:   -3.09 KCAL/MOL
REMARK 923 INTER-LIGAND FREE ENERGY PREDICTED BY IDOCK:   -2.98 KCAL/MOL
REMARK 924 INTRA-LIGAND FREE ENERGY PREDICTED BY IDOCK:   -0.11 KCAL/MOL
REMARK 927      BINDING AFFINITY PREDICTED BY RF-SCORE:    0.00 PKD
ROOT
HETATM    1  C   UNL     1     -10.009   4.792  69.240  1.00  0.00    -0.254 C  
HETATM    2  C   UNL     1     -10.318   6.221  69.522  1.00  0.00    -0.212 A  
HETATM    3  N   UNL     1     -10.079   7.212  68.686  1.00  0.00    -0.167 NA 
HETATM    4  C   UNL     1     -10.473   8.354  69.323  1.00  0.00    -0.215 A  
HETATM    5  C   UNL     1     -10.982   8.055  70.561  1.00  0.00    -0.247 A  
HETATM    6  N   UNL     1     -10.884   6.690  70.700  1.00  0.00    -0.239 NA 
HETATM    7  N   UNL     1     -11.509   8.969  71.515  1.00  0.00    -0.310 N  
HETATM    8  O   UNL     1     -11.406  10.170  71.245  1.00  0.00    -0.325 OA 
HETATM    9  O   UNL     1     -12.045   8.502  72.526  1.00  0.00    -0.389 OA 
ENDROOT
BRANCH   6  10
HETATM   10  C   UNL     1     -11.224   5.861  71.848  1.00  0.00    -0.264 C  
BRANCH  10  11
HETATM   11  C   UNL     1     -10.091   5.739  72.864  1.00  0.00    -0.184 C  
HETATM   12  O   UNL     1     -10.334   4.672  73.777  1.00  0.00    -0.169 OA 
HETATM   13  H   UNL     1      -9.629   4.596  74.410  1.00  0.00     0.000 HD 
ENDBRANCH  10  11
ENDBRANCH   6  10
TORSDOF 2
ENDMDL
MODEL      142
REMARK 921   NORMALIZED FREE ENERGY PREDICTED BY IDOCK:   -2.51 KCAL/MOL
REMARK 922        TOTAL FREE ENERGY PREDICTED BY IDOCK:   -3.08 KCAL/MOL
REMARK 923 INTER-LIGAND FREE ENERGY PREDICTED BY IDOCK:   -2.68 KCAL/MOL
REMARK 924 INTRA-LIGAND FREE ENERGY PREDICTED BY IDOCK:   -0.39 KCAL/MOL
REMARK 927      BINDING AFFINITY PREDICTED BY RF-SCORE:    0.00 PKD
ROOT
HETATM    1  C   UNL     1      -8.110   9.625  65.257  1.00  0.00    -0.125 C  
HETATM    2  C   UNL     1      -8.820   9.276  66.518  1.00  0.00    -0.133 A  
HETATM    3  N   UNL     1      -8.852   8.066  67.041  1.00  0.00    -0.130 NA 
HETATM    4  C   UNL     1      -9.622   8.157  68.167  1.00  0.00    -0.149 A  
HETATM    5  C   UNL     1     -10.049   9.447  68.347  1.00  0.00    -0.185 A  
HETATM    6  N   UNL     1      -9.543  10.173  67.293  1.00  0.00    -0.157 NA 
HETATM    7  N   UNL     1     -10.854   9.944  69.409  1.00  0.00    -0.230 N  
HETATM    8  O   UNL     1     -11.300   9.108  70.201  1.00  0.00    -0.231 OA 
HETATM    9  O   UNL     1     -11.030  11.165  69.477  1.00  0.00    -0.242 OA 
ENDROOT
BRANCH   6  10
HETATM   10  C   UNL     1      -9.748  11.577  66.968  1.00  0.00    -0.184 C  
BRANCH  10  11
HETATM   11  C   UNL     1     -10.933  11.818  66.036  1.00  0.00    -0.306 C  
HETATM   12  O   UNL     1     -12.127  12.056  66.776  1.00  0.00    -0.613 OA 
HETATM   13  H   UNL     1     -12.865  12.206  66.196  1.00  0.00     0.000 HD 
ENDBRANCH  10  11
ENDBRANCH   6  10
TORSDOF 2
ENDMDL
MODEL      143
REMARK 921   NORMALIZED FREE ENERGY PREDICTED BY IDOCK:   -2.49 KCAL/MOL
REMARK 922        TOTAL FREE ENERGY PREDICTED BY IDOCK:   -3.06 KCAL/MOL
REMARK 923 INTER-LIGAND FREE ENERGY PREDICTED BY IDOCK:   -3.01 KCAL/MOL
REMARK 924 INTRA-LIGAND FREE ENERGY PREDICTED BY IDOCK:   -0.05 KCAL/MOL
REMARK 927      BINDING AFFINITY PREDICTED BY RF-SCORE:    0.00 PKD
ROOT
HETATM    1  C   UNL     1     -11.145   6.971  70.468  1.00  0.00    -0.316 C  
HETATM    2  C   UNL     1     -11.341   8.443  70.371  1.00  0.00    -0.172 A  
HETATM    3  N   UNL     1     -12.150   9.137  71.147  1.00  0.00    -0.299 NA 
HETATM    4  C   UNL     1     -12.067  10.434  70.723  1.00  0.00    -0.364 A  
HETATM    5  C   UNL     1     -11.176  10.538  69.687  1.00  0.00    -0.282 A  
HETATM    6  N   UNL     1     -10.706   9.267  69.451  1.00  0.00    -0.224 NA 
HETATM    7  N   UNL     1     -10.804  11.722  68.991  1.00  0.00    -0.213 N  
HETATM    8  O   UNL     1     -11.423  12.750  69.281  1.00  0.00    -0.274 OA 
HETATM    9  O   UNL     1      -9.884  11.644  68.169  1.00  0.00    -0.178 OA 
ENDROOT
BRANCH   6  10
HETATM   10  C   UNL     1      -9.786   8.809  68.419  1.00  0.00    -0.171 C  
BRANCH  10  11
HETATM   11  C   UNL     1     -10.437   8.670  67.045  1.00  0.00    -0.284 C  
HETATM   12  O   UNL     1      -9.495   8.915  66.005  1.00  0.00    -0.228 OA 
HETATM   13  H   UNL     1      -9.899   8.829  65.149  1.00  0.00     0.000 HD 
ENDBRANCH  10  11
ENDBRANCH   6  10
TORSDOF 2
ENDMDL
MODEL      144
REMARK 921   NORMALIZED FREE ENERGY PREDICTED BY IDOCK:   -2.46 KCAL/MOL
REMARK 922        TOTAL FREE ENERGY PREDICTED BY IDOCK:   -3.03 KCAL/MOL
REMARK 923 INTER-LIGAND FREE ENERGY PREDICTED BY IDOCK:   -3.07 KCAL/MOL
REMARK 924 INTRA-LIGAND FREE ENERGY PREDICTED BY IDOCK:    0.05 KCAL/MOL
REMARK 927      BINDING AFFINITY PREDICTED BY RF-SCORE:    0.00 PKD
ROOT
HETATM    1  C   UNL     1      -9.557  18.363  68.418  1.00  0.00    -0.366 C  
HETATM    2  C   UNL     1      -8.975  16.993  68.459  1.00  0.00    -0.263 A  
HETATM    3  N   UNL     1      -7.691  16.736  68.612  1.00  0.00    -0.220 NA 
HETATM    4  C   UNL     1      -7.565  15.376  68.567  1.00  0.00    -0.122 A  
HETATM    5  C   UNL     1      -8.795  14.791  68.406  1.00  0.00    -0.181 A  
HETATM    6  N   UNL     1      -9.706  15.820  68.332  1.00  0.00    -0.200 NA 
HETATM    7  N   UNL     1      -9.079  13.400  68.330  1.00  0.00    -0.191 N  
HETATM    8  O   UNL     1      -8.108  12.638  68.305  1.00  0.00    -0.152 OA 
HETATM    9  O   UNL     1     -10.266  13.053  68.315  1.00  0.00    -0.235 OA 
ENDROOT
BRANCH   6  10
HETATM   10  C   UNL     1     -11.142  15.754  68.100  1.00  0.00    -0.341 C  
BRANCH  10  11
HETATM   11  C   UNL     1     -11.949  15.479  69.366  1.00  0.00    -0.336 C  
HETATM   12  O   UNL     1     -11.632  16.418  70.391  1.00  0.00    -0.465 OA 
HETATM   13  H   UNL     1     -12.134  16.247  71.179  1.00  0.00     0.000 HD 
ENDBRANCH  10  11
ENDBRANCH   6  10
TORSDOF 2
ENDMDL
MODEL      145
REMARK 921   NORMALIZED FREE ENERGY PREDICTED BY IDOCK:   -2.42 KCAL/MOL
REMARK 922        TOTAL FREE ENERGY PREDICTED BY IDOCK:   -2.98 KCAL/MOL
REMARK 923 INTER-LIGAND FREE ENERGY PREDICTED BY IDOCK:   -2.62 KCAL/MOL
REMARK 924 INTRA-LIGAND FREE ENERGY PREDICTED BY IDOCK:   -0.36 KCAL/MOL
REMARK 927      BINDING AFFINITY PREDICTED BY RF-SCORE:    0.00 PKD
ROOT
HETATM    1  C   UNL     1     -10.389   6.082  73.913  1.00  0.00    -0.293 C  
HETATM    2  C   UNL     1     -10.785   6.271  72.490  1.00  0.00    -0.226 A  
HETATM    3  N   UNL     1     -11.769   7.053  72.091  1.00  0.00    -0.282 NA 
HETATM    4  C   UNL     1     -11.829   6.929  70.732  1.00  0.00    -0.377 A  
HETATM    5  C   UNL     1     -10.852   6.075  70.290  1.00  0.00    -0.329 A  
HETATM    6  N   UNL     1     -10.178   5.645  71.410  1.00  0.00    -0.206 NA 
HETATM    7  N   UNL     1     -10.582   5.704  68.944  1.00  0.00    -0.244 N  
HETATM    8  O   UNL     1     -11.372   6.113  68.088  1.00  0.00    -0.234 OA 
HETATM    9  O   UNL     1      -9.574   5.023  68.724  1.00  0.00    -0.131 OA 
ENDROOT
BRANCH   6  10
HETATM   10  C   UNL     1      -9.092   4.681  71.510  1.00  0.00    -0.135 C  
BRANCH  10  11
HETATM   11  C   UNL     1      -7.712   5.328  71.592  1.00  0.00    -0.108 C  
HETATM   12  O   UNL     1      -7.102   5.401  70.306  1.00  0.00    -0.058 OA 
HETATM   13  H   UNL     1      -6.243   5.804  70.357  1.00  0.00     0.000 HD 
ENDBRANCH  10  11
ENDBRANCH   6  10
TORSDOF 2
ENDMDL
MODEL      146
REMARK 921   NORMALIZED FREE ENERGY PREDICTED BY IDOCK:   -2.38 KCAL/MOL
REMARK 922        TOTAL FREE ENERGY PREDICTED BY IDOCK:   -2.94 KCAL/MOL
REMARK 923 INTER-LIGAND FREE ENERGY PREDICTED BY IDOCK:   -2.56 KCAL/MOL
REMARK 924 INTRA-LIGAND FREE ENERGY PREDICTED BY IDOCK:   -0.38 KCAL/MOL
REMARK 927      BINDING AFFINITY PREDICTED BY RF-SCORE:    0.00 PKD
ROOT
HETATM    1  C   UNL     1      -8.865   7.880  66.219  1.00  0.00    -0.188 C  
HETATM    2  C   UNL     1      -9.673   7.390  67.370  1.00  0.00    -0.153 A  
HETATM    3  N   UNL     1     -10.749   6.637  67.255  1.00  0.00    -0.311 NA 
HETATM    4  C   UNL     1     -11.209   6.432  68.526  1.00  0.00    -0.228 A  
HETATM    5  C   UNL     1     -10.389   7.051  69.433  1.00  0.00    -0.207 A  
HETATM    6  N   UNL     1      -9.402   7.672  68.702  1.00  0.00    -0.147 NA 
HETATM    7  N   UNL     1     -10.525   7.055  70.849  1.00  0.00    -0.213 N  
HETATM    8  O   UNL     1     -11.544   6.530  71.307  1.00  0.00    -0.301 OA 
HETATM    9  O   UNL     1      -9.613   7.558  71.515  1.00  0.00    -0.155 OA 
ENDROOT
BRANCH   6  10
HETATM   10  C   UNL     1      -8.314   8.518  69.170  1.00  0.00    -0.120 C  
BRANCH  10  11
HETATM   11  C   UNL     1      -8.653  10.006  69.155  1.00  0.00    -0.158 C  
HETATM   12  O   UNL     1      -9.556  10.337  70.207  1.00  0.00    -0.376 OA 
HETATM   13  H   UNL     1      -9.768  11.263  70.198  1.00  0.00     0.000 HD 
ENDBRANCH  10  11
ENDBRANCH   6  10
TORSDOF 2
ENDMDL
MODEL      147
REMARK 921   NORMALIZED FREE ENERGY PREDICTED BY IDOCK:   -2.37 KCAL/MOL
REMARK 922        TOTAL FREE ENERGY PREDICTED BY IDOCK:   -2.92 KCAL/MOL
REMARK 923 INTER-LIGAND FREE ENERGY PREDICTED BY IDOCK:   -2.65 KCAL/MOL
REMARK 924 INTRA-LIGAND FREE ENERGY PREDICTED BY IDOCK:   -0.27 KCAL/MOL
REMARK 927      BINDING AFFINITY PREDICTED BY RF-SCORE:    0.00 PKD
ROOT
HETATM    1  C   UNL     1      -9.298  10.067  68.670  1.00  0.00    -0.156 C  
HETATM    2  C   UNL     1      -9.692   8.943  69.563  1.00  0.00    -0.173 A  
HETATM    3  N   UNL     1      -8.902   7.938  69.885  1.00  0.00    -0.141 NA 
HETATM    4  C   UNL     1      -9.639   7.114  70.689  1.00  0.00    -0.165 A  
HETATM    5  C   UNL     1     -10.892   7.635  70.880  1.00  0.00    -0.241 A  
HETATM    6  N   UNL     1     -10.939   8.807  70.160  1.00  0.00    -0.238 NA 
HETATM    7  N   UNL     1     -11.940   7.081  71.665  1.00  0.00    -0.309 N  
HETATM    8  O   UNL     1     -11.738   5.962  72.146  1.00  0.00    -0.294 OA 
HETATM    9  O   UNL     1     -12.961   7.759  71.828  1.00  0.00    -0.322 OA 
ENDROOT
BRANCH   6  10
HETATM   10  C   UNL     1     -12.057   9.719  69.970  1.00  0.00     0.125 C  
BRANCH  10  11
HETATM   11  C   UNL     1     -12.118  10.829  71.015  1.00  0.00    -0.346 C  
HETATM   12  O   UNL     1     -12.872  10.421  72.153  1.00  0.00    -0.392 OA 
HETATM   13  H   UNL     1     -12.911  11.112  72.805  1.00  0.00     0.000 HD 
ENDBRANCH  10  11
ENDBRANCH   6  10
TORSDOF 2
ENDMDL
MODEL      148
REMARK 921   NORMALIZED FREE ENERGY PREDICTED BY IDOCK:   -2.33 KCAL/MOL
REMARK 922        TOTAL FREE ENERGY PREDICTED BY IDOCK:   -2.88 KCAL/MOL
REMARK 923 INTER-LIGAND FREE ENERGY PREDICTED BY IDOCK:   -3.66 KCAL/MOL
REMARK 924 INTRA-LIGAND FREE ENERGY PREDICTED BY IDOCK:    0.78 KCAL/MOL
REMARK 927      BINDING AFFINITY PREDICTED BY RF-SCORE:    0.00 PKD
ROOT
HETATM    1  C   UNL     1     -12.034  15.814  70.264  1.00  0.00    -0.383 C  
HETATM    2  C   UNL     1     -12.373  14.421  70.663  1.00  0.00    -0.351 A  
HETATM    3  N   UNL     1     -12.867  14.085  71.839  1.00  0.00    -0.338 NA 
HETATM    4  C   UNL     1     -13.009  12.726  71.820  1.00  0.00    -0.314 A  
HETATM    5  C   UNL     1     -12.617  12.225  70.605  1.00  0.00    -0.156 A  
HETATM    6  N   UNL     1     -12.204  13.303  69.857  1.00  0.00    -0.282 NA 
HETATM    7  N   UNL     1     -12.632  10.864  70.194  1.00  0.00    -0.283 N  
HETATM    8  O   UNL     1     -12.935  10.030  71.053  1.00  0.00    -0.358 OA 
HETATM    9  O   UNL     1     -12.364  10.614  69.013  1.00  0.00    -0.355 OA 
ENDROOT
BRANCH   6  10
HETATM   10  C   UNL     1     -11.633  13.322  68.518  1.00  0.00    -0.333 C  
BRANCH  10  11
HETATM   11  C   UNL     1     -10.616  14.440  68.307  1.00  0.00    -0.243 C  
HETATM   12  O   UNL     1     -10.430  14.709  66.920  1.00  0.00    -0.265 OA 
HETATM   13  H   UNL     1      -9.796  15.405  66.788  1.00  0.00     0.000 HD 
ENDBRANCH  10  11
ENDBRANCH   6  10
TORSDOF 2
ENDMDL
MODEL      149
REMARK 921   NORMALIZED FREE ENERGY PREDICTED BY IDOCK:   -2.30 KCAL/MOL
REMARK 922        TOTAL FREE ENERGY PREDICTED BY IDOCK:   -2.84 KCAL/MOL
REMARK 923 INTER-LIGAND FREE ENERGY PREDICTED BY IDOCK:   -2.51 KCAL/MOL
REMARK 924 INTRA-LIGAND FREE ENERGY PREDICTED BY IDOCK:   -0.33 KCAL/MOL
REMARK 927      BINDING AFFINITY PREDICTED BY RF-SCORE:    0.00 PKD
ROOT
HETATM    1  C   UNL     1      -5.955  10.527  66.125  1.00  0.00    -0.101 C  
HETATM    2  C   UNL     1      -7.076  11.441  66.475  1.00  0.00    -0.058 A  
HETATM    3  N   UNL     1      -6.957  12.497  67.254  1.00  0.00    -0.141 NA 
HETATM    4  C   UNL     1      -8.206  13.046  67.349  1.00  0.00    -0.183 A  
HETATM    5  C   UNL     1      -9.098  12.325  66.597  1.00  0.00    -0.203 A  
HETATM    6  N   UNL     1      -8.384  11.292  66.034  1.00  0.00    -0.121 NA 
HETATM    7  N   UNL     1     -10.485  12.589  66.426  1.00  0.00    -0.244 N  
HETATM    8  O   UNL     1     -10.961  13.504  67.106  1.00  0.00    -0.284 OA 
HETATM    9  O   UNL     1     -11.106  11.907  65.603  1.00  0.00    -0.304 OA 
ENDROOT
BRANCH   6  10
HETATM   10  C   UNL     1      -8.862  10.200  65.199  1.00  0.00    -0.183 C  
BRANCH  10  11
HETATM   11  C   UNL     1      -8.603  10.416  63.710  1.00  0.00    -0.177 C  
HETATM   12  O   UNL     1      -9.097  11.682  63.282  1.00  0.00    -0.513 OA 
HETATM   13  H   UNL     1      -8.935  11.817  62.355  1.00  0.00     0.000 HD 
ENDBRANCH  10  11
ENDBRANCH   6  10
TORSDOF 2
ENDMDL
MODEL      150
REMARK 921   NORMALIZED FREE ENERGY PREDICTED BY IDOCK:   -2.29 KCAL/MOL
REMARK 922        TOTAL FREE ENERGY PREDICTED BY IDOCK:   -2.83 KCAL/MOL
REMARK 923 INTER-LIGAND FREE ENERGY PREDICTED BY IDOCK:   -2.70 KCAL/MOL
REMARK 924 INTRA-LIGAND FREE ENERGY PREDICTED BY IDOCK:   -0.13 KCAL/MOL
REMARK 927      BINDING AFFINITY PREDICTED BY RF-SCORE:    0.00 PKD
ROOT
HETATM    1  C   UNL     1      -7.421   8.307  69.896  1.00  0.00    -0.065 C  
HETATM    2  C   UNL     1      -8.682   9.088  69.774  1.00  0.00    -0.147 A  
HETATM    3  N   UNL     1      -8.995   9.835  68.733  1.00  0.00    -0.129 NA 
HETATM    4  C   UNL     1     -10.205  10.401  69.019  1.00  0.00    -0.217 A  
HETATM    5  C   UNL     1     -10.650   9.977  70.244  1.00  0.00    -0.295 A  
HETATM    6  N   UNL     1      -9.679   9.136  70.739  1.00  0.00    -0.250 NA 
HETATM    7  N   UNL     1     -11.871  10.330  70.883  1.00  0.00    -0.349 N  
HETATM    8  O   UNL     1     -12.559  11.188  70.322  1.00  0.00    -0.273 OA 
HETATM    9  O   UNL     1     -12.164   9.745  71.932  1.00  0.00    -0.375 OA 
ENDROOT
BRANCH   6  10
HETATM   10  C   UNL     1      -9.622   8.464  72.029  1.00  0.00    -0.274 C  
BRANCH  10  11
HETATM   11  C   UNL     1     -10.127   7.025  71.985  1.00  0.00    -0.185 C  
HETATM   12  O   UNL     1      -9.103   6.110  72.369  1.00  0.00    -0.137 OA 
HETATM   13  H   UNL     1      -9.417   5.214  72.342  1.00  0.00     0.000 HD 
ENDBRANCH  10  11
ENDBRANCH   6  10
TORSDOF 2
ENDMDL
MODEL      151
REMARK 921   NORMALIZED FREE ENERGY PREDICTED BY IDOCK:   -2.27 KCAL/MOL
REMARK 922        TOTAL FREE ENERGY PREDICTED BY IDOCK:   -2.81 KCAL/MOL
REMARK 923 INTER-LIGAND FREE ENERGY PREDICTED BY IDOCK:   -2.54 KCAL/MOL
REMARK 924 INTRA-LIGAND FREE ENERGY PREDICTED BY IDOCK:   -0.27 KCAL/MOL
REMARK 927      BINDING AFFINITY PREDICTED BY RF-SCORE:    0.00 PKD
ROOT
HETATM    1  C   UNL     1      -7.682   2.584  68.767  1.00  0.00    -0.051 C  
HETATM    2  C   UNL     1      -8.624   3.524  69.433  1.00  0.00    -0.069 A  
HETATM    3  N   UNL     1      -8.749   3.648  70.740  1.00  0.00    -0.071 NA 
HETATM    4  C   UNL     1      -9.727   4.581  70.944  1.00  0.00    -0.193 A  
HETATM    5  C   UNL     1     -10.191   5.051  69.743  1.00  0.00    -0.266 A  
HETATM    6  N   UNL     1      -9.493   4.378  68.767  1.00  0.00    -0.152 NA 
HETATM    7  N   UNL     1     -11.194   6.039  69.539  1.00  0.00    -0.403 N  
HETATM    8  O   UNL     1     -11.782   6.446  70.546  1.00  0.00    -0.386 OA 
HETATM    9  O   UNL     1     -11.391   6.432  68.384  1.00  0.00    -0.280 OA 
ENDROOT
BRANCH   6  10
HETATM   10  C   UNL     1      -9.641   4.453  67.321  1.00  0.00    -0.189 C  
BRANCH  10  11
HETATM   11  C   UNL     1      -8.750   5.509  66.674  1.00  0.00    -0.116 C  
HETATM   12  O   UNL     1      -9.525   6.455  65.942  1.00  0.00    -0.366 OA 
HETATM   13  H   UNL     1      -8.971   7.113  65.538  1.00  0.00     0.000 HD 
ENDBRANCH  10  11
ENDBRANCH   6  10
TORSDOF 2
ENDMDL
MODEL      152
REMARK 921   NORMALIZED FREE ENERGY PREDICTED BY IDOCK:   -2.27 KCAL/MOL
REMARK 922        TOTAL FREE ENERGY PREDICTED BY IDOCK:   -2.81 KCAL/MOL
REMARK 923 INTER-LIGAND FREE ENERGY PREDICTED BY IDOCK:   -2.50 KCAL/MOL
REMARK 924 INTRA-LIGAND FREE ENERGY PREDICTED BY IDOCK:   -0.32 KCAL/MOL
REMARK 927      BINDING AFFINITY PREDICTED BY RF-SCORE:    0.00 PKD
ROOT
HETATM    1  C   UNL     1      -6.671   6.091  67.520  1.00  0.00    -0.058 C  
HETATM    2  C   UNL     1      -7.619   6.650  68.522  1.00  0.00    -0.097 A  
HETATM    3  N   UNL     1      -7.298   7.559  69.422  1.00  0.00    -0.083 NA 
HETATM    4  C   UNL     1      -8.427   7.781  70.160  1.00  0.00    -0.134 A  
HETATM    5  C   UNL     1      -9.460   7.013  69.689  1.00  0.00    -0.147 A  
HETATM    6  N   UNL     1      -8.953   6.282  68.640  1.00  0.00    -0.128 NA 
HETATM    7  N   UNL     1     -10.794   6.976  70.181  1.00  0.00    -0.246 N  
HETATM    8  O   UNL     1     -11.024   7.628  71.205  1.00  0.00    -0.240 OA 
HETATM    9  O   UNL     1     -11.626   6.318  69.546  1.00  0.00    -0.423 OA 
ENDROOT
BRANCH   6  10
HETATM   10  C   UNL     1      -9.611   5.267  67.831  1.00  0.00    -0.134 C  
BRANCH  10  11
HETATM   11  C   UNL     1     -10.100   5.789  66.482  1.00  0.00    -0.171 C  
HETATM   12  O   UNL     1     -11.517   5.941  66.475  1.00  0.00    -0.636 OA 
HETATM   13  H   UNL     1     -11.822   6.266  65.636  1.00  0.00     0.000 HD 
ENDBRANCH  10  11
ENDBRANCH   6  10
TORSDOF 2
ENDMDL
MODEL      153
REMARK 921   NORMALIZED FREE ENERGY PREDICTED BY IDOCK:   -2.27 KCAL/MOL
REMARK 922        TOTAL FREE ENERGY PREDICTED BY IDOCK:   -2.81 KCAL/MOL
REMARK 923 INTER-LIGAND FREE ENERGY PREDICTED BY IDOCK:   -2.45 KCAL/MOL
REMARK 924 INTRA-LIGAND FREE ENERGY PREDICTED BY IDOCK:   -0.35 KCAL/MOL
REMARK 927      BINDING AFFINITY PREDICTED BY RF-SCORE:    0.00 PKD
ROOT
HETATM    1  C   UNL     1      -7.553   9.477  67.930  1.00  0.00    -0.087 C  
HETATM    2  C   UNL     1      -8.027   8.203  68.536  1.00  0.00    -0.126 A  
HETATM    3  N   UNL     1      -7.233   7.227  68.930  1.00  0.00    -0.087 NA 
HETATM    4  C   UNL     1      -8.049   6.234  69.396  1.00  0.00    -0.113 A  
HETATM    5  C   UNL     1      -9.362   6.619  69.306  1.00  0.00    -0.142 A  
HETATM    6  N   UNL     1      -9.360   7.879  68.753  1.00  0.00    -0.147 NA 
HETATM    7  N   UNL     1     -10.504   5.870  69.705  1.00  0.00    -0.244 N  
HETATM    8  O   UNL     1     -10.301   4.711  70.079  1.00  0.00    -0.205 OA 
HETATM    9  O   UNL     1     -11.604   6.433  69.670  1.00  0.00    -0.417 OA 
ENDROOT
BRANCH   6  10
HETATM   10  C   UNL     1     -10.491   8.717  68.385  1.00  0.00    -0.176 C  
BRANCH  10  11
HETATM   11  C   UNL     1     -10.872   9.730  69.461  1.00  0.00    -0.240 C  
HETATM   12  O   UNL     1     -11.947   9.247  70.263  1.00  0.00    -0.469 OA 
HETATM   13  H   UNL     1     -12.184   9.877  70.933  1.00  0.00     0.000 HD 
ENDBRANCH  10  11
ENDBRANCH   6  10
TORSDOF 2
ENDMDL
MODEL      154
REMARK 921   NORMALIZED FREE ENERGY PREDICTED BY IDOCK:   -2.24 KCAL/MOL
REMARK 922        TOTAL FREE ENERGY PREDICTED BY IDOCK:   -2.78 KCAL/MOL
REMARK 923 INTER-LIGAND FREE ENERGY PREDICTED BY IDOCK:   -2.64 KCAL/MOL
REMARK 924 INTRA-LIGAND FREE ENERGY PREDICTED BY IDOCK:   -0.14 KCAL/MOL
REMARK 927      BINDING AFFINITY PREDICTED BY RF-SCORE:    0.00 PKD
ROOT
HETATM    1  C   UNL     1      -9.934  14.291  68.397  1.00  0.00    -0.240 C  
HETATM    2  C   UNL     1     -10.329  12.858  68.479  1.00  0.00    -0.229 A  
HETATM    3  N   UNL     1     -11.577  12.433  68.511  1.00  0.00    -0.291 NA 
HETATM    4  C   UNL     1     -11.515  11.072  68.616  1.00  0.00    -0.308 A  
HETATM    5  C   UNL     1     -10.208  10.656  68.624  1.00  0.00    -0.182 A  
HETATM    6  N   UNL     1      -9.439  11.795  68.540  1.00  0.00    -0.190 NA 
HETATM    7  N   UNL     1      -9.735   9.318  68.703  1.00  0.00    -0.148 N  
HETATM    8  O   UNL     1     -10.585   8.441  68.885  1.00  0.00    -0.212 OA 
HETATM    9  O   UNL     1      -8.521   9.125  68.565  1.00  0.00    -0.125 OA 
ENDROOT
BRANCH   6  10
HETATM   10  C   UNL     1      -7.989  11.923  68.574  1.00  0.00    -0.137 C  
BRANCH  10  11
HETATM   11  C   UNL     1      -7.355  12.002  67.188  1.00  0.00    -0.134 C  
HETATM   12  O   UNL     1      -6.736  13.269  66.979  1.00  0.00    -0.445 OA 
HETATM   13  H   UNL     1      -6.341  13.319  66.116  1.00  0.00     0.000 HD 
ENDBRANCH  10  11
ENDBRANCH   6  10
TORSDOF 2
ENDMDL
MODEL      155
REMARK 921   NORMALIZED FREE ENERGY PREDICTED BY IDOCK:   -2.24 KCAL/MOL
REMARK 922        TOTAL FREE ENERGY PREDICTED BY IDOCK:   -2.78 KCAL/MOL
REMARK 923 INTER-LIGAND FREE ENERGY PREDICTED BY IDOCK:   -2.64 KCAL/MOL
REMARK 924 INTRA-LIGAND FREE ENERGY PREDICTED BY IDOCK:   -0.13 KCAL/MOL
REMARK 927      BINDING AFFINITY PREDICTED BY RF-SCORE:    0.00 PKD
ROOT
HETATM    1  C   UNL     1      -9.332   5.721  69.670  1.00  0.00    -0.166 C  
HETATM    2  C   UNL     1      -9.538   6.718  68.584  1.00  0.00    -0.131 A  
HETATM    3  N   UNL     1      -9.201   6.523  67.324  1.00  0.00    -0.119 NA 
HETATM    4  C   UNL     1      -9.525   7.673  66.660  1.00  0.00    -0.198 A  
HETATM    5  C   UNL     1     -10.090   8.576  67.523  1.00  0.00    -0.221 A  
HETATM    6  N   UNL     1     -10.100   7.975  68.761  1.00  0.00    -0.190 NA 
HETATM    7  N   UNL     1     -10.572   9.877  67.208  1.00  0.00    -0.258 N  
HETATM    8  O   UNL     1     -10.371  10.277  66.058  1.00  0.00    -0.237 OA 
HETATM    9  O   UNL     1     -11.170  10.500  68.092  1.00  0.00    -0.282 OA 
ENDROOT
BRANCH   6  10
HETATM   10  C   UNL     1     -10.534   8.521  70.039  1.00  0.00    -0.223 C  
BRANCH  10  11
HETATM   11  C   UNL     1      -9.444   9.308  70.762  1.00  0.00    -0.271 C  
HETATM   12  O   UNL     1      -9.350   8.915  72.129  1.00  0.00    -0.348 OA 
HETATM   13  H   UNL     1      -8.672   9.405  72.580  1.00  0.00     0.000 HD 
ENDBRANCH  10  11
ENDBRANCH   6  10
TORSDOF 2
ENDMDL
MODEL      156
REMARK 921   NORMALIZED FREE ENERGY PREDICTED BY IDOCK:   -2.23 KCAL/MOL
REMARK 922        TOTAL FREE ENERGY PREDICTED BY IDOCK:   -2.77 KCAL/MOL
REMARK 923 INTER-LIGAND FREE ENERGY PREDICTED BY IDOCK:   -2.77 KCAL/MOL
REMARK 924 INTRA-LIGAND FREE ENERGY PREDICTED BY IDOCK:    0.01 KCAL/MOL
REMARK 927      BINDING AFFINITY PREDICTED BY RF-SCORE:    0.00 PKD
ROOT
HETATM    1  C   UNL     1     -10.299   8.844  70.312  1.00  0.00    -0.235 C  
HETATM    2  C   UNL     1     -10.355   9.772  69.149  1.00  0.00    -0.211 A  
HETATM    3  N   UNL     1     -10.923  10.961  69.175  1.00  0.00    -0.221 NA 
HETATM    4  C   UNL     1     -10.788  11.477  67.916  1.00  0.00    -0.210 A  
HETATM    5  C   UNL     1     -10.106  10.599  67.115  1.00  0.00    -0.207 A  
HETATM    6  N   UNL     1      -9.826   9.500  67.894  1.00  0.00    -0.150 NA 
HETATM    7  N   UNL     1      -9.754  10.781  65.749  1.00  0.00    -0.216 N  
HETATM    8  O   UNL     1     -10.194  11.792  65.194  1.00  0.00    -0.248 OA 
HETATM    9  O   UNL     1      -9.022   9.934  65.224  1.00  0.00    -0.164 OA 
ENDROOT
BRANCH   6  10
HETATM   10  C   UNL     1      -9.175   8.254  67.518  1.00  0.00    -0.137 C  
BRANCH  10  11
HETATM   11  C   UNL     1     -10.119   7.251  66.859  1.00  0.00    -0.247 C  
HETATM   12  O   UNL     1     -11.381   7.224  67.521  1.00  0.00    -0.525 OA 
HETATM   13  H   UNL     1     -11.969   6.600  67.112  1.00  0.00     0.000 HD 
ENDBRANCH  10  11
ENDBRANCH   6  10
TORSDOF 2
ENDMDL
MODEL      157
REMARK 921   NORMALIZED FREE ENERGY PREDICTED BY IDOCK:   -2.17 KCAL/MOL
REMARK 922        TOTAL FREE ENERGY PREDICTED BY IDOCK:   -2.70 KCAL/MOL
REMARK 923 INTER-LIGAND FREE ENERGY PREDICTED BY IDOCK:   -2.34 KCAL/MOL
REMARK 924 INTRA-LIGAND FREE ENERGY PREDICTED BY IDOCK:   -0.37 KCAL/MOL
REMARK 927      BINDING AFFINITY PREDICTED BY RF-SCORE:    0.00 PKD
ROOT
HETATM    1  C   UNL     1     -10.664   5.749  71.158  1.00  0.00    -0.327 C  
HETATM    2  C   UNL     1     -10.605   5.675  69.672  1.00  0.00    -0.331 A  
HETATM    3  N   UNL     1     -11.108   6.585  68.862  1.00  0.00    -0.312 NA 
HETATM    4  C   UNL     1     -10.876   6.138  67.592  1.00  0.00    -0.332 A  
HETATM    5  C   UNL     1     -10.199   4.946  67.626  1.00  0.00    -0.076 A  
HETATM    6  N   UNL     1     -10.023   4.638  68.955  1.00  0.00    -0.155 NA 
HETATM    7  N   UNL     1      -9.762   4.176  66.512  1.00  0.00    -0.208 N  
HETATM    8  O   UNL     1     -10.116   4.568  65.396  1.00  0.00    -0.203 OA 
HETATM    9  O   UNL     1      -9.050   3.191  66.736  1.00  0.00    -0.149 OA 
ENDROOT
BRANCH   6  10
HETATM   10  C   UNL     1      -9.421   3.452  69.547  1.00  0.00    -0.149 C  
BRANCH  10  11
HETATM   11  C   UNL     1      -7.987   3.672  70.021  1.00  0.00    -0.046 C  
HETATM   12  O   UNL     1      -7.107   3.875  68.918  1.00  0.00    -0.049 OA 
HETATM   13  H   UNL     1      -6.214   4.012  69.213  1.00  0.00     0.000 HD 
ENDBRANCH  10  11
ENDBRANCH   6  10
TORSDOF 2
ENDMDL
MODEL      158
REMARK 921   NORMALIZED FREE ENERGY PREDICTED BY IDOCK:   -2.17 KCAL/MOL
REMARK 922        TOTAL FREE ENERGY PREDICTED BY IDOCK:   -2.70 KCAL/MOL
REMARK 923 INTER-LIGAND FREE ENERGY PREDICTED BY IDOCK:   -2.36 KCAL/MOL
REMARK 924 INTRA-LIGAND FREE ENERGY PREDICTED BY IDOCK:   -0.34 KCAL/MOL
REMARK 927      BINDING AFFINITY PREDICTED BY RF-SCORE:    0.00 PKD
ROOT
HETATM    1  C   UNL     1     -11.017  15.952  67.917  1.00  0.00    -0.327 C  
HETATM    2  C   UNL     1      -9.808  15.189  68.332  1.00  0.00    -0.223 A  
HETATM    3  N   UNL     1      -8.950  15.598  69.246  1.00  0.00    -0.256 NA 
HETATM    4  C   UNL     1      -7.977  14.640  69.314  1.00  0.00    -0.055 A  
HETATM    5  C   UNL     1      -8.257  13.618  68.444  1.00  0.00    -0.146 A  
HETATM    6  N   UNL     1      -9.428  13.961  67.807  1.00  0.00    -0.208 NA 
HETATM    7  N   UNL     1      -7.495  12.435  68.237  1.00  0.00    -0.115 N  
HETATM    8  O   UNL     1      -6.414  12.364  68.828  1.00  0.00    -0.072 OA 
HETATM    9  O   UNL     1      -7.973  11.561  67.505  1.00  0.00    -0.122 OA 
ENDROOT
BRANCH   6  10
HETATM   10  C   UNL     1     -10.131  13.256  66.745  1.00  0.00    -0.258 C  
BRANCH  10  11
HETATM   11  C   UNL     1     -11.305  12.419  67.247  1.00  0.00    -0.323 C  
HETATM   12  O   UNL     1     -10.943  11.045  67.359  1.00  0.00    -0.255 OA 
HETATM   13  H   UNL     1     -11.673  10.523  67.671  1.00  0.00     0.000 HD 
ENDBRANCH  10  11
ENDBRANCH   6  10
TORSDOF 2
ENDMDL
MODEL      159
REMARK 921   NORMALIZED FREE ENERGY PREDICTED BY IDOCK:   -2.15 KCAL/MOL
REMARK 922        TOTAL FREE ENERGY PREDICTED BY IDOCK:   -2.67 KCAL/MOL
REMARK 923 INTER-LIGAND FREE ENERGY PREDICTED BY IDOCK:   -2.37 KCAL/MOL
REMARK 924 INTRA-LIGAND FREE ENERGY PREDICTED BY IDOCK:   -0.30 KCAL/MOL
REMARK 927      BINDING AFFINITY PREDICTED BY RF-SCORE:    0.00 PKD
ROOT
HETATM    1  C   UNL     1     -10.945  15.606  66.415  1.00  0.00    -0.197 C  
HETATM    2  C   UNL     1      -9.980  14.479  66.538  1.00  0.00    -0.280 A  
HETATM    3  N   UNL     1     -10.238  13.237  66.176  1.00  0.00    -0.290 NA 
HETATM    4  C   UNL     1      -9.119  12.511  66.475  1.00  0.00    -0.177 A  
HETATM    5  C   UNL     1      -8.153  13.326  67.006  1.00  0.00    -0.005 A  
HETATM    6  N   UNL     1      -8.696  14.590  67.054  1.00  0.00    -0.231 NA 
HETATM    7  N   UNL     1      -6.848  12.948  67.426  1.00  0.00    -0.156 N  
HETATM    8  O   UNL     1      -6.589  11.741  67.404  1.00  0.00    -0.092 OA 
HETATM    9  O   UNL     1      -6.066  13.845  67.759  1.00  0.00    -0.153 OA 
ENDROOT
BRANCH   6  10
HETATM   10  C   UNL     1      -8.116  15.814  67.588  1.00  0.00    -0.147 C  
BRANCH  10  11
HETATM   11  C   UNL     1      -8.489  16.076  69.045  1.00  0.00    -0.244 C  
HETATM   12  O   UNL     1      -8.102  14.985  69.877  1.00  0.00    -0.398 OA 
HETATM   13  H   UNL     1      -8.334  15.148  70.784  1.00  0.00     0.000 HD 
ENDBRANCH  10  11
ENDBRANCH   6  10
TORSDOF 2
ENDMDL
MODEL      160
REMARK 921   NORMALIZED FREE ENERGY PREDICTED BY IDOCK:   -2.13 KCAL/MOL
REMARK 922        TOTAL FREE ENERGY PREDICTED BY IDOCK:   -2.65 KCAL/MOL
REMARK 923 INTER-LIGAND FREE ENERGY PREDICTED BY IDOCK:   -2.39 KCAL/MOL
REMARK 924 INTRA-LIGAND FREE ENERGY PREDICTED BY IDOCK:   -0.26 KCAL/MOL
REMARK 927      BINDING AFFINITY PREDICTED BY RF-SCORE:    0.00 PKD
ROOT
HETATM    1  C   UNL     1      -8.475  12.447  66.335  1.00  0.00     0.141 C  
HETATM    2  C   UNL     1      -9.544  13.210  67.034  1.00  0.00    -0.241 A  
HETATM    3  N   UNL     1     -10.762  12.753  67.251  1.00  0.00    -0.235 NA 
HETATM    4  C   UNL     1     -11.439  13.755  67.887  1.00  0.00    -0.314 A  
HETATM    5  C   UNL     1     -10.617  14.835  68.080  1.00  0.00    -0.241 A  
HETATM    6  N   UNL     1      -9.399  14.497  67.535  1.00  0.00    -0.189 NA 
HETATM    7  N   UNL     1     -10.948  16.062  68.719  1.00  0.00    -0.299 N  
HETATM    8  O   UNL     1     -12.129  16.214  69.045  1.00  0.00    -0.228 OA 
HETATM    9  O   UNL     1     -10.037  16.873  68.920  1.00  0.00    -0.265 OA 
ENDROOT
BRANCH   6  10
HETATM   10  C   UNL     1      -8.195  15.306  67.415  1.00  0.00    -0.184 C  
BRANCH  10  11
HETATM   11  C   UNL     1      -7.292  15.234  68.644  1.00  0.00    -0.120 C  
HETATM   12  O   UNL     1      -7.153  16.515  69.254  1.00  0.00    -0.220 OA 
HETATM   13  H   UNL     1      -6.591  16.470  70.019  1.00  0.00     0.000 HD 
ENDBRANCH  10  11
ENDBRANCH   6  10
TORSDOF 2
ENDMDL
MODEL      161
REMARK 921   NORMALIZED FREE ENERGY PREDICTED BY IDOCK:   -2.11 KCAL/MOL
REMARK 922        TOTAL FREE ENERGY PREDICTED BY IDOCK:   -2.64 KCAL/MOL
REMARK 923 INTER-LIGAND FREE ENERGY PREDICTED BY IDOCK:   -2.30 KCAL/MOL
REMARK 924 INTRA-LIGAND FREE ENERGY PREDICTED BY IDOCK:   -0.34 KCAL/MOL
REMARK 927      BINDING AFFINITY PREDICTED BY RF-SCORE:    0.00 PKD
ROOT
HETATM    1  C   UNL     1      -7.837   5.865  74.123  1.00  0.00    -0.101 C  
HETATM    2  C   UNL     1      -8.307   5.551  72.746  1.00  0.00    -0.113 A  
HETATM    3  N   UNL     1      -7.620   4.844  71.870  1.00  0.00    -0.094 NA 
HETATM    4  C   UNL     1      -8.375   4.808  70.731  1.00  0.00    -0.094 A  
HETATM    5  C   UNL     1      -9.552   5.485  70.921  1.00  0.00    -0.170 A  
HETATM    6  N   UNL     1      -9.518   5.969  72.209  1.00  0.00    -0.151 NA 
HETATM    7  N   UNL     1     -10.604   5.657  69.979  1.00  0.00    -0.301 N  
HETATM    8  O   UNL     1     -10.396   5.240  68.836  1.00  0.00    -0.200 OA 
HETATM    9  O   UNL     1     -11.650   6.187  70.372  1.00  0.00    -0.343 OA 
ENDROOT
BRANCH   6  10
HETATM   10  C   UNL     1     -10.488   6.808  72.897  1.00  0.00    -0.234 C  
BRANCH  10  11
HETATM   11  C   UNL     1     -10.169   8.298  72.813  1.00  0.00    -0.255 C  
HETATM   12  O   UNL     1     -10.230   8.760  71.466  1.00  0.00    -0.244 OA 
HETATM   13  H   UNL     1     -10.031   9.688  71.413  1.00  0.00     0.000 HD 
ENDBRANCH  10  11
ENDBRANCH   6  10
TORSDOF 2
ENDMDL
MODEL      162
REMARK 921   NORMALIZED FREE ENERGY PREDICTED BY IDOCK:   -2.04 KCAL/MOL
REMARK 922        TOTAL FREE ENERGY PREDICTED BY IDOCK:   -2.55 KCAL/MOL
REMARK 923 INTER-LIGAND FREE ENERGY PREDICTED BY IDOCK:   -2.38 KCAL/MOL
REMARK 924 INTRA-LIGAND FREE ENERGY PREDICTED BY IDOCK:   -0.18 KCAL/MOL
REMARK 927      BINDING AFFINITY PREDICTED BY RF-SCORE:    0.00 PKD
ROOT
HETATM    1  C   UNL     1     -11.070  11.503  68.162  1.00  0.00    -0.303 C  
HETATM    2  C   UNL     1     -10.301  10.986  66.996  1.00  0.00    -0.228 A  
HETATM    3  N   UNL     1     -10.381  11.480  65.776  1.00  0.00    -0.240 NA 
HETATM    4  C   UNL     1      -9.553  10.719  65.000  1.00  0.00    -0.254 A  
HETATM    5  C   UNL     1      -8.939   9.759  65.762  1.00  0.00    -0.160 A  
HETATM    6  N   UNL     1      -9.414   9.919  67.044  1.00  0.00    -0.156 NA 
HETATM    7  N   UNL     1      -7.997   8.788  65.323  1.00  0.00    -0.112 N  
HETATM    8  O   UNL     1      -7.783   8.736  64.108  1.00  0.00    -0.116 OA 
HETATM    9  O   UNL     1      -7.450   8.085  66.180  1.00  0.00    -0.073 OA 
ENDROOT
BRANCH   6  10
HETATM   10  C   UNL     1      -9.134   9.121  68.229  1.00  0.00    -0.132 C  
BRANCH  10  11
HETATM   11  C   UNL     1     -10.065   7.922  68.387  1.00  0.00    -0.194 C  
HETATM   12  O   UNL     1     -11.005   8.137  69.436  1.00  0.00    -0.411 OA 
HETATM   13  H   UNL     1     -11.585   7.390  69.535  1.00  0.00     0.000 HD 
ENDBRANCH  10  11
ENDBRANCH   6  10
TORSDOF 2
ENDMDL
MODEL      163
REMARK 921   NORMALIZED FREE ENERGY PREDICTED BY IDOCK:   -2.01 KCAL/MOL
REMARK 922        TOTAL FREE ENERGY PREDICTED BY IDOCK:   -2.52 KCAL/MOL
REMARK 923 INTER-LIGAND FREE ENERGY PREDICTED BY IDOCK:   -2.40 KCAL/MOL
REMARK 924 INTRA-LIGAND FREE ENERGY PREDICTED BY IDOCK:   -0.12 KCAL/MOL
REMARK 927      BINDING AFFINITY PREDICTED BY RF-SCORE:    0.00 PKD
ROOT
HETATM    1  C   UNL     1      -9.612  12.041  67.172  1.00  0.00    -0.195 C  
HETATM    2  C   UNL     1      -9.728  10.564  67.030  1.00  0.00    -0.177 A  
HETATM    3  N   UNL     1     -10.568   9.815  67.717  1.00  0.00    -0.250 NA 
HETATM    4  C   UNL     1     -10.345   8.526  67.320  1.00  0.00    -0.302 A  
HETATM    5  C   UNL     1      -9.368   8.489  66.359  1.00  0.00    -0.213 A  
HETATM    6  N   UNL     1      -8.963   9.790  66.167  1.00  0.00    -0.147 NA 
HETATM    7  N   UNL     1      -8.869   7.339  65.688  1.00  0.00    -0.075 N  
HETATM    8  O   UNL     1      -9.285   6.245  66.082  1.00  0.00    -0.162 OA 
HETATM    9  O   UNL     1      -8.078   7.513  64.754  1.00  0.00    -0.135 OA 
ENDROOT
BRANCH   6  10
HETATM   10  C   UNL     1      -7.908  10.302  65.304  1.00  0.00    -0.145 C  
BRANCH  10  11
HETATM   11  C   UNL     1      -6.560  10.434  66.007  1.00  0.00    -0.120 C  
HETATM   12  O   UNL     1      -5.689  11.303  65.287  1.00  0.00    -0.479 OA 
HETATM   13  H   UNL     1      -4.850  11.385  65.724  1.00  0.00     0.000 HD 
ENDBRANCH  10  11
ENDBRANCH   6  10
TORSDOF 2
ENDMDL
MODEL      164
REMARK 921   NORMALIZED FREE ENERGY PREDICTED BY IDOCK:   -1.99 KCAL/MOL
REMARK 922        TOTAL FREE ENERGY PREDICTED BY IDOCK:   -2.50 KCAL/MOL
REMARK 923 INTER-LIGAND FREE ENERGY PREDICTED BY IDOCK:   -2.21 KCAL/MOL
REMARK 924 INTRA-LIGAND FREE ENERGY PREDICTED BY IDOCK:   -0.29 KCAL/MOL
REMARK 927      BINDING AFFINITY PREDICTED BY RF-SCORE:    0.00 PKD
ROOT
HETATM    1  C   UNL     1      -6.758  11.656  68.997  1.00  0.00    -0.100 C  
HETATM    2  C   UNL     1      -7.060  11.120  67.642  1.00  0.00    -0.089 A  
HETATM    3  N   UNL     1      -6.144  10.759  66.765  1.00  0.00    -0.072 NA 
HETATM    4  C   UNL     1      -6.821  10.354  65.649  1.00  0.00    -0.133 A  
HETATM    5  C   UNL     1      -8.173  10.447  65.855  1.00  0.00    -0.150 A  
HETATM    6  N   UNL     1      -8.338  10.940  67.129  1.00  0.00    -0.123 NA 
HETATM    7  N   UNL     1      -9.206  10.103  64.939  1.00  0.00    -0.210 N  
HETATM    8  O   UNL     1      -8.850   9.782  63.801  1.00  0.00    -0.205 OA 
HETATM    9  O   UNL     1     -10.372  10.130  65.347  1.00  0.00    -0.257 OA 
ENDROOT
BRANCH   6  10
HETATM   10  C   UNL     1      -9.570  11.287  67.823  1.00  0.00    -0.174 C  
BRANCH  10  11
HETATM   11  C   UNL     1     -10.147  10.137  68.644  1.00  0.00    -0.172 C  
HETATM   12  O   UNL     1     -11.446   9.778  68.181  1.00  0.00    -0.520 OA 
HETATM   13  H   UNL     1     -11.806   9.062  68.693  1.00  0.00     0.000 HD 
ENDBRANCH  10  11
ENDBRANCH   6  10
TORSDOF 2
ENDMDL
MODEL      165
REMARK 921   NORMALIZED FREE ENERGY PREDICTED BY IDOCK:   -1.96 KCAL/MOL
REMARK 922        TOTAL FREE ENERGY PREDICTED BY IDOCK:   -2.47 KCAL/MOL
REMARK 923 INTER-LIGAND FREE ENERGY PREDICTED BY IDOCK:   -2.39 KCAL/MOL
REMARK 924 INTRA-LIGAND FREE ENERGY PREDICTED BY IDOCK:   -0.09 KCAL/MOL
REMARK 927      BINDING AFFINITY PREDICTED BY RF-SCORE:    0.00 PKD
ROOT
HETATM    1  C   UNL     1     -10.049   5.977  66.849  1.00  0.00    -0.229 C  
HETATM    2  C   UNL     1     -10.129   7.112  67.809  1.00  0.00    -0.172 A  
HETATM    3  N   UNL     1      -9.935   8.375  67.483  1.00  0.00    -0.184 NA 
HETATM    4  C   UNL     1     -10.067   9.093  68.639  1.00  0.00    -0.194 A  
HETATM    5  C   UNL     1     -10.367   8.257  69.684  1.00  0.00    -0.218 A  
HETATM    6  N   UNL     1     -10.406   6.984  69.163  1.00  0.00    -0.194 NA 
HETATM    7  N   UNL     1     -10.595   8.626  71.038  1.00  0.00    -0.210 N  
HETATM    8  O   UNL     1     -10.404   9.811  71.328  1.00  0.00    -0.201 OA 
HETATM    9  O   UNL     1     -10.984   7.749  71.818  1.00  0.00    -0.230 OA 
ENDROOT
BRANCH   6  10
HETATM   10  C   UNL     1     -10.621   5.720  69.853  1.00  0.00    -0.318 C  
BRANCH  10  11
HETATM   11  C   UNL     1      -9.360   5.169  70.515  1.00  0.00    -0.158 C  
HETATM   12  O   UNL     1      -8.457   4.649  69.543  1.00  0.00    -0.077 OA 
HETATM   13  H   UNL     1      -7.672   4.306  69.954  1.00  0.00     0.000 HD 
ENDBRANCH  10  11
ENDBRANCH   6  10
TORSDOF 2
ENDMDL
MODEL      166
REMARK 921   NORMALIZED FREE ENERGY PREDICTED BY IDOCK:   -1.96 KCAL/MOL
REMARK 922        TOTAL FREE ENERGY PREDICTED BY IDOCK:   -2.47 KCAL/MOL
REMARK 923 INTER-LIGAND FREE ENERGY PREDICTED BY IDOCK:   -2.08 KCAL/MOL
REMARK 924 INTRA-LIGAND FREE ENERGY PREDICTED BY IDOCK:   -0.38 KCAL/MOL
REMARK 927      BINDING AFFINITY PREDICTED BY RF-SCORE:    0.00 PKD
ROOT
HETATM    1  C   UNL     1     -11.133   6.100  69.227  1.00  0.00    -0.463 C  
HETATM    2  C   UNL     1     -10.312   7.031  70.050  1.00  0.00    -0.202 A  
HETATM    3  N   UNL     1     -10.810   7.993  70.801  1.00  0.00    -0.228 NA 
HETATM    4  C   UNL     1      -9.740   8.631  71.364  1.00  0.00    -0.244 A  
HETATM    5  C   UNL     1      -8.571   8.035  70.968  1.00  0.00    -0.133 A  
HETATM    6  N   UNL     1      -8.926   7.009  70.122  1.00  0.00    -0.145 NA 
HETATM    7  N   UNL     1      -7.250   8.399  71.351  1.00  0.00    -0.076 N  
HETATM    8  O   UNL     1      -7.135   9.421  72.033  1.00  0.00    -0.291 OA 
HETATM    9  O   UNL     1      -6.323   7.662  70.997  1.00  0.00    -0.035 OA 
ENDROOT
BRANCH   6  10
HETATM   10  C   UNL     1      -8.067   6.102  69.375  1.00  0.00    -0.112 C  
BRANCH  10  11
HETATM   11  C   UNL     1      -7.660   6.641  68.006  1.00  0.00    -0.107 C  
HETATM   12  O   UNL     1      -6.596   7.581  68.121  1.00  0.00    -0.047 OA 
HETATM   13  H   UNL     1      -6.342   7.917  67.269  1.00  0.00     0.000 HD 
ENDBRANCH  10  11
ENDBRANCH   6  10
TORSDOF 2
ENDMDL
MODEL      167
REMARK 921   NORMALIZED FREE ENERGY PREDICTED BY IDOCK:   -1.92 KCAL/MOL
REMARK 922        TOTAL FREE ENERGY PREDICTED BY IDOCK:   -2.43 KCAL/MOL
REMARK 923 INTER-LIGAND FREE ENERGY PREDICTED BY IDOCK:   -2.14 KCAL/MOL
REMARK 924 INTRA-LIGAND FREE ENERGY PREDICTED BY IDOCK:   -0.28 KCAL/MOL
REMARK 927      BINDING AFFINITY PREDICTED BY RF-SCORE:    0.00 PKD
ROOT
HETATM    1  C   UNL     1      -8.777  12.383  68.127  1.00  0.00    -0.190 C  
HETATM    2  C   UNL     1      -9.333  11.058  68.518  1.00  0.00    -0.188 A  
HETATM    3  N   UNL     1     -10.081  10.852  69.584  1.00  0.00    -0.027 NA 
HETATM    4  C   UNL     1     -10.358   9.514  69.604  1.00  0.00    -0.221 A  
HETATM    5  C   UNL     1      -9.790   8.896  68.520  1.00  0.00    -0.167 A  
HETATM    6  N   UNL     1      -9.127   9.877  67.818  1.00  0.00    -0.131 NA 
HETATM    7  N   UNL     1      -9.867   7.517  68.181  1.00  0.00    -0.154 N  
HETATM    8  O   UNL     1     -10.419   6.777  69.001  1.00  0.00    -0.184 OA 
HETATM    9  O   UNL     1      -9.400   7.163  67.093  1.00  0.00    -0.131 OA 
ENDROOT
BRANCH   6  10
HETATM   10  C   UNL     1      -8.306   9.749  66.623  1.00  0.00    -0.124 C  
BRANCH  10  11
HETATM   11  C   UNL     1      -9.071  10.020  65.330  1.00  0.00    -0.193 C  
HETATM   12  O   UNL     1      -9.052   8.880  64.475  1.00  0.00    -0.434 OA 
HETATM   13  H   UNL     1      -9.528   9.048  63.670  1.00  0.00     0.000 HD 
ENDBRANCH  10  11
ENDBRANCH   6  10
TORSDOF 2
ENDMDL
MODEL      168
REMARK 921   NORMALIZED FREE ENERGY PREDICTED BY IDOCK:   -1.91 KCAL/MOL
REMARK 922        TOTAL FREE ENERGY PREDICTED BY IDOCK:   -2.41 KCAL/MOL
REMARK 923 INTER-LIGAND FREE ENERGY PREDICTED BY IDOCK:   -2.24 KCAL/MOL
REMARK 924 INTRA-LIGAND FREE ENERGY PREDICTED BY IDOCK:   -0.18 KCAL/MOL
REMARK 927      BINDING AFFINITY PREDICTED BY RF-SCORE:    0.00 PKD
ROOT
HETATM    1  C   UNL     1      -7.868   3.561  71.096  1.00  0.00    -0.058 C  
HETATM    2  C   UNL     1      -9.082   4.333  71.481  1.00  0.00    -0.127 A  
HETATM    3  N   UNL     1      -9.748   4.157  72.605  1.00  0.00    -0.138 NA 
HETATM    4  C   UNL     1     -10.801   5.028  72.566  1.00  0.00    -0.196 A  
HETATM    5  C   UNL     1     -10.765   5.763  71.409  1.00  0.00    -0.256 A  
HETATM    6  N   UNL     1      -9.668   5.324  70.704  1.00  0.00    -0.174 NA 
HETATM    7  N   UNL     1     -11.676   6.781  71.012  1.00  0.00    -0.337 N  
HETATM    8  O   UNL     1     -12.662   6.953  71.734  1.00  0.00    -0.357 OA 
HETATM    9  O   UNL     1     -11.409   7.429  69.993  1.00  0.00    -0.227 OA 
ENDROOT
BRANCH   6  10
HETATM   10  C   UNL     1      -9.208   5.727  69.383  1.00  0.00    -0.125 C  
BRANCH  10  11
HETATM   11  C   UNL     1      -9.836   4.920  68.250  1.00  0.00    -0.136 C  
HETATM   12  O   UNL     1      -8.875   4.067  67.635  1.00  0.00    -0.104 OA 
HETATM   13  H   UNL     1      -9.265   3.564  66.929  1.00  0.00     0.000 HD 
ENDBRANCH  10  11
ENDBRANCH   6  10
TORSDOF 2
ENDMDL
MODEL      169
REMARK 921   NORMALIZED FREE ENERGY PREDICTED BY IDOCK:   -1.91 KCAL/MOL
REMARK 922        TOTAL FREE ENERGY PREDICTED BY IDOCK:   -2.41 KCAL/MOL
REMARK 923 INTER-LIGAND FREE ENERGY PREDICTED BY IDOCK:   -2.23 KCAL/MOL
REMARK 924 INTRA-LIGAND FREE ENERGY PREDICTED BY IDOCK:   -0.18 KCAL/MOL
REMARK 927      BINDING AFFINITY PREDICTED BY RF-SCORE:    0.00 PKD
ROOT
HETATM    1  C   UNL     1      -8.988  12.577  68.072  1.00  0.00    -0.192 C  
HETATM    2  C   UNL     1      -9.425  11.159  67.951  1.00  0.00    -0.175 A  
HETATM    3  N   UNL     1     -10.650  10.784  67.640  1.00  0.00    -0.214 NA 
HETATM    4  C   UNL     1     -10.649   9.417  67.661  1.00  0.00    -0.271 A  
HETATM    5  C   UNL     1      -9.398   8.949  67.968  1.00  0.00    -0.142 A  
HETATM    6  N   UNL     1      -8.605  10.058  68.159  1.00  0.00    -0.117 NA 
HETATM    7  N   UNL     1      -8.992   7.590  68.068  1.00  0.00    -0.129 N  
HETATM    8  O   UNL     1      -9.881   6.739  67.969  1.00  0.00    -0.133 OA 
HETATM    9  O   UNL     1      -7.788   7.357  68.226  1.00  0.00    -0.117 OA 
ENDROOT
BRANCH   6  10
HETATM   10  C   UNL     1      -7.209  10.124  68.564  1.00  0.00    -0.080 C  
BRANCH  10  11
HETATM   11  C   UNL     1      -7.020  10.224  70.076  1.00  0.00    -0.151 C  
HETATM   12  O   UNL     1      -6.605  11.533  70.456  1.00  0.00    -0.513 OA 
HETATM   13  H   UNL     1      -6.487  11.595  71.397  1.00  0.00     0.000 HD 
ENDBRANCH  10  11
ENDBRANCH   6  10
TORSDOF 2
ENDMDL
MODEL      170
REMARK 921   NORMALIZED FREE ENERGY PREDICTED BY IDOCK:   -1.91 KCAL/MOL
REMARK 922        TOTAL FREE ENERGY PREDICTED BY IDOCK:   -2.41 KCAL/MOL
REMARK 923 INTER-LIGAND FREE ENERGY PREDICTED BY IDOCK:   -2.27 KCAL/MOL
REMARK 924 INTRA-LIGAND FREE ENERGY PREDICTED BY IDOCK:   -0.14 KCAL/MOL
REMARK 927      BINDING AFFINITY PREDICTED BY RF-SCORE:    0.00 PKD
ROOT
HETATM    1  C   UNL     1      -9.546   4.401  72.020  1.00  0.00    -0.209 C  
HETATM    2  C   UNL     1     -10.166   5.095  70.858  1.00  0.00    -0.229 A  
HETATM    3  N   UNL     1     -11.280   5.797  70.920  1.00  0.00    -0.203 NA 
HETATM    4  C   UNL     1     -11.524   6.241  69.651  1.00  0.00    -0.355 A  
HETATM    5  C   UNL     1     -10.531   5.823  68.803  1.00  0.00    -0.242 A  
HETATM    6  N   UNL     1      -9.656   5.085  69.567  1.00  0.00    -0.150 NA 
HETATM    7  N   UNL     1     -10.420   6.096  67.412  1.00  0.00    -0.212 N  
HETATM    8  O   UNL     1     -11.369   6.686  66.887  1.00  0.00    -0.333 OA 
HETATM    9  O   UNL     1      -9.384   5.745  66.836  1.00  0.00    -0.121 OA 
ENDROOT
BRANCH   6  10
HETATM   10  C   UNL     1      -8.464   4.361  69.148  1.00  0.00    -0.078 C  
BRANCH  10  11
HETATM   11  C   UNL     1      -8.750   2.932  68.694  1.00  0.00    -0.093 C  
HETATM   12  O   UNL     1      -8.648   2.018  69.783  1.00  0.00    -0.046 OA 
HETATM   13  H   UNL     1      -8.826   1.129  69.501  1.00  0.00     0.000 HD 
ENDBRANCH  10  11
ENDBRANCH   6  10
TORSDOF 2
ENDMDL
MODEL      171
REMARK 921   NORMALIZED FREE ENERGY PREDICTED BY IDOCK:   -1.91 KCAL/MOL
REMARK 922        TOTAL FREE ENERGY PREDICTED BY IDOCK:   -2.41 KCAL/MOL
REMARK 923 INTER-LIGAND FREE ENERGY PREDICTED BY IDOCK:   -2.27 KCAL/MOL
REMARK 924 INTRA-LIGAND FREE ENERGY PREDICTED BY IDOCK:   -0.14 KCAL/MOL
REMARK 927      BINDING AFFINITY PREDICTED BY RF-SCORE:    0.00 PKD
ROOT
HETATM    1  C   UNL     1     -11.344   8.091  72.646  1.00  0.00    -0.469 C  
HETATM    2  C   UNL     1      -9.950   7.698  72.988  1.00  0.00    -0.285 A  
HETATM    3  N   UNL     1      -9.004   8.547  73.338  1.00  0.00    -0.258 NA 
HETATM    4  C   UNL     1      -7.876   7.802  73.538  1.00  0.00    -0.146 A  
HETATM    5  C   UNL     1      -8.142   6.473  73.328  1.00  0.00    -0.109 A  
HETATM    6  N   UNL     1      -9.469   6.396  72.972  1.00  0.00    -0.142 NA 
HETATM    7  N   UNL     1      -7.233   5.386  73.454  1.00  0.00    -0.085 N  
HETATM    8  O   UNL     1      -6.054   5.675  73.677  1.00  0.00    -0.056 OA 
HETATM    9  O   UNL     1      -7.686   4.241  73.352  1.00  0.00    -0.082 OA 
ENDROOT
BRANCH   6  10
HETATM   10  C   UNL     1     -10.243   5.227  72.580  1.00  0.00    -0.191 C  
BRANCH  10  11
HETATM   11  C   UNL     1     -11.065   4.634  73.721  1.00  0.00    -0.258 C  
HETATM   12  O   UNL     1     -12.462   4.732  73.452  1.00  0.00    -0.186 OA 
HETATM   13  H   UNL     1     -12.974   4.363  74.162  1.00  0.00     0.000 HD 
ENDBRANCH  10  11
ENDBRANCH   6  10
TORSDOF 2
ENDMDL
MODEL      172
REMARK 921   NORMALIZED FREE ENERGY PREDICTED BY IDOCK:   -1.86 KCAL/MOL
REMARK 922        TOTAL FREE ENERGY PREDICTED BY IDOCK:   -2.36 KCAL/MOL
REMARK 923 INTER-LIGAND FREE ENERGY PREDICTED BY IDOCK:   -2.27 KCAL/MOL
REMARK 924 INTRA-LIGAND FREE ENERGY PREDICTED BY IDOCK:   -0.09 KCAL/MOL
REMARK 927      BINDING AFFINITY PREDICTED BY RF-SCORE:    0.00 PKD
ROOT
HETATM    1  C   UNL     1      -7.495   9.115  69.599  1.00  0.00    -0.078 C  
HETATM    2  C   UNL     1      -7.940   8.020  70.503  1.00  0.00    -0.096 A  
HETATM    3  N   UNL     1      -7.127   7.298  71.250  1.00  0.00    -0.063 NA 
HETATM    4  C   UNL     1      -7.913   6.390  71.903  1.00  0.00    -0.104 A  
HETATM    5  C   UNL     1      -9.230   6.575  71.567  1.00  0.00    -0.144 A  
HETATM    6  N   UNL     1      -9.258   7.616  70.668  1.00  0.00    -0.161 NA 
HETATM    7  N   UNL     1     -10.349   5.842  72.050  1.00  0.00    -0.201 N  
HETATM    8  O   UNL     1     -10.103   4.869  72.770  1.00  0.00    -0.159 OA 
HETATM    9  O   UNL     1     -11.477   6.237  71.735  1.00  0.00    -0.280 OA 
ENDROOT
BRANCH   6  10
HETATM   10  C   UNL     1     -10.395   8.175  69.952  1.00  0.00    -0.214 C  
BRANCH  10  11
HETATM   11  C   UNL     1     -10.890   9.496  70.535  1.00  0.00    -0.292 C  
HETATM   12  O   UNL     1     -12.304   9.618  70.403  1.00  0.00    -0.475 OA 
HETATM   13  H   UNL     1     -12.612  10.440  70.766  1.00  0.00     0.000 HD 
ENDBRANCH  10  11
ENDBRANCH   6  10
TORSDOF 2
ENDMDL
MODEL      173
REMARK 921   NORMALIZED FREE ENERGY PREDICTED BY IDOCK:   -1.84 KCAL/MOL
REMARK 922        TOTAL FREE ENERGY PREDICTED BY IDOCK:   -2.33 KCAL/MOL
REMARK 923 INTER-LIGAND FREE ENERGY PREDICTED BY IDOCK:   -2.36 KCAL/MOL
REMARK 924 INTRA-LIGAND FREE ENERGY PREDICTED BY IDOCK:    0.03 KCAL/MOL
REMARK 927      BINDING AFFINITY PREDICTED BY RF-SCORE:    0.00 PKD
ROOT
HETATM    1  C   UNL     1     -10.883  11.047  69.289  1.00  0.00    -0.285 C  
HETATM    2  C   UNL     1     -10.473  11.040  67.859  1.00  0.00    -0.192 A  
HETATM    3  N   UNL     1     -11.261  11.381  66.858  1.00  0.00    -0.345 NA 
HETATM    4  C   UNL     1     -10.527  11.213  65.718  1.00  0.00    -0.246 A  
HETATM    5  C   UNL     1      -9.263  10.783  66.027  1.00  0.00    -0.187 A  
HETATM    6  N   UNL     1      -9.218  10.665  67.398  1.00  0.00    -0.143 NA 
HETATM    7  N   UNL     1      -8.203  10.511  65.118  1.00  0.00    -0.157 N  
HETATM    8  O   UNL     1      -8.477  10.571  63.916  1.00  0.00    -0.168 OA 
HETATM    9  O   UNL     1      -7.089  10.257  65.590  1.00  0.00    -0.126 OA 
ENDROOT
BRANCH   6  10
HETATM   10  C   UNL     1      -8.131  10.186  68.239  1.00  0.00    -0.102 C  
BRANCH  10  11
HETATM   11  C   UNL     1      -7.099  11.262  68.567  1.00  0.00    -0.083 C  
HETATM   12  O   UNL     1      -7.687  12.328  69.307  1.00  0.00    -0.328 OA 
HETATM   13  H   UNL     1      -7.045  12.998  69.512  1.00  0.00     0.000 HD 
ENDBRANCH  10  11
ENDBRANCH   6  10
TORSDOF 2
ENDMDL
MODEL      174
REMARK 921   NORMALIZED FREE ENERGY PREDICTED BY IDOCK:   -1.83 KCAL/MOL
REMARK 922        TOTAL FREE ENERGY PREDICTED BY IDOCK:   -2.32 KCAL/MOL
REMARK 923 INTER-LIGAND FREE ENERGY PREDICTED BY IDOCK:   -2.15 KCAL/MOL
REMARK 924 INTRA-LIGAND FREE ENERGY PREDICTED BY IDOCK:   -0.17 KCAL/MOL
REMARK 927      BINDING AFFINITY PREDICTED BY RF-SCORE:    0.00 PKD
ROOT
HETATM    1  C   UNL     1     -10.377   9.252  71.001  1.00  0.00    -0.388 C  
HETATM    2  C   UNL     1     -10.200   9.246  69.523  1.00  0.00    -0.207 A  
HETATM    3  N   UNL     1     -10.907   9.980  68.687  1.00  0.00    -0.231 NA 
HETATM    4  C   UNL     1     -10.463   9.667  67.433  1.00  0.00    -0.257 A  
HETATM    5  C   UNL     1      -9.452   8.743  67.505  1.00  0.00    -0.141 A  
HETATM    6  N   UNL     1      -9.277   8.464  68.841  1.00  0.00    -0.147 NA 
HETATM    7  N   UNL     1      -8.725   8.182  66.419  1.00  0.00    -0.140 N  
HETATM    8  O   UNL     1      -9.109   8.480  65.284  1.00  0.00    -0.122 OA 
HETATM    9  O   UNL     1      -7.757   7.460  66.685  1.00  0.00    -0.097 OA 
ENDROOT
BRANCH   6  10
HETATM   10  C   UNL     1      -8.376   7.506  69.464  1.00  0.00    -0.131 C  
BRANCH  10  11
HETATM   11  C   UNL     1      -8.971   6.105  69.588  1.00  0.00    -0.134 C  
HETATM   12  O   UNL     1      -9.176   5.755  70.954  1.00  0.00    -0.153 OA 
HETATM   13  H   UNL     1      -9.546   4.883  71.032  1.00  0.00     0.000 HD 
ENDBRANCH  10  11
ENDBRANCH   6  10
TORSDOF 2
ENDMDL
MODEL      175
REMARK 921   NORMALIZED FREE ENERGY PREDICTED BY IDOCK:   -1.78 KCAL/MOL
REMARK 922        TOTAL FREE ENERGY PREDICTED BY IDOCK:   -2.27 KCAL/MOL
REMARK 923 INTER-LIGAND FREE ENERGY PREDICTED BY IDOCK:   -2.20 KCAL/MOL
REMARK 924 INTRA-LIGAND FREE ENERGY PREDICTED BY IDOCK:   -0.07 KCAL/MOL
REMARK 927      BINDING AFFINITY PREDICTED BY RF-SCORE:    0.00 PKD
ROOT
HETATM    1  C   UNL     1      -5.916  10.529  65.526  1.00  0.00    -0.134 C  
HETATM    2  C   UNL     1      -7.262  10.734  66.128  1.00  0.00    -0.126 A  
HETATM    3  N   UNL     1      -7.698  11.887  66.596  1.00  0.00    -0.049 NA 
HETATM    4  C   UNL     1      -8.953  11.651  67.083  1.00  0.00    -0.173 A  
HETATM    5  C   UNL     1      -9.298  10.338  66.890  1.00  0.00    -0.158 A  
HETATM    6  N   UNL     1      -8.219   9.740  66.281  1.00  0.00    -0.116 NA 
HETATM    7  N   UNL     1     -10.525   9.713  67.245  1.00  0.00    -0.255 N  
HETATM    8  O   UNL     1     -11.329  10.397  67.886  1.00  0.00    -0.324 OA 
HETATM    9  O   UNL     1     -10.709   8.548  66.873  1.00  0.00    -0.265 OA 
ENDROOT
BRANCH   6  10
HETATM   10  C   UNL     1      -8.036   8.344  65.913  1.00  0.00    -0.099 C  
BRANCH  10  11
HETATM   11  C   UNL     1      -8.259   8.073  64.427  1.00  0.00    -0.081 C  
HETATM   12  O   UNL     1      -8.989   9.135  63.817  1.00  0.00    -0.417 OA 
HETATM   13  H   UNL     1      -9.129   8.967  62.893  1.00  0.00     0.000 HD 
ENDBRANCH  10  11
ENDBRANCH   6  10
TORSDOF 2
ENDMDL
MODEL      176
REMARK 921   NORMALIZED FREE ENERGY PREDICTED BY IDOCK:   -1.78 KCAL/MOL
REMARK 922        TOTAL FREE ENERGY PREDICTED BY IDOCK:   -2.27 KCAL/MOL
REMARK 923 INTER-LIGAND FREE ENERGY PREDICTED BY IDOCK:   -2.16 KCAL/MOL
REMARK 924 INTRA-LIGAND FREE ENERGY PREDICTED BY IDOCK:   -0.11 KCAL/MOL
REMARK 927      BINDING AFFINITY PREDICTED BY RF-SCORE:    0.00 PKD
ROOT
HETATM    1  C   UNL     1     -10.566   3.697  63.847  1.00  0.00    -0.285 C  
HETATM    2  C   UNL     1      -9.456   3.370  64.783  1.00  0.00    -0.155 A  
HETATM    3  N   UNL     1      -8.813   2.219  64.798  1.00  0.00    -0.112 NA 
HETATM    4  C   UNL     1      -7.898   2.305  65.811  1.00  0.00    -0.077 A  
HETATM    5  C   UNL     1      -7.969   3.536  66.409  1.00  0.00    -0.088 A  
HETATM    6  N   UNL     1      -8.967   4.226  65.760  1.00  0.00    -0.124 NA 
HETATM    7  N   UNL     1      -7.171   4.013  67.486  1.00  0.00    -0.066 N  
HETATM    8  O   UNL     1      -6.402   3.199  68.006  1.00  0.00    -0.031 OA 
HETATM    9  O   UNL     1      -7.288   5.201  67.809  1.00  0.00    -0.073 OA 
ENDROOT
BRANCH   6  10
HETATM   10  C   UNL     1      -9.491   5.555  66.041  1.00  0.00    -0.130 C  
BRANCH  10  11
HETATM   11  C   UNL     1     -10.572   5.565  67.118  1.00  0.00    -0.240 C  
HETATM   12  O   UNL     1     -11.519   6.605  66.885  1.00  0.00    -0.777 OA 
HETATM   13  H   UNL     1     -12.192   6.612  67.555  1.00  0.00     0.000 HD 
ENDBRANCH  10  11
ENDBRANCH   6  10
TORSDOF 2
ENDMDL
MODEL      177
REMARK 921   NORMALIZED FREE ENERGY PREDICTED BY IDOCK:   -1.78 KCAL/MOL
REMARK 922        TOTAL FREE ENERGY PREDICTED BY IDOCK:   -2.27 KCAL/MOL
REMARK 923 INTER-LIGAND FREE ENERGY PREDICTED BY IDOCK:   -1.89 KCAL/MOL
REMARK 924 INTRA-LIGAND FREE ENERGY PREDICTED BY IDOCK:   -0.37 KCAL/MOL
REMARK 927      BINDING AFFINITY PREDICTED BY RF-SCORE:    0.00 PKD
ROOT
HETATM    1  C   UNL     1      -6.068   5.124  70.458  1.00  0.00    -0.018 C  
HETATM    2  C   UNL     1      -7.441   5.454  69.986  1.00  0.00    -0.069 A  
HETATM    3  N   UNL     1      -7.747   5.746  68.737  1.00  0.00    -0.089 NA 
HETATM    4  C   UNL     1      -9.087   6.012  68.723  1.00  0.00    -0.124 A  
HETATM    5  C   UNL     1      -9.614   5.859  69.980  1.00  0.00    -0.163 A  
HETATM    6  N   UNL     1      -8.566   5.504  70.798  1.00  0.00    -0.125 NA 
HETATM    7  N   UNL     1     -10.971   6.030  70.367  1.00  0.00    -0.317 N  
HETATM    8  O   UNL     1     -11.742   6.461  69.504  1.00  0.00    -0.366 OA 
HETATM    9  O   UNL     1     -11.286   5.720  71.522  1.00  0.00    -0.253 OA 
ENDROOT
BRANCH   6  10
HETATM   10  C   UNL     1      -8.565   5.282  72.237  1.00  0.00    -0.126 C  
BRANCH  10  11
HETATM   11  C   UNL     1      -8.612   3.806  72.623  1.00  0.00    -0.094 C  
HETATM   12  O   UNL     1      -9.919   3.269  72.439  1.00  0.00    -0.147 OA 
HETATM   13  H   UNL     1      -9.949   2.350  72.679  1.00  0.00     0.000 HD 
ENDBRANCH  10  11
ENDBRANCH   6  10
TORSDOF 2
ENDMDL
MODEL      178
REMARK 921   NORMALIZED FREE ENERGY PREDICTED BY IDOCK:   -1.72 KCAL/MOL
REMARK 922        TOTAL FREE ENERGY PREDICTED BY IDOCK:   -2.20 KCAL/MOL
REMARK 923 INTER-LIGAND FREE ENERGY PREDICTED BY IDOCK:   -2.10 KCAL/MOL
REMARK 924 INTRA-LIGAND FREE ENERGY PREDICTED BY IDOCK:   -0.10 KCAL/MOL
REMARK 927      BINDING AFFINITY PREDICTED BY RF-SCORE:    0.00 PKD
ROOT
HETATM    1  C   UNL     1      -6.345   9.485  66.488  1.00  0.00    -0.066 C  
HETATM    2  C   UNL     1      -7.472   8.540  66.715  1.00  0.00    -0.083 A  
HETATM    3  N   UNL     1      -7.697   7.464  65.986  1.00  0.00    -0.091 NA 
HETATM    4  C   UNL     1      -8.829   6.889  66.492  1.00  0.00    -0.140 A  
HETATM    5  C   UNL     1      -9.290   7.612  67.562  1.00  0.00    -0.139 A  
HETATM    6  N   UNL     1      -8.429   8.674  67.712  1.00  0.00    -0.125 NA 
HETATM    7  N   UNL     1     -10.430   7.325  68.363  1.00  0.00    -0.199 N  
HETATM    8  O   UNL     1     -11.140   6.383  67.997  1.00  0.00    -0.317 OA 
HETATM    9  O   UNL     1     -10.617   8.018  69.370  1.00  0.00    -0.229 OA 
ENDROOT
BRANCH   6  10
HETATM   10  C   UNL     1      -8.496   9.779  68.657  1.00  0.00    -0.116 C  
BRANCH  10  11
HETATM   11  C   UNL     1      -7.647   9.562  69.906  1.00  0.00    -0.123 C  
HETATM   12  O   UNL     1      -7.092  10.790  70.370  1.00  0.00    -0.473 OA 
HETATM   13  H   UNL     1      -6.563  10.655  71.147  1.00  0.00     0.000 HD 
ENDBRANCH  10  11
ENDBRANCH   6  10
TORSDOF 2
ENDMDL
MODEL      179
REMARK 921   NORMALIZED FREE ENERGY PREDICTED BY IDOCK:   -1.69 KCAL/MOL
REMARK 922        TOTAL FREE ENERGY PREDICTED BY IDOCK:   -2.17 KCAL/MOL
REMARK 923 INTER-LIGAND FREE ENERGY PREDICTED BY IDOCK:   -1.98 KCAL/MOL
REMARK 924 INTRA-LIGAND FREE ENERGY PREDICTED BY IDOCK:   -0.19 KCAL/MOL
REMARK 927      BINDING AFFINITY PREDICTED BY RF-SCORE:    0.00 PKD
ROOT
HETATM    1  C   UNL     1      -7.057  20.351  70.513  1.00  0.00     0.754 C  
HETATM    2  C   UNL     1      -6.492  19.395  69.522  1.00  0.00    -0.320 A  
HETATM    3  N   UNL     1      -5.328  18.789  69.656  1.00  0.00    -0.192 NA 
HETATM    4  C   UNL     1      -5.163  18.027  68.533  1.00  0.00    -0.155 A  
HETATM    5  C   UNL     1      -6.252  18.152  67.711  1.00  0.00    -0.176 A  
HETATM    6  N   UNL     1      -7.110  19.029  68.334  1.00  0.00    -0.263 NA 
HETATM    7  N   UNL     1      -6.462  17.505  66.462  1.00  0.00    -0.210 N  
HETATM    8  O   UNL     1      -5.522  16.838  66.019  1.00  0.00    -0.128 OA 
HETATM    9  O   UNL     1      -7.567  17.637  65.921  1.00  0.00    -0.487 OA 
ENDROOT
BRANCH   6  10
HETATM   10  C   UNL     1      -8.382  19.555  67.861  1.00  0.00    -0.315 C  
BRANCH  10  11
HETATM   11  C   UNL     1      -8.239  20.810  67.004  1.00  0.00    -0.109 C  
HETATM   12  O   UNL     1      -8.977  20.688  65.791  1.00  0.00    -0.378 OA 
HETATM   13  H   UNL     1      -8.888  21.469  65.256  1.00  0.00     0.000 HD 
ENDBRANCH  10  11
ENDBRANCH   6  10
TORSDOF 2
ENDMDL
MODEL      180
REMARK 921   NORMALIZED FREE ENERGY PREDICTED BY IDOCK:   -1.64 KCAL/MOL
REMARK 922        TOTAL FREE ENERGY PREDICTED BY IDOCK:   -2.11 KCAL/MOL
REMARK 923 INTER-LIGAND FREE ENERGY PREDICTED BY IDOCK:   -2.01 KCAL/MOL
REMARK 924 INTRA-LIGAND FREE ENERGY PREDICTED BY IDOCK:   -0.10 KCAL/MOL
REMARK 927      BINDING AFFINITY PREDICTED BY RF-SCORE:    0.00 PKD
ROOT
HETATM    1  C   UNL     1      -7.195   4.578  67.994  1.00  0.00    -0.065 C  
HETATM    2  C   UNL     1      -7.850   4.054  66.764  1.00  0.00    -0.093 A  
HETATM    3  N   UNL     1      -7.295   3.189  65.939  1.00  0.00    -0.071 NA 
HETATM    4  C   UNL     1      -8.197   2.988  64.932  1.00  0.00    -0.087 A  
HETATM    5  C   UNL     1      -9.331   3.726  65.157  1.00  0.00    -0.157 A  
HETATM    6  N   UNL     1      -9.117   4.416  66.328  1.00  0.00    -0.120 NA 
HETATM    7  N   UNL     1     -10.499   3.772  64.347  1.00  0.00    -0.237 N  
HETATM    8  O   UNL     1     -10.451   3.163  63.274  1.00  0.00    -0.176 OA 
HETATM    9  O   UNL     1     -11.476   4.395  64.778  1.00  0.00    -0.211 OA 
ENDROOT
BRANCH   6  10
HETATM   10  C   UNL     1      -9.978   5.390  66.985  1.00  0.00    -0.179 C  
BRANCH  10  11
HETATM   11  C   UNL     1      -9.609   6.836  66.667  1.00  0.00    -0.163 C  
HETATM   12  O   UNL     1     -10.750   7.686  66.753  1.00  0.00    -0.447 OA 
HETATM   13  H   UNL     1     -10.522   8.587  66.555  1.00  0.00     0.000 HD 
ENDBRANCH  10  11
ENDBRANCH   6  10
TORSDOF 2
ENDMDL
MODEL      181
REMARK 921   NORMALIZED FREE ENERGY PREDICTED BY IDOCK:   -1.61 KCAL/MOL
REMARK 922        TOTAL FREE ENERGY PREDICTED BY IDOCK:   -2.07 KCAL/MOL
REMARK 923 INTER-LIGAND FREE ENERGY PREDICTED BY IDOCK:   -1.92 KCAL/MOL
REMARK 924 INTRA-LIGAND FREE ENERGY PREDICTED BY IDOCK:   -0.16 KCAL/MOL
REMARK 927      BINDING AFFINITY PREDICTED BY RF-SCORE:    0.00 PKD
ROOT
HETATM    1  C   UNL     1      -8.119   7.912  65.493  1.00  0.00    -0.130 C  
HETATM    2  C   UNL     1      -7.958   6.442  65.319  1.00  0.00    -0.114 A  
HETATM    3  N   UNL     1      -7.301   5.880  64.324  1.00  0.00    -0.063 NA 
HETATM    4  C   UNL     1      -7.409   4.530  64.509  1.00  0.00    -0.070 A  
HETATM    5  C   UNL     1      -8.125   4.263  65.647  1.00  0.00    -0.105 A  
HETATM    6  N   UNL     1      -8.485   5.483  66.173  1.00  0.00    -0.118 NA 
HETATM    7  N   UNL     1      -8.436   2.983  66.184  1.00  0.00    -0.102 N  
HETATM    8  O   UNL     1      -8.116   2.005  65.502  1.00  0.00    -0.077 OA 
HETATM    9  O   UNL     1      -8.980   2.939  67.293  1.00  0.00    -0.134 OA 
ENDROOT
BRANCH   6  10
HETATM   10  C   UNL     1      -9.305   5.768  67.342  1.00  0.00    -0.112 C  
BRANCH  10  11
HETATM   11  C   UNL     1     -10.798   5.842  67.031  1.00  0.00    -0.295 C  
HETATM   12  O   UNL     1     -11.347   7.088  67.451  1.00  0.00    -0.597 OA 
HETATM   13  H   UNL     1     -12.277   7.135  67.258  1.00  0.00     0.000 HD 
ENDBRANCH  10  11
ENDBRANCH   6  10
TORSDOF 2
ENDMDL
MODEL      182
REMARK 921   NORMALIZED FREE ENERGY PREDICTED BY IDOCK:   -1.17 KCAL/MOL
REMARK 922        TOTAL FREE ENERGY PREDICTED BY IDOCK:   -1.58 KCAL/MOL
REMARK 923 INTER-LIGAND FREE ENERGY PREDICTED BY IDOCK:   -1.70 KCAL/MOL
REMARK 924 INTRA-LIGAND FREE ENERGY PREDICTED BY IDOCK:    0.12 KCAL/MOL
REMARK 927      BINDING AFFINITY PREDICTED BY RF-SCORE:    0.00 PKD
ROOT
HETATM    1  C   UNL     1     -10.587  10.613  65.185  1.00  0.00    -0.190 C  
HETATM    2  C   UNL     1      -9.507  11.206  66.020  1.00  0.00    -0.208 A  
HETATM    3  N   UNL     1      -8.224  10.939  65.874  1.00  0.00    -0.156 NA 
HETATM    4  C   UNL     1      -7.572  11.653  66.840  1.00  0.00    -0.138 A  
HETATM    5  C   UNL     1      -8.468  12.386  67.574  1.00  0.00    -0.175 A  
HETATM    6  N   UNL     1      -9.713  12.105  67.058  1.00  0.00    -0.199 NA 
HETATM    7  N   UNL     1      -8.177  13.266  68.653  1.00  0.00    -0.074 N  
HETATM    8  O   UNL     1      -7.005  13.298  69.038  1.00  0.00    -0.107 OA 
HETATM    9  O   UNL     1      -9.104  13.945  69.111  1.00  0.00     0.135 OA 
ENDROOT
BRANCH   6  10
HETATM   10  C   UNL     1     -11.016  12.569  67.511  1.00  0.00    -0.251 C  
BRANCH  10  11
HETATM   11  C   UNL     1     -11.439  11.976  68.852  1.00  0.00    -0.301 C  
HETATM   12  O   UNL     1     -12.435  12.781  69.478  1.00  0.00    -0.035 OA 
HETATM   13  H   UNL     1     -12.698  12.413  70.313  1.00  0.00     0.000 HD 
ENDBRANCH  10  11
ENDBRANCH   6  10
TORSDOF 2
ENDMDL
MODEL      183
REMARK 921   NORMALIZED FREE ENERGY PREDICTED BY IDOCK:   -0.86 KCAL/MOL
REMARK 922        TOTAL FREE ENERGY PREDICTED BY IDOCK:   -1.24 KCAL/MOL
REMARK 923 INTER-LIGAND FREE ENERGY PREDICTED BY IDOCK:   -1.32 KCAL/MOL
REMARK 924 INTRA-LIGAND FREE ENERGY PREDICTED BY IDOCK:    0.08 KCAL/MOL
REMARK 927      BINDING AFFINITY PREDICTED BY RF-SCORE:    0.00 PKD
ROOT
HETATM    1  C   UNL     1      -7.738  10.658  69.367  1.00  0.00    -0.132 C  
HETATM    2  C   UNL     1      -7.408   9.586  68.388  1.00  0.00    -0.076 A  
HETATM    3  N   UNL     1      -6.790   8.463  68.696  1.00  0.00    -0.062 NA 
HETATM    4  C   UNL     1      -6.652   7.769  67.527  1.00  0.00    -0.063 A  
HETATM    5  C   UNL     1      -7.213   8.469  66.491  1.00  0.00    -0.080 A  
HETATM    6  N   UNL     1      -7.699   9.638  67.031  1.00  0.00    -0.095 NA 
HETATM    7  N   UNL     1      -7.285   8.073  65.127  1.00  0.00    -0.063 N  
HETATM    8  O   UNL     1      -6.691   7.034  64.822  1.00  0.00    -0.044 OA 
HETATM    9  O   UNL     1      -7.947   8.775  64.355  1.00  0.00    -0.127 OA 
ENDROOT
BRANCH   6  10
HETATM   10  C   UNL     1      -8.333  10.763  66.358  1.00  0.00    -0.153 C  
BRANCH  10  11
HETATM   11  C   UNL     1      -9.858  10.705  66.386  1.00  0.00    -0.211 C  
HETATM   12  O   UNL     1     -10.317   9.749  67.338  1.00  0.00    -0.208 OA 
HETATM   13  H   UNL     1     -11.267   9.713  67.356  1.00  0.00     0.000 HD 
ENDBRANCH  10  11
ENDBRANCH   6  10
TORSDOF 2
ENDMDL
MODEL      184
REMARK 921   NORMALIZED FREE ENERGY PREDICTED BY IDOCK:   -0.20 KCAL/MOL
REMARK 922        TOTAL FREE ENERGY PREDICTED BY IDOCK:   -0.50 KCAL/MOL
REMARK 923 INTER-LIGAND FREE ENERGY PREDICTED BY IDOCK:   -1.54 KCAL/MOL
REMARK 924 INTRA-LIGAND FREE ENERGY PREDICTED BY IDOCK:    1.04 KCAL/MOL
REMARK 927      BINDING AFFINITY PREDICTED BY RF-SCORE:    0.00 PKD
ROOT
HETATM    1  C   UNL     1     -11.333  15.908  70.941  1.00  0.00    -0.428 C  
HETATM    2  C   UNL     1     -10.853  16.989  70.037  1.00  0.00     0.253 A  
HETATM    3  N   UNL     1     -10.545  18.208  70.435  1.00  0.00     1.392 NA 
HETATM    4  C   UNL     1     -10.180  18.896  69.312  1.00  0.00     0.087 A  
HETATM    5  C   UNL     1     -10.244  18.079  68.213  1.00  0.00    -0.395 A  
HETATM    6  N   UNL     1     -10.677  16.854  68.667  1.00  0.00    -0.348 NA 
HETATM    7  N   UNL     1      -9.926  18.421  66.870  1.00  0.00    -0.333 N  
HETATM    8  O   UNL     1      -9.661  19.607  66.650  1.00  0.00    -0.331 OA 
HETATM    9  O   UNL     1      -9.917  17.514  66.030  1.00  0.00    -0.459 OA 
ENDROOT
BRANCH   6  10
HETATM   10  C   UNL     1     -10.974  15.650  67.904  1.00  0.00    -0.319 C  
BRANCH  10  11
HETATM   11  C   UNL     1     -11.815  14.636  68.675  1.00  0.00    -0.311 C  
HETATM   12  O   UNL     1     -12.141  13.514  67.859  1.00  0.00    -0.346 OA 
HETATM   13  H   UNL     1     -12.665  12.882  68.338  1.00  0.00     0.000 HD 
ENDBRANCH  10  11
ENDBRANCH   6  10
TORSDOF 2
ENDMDL
MODEL      185
REMARK 921   NORMALIZED FREE ENERGY PREDICTED BY IDOCK:    1.15 KCAL/MOL
REMARK 922        TOTAL FREE ENERGY PREDICTED BY IDOCK:    1.01 KCAL/MOL
REMARK 923 INTER-LIGAND FREE ENERGY PREDICTED BY IDOCK:    0.95 KCAL/MOL
REMARK 924 INTRA-LIGAND FREE ENERGY PREDICTED BY IDOCK:    0.06 KCAL/MOL
REMARK 927      BINDING AFFINITY PREDICTED BY RF-SCORE:    0.00 PKD
ROOT
HETATM    1  C   UNL     1     -11.069  17.389  67.443  1.00  0.00     0.093 C  
HETATM    2  C   UNL     1     -11.152  15.940  67.114  1.00  0.00    -0.148 A  
HETATM    3  N   UNL     1     -11.830  15.056  67.819  1.00  0.00    -0.287 NA 
HETATM    4  C   UNL     1     -11.631  13.848  67.211  1.00  0.00    -0.365 A  
HETATM    5  C   UNL     1     -10.837  13.999  66.104  1.00  0.00    -0.291 A  
HETATM    6  N   UNL     1     -10.521  15.337  66.034  1.00  0.00    -0.300 NA 
HETATM    7  N   UNL     1     -10.419  12.982  65.203  1.00  0.00    -0.310 N  
HETATM    8  O   UNL     1     -10.719  11.822  65.501  1.00  0.00    -0.265 OA 
HETATM    9  O   UNL     1      -9.811  13.327  64.184  1.00  0.00    -0.202 OA 
ENDROOT
BRANCH   6  10
HETATM   10  C   UNL     1      -9.653  16.023  65.088  1.00  0.00     0.563 C  
BRANCH  10  11
HETATM   11  C   UNL     1      -8.167  15.824  65.374  1.00  0.00     2.778 C  
HETATM   12  O   UNL     1      -7.961  15.318  66.690  1.00  0.00    -0.320 OA 
HETATM   13  H   UNL     1      -7.036  15.194  66.868  1.00  0.00     0.000 HD 
ENDBRANCH  10  11
ENDBRANCH   6  10
TORSDOF 2
ENDMDL
