MODEL        1
REMARK 921   NORMALIZED FREE ENERGY PREDICTED BY IDOCK:   -5.75 KCAL/MOL
REMARK 922        TOTAL FREE ENERGY PREDICTED BY IDOCK:   -6.92 KCAL/MOL
REMARK 923 INTER-LIGAND FREE ENERGY PREDICTED BY IDOCK:   -6.43 KCAL/MOL
REMARK 924 INTRA-LIGAND FREE ENERGY PREDICTED BY IDOCK:   -0.49 KCAL/MOL
REMARK 927      BINDING AFFINITY PREDICTED BY RF-SCORE:    0.00 PKD
ROOT
HETATM    1  C   UNL     1      -8.892  14.298  67.873  1.00  0.00    -0.179 C  
HETATM    2  N   UNL     1     -10.296  13.940  67.647  1.00  0.00    -0.240 N  
HETATM    3  C   UNL     1     -10.946  14.541  66.570  1.00  0.00    -0.321 C  
HETATM    4  C   UNL     1     -12.386  14.191  66.257  1.00  0.00    -0.451 C  
HETATM    5  O   UNL     1     -10.372  15.342  65.820  1.00  0.00    -0.310 OA 
ENDROOT
BRANCH   2   6
HETATM    6  C   UNL     1     -10.906  13.080  68.624  1.00  0.00    -0.259 A  
HETATM    7  C   UNL     1     -11.574  13.599  69.759  1.00  0.00    -0.254 A  
HETATM    8  C   UNL     1     -12.319  12.755  70.626  1.00  0.00    -0.381 A  
HETATM    9  I   UNL     1     -11.200  15.643  70.369  1.00  0.00    -0.448 I  
HETATM   10  C   UNL     1     -13.339  13.376  71.507  1.00  0.00    -0.265 C  
HETATM   11  C   UNL     1     -12.196  11.358  70.489  1.00  0.00    -0.386 A  
HETATM   12  C   UNL     1     -11.367  10.809  69.488  1.00  0.00    -0.289 A  
HETATM   13  I   UNL     1     -13.245   9.990  71.770  1.00  0.00    -0.398 I  
HETATM   14  O   UNL     1     -13.328  12.983  72.793  1.00  0.00    -0.438 OA 
HETATM   15  O   UNL     1     -14.120  14.218  71.082  1.00  0.00    -0.242 OA 
HETATM   16  C   UNL     1     -10.842  11.667  68.493  1.00  0.00    -0.219 A  
HETATM   17  I   UNL     1     -10.451  10.776  66.553  1.00  0.00    -0.205 I  
BRANCH  12  18
HETATM   18  N   UNL     1     -11.213   9.405  69.428  1.00  0.00    -0.436 N  
HETATM   19  C   UNL     1     -10.192   8.640  69.929  1.00  0.00    -0.203 C  
HETATM   20  H   UNL     1     -11.958   8.896  68.952  1.00  0.00     0.000 HD 
HETATM   21  C   UNL     1      -8.949   9.261  70.513  1.00  0.00    -0.296 C  
HETATM   22  O   UNL     1     -10.339   7.417  69.943  1.00  0.00    -0.207 OA 
ENDBRANCH  12  18
ENDBRANCH   2   6
TORSDOF 2
ENDMDL
MODEL        2
REMARK 921   NORMALIZED FREE ENERGY PREDICTED BY IDOCK:   -5.35 KCAL/MOL
REMARK 922        TOTAL FREE ENERGY PREDICTED BY IDOCK:   -6.47 KCAL/MOL
REMARK 923 INTER-LIGAND FREE ENERGY PREDICTED BY IDOCK:   -5.94 KCAL/MOL
REMARK 924 INTRA-LIGAND FREE ENERGY PREDICTED BY IDOCK:   -0.53 KCAL/MOL
REMARK 927      BINDING AFFINITY PREDICTED BY RF-SCORE:    0.00 PKD
ROOT
HETATM    1  C   UNL     1     -12.900  14.035  65.514  1.00  0.00    -0.419 C  
HETATM    2  N   UNL     1     -11.514  13.852  65.958  1.00  0.00    -0.331 N  
HETATM    3  C   UNL     1     -10.619  14.894  65.715  1.00  0.00    -0.331 C  
HETATM    4  C   UNL     1      -9.181  14.787  66.178  1.00  0.00    -0.237 C  
HETATM    5  O   UNL     1     -10.968  15.942  65.156  1.00  0.00    -0.398 OA 
ENDROOT
BRANCH   2   6
HETATM    6  C   UNL     1     -11.179  12.567  66.508  1.00  0.00    -0.307 A  
HETATM    7  C   UNL     1     -11.360  12.274  67.882  1.00  0.00    -0.298 A  
HETATM    8  C   UNL     1     -11.189  10.955  68.383  1.00  0.00    -0.347 A  
HETATM    9  I   UNL     1     -11.582  13.901  69.293  1.00  0.00    -0.390 I  
HETATM   10  C   UNL     1     -11.807  10.615  69.688  1.00  0.00    -0.286 C  
HETATM   11  C   UNL     1     -10.606   9.980  67.551  1.00  0.00    -0.280 A  
HETATM   12  C   UNL     1     -10.224  10.303  66.232  1.00  0.00    -0.221 A  
HETATM   13  I   UNL     1     -10.267   7.967  68.219  1.00  0.00    -0.206 I  
HETATM   14  O   UNL     1     -11.023   9.957  70.561  1.00  0.00    -0.281 OA 
HETATM   15  O   UNL     1     -12.956  10.945  69.955  1.00  0.00    -0.150 OA 
HETATM   16  C   UNL     1     -10.633  11.543  65.688  1.00  0.00    -0.274 A  
HETATM   17  I   UNL     1     -10.910  11.615  63.538  1.00  0.00    -0.337 I  
BRANCH  12  18
HETATM   18  N   UNL     1      -9.576   9.317  65.452  1.00  0.00    -0.439 N  
HETATM   19  C   UNL     1      -8.248   9.227  65.127  1.00  0.00    -0.141 C  
HETATM   20  H   UNL     1     -10.175   8.577  65.084  1.00  0.00     0.000 HD 
HETATM   21  C   UNL     1      -7.274  10.328  65.462  1.00  0.00    -0.149 C  
HETATM   22  O   UNL     1      -7.850   8.188  64.599  1.00  0.00    -0.120 OA 
ENDBRANCH  12  18
ENDBRANCH   2   6
TORSDOF 2
ENDMDL
MODEL        3
REMARK 921   NORMALIZED FREE ENERGY PREDICTED BY IDOCK:   -5.14 KCAL/MOL
REMARK 922        TOTAL FREE ENERGY PREDICTED BY IDOCK:   -6.23 KCAL/MOL
REMARK 923 INTER-LIGAND FREE ENERGY PREDICTED BY IDOCK:   -5.75 KCAL/MOL
REMARK 924 INTRA-LIGAND FREE ENERGY PREDICTED BY IDOCK:   -0.48 KCAL/MOL
REMARK 927      BINDING AFFINITY PREDICTED BY RF-SCORE:    0.00 PKD
ROOT
HETATM    1  C   UNL     1      -8.631  15.340  69.577  1.00  0.00    -0.184 C  
HETATM    2  N   UNL     1      -8.362  15.607  68.161  1.00  0.00    -0.144 N  
HETATM    3  C   UNL     1      -7.425  16.596  67.860  1.00  0.00    -0.159 C  
HETATM    4  C   UNL     1      -7.074  16.899  66.418  1.00  0.00    -0.241 C  
HETATM    5  O   UNL     1      -6.830  17.227  68.743  1.00  0.00    -0.197 OA 
ENDROOT
BRANCH   2   6
HETATM    6  C   UNL     1      -9.171  14.896  67.208  1.00  0.00    -0.204 A  
HETATM    7  C   UNL     1     -10.220  15.532  66.500  1.00  0.00    -0.283 A  
HETATM    8  C   UNL     1     -10.900  14.873  65.441  1.00  0.00    -0.379 A  
HETATM    9  I   UNL     1     -11.018  17.404  67.241  1.00  0.00     0.495 I  
HETATM   10  C   UNL     1     -11.649  15.701  64.464  1.00  0.00    -0.262 C  
HETATM   11  C   UNL     1     -10.689  13.493  65.250  1.00  0.00    -0.323 A  
HETATM   12  C   UNL     1      -9.795  12.786  66.082  1.00  0.00    -0.267 A  
HETATM   13  I   UNL     1     -11.693  12.389  63.705  1.00  0.00    -0.654 I  
HETATM   14  O   UNL     1     -12.891  15.283  64.164  1.00  0.00    -0.559 OA 
HETATM   15  O   UNL     1     -11.165  16.721  63.989  1.00  0.00    -1.089 OA 
HETATM   16  C   UNL     1      -8.956  13.515  66.956  1.00  0.00    -0.231 A  
HETATM   17  I   UNL     1      -7.046  12.610  67.446  1.00  0.00     0.023 I  
BRANCH  12  18
HETATM   18  N   UNL     1      -9.666  11.389  65.906  1.00  0.00    -0.218 N  
HETATM   19  C   UNL     1     -10.244  10.383  66.635  1.00  0.00    -0.234 C  
HETATM   20  H   UNL     1      -9.065  11.092  65.137  1.00  0.00     0.000 HD 
HETATM   21  C   UNL     1     -11.024  10.664  67.894  1.00  0.00    -0.351 C  
HETATM   22  O   UNL     1     -10.160   9.232  66.202  1.00  0.00    -0.288 OA 
ENDBRANCH  12  18
ENDBRANCH   2   6
TORSDOF 2
ENDMDL
MODEL        4
REMARK 921   NORMALIZED FREE ENERGY PREDICTED BY IDOCK:   -4.97 KCAL/MOL
REMARK 922        TOTAL FREE ENERGY PREDICTED BY IDOCK:   -6.04 KCAL/MOL
REMARK 923 INTER-LIGAND FREE ENERGY PREDICTED BY IDOCK:   -5.73 KCAL/MOL
REMARK 924 INTRA-LIGAND FREE ENERGY PREDICTED BY IDOCK:   -0.31 KCAL/MOL
REMARK 927      BINDING AFFINITY PREDICTED BY RF-SCORE:    0.00 PKD
ROOT
HETATM    1  C   UNL     1     -10.166  14.690  65.158  1.00  0.00    -0.382 C  
HETATM    2  N   UNL     1     -10.977  13.471  65.087  1.00  0.00    -0.308 N  
HETATM    3  C   UNL     1     -12.149  13.522  64.332  1.00  0.00    -0.420 C  
HETATM    4  C   UNL     1     -13.017  12.290  64.187  1.00  0.00    -0.276 C  
HETATM    5  O   UNL     1     -12.499  14.548  63.733  1.00  0.00    -0.809 OA 
ENDROOT
BRANCH   2   6
HETATM    6  C   UNL     1     -10.544  12.362  65.893  1.00  0.00    -0.258 A  
HETATM    7  C   UNL     1     -10.932  12.231  67.249  1.00  0.00    -0.256 A  
HETATM    8  C   UNL     1     -10.644  11.051  67.987  1.00  0.00    -0.241 A  
HETATM    9  I   UNL     1     -11.686  13.962  68.310  1.00  0.00    -0.374 I  
HETATM   10  C   UNL     1     -11.434  10.780  69.213  1.00  0.00    -0.298 C  
HETATM   11  C   UNL     1      -9.759  10.103  67.438  1.00  0.00    -0.161 A  
HETATM   12  C   UNL     1      -9.192  10.310  66.163  1.00  0.00    -0.158 A  
HETATM   13  I   UNL     1      -9.224   8.304  68.483  1.00  0.00    -0.140 I  
HETATM   14  O   UNL     1     -10.732  10.411  70.300  1.00  0.00    -0.282 OA 
HETATM   15  O   UNL     1     -12.650  10.915  69.231  1.00  0.00    -0.356 OA 
HETATM   16  C   UNL     1      -9.690  11.362  65.358  1.00  0.00    -0.230 A  
HETATM   17  I   UNL     1      -9.561  11.084  63.210  1.00  0.00    -0.409 I  
BRANCH  12  18
HETATM   18  N   UNL     1      -8.253   9.371  65.677  1.00  0.00    -0.117 N  
HETATM   19  C   UNL     1      -6.885   9.433  65.726  1.00  0.00    -0.085 C  
HETATM   20  H   UNL     1      -8.645   8.540  65.232  1.00  0.00     0.000 HD 
HETATM   21  C   UNL     1      -6.165  10.668  66.204  1.00  0.00    -0.125 C  
HETATM   22  O   UNL     1      -6.248   8.424  65.420  1.00  0.00    -0.045 OA 
ENDBRANCH  12  18
ENDBRANCH   2   6
TORSDOF 2
ENDMDL
MODEL        5
REMARK 921   NORMALIZED FREE ENERGY PREDICTED BY IDOCK:   -4.96 KCAL/MOL
REMARK 922        TOTAL FREE ENERGY PREDICTED BY IDOCK:   -6.04 KCAL/MOL
REMARK 923 INTER-LIGAND FREE ENERGY PREDICTED BY IDOCK:   -5.46 KCAL/MOL
REMARK 924 INTRA-LIGAND FREE ENERGY PREDICTED BY IDOCK:   -0.58 KCAL/MOL
REMARK 927      BINDING AFFINITY PREDICTED BY RF-SCORE:    0.00 PKD
ROOT
HETATM    1  C   UNL     1      -7.123  10.137  65.036  1.00  0.00    -0.135 C  
HETATM    2  N   UNL     1      -8.385  10.067  65.779  1.00  0.00    -0.128 N  
HETATM    3  C   UNL     1      -8.965   8.809  65.942  1.00  0.00    -0.195 C  
HETATM    4  C   UNL     1     -10.251   8.659  66.728  1.00  0.00    -0.361 C  
HETATM    5  O   UNL     1      -8.442   7.782  65.491  1.00  0.00    -0.142 OA 
ENDROOT
BRANCH   2   6
HETATM    6  C   UNL     1      -8.966  11.319  66.178  1.00  0.00    -0.202 A  
HETATM    7  C   UNL     1      -9.967  11.957  65.405  1.00  0.00    -0.252 A  
HETATM    8  C   UNL     1     -10.656  13.101  65.889  1.00  0.00    -0.290 A  
HETATM    9  I   UNL     1     -10.232  11.385  63.333  1.00  0.00    -0.396 I  
HETATM   10  C   UNL     1     -11.959  13.450  65.272  1.00  0.00    -0.380 C  
HETATM   11  C   UNL     1     -10.176  13.747  67.046  1.00  0.00    -0.254 A  
HETATM   12  C   UNL     1      -9.045  13.246  67.725  1.00  0.00    -0.202 A  
HETATM   13  I   UNL     1     -11.117  15.505  67.843  1.00  0.00    -0.252 I  
HETATM   14  O   UNL     1     -12.131  14.744  64.944  1.00  0.00    -0.384 OA 
HETATM   15  O   UNL     1     -12.809  12.597  65.051  1.00  0.00    -0.765 OA 
HETATM   16  C   UNL     1      -8.540  11.976  67.363  1.00  0.00    -0.171 A  
HETATM   17  I   UNL     1      -7.541  10.849  68.925  1.00  0.00    -0.107 I  
BRANCH  12  18
HETATM   18  N   UNL     1      -8.551  13.963  68.839  1.00  0.00    -0.364 N  
HETATM   19  C   UNL     1      -7.512  14.856  68.882  1.00  0.00    -0.137 C  
HETATM   20  H   UNL     1      -9.028  13.794  69.725  1.00  0.00     0.000 HD 
HETATM   21  C   UNL     1      -6.614  15.085  67.694  1.00  0.00    -0.193 C  
HETATM   22  O   UNL     1      -7.361  15.520  69.910  1.00  0.00    -0.147 OA 
ENDBRANCH  12  18
ENDBRANCH   2   6
TORSDOF 2
ENDMDL
MODEL        6
REMARK 921   NORMALIZED FREE ENERGY PREDICTED BY IDOCK:   -4.89 KCAL/MOL
REMARK 922        TOTAL FREE ENERGY PREDICTED BY IDOCK:   -5.95 KCAL/MOL
REMARK 923 INTER-LIGAND FREE ENERGY PREDICTED BY IDOCK:   -5.45 KCAL/MOL
REMARK 924 INTRA-LIGAND FREE ENERGY PREDICTED BY IDOCK:   -0.50 KCAL/MOL
REMARK 927      BINDING AFFINITY PREDICTED BY RF-SCORE:    0.00 PKD
ROOT
HETATM    1  C   UNL     1      -7.440  10.114  66.805  1.00  0.00    -0.104 C  
HETATM    2  N   UNL     1      -8.850  10.400  66.521  1.00  0.00    -0.137 N  
HETATM    3  C   UNL     1      -9.205  10.622  65.191  1.00  0.00    -0.207 C  
HETATM    4  C   UNL     1     -10.649  10.889  64.822  1.00  0.00    -0.316 C  
HETATM    5  O   UNL     1      -8.375  10.576  64.274  1.00  0.00    -0.160 OA 
ENDROOT
BRANCH   2   6
HETATM    6  C   UNL     1      -9.721  10.531  67.657  1.00  0.00    -0.165 A  
HETATM    7  C   UNL     1     -10.140  11.798  68.132  1.00  0.00    -0.192 A  
HETATM    8  C   UNL     1     -11.132  11.915  69.143  1.00  0.00    -0.285 A  
HETATM    9  I   UNL     1      -9.037  13.568  67.550  1.00  0.00    -0.254 I  
HETATM   10  C   UNL     1     -11.843  13.209  69.283  1.00  0.00    -0.323 C  
HETATM   11  C   UNL     1     -11.530  10.760  69.845  1.00  0.00    -0.321 A  
HETATM   12  C   UNL     1     -10.971   9.504  69.527  1.00  0.00    -0.195 A  
HETATM   13  I   UNL     1     -12.992  10.828  71.416  1.00  0.00    -0.326 I  
HETATM   14  O   UNL     1     -11.962  13.687  70.534  1.00  0.00    -0.322 OA 
HETATM   15  O   UNL     1     -12.267  13.813  68.305  1.00  0.00    -0.335 OA 
HETATM   16  C   UNL     1     -10.180   9.385  68.360  1.00  0.00    -0.197 A  
HETATM   17  I   UNL     1     -10.165   7.444  67.393  1.00  0.00    -0.393 I  
BRANCH  12  18
HETATM   18  N   UNL     1     -11.342   8.381  70.301  1.00  0.00    -0.427 N  
HETATM   19  C   UNL     1     -10.734   7.884  71.425  1.00  0.00    -0.224 C  
HETATM   20  H   UNL     1     -12.169   7.875  69.983  1.00  0.00     0.000 HD 
HETATM   21  C   UNL     1      -9.416   8.426  71.917  1.00  0.00    -0.323 C  
HETATM   22  O   UNL     1     -11.323   7.011  72.064  1.00  0.00    -0.249 OA 
ENDBRANCH  12  18
ENDBRANCH   2   6
TORSDOF 2
ENDMDL
MODEL        7
REMARK 921   NORMALIZED FREE ENERGY PREDICTED BY IDOCK:   -4.85 KCAL/MOL
REMARK 922        TOTAL FREE ENERGY PREDICTED BY IDOCK:   -5.92 KCAL/MOL
REMARK 923 INTER-LIGAND FREE ENERGY PREDICTED BY IDOCK:   -5.39 KCAL/MOL
REMARK 924 INTRA-LIGAND FREE ENERGY PREDICTED BY IDOCK:   -0.53 KCAL/MOL
REMARK 927      BINDING AFFINITY PREDICTED BY RF-SCORE:    0.00 PKD
ROOT
HETATM    1  C   UNL     1     -11.661   5.622  72.366  1.00  0.00    -0.221 C  
HETATM    2  N   UNL     1     -10.695   6.723  72.288  1.00  0.00    -0.214 N  
HETATM    3  C   UNL     1     -10.052   7.099  73.467  1.00  0.00    -0.331 C  
HETATM    4  C   UNL     1      -9.018   8.205  73.452  1.00  0.00    -0.313 C  
HETATM    5  O   UNL     1     -10.272   6.530  74.544  1.00  0.00    -0.358 OA 
ENDROOT
BRANCH   2   6
HETATM    6  C   UNL     1     -10.578   7.386  71.018  1.00  0.00    -0.224 A  
HETATM    7  C   UNL     1     -11.344   8.537  70.706  1.00  0.00    -0.266 A  
HETATM    8  C   UNL     1     -11.100   9.285  69.522  1.00  0.00    -0.099 A  
HETATM    9  I   UNL     1     -13.113   8.983  71.871  1.00  0.00    -0.576 I  
HETATM   10  C   UNL     1     -11.594  10.682  69.461  1.00  0.00    -0.288 C  
HETATM   11  C   UNL     1     -10.252   8.744  68.536  1.00  0.00    -0.195 A  
HETATM   12  C   UNL     1      -9.633   7.492  68.736  1.00  0.00    -0.149 A  
HETATM   13  I   UNL     1      -9.846   9.770  66.694  1.00  0.00    -0.316 I  
HETATM   14  O   UNL     1     -12.239  11.034  68.335  1.00  0.00    -0.586 OA 
HETATM   15  O   UNL     1     -11.442  11.454  70.400  1.00  0.00    -0.247 OA 
HETATM   16  C   UNL     1      -9.698   6.896  70.017  1.00  0.00    -0.167 A  
HETATM   17  I   UNL     1      -8.048   5.600  70.568  1.00  0.00    -0.108 I  
BRANCH  12  18
HETATM   18  N   UNL     1      -8.847   6.949  67.693  1.00  0.00    -0.119 N  
HETATM   19  C   UNL     1      -9.227   6.074  66.709  1.00  0.00    -0.136 C  
HETATM   20  H   UNL     1      -7.872   7.247  67.671  1.00  0.00     0.000 HD 
HETATM   21  C   UNL     1     -10.587   5.424  66.709  1.00  0.00    -0.339 C  
HETATM   22  O   UNL     1      -8.443   5.872  65.780  1.00  0.00    -0.136 OA 
ENDBRANCH  12  18
ENDBRANCH   2   6
TORSDOF 2
ENDMDL
MODEL        8
REMARK 921   NORMALIZED FREE ENERGY PREDICTED BY IDOCK:   -4.83 KCAL/MOL
REMARK 922        TOTAL FREE ENERGY PREDICTED BY IDOCK:   -5.89 KCAL/MOL
REMARK 923 INTER-LIGAND FREE ENERGY PREDICTED BY IDOCK:   -5.40 KCAL/MOL
REMARK 924 INTRA-LIGAND FREE ENERGY PREDICTED BY IDOCK:   -0.49 KCAL/MOL
REMARK 927      BINDING AFFINITY PREDICTED BY RF-SCORE:    0.00 PKD
ROOT
HETATM    1  C   UNL     1      -7.555   8.053  69.345  1.00  0.00    -0.102 C  
HETATM    2  N   UNL     1      -8.743   8.373  68.548  1.00  0.00    -0.136 N  
HETATM    3  C   UNL     1      -8.742   7.982  67.209  1.00  0.00    -0.131 C  
HETATM    4  C   UNL     1      -9.951   8.250  66.336  1.00  0.00    -0.264 C  
HETATM    5  O   UNL     1      -7.786   7.382  66.701  1.00  0.00    -0.104 OA 
ENDROOT
BRANCH   2   6
HETATM    6  C   UNL     1      -9.760   9.157  69.194  1.00  0.00    -0.163 A  
HETATM    7  C   UNL     1     -10.722   8.570  70.051  1.00  0.00    -0.232 A  
HETATM    8  C   UNL     1     -11.612   9.369  70.818  1.00  0.00    -0.364 A  
HETATM    9  I   UNL     1     -11.064   6.433  69.956  1.00  0.00    -0.466 I  
HETATM   10  C   UNL     1     -12.269   8.754  71.998  1.00  0.00    -0.377 C  
HETATM   11  C   UNL     1     -11.697  10.748  70.545  1.00  0.00    -0.351 A  
HETATM   12  C   UNL     1     -10.888  11.329  69.545  1.00  0.00    -0.151 A  
HETATM   13  I   UNL     1     -13.035  12.043  71.616  1.00  0.00     0.062 I  
HETATM   14  O   UNL     1     -13.592   8.968  72.117  1.00  0.00    -0.406 OA 
HETATM   15  O   UNL     1     -11.639   8.070  72.794  1.00  0.00    -0.405 OA 
HETATM   16  C   UNL     1      -9.845  10.559  68.979  1.00  0.00    -0.212 A  
HETATM   17  I   UNL     1      -8.116  11.651  68.257  1.00  0.00    -0.138 I  
BRANCH  12  18
HETATM   18  N   UNL     1     -11.054  12.702  69.251  1.00  0.00    -0.421 N  
HETATM   19  C   UNL     1     -11.570  13.273  68.116  1.00  0.00    -0.338 C  
HETATM   20  H   UNL     1     -10.751  13.352  69.977  1.00  0.00     0.000 HD 
HETATM   21  C   UNL     1     -11.908  12.450  66.900  1.00  0.00    -0.377 C  
HETATM   22  O   UNL     1     -11.807  14.481  68.133  1.00  0.00    -0.327 OA 
ENDBRANCH  12  18
ENDBRANCH   2   6
TORSDOF 2
ENDMDL
MODEL        9
REMARK 921   NORMALIZED FREE ENERGY PREDICTED BY IDOCK:   -4.83 KCAL/MOL
REMARK 922        TOTAL FREE ENERGY PREDICTED BY IDOCK:   -5.88 KCAL/MOL
REMARK 923 INTER-LIGAND FREE ENERGY PREDICTED BY IDOCK:   -5.34 KCAL/MOL
REMARK 924 INTRA-LIGAND FREE ENERGY PREDICTED BY IDOCK:   -0.54 KCAL/MOL
REMARK 927      BINDING AFFINITY PREDICTED BY RF-SCORE:    0.00 PKD
ROOT
HETATM    1  C   UNL     1      -9.897  11.119  65.947  1.00  0.00    -0.232 C  
HETATM    2  N   UNL     1     -10.211  12.135  66.958  1.00  0.00    -0.207 N  
HETATM    3  C   UNL     1     -11.330  11.916  67.762  1.00  0.00    -0.292 C  
HETATM    4  C   UNL     1     -11.693  12.907  68.848  1.00  0.00    -0.370 C  
HETATM    5  O   UNL     1     -12.035  10.906  67.644  1.00  0.00    -0.512 OA 
ENDROOT
BRANCH   2   6
HETATM    6  C   UNL     1      -9.396  13.319  66.954  1.00  0.00    -0.244 A  
HETATM    7  C   UNL     1      -8.103  13.335  67.533  1.00  0.00    -0.186 A  
HETATM    8  C   UNL     1      -7.239  14.452  67.375  1.00  0.00    -0.148 A  
HETATM    9  I   UNL     1      -7.551  11.785  68.940  1.00  0.00     0.142 I  
HETATM   10  C   UNL     1      -5.786  14.253  67.598  1.00  0.00     0.005 C  
HETATM   11  C   UNL     1      -7.761  15.647  66.841  1.00  0.00    -0.203 A  
HETATM   12  C   UNL     1      -9.113  15.721  66.444  1.00  0.00    -0.322 A  
HETATM   13  I   UNL     1      -6.555  17.408  66.595  1.00  0.00    -0.305 I  
HETATM   14  O   UNL     1      -5.173  15.175  68.362  1.00  0.00    -0.095 OA 
HETATM   15  O   UNL     1      -5.197  13.286  67.132  1.00  0.00    -0.330 OA 
HETATM   16  C   UNL     1      -9.871  14.529  66.382  1.00  0.00    -0.290 A  
HETATM   17  I   UNL     1     -11.486  14.481  64.934  1.00  0.00    -0.396 I  
BRANCH  12  18
HETATM   18  N   UNL     1      -9.617  16.958  65.981  1.00  0.00    -0.245 N  
HETATM   19  C   UNL     1     -10.295  17.918  66.686  1.00  0.00    -0.361 C  
HETATM   20  H   UNL     1      -9.455  17.163  64.994  1.00  0.00     0.000 HD 
HETATM   21  C   UNL     1     -10.747  17.687  68.105  1.00  0.00    -0.312 C  
HETATM   22  O   UNL     1     -10.480  19.010  66.147  1.00  0.00    -0.439 OA 
ENDBRANCH  12  18
ENDBRANCH   2   6
TORSDOF 2
ENDMDL
MODEL       10
REMARK 921   NORMALIZED FREE ENERGY PREDICTED BY IDOCK:   -4.76 KCAL/MOL
REMARK 922        TOTAL FREE ENERGY PREDICTED BY IDOCK:   -5.82 KCAL/MOL
REMARK 923 INTER-LIGAND FREE ENERGY PREDICTED BY IDOCK:   -5.37 KCAL/MOL
REMARK 924 INTRA-LIGAND FREE ENERGY PREDICTED BY IDOCK:   -0.44 KCAL/MOL
REMARK 927      BINDING AFFINITY PREDICTED BY RF-SCORE:    0.00 PKD
ROOT
HETATM    1  C   UNL     1     -12.811  14.121  65.266  1.00  0.00    -0.344 C  
HETATM    2  N   UNL     1     -11.455  14.231  65.814  1.00  0.00    -0.329 N  
HETATM    3  C   UNL     1     -10.702  15.346  65.445  1.00  0.00    -0.400 C  
HETATM    4  C   UNL     1      -9.307  15.541  66.001  1.00  0.00    -0.379 C  
HETATM    5  O   UNL     1     -11.150  16.220  64.692  1.00  0.00    -0.634 OA 
ENDROOT
BRANCH   2   6
HETATM    6  C   UNL     1     -10.987  13.122  66.599  1.00  0.00    -0.283 A  
HETATM    7  C   UNL     1     -10.280  12.042  66.015  1.00  0.00    -0.226 A  
HETATM    8  C   UNL     1      -9.673  11.038  66.817  1.00  0.00    -0.222 A  
HETATM    9  I   UNL     1     -10.393  11.734  63.874  1.00  0.00    -0.568 I  
HETATM   10  C   UNL     1      -8.600  10.211  66.213  1.00  0.00    -0.131 C  
HETATM   11  C   UNL     1      -9.978  10.987  68.191  1.00  0.00    -0.177 A  
HETATM   12  C   UNL     1     -10.850  11.937  68.764  1.00  0.00    -0.231 A  
HETATM   13  I   UNL     1      -9.148   9.490  69.488  1.00  0.00    -0.246 I  
HETATM   14  O   UNL     1      -8.690   8.884  66.416  1.00  0.00    -0.120 OA 
HETATM   15  O   UNL     1      -7.705  10.715  65.547  1.00  0.00    -0.147 OA 
HETATM   16  C   UNL     1     -11.235  13.060  67.996  1.00  0.00    -0.278 A  
HETATM   17  I   UNL     1     -11.698  14.873  69.094  1.00  0.00    -0.323 I  
BRANCH  12  18
HETATM   18  N   UNL     1     -11.188  11.809  70.132  1.00  0.00    -0.456 N  
HETATM   19  C   UNL     1     -12.218  11.097  70.690  1.00  0.00    -0.397 C  
HETATM   20  H   UNL     1     -10.588  12.312  70.786  1.00  0.00     0.000 HD 
HETATM   21  C   UNL     1     -13.277  10.440  69.843  1.00  0.00     0.553 C  
HETATM   22  O   UNL     1     -12.227  10.957  71.914  1.00  0.00    -0.035 OA 
ENDBRANCH  12  18
ENDBRANCH   2   6
TORSDOF 2
ENDMDL
MODEL       11
REMARK 921   NORMALIZED FREE ENERGY PREDICTED BY IDOCK:   -4.74 KCAL/MOL
REMARK 922        TOTAL FREE ENERGY PREDICTED BY IDOCK:   -5.79 KCAL/MOL
REMARK 923 INTER-LIGAND FREE ENERGY PREDICTED BY IDOCK:   -5.24 KCAL/MOL
REMARK 924 INTRA-LIGAND FREE ENERGY PREDICTED BY IDOCK:   -0.55 KCAL/MOL
REMARK 927      BINDING AFFINITY PREDICTED BY RF-SCORE:    0.00 PKD
ROOT
HETATM    1  C   UNL     1     -10.408   8.109  68.525  1.00  0.00    -0.198 C  
HETATM    2  N   UNL     1      -9.611   9.336  68.623  1.00  0.00    -0.146 N  
HETATM    3  C   UNL     1      -8.512   9.321  69.481  1.00  0.00    -0.144 C  
HETATM    4  C   UNL     1      -7.625  10.542  69.605  1.00  0.00    -0.134 C  
HETATM    5  O   UNL     1      -8.203   8.316  70.135  1.00  0.00    -0.112 OA 
ENDROOT
BRANCH   2   6
HETATM    6  C   UNL     1     -10.102  10.481  67.905  1.00  0.00    -0.176 A  
HETATM    7  C   UNL     1      -9.783  10.698  66.542  1.00  0.00    -0.194 A  
HETATM    8  C   UNL     1     -10.407  11.734  65.795  1.00  0.00    -0.293 A  
HETATM    9  I   UNL     1      -8.096   9.659  65.668  1.00  0.00    -0.141 I  
HETATM   10  C   UNL     1     -10.386  11.642  64.315  1.00  0.00    -0.322 C  
HETATM   11  C   UNL     1     -11.173  12.700  66.477  1.00  0.00    -0.296 A  
HETATM   12  C   UNL     1     -11.339  12.621  67.876  1.00  0.00    -0.288 A  
HETATM   13  I   UNL     1     -12.128  14.328  65.453  1.00  0.00    -0.356 I  
HETATM   14  O   UNL     1     -10.043  12.764  63.657  1.00  0.00    -0.378 OA 
HETATM   15  O   UNL     1     -10.639  10.592  63.737  1.00  0.00    -0.191 OA 
HETATM   16  C   UNL     1     -10.916  11.451  68.548  1.00  0.00    -0.221 A  
HETATM   17  I   UNL     1     -11.990  10.933  70.361  1.00  0.00    -0.473 I  
BRANCH  12  18
HETATM   18  N   UNL     1     -12.053  13.650  68.533  1.00  0.00    -0.374 N  
HETATM   19  C   UNL     1     -11.559  14.772  69.144  1.00  0.00    -0.303 C  
HETATM   20  H   UNL     1     -13.068  13.541  68.556  1.00  0.00     0.000 HD 
HETATM   21  C   UNL     1     -10.078  14.986  69.331  1.00  0.00    -0.208 C  
HETATM   22  O   UNL     1     -12.359  15.643  69.491  1.00  0.00    -0.294 OA 
ENDBRANCH  12  18
ENDBRANCH   2   6
TORSDOF 2
ENDMDL
MODEL       12
REMARK 921   NORMALIZED FREE ENERGY PREDICTED BY IDOCK:   -4.72 KCAL/MOL
REMARK 922        TOTAL FREE ENERGY PREDICTED BY IDOCK:   -5.76 KCAL/MOL
REMARK 923 INTER-LIGAND FREE ENERGY PREDICTED BY IDOCK:   -5.33 KCAL/MOL
REMARK 924 INTRA-LIGAND FREE ENERGY PREDICTED BY IDOCK:   -0.43 KCAL/MOL
REMARK 927      BINDING AFFINITY PREDICTED BY RF-SCORE:    0.00 PKD
ROOT
HETATM    1  C   UNL     1      -9.220   8.584  72.481  1.00  0.00    -0.233 C  
HETATM    2  N   UNL     1     -10.264   8.041  71.606  1.00  0.00    -0.195 N  
HETATM    3  C   UNL     1     -11.103   7.062  72.139  1.00  0.00    -0.245 C  
HETATM    4  C   UNL     1     -12.225   6.481  71.302  1.00  0.00    -0.287 C  
HETATM    5  O   UNL     1     -10.989   6.663  73.305  1.00  0.00    -0.267 OA 
ENDROOT
BRANCH   2   6
HETATM    6  C   UNL     1     -10.258   8.491  70.241  1.00  0.00    -0.193 A  
HETATM    7  C   UNL     1     -10.998   9.626  69.828  1.00  0.00    -0.240 A  
HETATM    8  C   UNL     1     -10.852  10.165  68.521  1.00  0.00    -0.278 A  
HETATM    9  I   UNL     1     -12.604  10.360  71.081  1.00  0.00    -0.576 I  
HETATM   10  C   UNL     1     -11.282  11.565  68.287  1.00  0.00    -0.261 C  
HETATM   11  C   UNL     1     -10.145   9.425  67.553  1.00  0.00    -0.215 A  
HETATM   12  C   UNL     1      -9.567   8.181  67.888  1.00  0.00    -0.155 A  
HETATM   13  I   UNL     1      -9.897  10.126  65.538  1.00  0.00    -0.295 I  
HETATM   14  O   UNL     1     -12.031  11.779  67.190  1.00  0.00    -0.617 OA 
HETATM   15  O   UNL     1     -10.991  12.461  69.070  1.00  0.00    -0.236 OA 
HETATM   16  C   UNL     1      -9.517   7.797  69.248  1.00  0.00    -0.155 A  
HETATM   17  I   UNL     1      -7.880   6.498  69.829  1.00  0.00    -0.120 I  
BRANCH  12  18
HETATM   18  N   UNL     1      -8.928   7.435  66.871  1.00  0.00    -0.130 N  
HETATM   19  C   UNL     1      -9.389   6.324  66.214  1.00  0.00    -0.127 C  
HETATM   20  H   UNL     1      -8.005   7.766  66.590  1.00  0.00     0.000 HD 
HETATM   21  C   UNL     1     -10.659   5.628  66.630  1.00  0.00    -0.361 C  
HETATM   22  O   UNL     1      -8.764   5.935  65.226  1.00  0.00    -0.144 OA 
ENDBRANCH  12  18
ENDBRANCH   2   6
TORSDOF 2
ENDMDL
MODEL       13
REMARK 921   NORMALIZED FREE ENERGY PREDICTED BY IDOCK:   -4.71 KCAL/MOL
REMARK 922        TOTAL FREE ENERGY PREDICTED BY IDOCK:   -5.76 KCAL/MOL
REMARK 923 INTER-LIGAND FREE ENERGY PREDICTED BY IDOCK:   -5.29 KCAL/MOL
REMARK 924 INTRA-LIGAND FREE ENERGY PREDICTED BY IDOCK:   -0.47 KCAL/MOL
REMARK 927      BINDING AFFINITY PREDICTED BY RF-SCORE:    0.00 PKD
ROOT
HETATM    1  C   UNL     1     -12.683   7.279  71.359  1.00  0.00    -0.389 C  
HETATM    2  N   UNL     1     -11.320   7.815  71.292  1.00  0.00    -0.259 N  
HETATM    3  C   UNL     1     -10.615   7.928  72.491  1.00  0.00    -0.315 C  
HETATM    4  C   UNL     1      -9.190   8.442  72.491  1.00  0.00    -0.338 C  
HETATM    5  O   UNL     1     -11.104   7.586  73.575  1.00  0.00    -0.312 OA 
ENDROOT
BRANCH   2   6
HETATM    6  C   UNL     1     -10.873   8.277  70.007  1.00  0.00    -0.232 A  
HETATM    7  C   UNL     1     -10.326   7.392  69.045  1.00  0.00    -0.210 A  
HETATM    8  C   UNL     1     -10.047   7.824  67.721  1.00  0.00    -0.242 A  
HETATM    9  I   UNL     1      -9.606   5.451  69.679  1.00  0.00    -0.282 I  
HETATM   10  C   UNL     1      -9.911   6.795  66.661  1.00  0.00    -0.152 C  
HETATM   11  C   UNL     1     -10.092   9.201  67.429  1.00  0.00    -0.230 A  
HETATM   12  C   UNL     1     -10.437  10.132  68.431  1.00  0.00    -0.208 A  
HETATM   13  I   UNL     1      -9.651   9.967  65.471  1.00  0.00    -0.366 I  
HETATM   14  O   UNL     1      -8.853   6.927  65.840  1.00  0.00    -0.155 OA 
HETATM   15  O   UNL     1     -10.705   5.868  66.567  1.00  0.00    -0.260 OA 
HETATM   16  C   UNL     1     -10.947   9.653  69.660  1.00  0.00    -0.229 A  
HETATM   17  I   UNL     1     -12.312  10.964  70.721  1.00  0.00    -0.461 I  
BRANCH  12  18
HETATM   18  N   UNL     1     -10.401  11.511  68.119  1.00  0.00    -0.188 N  
HETATM   19  C   UNL     1      -9.335  12.370  68.186  1.00  0.00    -0.209 C  
HETATM   20  H   UNL     1     -11.282  11.918  67.803  1.00  0.00     0.000 HD 
HETATM   21  C   UNL     1      -8.017  11.952  68.785  1.00  0.00    -0.040 C  
HETATM   22  O   UNL     1      -9.462  13.490  67.686  1.00  0.00    -0.208 OA 
ENDBRANCH  12  18
ENDBRANCH   2   6
TORSDOF 2
ENDMDL
MODEL       14
REMARK 921   NORMALIZED FREE ENERGY PREDICTED BY IDOCK:   -4.66 KCAL/MOL
REMARK 922        TOTAL FREE ENERGY PREDICTED BY IDOCK:   -5.70 KCAL/MOL
REMARK 923 INTER-LIGAND FREE ENERGY PREDICTED BY IDOCK:   -5.13 KCAL/MOL
REMARK 924 INTRA-LIGAND FREE ENERGY PREDICTED BY IDOCK:   -0.57 KCAL/MOL
REMARK 927      BINDING AFFINITY PREDICTED BY RF-SCORE:    0.00 PKD
ROOT
HETATM    1  C   UNL     1     -12.154  14.216  68.024  1.00  0.00    -0.268 C  
HETATM    2  N   UNL     1     -11.401  13.873  66.813  1.00  0.00    -0.322 N  
HETATM    3  C   UNL     1     -12.120  13.747  65.624  1.00  0.00    -0.418 C  
HETATM    4  C   UNL     1     -11.402  13.428  64.330  1.00  0.00    -0.420 C  
HETATM    5  O   UNL     1     -13.344  13.924  65.576  1.00  0.00    -0.662 OA 
ENDROOT
BRANCH   2   6
HETATM    6  C   UNL     1     -10.002  13.590  66.984  1.00  0.00    -0.247 A  
HETATM    7  C   UNL     1      -9.032  14.621  67.018  1.00  0.00    -0.240 A  
HETATM    8  C   UNL     1      -7.679  14.350  67.357  1.00  0.00    -0.207 A  
HETATM    9  I   UNL     1      -9.535  16.577  66.235  1.00  0.00    -0.312 I  
HETATM   10  C   UNL     1      -6.829  15.479  67.809  1.00  0.00    -0.161 C  
HETATM   11  C   UNL     1      -7.250  13.010  67.429  1.00  0.00    -0.116 A  
HETATM   12  C   UNL     1      -8.158  11.956  67.195  1.00  0.00    -0.172 A  
HETATM   13  I   UNL     1      -5.220  12.487  67.895  1.00  0.00    -0.107 I  
HETATM   14  O   UNL     1      -5.608  15.561  67.250  1.00  0.00    -0.338 OA 
HETATM   15  O   UNL     1      -7.236  16.298  68.623  1.00  0.00    -0.148 OA 
HETATM   16  C   UNL     1      -9.539  12.253  67.108  1.00  0.00    -0.200 A  
HETATM   17  I   UNL     1     -10.908  10.684  67.716  1.00  0.00    -0.375 I  
BRANCH  12  18
HETATM   18  N   UNL     1      -7.674  10.628  67.205  1.00  0.00    -0.107 N  
HETATM   19  C   UNL     1      -7.413   9.810  66.136  1.00  0.00    -0.101 C  
HETATM   20  H   UNL     1      -7.495  10.227  68.126  1.00  0.00     0.000 HD 
HETATM   21  C   UNL     1      -7.778  10.205  64.728  1.00  0.00    -0.141 C  
HETATM   22  O   UNL     1      -6.813   8.755  66.348  1.00  0.00    -0.072 OA 
ENDBRANCH  12  18
ENDBRANCH   2   6
TORSDOF 2
ENDMDL
MODEL       15
REMARK 921   NORMALIZED FREE ENERGY PREDICTED BY IDOCK:   -4.66 KCAL/MOL
REMARK 922        TOTAL FREE ENERGY PREDICTED BY IDOCK:   -5.70 KCAL/MOL
REMARK 923 INTER-LIGAND FREE ENERGY PREDICTED BY IDOCK:   -5.15 KCAL/MOL
REMARK 924 INTRA-LIGAND FREE ENERGY PREDICTED BY IDOCK:   -0.55 KCAL/MOL
REMARK 927      BINDING AFFINITY PREDICTED BY RF-SCORE:    0.00 PKD
ROOT
HETATM    1  C   UNL     1     -10.268   9.048  66.652  1.00  0.00    -0.263 C  
HETATM    2  N   UNL     1      -9.127   9.815  66.145  1.00  0.00    -0.154 N  
HETATM    3  C   UNL     1      -8.044   9.097  65.638  1.00  0.00    -0.113 C  
HETATM    4  C   UNL     1      -6.846   9.826  65.066  1.00  0.00    -0.115 C  
HETATM    5  O   UNL     1      -8.036   7.860  65.604  1.00  0.00    -0.102 OA 
ENDROOT
BRANCH   2   6
HETATM    6  C   UNL     1      -9.184  11.241  66.316  1.00  0.00    -0.200 A  
HETATM    7  C   UNL     1      -8.622  11.879  67.449  1.00  0.00    -0.164 A  
HETATM    8  C   UNL     1      -8.530  13.295  67.529  1.00  0.00    -0.202 A  
HETATM    9  I   UNL     1      -8.189  10.709  69.219  1.00  0.00     0.077 I  
HETATM   10  C   UNL     1      -7.561  13.883  68.486  1.00  0.00    -0.134 C  
HETATM   11  C   UNL     1      -9.218  14.077  66.580  1.00  0.00    -0.244 A  
HETATM   12  C   UNL     1      -9.961  13.460  65.552  1.00  0.00    -0.210 A  
HETATM   13  I   UNL     1      -9.180  16.224  66.629  1.00  0.00    -0.356 I  
HETATM   14  O   UNL     1      -8.023  14.886  69.254  1.00  0.00    -0.176 OA 
HETATM   15  O   UNL     1      -6.419  13.452  68.583  1.00  0.00    -0.078 OA 
HETATM   16  C   UNL     1      -9.828  12.066  65.355  1.00  0.00    -0.220 A  
HETATM   17  I   UNL     1     -10.134  11.337  63.335  1.00  0.00    -0.403 I  
BRANCH  12  18
HETATM   18  N   UNL     1     -10.696  14.278  64.662  1.00  0.00    -0.568 N  
HETATM   19  C   UNL     1     -12.038  14.558  64.677  1.00  0.00    -0.473 C  
HETATM   20  H   UNL     1     -10.159  14.716  63.914  1.00  0.00     0.000 HD 
HETATM   21  C   UNL     1     -12.983  13.860  65.621  1.00  0.00    -0.361 C  
HETATM   22  O   UNL     1     -12.452  15.447  63.930  1.00  0.00    -0.695 OA 
ENDBRANCH  12  18
ENDBRANCH   2   6
TORSDOF 2
ENDMDL
MODEL       16
REMARK 921   NORMALIZED FREE ENERGY PREDICTED BY IDOCK:   -4.63 KCAL/MOL
REMARK 922        TOTAL FREE ENERGY PREDICTED BY IDOCK:   -5.66 KCAL/MOL
REMARK 923 INTER-LIGAND FREE ENERGY PREDICTED BY IDOCK:   -5.12 KCAL/MOL
REMARK 924 INTRA-LIGAND FREE ENERGY PREDICTED BY IDOCK:   -0.54 KCAL/MOL
REMARK 927      BINDING AFFINITY PREDICTED BY RF-SCORE:    0.00 PKD
ROOT
HETATM    1  C   UNL     1      -9.123   7.567  66.084  1.00  0.00    -0.137 C  
HETATM    2  N   UNL     1      -8.543   8.104  67.319  1.00  0.00    -0.124 N  
HETATM    3  C   UNL     1      -7.182   7.888  67.536  1.00  0.00    -0.088 C  
HETATM    4  C   UNL     1      -6.511   8.445  68.774  1.00  0.00    -0.053 C  
HETATM    5  O   UNL     1      -6.477   7.276  66.724  1.00  0.00    -0.048 OA 
ENDROOT
BRANCH   2   6
HETATM    6  C   UNL     1      -9.457   8.713  68.246  1.00  0.00    -0.141 A  
HETATM    7  C   UNL     1      -9.917  10.042  68.076  1.00  0.00    -0.150 A  
HETATM    8  C   UNL     1     -10.947  10.576  68.896  1.00  0.00    -0.291 A  
HETATM    9  I   UNL     1      -8.827  11.383  66.771  1.00  0.00    -0.195 I  
HETATM   10  C   UNL     1     -11.687  11.766  68.408  1.00  0.00    -0.325 C  
HETATM   11  C   UNL     1     -11.348   9.859  70.040  1.00  0.00    -0.249 A  
HETATM   12  C   UNL     1     -10.754   8.617  70.349  1.00  0.00    -0.224 A  
HETATM   13  I   UNL     1     -12.867  10.592  71.370  1.00  0.00    -0.507 I  
HETATM   14  O   UNL     1     -11.861  12.760  69.297  1.00  0.00    -0.299 OA 
HETATM   15  O   UNL     1     -12.087  11.838  67.253  1.00  0.00    -0.595 OA 
HETATM   16  C   UNL     1      -9.919   8.003  69.386  1.00  0.00    -0.190 A  
HETATM   17  I   UNL     1      -9.832   5.835  69.420  1.00  0.00    -0.289 I  
BRANCH  12  18
HETATM   18  N   UNL     1     -11.131   7.963  71.544  1.00  0.00    -0.237 N  
HETATM   19  C   UNL     1     -10.423   7.852  72.713  1.00  0.00    -0.346 C  
HETATM   20  H   UNL     1     -12.048   7.516  71.536  1.00  0.00     0.000 HD 
HETATM   21  C   UNL     1      -8.995   8.319  72.821  1.00  0.00    -0.323 C  
HETATM   22  O   UNL     1     -11.007   7.408  73.703  1.00  0.00    -0.306 OA 
ENDBRANCH  12  18
ENDBRANCH   2   6
TORSDOF 2
ENDMDL
MODEL       17
REMARK 921   NORMALIZED FREE ENERGY PREDICTED BY IDOCK:   -4.57 KCAL/MOL
REMARK 922        TOTAL FREE ENERGY PREDICTED BY IDOCK:   -5.60 KCAL/MOL
REMARK 923 INTER-LIGAND FREE ENERGY PREDICTED BY IDOCK:   -5.66 KCAL/MOL
REMARK 924 INTRA-LIGAND FREE ENERGY PREDICTED BY IDOCK:    0.06 KCAL/MOL
REMARK 927      BINDING AFFINITY PREDICTED BY RF-SCORE:    0.00 PKD
ROOT
HETATM    1  C   UNL     1     -12.404  12.942  65.364  1.00  0.00    -0.485 C  
HETATM    2  N   UNL     1     -11.080  12.792  65.976  1.00  0.00    -0.278 N  
HETATM    3  C   UNL     1     -10.307  13.944  66.126  1.00  0.00    -0.301 C  
HETATM    4  C   UNL     1      -8.944  13.868  66.781  1.00  0.00    -0.206 C  
HETATM    5  O   UNL     1     -10.714  15.058  65.770  1.00  0.00    -0.311 OA 
ENDROOT
BRANCH   2   6
HETATM    6  C   UNL     1     -10.654  11.451  66.266  1.00  0.00    -0.263 A  
HETATM    7  C   UNL     1      -9.889  10.695  65.344  1.00  0.00    -0.267 A  
HETATM    8  C   UNL     1      -9.328   9.440  65.704  1.00  0.00    -0.309 A  
HETATM    9  I   UNL     1      -9.837  11.298  63.264  1.00  0.00    -0.380 I  
HETATM   10  C   UNL     1      -8.200   8.917  64.895  1.00  0.00    -0.160 C  
HETATM   11  C   UNL     1      -9.734   8.833  66.909  1.00  0.00    -0.210 A  
HETATM   12  C   UNL     1     -10.661   9.477  67.756  1.00  0.00    -0.261 A  
HETATM   13  I   UNL     1      -8.980   6.921  67.532  1.00  0.00    -0.124 I  
HETATM   14  O   UNL     1      -8.285   7.626  64.526  1.00  0.00    -0.131 OA 
HETATM   15  O   UNL     1      -7.266   9.636  64.564  1.00  0.00    -0.110 OA 
HETATM   16  C   UNL     1     -11.004  10.824  67.491  1.00  0.00    -0.312 A  
HETATM   17  I   UNL     1     -11.576  12.031  69.201  1.00  0.00    -0.372 I  
BRANCH  12  18
HETATM   18  N   UNL     1     -11.098   8.804  68.919  1.00  0.00    -0.426 N  
HETATM   19  C   UNL     1     -10.512   8.779  70.158  1.00  0.00    -0.213 C  
HETATM   20  H   UNL     1     -11.961   8.267  68.825  1.00  0.00     0.000 HD 
HETATM   21  C   UNL     1      -9.156   9.388  70.406  1.00  0.00    -0.302 C  
HETATM   22  O   UNL     1     -11.152   8.291  71.091  1.00  0.00    -0.239 OA 
ENDBRANCH  12  18
ENDBRANCH   2   6
TORSDOF 2
ENDMDL
MODEL       18
REMARK 921   NORMALIZED FREE ENERGY PREDICTED BY IDOCK:   -4.56 KCAL/MOL
REMARK 922        TOTAL FREE ENERGY PREDICTED BY IDOCK:   -5.59 KCAL/MOL
REMARK 923 INTER-LIGAND FREE ENERGY PREDICTED BY IDOCK:   -5.84 KCAL/MOL
REMARK 924 INTRA-LIGAND FREE ENERGY PREDICTED BY IDOCK:    0.24 KCAL/MOL
REMARK 927      BINDING AFFINITY PREDICTED BY RF-SCORE:    0.00 PKD
ROOT
HETATM    1  C   UNL     1      -9.957  13.970  65.391  1.00  0.00    -0.263 C  
HETATM    2  N   UNL     1     -10.861  12.864  65.058  1.00  0.00    -0.289 N  
HETATM    3  C   UNL     1     -12.026  13.176  64.357  1.00  0.00    -0.397 C  
HETATM    4  C   UNL     1     -12.988  12.078  63.950  1.00  0.00    -0.299 C  
HETATM    5  O   UNL     1     -12.296  14.334  64.014  1.00  0.00    -0.641 OA 
ENDROOT
BRANCH   2   6
HETATM    6  C   UNL     1     -10.516  11.571  65.582  1.00  0.00    -0.266 A  
HETATM    7  C   UNL     1      -9.708  10.664  64.853  1.00  0.00    -0.284 A  
HETATM    8  C   UNL     1      -9.230   9.463  65.444  1.00  0.00    -0.305 A  
HETATM    9  I   UNL     1      -9.461  10.941  62.720  1.00  0.00    -0.248 I  
HETATM   10  C   UNL     1      -8.061   8.792  64.825  1.00  0.00    -0.151 C  
HETATM   11  C   UNL     1      -9.758   9.057  66.686  1.00  0.00    -0.230 A  
HETATM   12  C   UNL     1     -10.725   9.848  67.343  1.00  0.00    -0.260 A  
HETATM   13  I   UNL     1      -9.136   7.242  67.651  1.00  0.00    -0.141 I  
HETATM   14  O   UNL     1      -8.168   7.463  64.646  1.00  0.00    -0.122 OA 
HETATM   15  O   UNL     1      -7.075   9.426  64.473  1.00  0.00    -0.094 OA 
HETATM   16  C   UNL     1     -10.991  11.148  66.852  1.00  0.00    -0.273 A  
HETATM   17  I   UNL     1     -11.653  12.616  68.305  1.00  0.00    -0.365 I  
BRANCH  12  18
HETATM   18  N   UNL     1     -11.284   9.372  68.551  1.00  0.00    -0.473 N  
HETATM   19  C   UNL     1     -10.764   9.450  69.817  1.00  0.00    -0.234 C  
HETATM   20  H   UNL     1     -12.190   8.910  68.470  1.00  0.00     0.000 HD 
HETATM   21  C   UNL     1      -9.368   9.956  70.070  1.00  0.00    -0.232 C  
HETATM   22  O   UNL     1     -11.494   9.146  70.762  1.00  0.00    -0.267 OA 
ENDBRANCH  12  18
ENDBRANCH   2   6
TORSDOF 2
ENDMDL
MODEL       19
REMARK 921   NORMALIZED FREE ENERGY PREDICTED BY IDOCK:   -4.56 KCAL/MOL
REMARK 922        TOTAL FREE ENERGY PREDICTED BY IDOCK:   -5.59 KCAL/MOL
REMARK 923 INTER-LIGAND FREE ENERGY PREDICTED BY IDOCK:   -5.03 KCAL/MOL
REMARK 924 INTRA-LIGAND FREE ENERGY PREDICTED BY IDOCK:   -0.56 KCAL/MOL
REMARK 927      BINDING AFFINITY PREDICTED BY RF-SCORE:    0.00 PKD
ROOT
HETATM    1  C   UNL     1      -6.469   8.902  68.746  1.00  0.00    -0.053 C  
HETATM    2  N   UNL     1      -7.790   8.591  68.191  1.00  0.00    -0.102 N  
HETATM    3  C   UNL     1      -7.851   8.213  66.850  1.00  0.00    -0.096 C  
HETATM    4  C   UNL     1      -9.179   7.845  66.221  1.00  0.00    -0.231 C  
HETATM    5  O   UNL     1      -6.837   8.131  66.144  1.00  0.00    -0.057 OA 
ENDROOT
BRANCH   2   6
HETATM    6  C   UNL     1      -8.918   8.810  69.055  1.00  0.00    -0.137 A  
HETATM    7  C   UNL     1      -9.692   9.993  68.985  1.00  0.00    -0.199 A  
HETATM    8  C   UNL     1     -10.902  10.128  69.719  1.00  0.00    -0.320 A  
HETATM    9  I   UNL     1      -8.871  11.742  68.005  1.00  0.00    -0.170 I  
HETATM   10  C   UNL     1     -11.877  11.157  69.282  1.00  0.00    -0.352 C  
HETATM   11  C   UNL     1     -11.210   9.172  70.706  1.00  0.00    -0.277 A  
HETATM   12  C   UNL     1     -10.343   8.083  70.940  1.00  0.00    -0.200 A  
HETATM   13  I   UNL     1     -12.991   9.299  71.900  1.00  0.00    -0.562 I  
HETATM   14  O   UNL     1     -12.392  11.934  70.252  1.00  0.00    -0.274 OA 
HETATM   15  O   UNL     1     -12.167  11.301  68.101  1.00  0.00    -0.622 OA 
HETATM   16  C   UNL     1      -9.287   7.845  70.031  1.00  0.00    -0.157 A  
HETATM   17  I   UNL     1      -8.636   5.786  69.817  1.00  0.00    -0.136 I  
BRANCH  12  18
HETATM   18  N   UNL     1     -10.650   7.185  71.988  1.00  0.00    -0.209 N  
HETATM   19  C   UNL     1     -10.053   7.076  73.218  1.00  0.00    -0.255 C  
HETATM   20  H   UNL     1     -11.414   6.534  71.806  1.00  0.00     0.000 HD 
HETATM   21  C   UNL     1      -8.813   7.858  73.567  1.00  0.00    -0.333 C  
HETATM   22  O   UNL     1     -10.593   6.360  74.062  1.00  0.00    -0.292 OA 
ENDBRANCH  12  18
ENDBRANCH   2   6
TORSDOF 2
ENDMDL
MODEL       20
REMARK 921   NORMALIZED FREE ENERGY PREDICTED BY IDOCK:   -4.50 KCAL/MOL
REMARK 922        TOTAL FREE ENERGY PREDICTED BY IDOCK:   -5.52 KCAL/MOL
REMARK 923 INTER-LIGAND FREE ENERGY PREDICTED BY IDOCK:   -5.02 KCAL/MOL
REMARK 924 INTRA-LIGAND FREE ENERGY PREDICTED BY IDOCK:   -0.50 KCAL/MOL
REMARK 927      BINDING AFFINITY PREDICTED BY RF-SCORE:    0.00 PKD
ROOT
HETATM    1  C   UNL     1     -12.099  13.024  65.777  1.00  0.00    -0.454 C  
HETATM    2  N   UNL     1     -10.877  12.972  66.585  1.00  0.00    -0.273 N  
HETATM    3  C   UNL     1      -9.961  14.013  66.432  1.00  0.00    -0.294 C  
HETATM    4  C   UNL     1      -8.693  14.040  67.260  1.00  0.00    -0.227 C  
HETATM    5  O   UNL     1     -10.162  14.955  65.655  1.00  0.00    -0.310 OA 
ENDROOT
BRANCH   2   6
HETATM    6  C   UNL     1     -10.684  11.792  67.384  1.00  0.00    -0.236 A  
HETATM    7  C   UNL     1     -11.202  11.690  68.698  1.00  0.00    -0.250 A  
HETATM    8  C   UNL     1     -11.156  10.463  69.414  1.00  0.00    -0.304 A  
HETATM    9  I   UNL     1     -11.780  13.489  69.755  1.00  0.00    -0.221 I  
HETATM   10  C   UNL     1     -12.080  10.285  70.561  1.00  0.00    -0.310 C  
HETATM   11  C   UNL     1     -10.378   9.405  68.906  1.00  0.00    -0.213 A  
HETATM   12  C   UNL     1      -9.679   9.554  67.689  1.00  0.00    -0.154 A  
HETATM   13  I   UNL     1     -10.207   7.523  69.926  1.00  0.00    -0.230 I  
HETATM   14  O   UNL     1     -11.537   9.790  71.688  1.00  0.00    -0.375 OA 
HETATM   15  O   UNL     1     -13.261  10.602  70.484  1.00  0.00    -0.242 OA 
HETATM   16  C   UNL     1      -9.944  10.687  66.885  1.00  0.00    -0.202 A  
HETATM   17  I   UNL     1      -9.673  10.443  64.746  1.00  0.00    -0.366 I  
BRANCH  12  18
HETATM   18  N   UNL     1      -8.851   8.496  67.248  1.00  0.00    -0.129 N  
HETATM   19  C   UNL     1      -7.514   8.307  67.484  1.00  0.00    -0.094 C  
HETATM   20  H   UNL     1      -9.307   7.781  66.681  1.00  0.00     0.000 HD 
HETATM   21  C   UNL     1      -6.674   9.357  68.165  1.00  0.00    -0.059 C  
HETATM   22  O   UNL     1      -7.019   7.222  67.174  1.00  0.00    -0.073 OA 
ENDBRANCH  12  18
ENDBRANCH   2   6
TORSDOF 2
ENDMDL
MODEL       21
REMARK 921   NORMALIZED FREE ENERGY PREDICTED BY IDOCK:   -4.49 KCAL/MOL
REMARK 922        TOTAL FREE ENERGY PREDICTED BY IDOCK:   -5.50 KCAL/MOL
REMARK 923 INTER-LIGAND FREE ENERGY PREDICTED BY IDOCK:   -4.98 KCAL/MOL
REMARK 924 INTRA-LIGAND FREE ENERGY PREDICTED BY IDOCK:   -0.52 KCAL/MOL
REMARK 927      BINDING AFFINITY PREDICTED BY RF-SCORE:    0.00 PKD
ROOT
HETATM    1  C   UNL     1     -12.230  13.251  67.343  1.00  0.00    -0.186 C  
HETATM    2  N   UNL     1     -11.317  12.952  66.236  1.00  0.00    -0.309 N  
HETATM    3  C   UNL     1     -11.886  12.634  65.002  1.00  0.00    -0.395 C  
HETATM    4  C   UNL     1     -11.001  12.348  63.806  1.00  0.00    -0.501 C  
HETATM    5  O   UNL     1     -13.111  12.609  64.831  1.00  0.00    -0.850 OA 
ENDROOT
BRANCH   2   6
HETATM    6  C   UNL     1      -9.916  12.908  66.552  1.00  0.00    -0.259 A  
HETATM    7  C   UNL     1      -9.154  14.089  66.726  1.00  0.00    -0.232 A  
HETATM    8  C   UNL     1      -7.817  14.040  67.205  1.00  0.00    -0.143 A  
HETATM    9  I   UNL     1      -9.914  15.965  65.956  1.00  0.00    -0.408 I  
HETATM   10  C   UNL     1      -7.233  15.275  67.785  1.00  0.00    -0.165 C  
HETATM   11  C   UNL     1      -7.165  12.794  67.281  1.00  0.00    -0.082 A  
HETATM   12  C   UNL     1      -7.842  11.611  66.914  1.00  0.00    -0.156 A  
HETATM   13  I   UNL     1      -5.134  12.608  67.953  1.00  0.00    -0.089 I  
HETATM   14  O   UNL     1      -5.996  15.597  67.368  1.00  0.00    -0.270 OA 
HETATM   15  O   UNL     1      -7.862  15.968  68.574  1.00  0.00    -0.146 OA 
HETATM   16  C   UNL     1      -9.236  11.667  66.683  1.00  0.00    -0.191 A  
HETATM   17  I   UNL     1     -10.359   9.855  67.085  1.00  0.00    -0.272 I  
BRANCH  12  18
HETATM   18  N   UNL     1      -7.131  10.389  66.935  1.00  0.00    -0.091 N  
HETATM   19  C   UNL     1      -6.570   9.713  65.882  1.00  0.00    -0.080 C  
HETATM   20  H   UNL     1      -7.023   9.953  67.851  1.00  0.00     0.000 HD 
HETATM   21  C   UNL     1      -6.787  10.149  64.456  1.00  0.00    -0.113 C  
HETATM   22  O   UNL     1      -5.827   8.763  66.135  1.00  0.00    -0.046 OA 
ENDBRANCH  12  18
ENDBRANCH   2   6
TORSDOF 2
ENDMDL
MODEL       22
REMARK 921   NORMALIZED FREE ENERGY PREDICTED BY IDOCK:   -4.47 KCAL/MOL
REMARK 922        TOTAL FREE ENERGY PREDICTED BY IDOCK:   -5.48 KCAL/MOL
REMARK 923 INTER-LIGAND FREE ENERGY PREDICTED BY IDOCK:   -5.64 KCAL/MOL
REMARK 924 INTRA-LIGAND FREE ENERGY PREDICTED BY IDOCK:    0.15 KCAL/MOL
REMARK 927      BINDING AFFINITY PREDICTED BY RF-SCORE:    0.00 PKD
ROOT
HETATM    1  C   UNL     1      -8.452  14.594  67.102  1.00  0.00    -0.221 C  
HETATM    2  N   UNL     1      -9.846  14.235  66.822  1.00  0.00    -0.261 N  
HETATM    3  C   UNL     1     -10.404  14.706  65.634  1.00  0.00    -0.351 C  
HETATM    4  C   UNL     1     -11.828  14.345  65.265  1.00  0.00    -0.373 C  
HETATM    5  O   UNL     1      -9.758  15.395  64.833  1.00  0.00    -0.157 OA 
ENDROOT
BRANCH   2   6
HETATM    6  C   UNL     1     -10.545  13.519  67.853  1.00  0.00    -0.248 A  
HETATM    7  C   UNL     1     -10.394  12.121  68.023  1.00  0.00    -0.205 A  
HETATM    8  C   UNL     1     -10.950  11.450  69.145  1.00  0.00    -0.289 A  
HETATM    9  I   UNL     1      -9.584  10.936  66.401  1.00  0.00    -0.272 I  
HETATM   10  C   UNL     1     -10.404  10.119  69.510  1.00  0.00    -0.240 C  
HETATM   11  C   UNL     1     -11.860  12.140  69.970  1.00  0.00    -0.306 A  
HETATM   12  C   UNL     1     -12.189  13.485  69.700  1.00  0.00    -0.247 A  
HETATM   13  I   UNL     1     -12.790  11.212  71.669  1.00  0.00    -0.123 I  
HETATM   14  O   UNL     1     -11.309   9.159  69.769  1.00  0.00    -0.126 OA 
HETATM   15  O   UNL     1      -9.197   9.913  69.542  1.00  0.00    -0.195 OA 
HETATM   16  C   UNL     1     -11.434  14.191  68.734  1.00  0.00    -0.299 A  
HETATM   17  I   UNL     1     -11.266  16.336  69.013  1.00  0.00    -0.174 I  
BRANCH  12  18
HETATM   18  N   UNL     1     -13.160  14.121  70.507  1.00  0.00    -0.332 N  
HETATM   19  C   UNL     1     -12.968  14.869  71.640  1.00  0.00    -0.336 C  
HETATM   20  H   UNL     1     -14.129  14.009  70.208  1.00  0.00     0.000 HD 
HETATM   21  C   UNL     1     -11.613  14.987  72.290  1.00  0.00    -0.388 C  
HETATM   22  O   UNL     1     -13.928  15.498  72.088  1.00  0.00    -0.494 OA 
ENDBRANCH  12  18
ENDBRANCH   2   6
TORSDOF 2
ENDMDL
MODEL       23
REMARK 921   NORMALIZED FREE ENERGY PREDICTED BY IDOCK:   -4.45 KCAL/MOL
REMARK 922        TOTAL FREE ENERGY PREDICTED BY IDOCK:   -5.46 KCAL/MOL
REMARK 923 INTER-LIGAND FREE ENERGY PREDICTED BY IDOCK:   -4.97 KCAL/MOL
REMARK 924 INTRA-LIGAND FREE ENERGY PREDICTED BY IDOCK:   -0.49 KCAL/MOL
REMARK 927      BINDING AFFINITY PREDICTED BY RF-SCORE:    0.00 PKD
ROOT
HETATM    1  C   UNL     1      -6.628   8.123  68.349  1.00  0.00    -0.059 C  
HETATM    2  N   UNL     1      -7.855   8.474  67.626  1.00  0.00    -0.102 N  
HETATM    3  C   UNL     1      -7.784   8.539  66.235  1.00  0.00    -0.094 C  
HETATM    4  C   UNL     1      -9.021   8.862  65.423  1.00  0.00    -0.232 C  
HETATM    5  O   UNL     1      -6.735   8.305  65.620  1.00  0.00    -0.052 OA 
ENDROOT
BRANCH   2   6
HETATM    6  C   UNL     1      -8.995   8.825  68.428  1.00  0.00    -0.141 A  
HETATM    7  C   UNL     1      -9.845   7.839  68.986  1.00  0.00    -0.169 A  
HETATM    8  C   UNL     1     -10.865   8.184  69.914  1.00  0.00    -0.215 A  
HETATM    9  I   UNL     1      -9.810   5.828  68.183  1.00  0.00    -0.222 I  
HETATM   10  C   UNL     1     -11.411   7.117  70.787  1.00  0.00    -0.289 C  
HETATM   11  C   UNL     1     -11.187   9.543  70.098  1.00  0.00    -0.234 A  
HETATM   12  C   UNL     1     -10.486  10.545  69.392  1.00  0.00    -0.240 A  
HETATM   13  I   UNL     1     -12.735  10.176  71.445  1.00  0.00    -0.596 I  
HETATM   14  O   UNL     1     -12.751   7.061  70.886  1.00  0.00    -0.334 OA 
HETATM   15  O   UNL     1     -10.675   6.320  71.356  1.00  0.00    -0.231 OA 
HETATM   16  C   UNL     1      -9.322  10.185  68.674  1.00  0.00    -0.161 A  
HETATM   17  I   UNL     1      -7.805  11.720  68.454  1.00  0.00    -0.100 I  
BRANCH  12  18
HETATM   18  N   UNL     1     -10.887  11.892  69.549  1.00  0.00    -0.460 N  
HETATM   19  C   UNL     1     -11.494  12.711  68.633  1.00  0.00    -0.308 C  
HETATM   20  H   UNL     1     -10.700  12.307  70.462  1.00  0.00     0.000 HD 
HETATM   21  C   UNL     1     -11.686  12.290  67.199  1.00  0.00    -0.396 C  
HETATM   22  O   UNL     1     -11.937  13.791  69.027  1.00  0.00    -0.334 OA 
ENDBRANCH  12  18
ENDBRANCH   2   6
TORSDOF 2
ENDMDL
MODEL       24
REMARK 921   NORMALIZED FREE ENERGY PREDICTED BY IDOCK:   -4.42 KCAL/MOL
REMARK 922        TOTAL FREE ENERGY PREDICTED BY IDOCK:   -5.43 KCAL/MOL
REMARK 923 INTER-LIGAND FREE ENERGY PREDICTED BY IDOCK:   -4.99 KCAL/MOL
REMARK 924 INTRA-LIGAND FREE ENERGY PREDICTED BY IDOCK:   -0.44 KCAL/MOL
REMARK 927      BINDING AFFINITY PREDICTED BY RF-SCORE:    0.00 PKD
ROOT
HETATM    1  C   UNL     1     -10.479   8.826  66.517  1.00  0.00    -0.081 C  
HETATM    2  N   UNL     1      -9.481   9.768  66.001  1.00  0.00    -0.193 N  
HETATM    3  C   UNL     1      -8.392   9.236  65.310  1.00  0.00    -0.145 C  
HETATM    4  C   UNL     1      -7.342  10.154  64.720  1.00  0.00    -0.134 C  
HETATM    5  O   UNL     1      -8.264   8.019  65.124  1.00  0.00    -0.136 OA 
ENDROOT
BRANCH   2   6
HETATM    6  C   UNL     1      -9.661  11.151  66.350  1.00  0.00    -0.204 A  
HETATM    7  C   UNL     1     -10.402  12.036  65.529  1.00  0.00    -0.263 A  
HETATM    8  C   UNL     1     -10.720  13.352  65.963  1.00  0.00    -0.283 A  
HETATM    9  I   UNL     1     -10.782  11.502  63.465  1.00  0.00    -0.304 I  
HETATM   10  C   UNL     1     -11.840  14.059  65.295  1.00  0.00    -0.359 C  
HETATM   11  C   UNL     1     -10.092  13.860  67.117  1.00  0.00    -0.252 A  
HETATM   12  C   UNL     1      -9.184  13.062  67.844  1.00  0.00    -0.208 A  
HETATM   13  I   UNL     1     -10.469  15.847  67.839  1.00  0.00    -0.310 I  
HETATM   14  O   UNL     1     -11.602  15.331  64.929  1.00  0.00    -0.352 OA 
HETATM   15  O   UNL     1     -12.905  13.498  65.070  1.00  0.00    -0.684 OA 
HETATM   16  C   UNL     1      -9.082  11.686  67.531  1.00  0.00    -0.172 A  
HETATM   17  I   UNL     1      -8.510  10.363  69.152  1.00  0.00    -0.093 I  
BRANCH  12  18
HETATM   18  N   UNL     1      -8.519  13.632  68.955  1.00  0.00    -0.358 N  
HETATM   19  C   UNL     1      -7.274  14.205  68.999  1.00  0.00    -0.110 C  
HETATM   20  H   UNL     1      -9.032  13.615  69.836  1.00  0.00     0.000 HD 
HETATM   21  C   UNL     1      -6.339  14.158  67.818  1.00  0.00    -0.169 C  
HETATM   22  O   UNL     1      -6.955  14.816  70.019  1.00  0.00    -0.180 OA 
ENDBRANCH  12  18
ENDBRANCH   2   6
TORSDOF 2
ENDMDL
MODEL       25
REMARK 921   NORMALIZED FREE ENERGY PREDICTED BY IDOCK:   -4.40 KCAL/MOL
REMARK 922        TOTAL FREE ENERGY PREDICTED BY IDOCK:   -5.40 KCAL/MOL
REMARK 923 INTER-LIGAND FREE ENERGY PREDICTED BY IDOCK:   -4.85 KCAL/MOL
REMARK 924 INTRA-LIGAND FREE ENERGY PREDICTED BY IDOCK:   -0.55 KCAL/MOL
REMARK 927      BINDING AFFINITY PREDICTED BY RF-SCORE:    0.00 PKD
ROOT
HETATM    1  C   UNL     1     -11.117  11.281  67.769  1.00  0.00    -0.271 C  
HETATM    2  N   UNL     1     -10.057  11.554  66.793  1.00  0.00    -0.210 N  
HETATM    3  C   UNL     1      -9.781  10.563  65.851  1.00  0.00    -0.217 C  
HETATM    4  C   UNL     1      -8.722  10.792  64.792  1.00  0.00    -0.118 C  
HETATM    5  O   UNL     1     -10.404   9.494  65.821  1.00  0.00    -0.182 OA 
ENDROOT
BRANCH   2   6
HETATM    6  C   UNL     1      -9.323  12.778  66.966  1.00  0.00    -0.229 A  
HETATM    7  C   UNL     1      -8.042  12.800  67.569  1.00  0.00    -0.180 A  
HETATM    8  C   UNL     1      -7.253  13.981  67.582  1.00  0.00    -0.190 A  
HETATM    9  I   UNL     1      -7.404  11.112  68.768  1.00  0.00    -0.117 I  
HETATM   10  C   UNL     1      -5.792  13.849  67.807  1.00  0.00    -0.089 C  
HETATM   11  C   UNL     1      -7.846  15.201  67.202  1.00  0.00    -0.205 A  
HETATM   12  C   UNL     1      -9.195  15.241  66.789  1.00  0.00    -0.250 A  
HETATM   13  I   UNL     1      -6.758  17.053  67.220  1.00  0.00    -0.256 I  
HETATM   14  O   UNL     1      -5.252  14.696  68.701  1.00  0.00    -0.087 OA 
HETATM   15  O   UNL     1      -5.133  12.994  67.229  1.00  0.00    -0.325 OA 
HETATM   16  C   UNL     1      -9.871  14.021  66.551  1.00  0.00    -0.290 A  
HETATM   17  I   UNL     1     -11.460  14.065  65.075  1.00  0.00    -0.428 I  
BRANCH  12  18
HETATM   18  N   UNL     1      -9.775  16.494  66.485  1.00  0.00    -0.257 N  
HETATM   19  C   UNL     1     -10.520  17.306  67.299  1.00  0.00    -0.319 C  
HETATM   20  H   UNL     1      -9.619  16.837  65.536  1.00  0.00     0.000 HD 
HETATM   21  C   UNL     1     -10.966  16.861  68.668  1.00  0.00    -0.262 C  
HETATM   22  O   UNL     1     -10.771  18.446  66.906  1.00  0.00    -0.370 OA 
ENDBRANCH  12  18
ENDBRANCH   2   6
TORSDOF 2
ENDMDL
MODEL       26
REMARK 921   NORMALIZED FREE ENERGY PREDICTED BY IDOCK:   -4.36 KCAL/MOL
REMARK 922        TOTAL FREE ENERGY PREDICTED BY IDOCK:   -5.37 KCAL/MOL
REMARK 923 INTER-LIGAND FREE ENERGY PREDICTED BY IDOCK:   -5.43 KCAL/MOL
REMARK 924 INTRA-LIGAND FREE ENERGY PREDICTED BY IDOCK:    0.06 KCAL/MOL
REMARK 927      BINDING AFFINITY PREDICTED BY RF-SCORE:    0.00 PKD
ROOT
HETATM    1  C   UNL     1      -8.758   8.774  71.171  1.00  0.00    -0.212 C  
HETATM    2  N   UNL     1      -9.795   8.212  70.300  1.00  0.00    -0.183 N  
HETATM    3  C   UNL     1     -10.431   7.046  70.727  1.00  0.00    -0.212 C  
HETATM    4  C   UNL     1     -11.535   6.431  69.892  1.00  0.00    -0.483 C  
HETATM    5  O   UNL     1     -10.147   6.500  71.801  1.00  0.00    -0.184 OA 
ENDROOT
BRANCH   2   6
HETATM    6  C   UNL     1      -9.987   8.857  69.030  1.00  0.00    -0.190 A  
HETATM    7  C   UNL     1     -10.750  10.044  68.904  1.00  0.00    -0.219 A  
HETATM    8  C   UNL     1     -10.792  10.767  67.682  1.00  0.00    -0.332 A  
HETATM    9  I   UNL     1     -12.124  10.594  70.485  1.00  0.00    -0.497 I  
HETATM   10  C   UNL     1     -11.215  12.189  67.721  1.00  0.00    -0.275 C  
HETATM   11  C   UNL     1     -10.263  10.173  66.519  1.00  0.00    -0.223 A  
HETATM   12  C   UNL     1      -9.674   8.892  66.577  1.00  0.00    -0.254 A  
HETATM   13  I   UNL     1     -10.308  11.160  64.612  1.00  0.00    -0.365 I  
HETATM   14  O   UNL     1     -12.118  12.563  66.797  1.00  0.00    -0.546 OA 
HETATM   15  O   UNL     1     -10.783  12.959  68.569  1.00  0.00    -0.242 OA 
HETATM   16  C   UNL     1      -9.427   8.312  67.843  1.00  0.00    -0.146 A  
HETATM   17  I   UNL     1      -7.755   6.935  67.969  1.00  0.00    -0.116 I  
BRANCH  12  18
HETATM   18  N   UNL     1      -9.219   8.300  65.377  1.00  0.00    -0.408 N  
HETATM   19  C   UNL     1      -7.993   8.425  64.778  1.00  0.00    -0.138 C  
HETATM   20  H   UNL     1      -9.891   7.702  64.894  1.00  0.00     0.000 HD 
HETATM   21  C   UNL     1      -6.959   9.396  65.287  1.00  0.00    -0.091 C  
HETATM   22  O   UNL     1      -7.729   7.674  63.837  1.00  0.00    -0.114 OA 
ENDBRANCH  12  18
ENDBRANCH   2   6
TORSDOF 2
ENDMDL
MODEL       27
REMARK 921   NORMALIZED FREE ENERGY PREDICTED BY IDOCK:   -4.34 KCAL/MOL
REMARK 922        TOTAL FREE ENERGY PREDICTED BY IDOCK:   -5.34 KCAL/MOL
REMARK 923 INTER-LIGAND FREE ENERGY PREDICTED BY IDOCK:   -4.91 KCAL/MOL
REMARK 924 INTRA-LIGAND FREE ENERGY PREDICTED BY IDOCK:   -0.43 KCAL/MOL
REMARK 927      BINDING AFFINITY PREDICTED BY RF-SCORE:    0.00 PKD
ROOT
HETATM    1  C   UNL     1      -8.819   8.819  71.687  1.00  0.00    -0.208 C  
HETATM    2  N   UNL     1      -9.786   8.281  70.724  1.00  0.00    -0.169 N  
HETATM    3  C   UNL     1     -10.413   7.078  71.048  1.00  0.00    -0.212 C  
HETATM    4  C   UNL     1     -11.448   6.483  70.115  1.00  0.00    -0.477 C  
HETATM    5  O   UNL     1     -10.179   6.479  72.106  1.00  0.00    -0.184 OA 
ENDROOT
BRANCH   2   6
HETATM    6  C   UNL     1      -9.919   8.991  69.482  1.00  0.00    -0.191 A  
HETATM    7  C   UNL     1      -9.183   8.621  68.330  1.00  0.00    -0.137 A  
HETATM    8  C   UNL     1      -9.445   9.216  67.065  1.00  0.00    -0.201 A  
HETATM    9  I   UNL     1      -7.426   7.375  68.547  1.00  0.00    -0.111 I  
HETATM   10  C   UNL     1      -8.988   8.504  65.847  1.00  0.00    -0.189 C  
HETATM   11  C   UNL     1     -10.279  10.349  67.005  1.00  0.00    -0.225 A  
HETATM   12  C   UNL     1     -10.867  10.867  68.179  1.00  0.00    -0.234 A  
HETATM   13  I   UNL     1     -10.712  11.349  65.154  1.00  0.00    -0.217 I  
HETATM   14  O   UNL     1      -8.351   9.253  64.928  1.00  0.00    -0.139 OA 
HETATM   15  O   UNL     1      -9.159   7.299  65.710  1.00  0.00    -0.086 OA 
HETATM   16  C   UNL     1     -10.787  10.110  69.371  1.00  0.00    -0.241 A  
HETATM   17  I   UNL     1     -12.404  10.371  70.794  1.00  0.00    -0.502 I  
BRANCH  12  18
HETATM   18  N   UNL     1     -11.639  12.048  68.087  1.00  0.00    -0.322 N  
HETATM   19  C   UNL     1     -11.209  13.349  68.118  1.00  0.00    -0.273 C  
HETATM   20  H   UNL     1     -12.645  11.914  67.985  1.00  0.00     0.000 HD 
HETATM   21  C   UNL     1      -9.776  13.703  68.424  1.00  0.00    -0.217 C  
HETATM   22  O   UNL     1     -12.018  14.233  67.830  1.00  0.00    -0.371 OA 
ENDBRANCH  12  18
ENDBRANCH   2   6
TORSDOF 2
ENDMDL
MODEL       28
REMARK 921   NORMALIZED FREE ENERGY PREDICTED BY IDOCK:   -4.32 KCAL/MOL
REMARK 922        TOTAL FREE ENERGY PREDICTED BY IDOCK:   -5.32 KCAL/MOL
REMARK 923 INTER-LIGAND FREE ENERGY PREDICTED BY IDOCK:   -4.93 KCAL/MOL
REMARK 924 INTRA-LIGAND FREE ENERGY PREDICTED BY IDOCK:   -0.40 KCAL/MOL
REMARK 927      BINDING AFFINITY PREDICTED BY RF-SCORE:    0.00 PKD
ROOT
HETATM    1  C   UNL     1     -11.448  15.364  68.700  1.00  0.00    -0.346 C  
HETATM    2  N   UNL     1     -10.415  15.386  67.659  1.00  0.00    -0.266 N  
HETATM    3  C   UNL     1     -10.136  16.613  67.057  1.00  0.00    -0.281 C  
HETATM    4  C   UNL     1      -9.058  16.714  65.998  1.00  0.00    -0.259 C  
HETATM    5  O   UNL     1     -10.723  17.652  67.383  1.00  0.00    -0.340 OA 
ENDROOT
BRANCH   2   6
HETATM    6  C   UNL     1      -9.860  14.116  67.278  1.00  0.00    -0.238 A  
HETATM    7  C   UNL     1     -10.383  13.369  66.195  1.00  0.00    -0.295 A  
HETATM    8  C   UNL     1      -9.725  12.203  65.717  1.00  0.00    -0.245 A  
HETATM    9  I   UNL     1     -12.370  13.814  65.460  1.00  0.00    -0.508 I  
HETATM   10  C   UNL     1     -10.042  11.729  64.348  1.00  0.00    -0.282 C  
HETATM   11  C   UNL     1      -8.674  11.653  66.478  1.00  0.00    -0.182 A  
HETATM   12  C   UNL     1      -8.266  12.269  67.680  1.00  0.00    -0.166 A  
HETATM   13  I   UNL     1      -7.636   9.874  65.871  1.00  0.00    -0.123 I  
HETATM   14  O   UNL     1     -10.281  10.411  64.219  1.00  0.00    -0.323 OA 
HETATM   15  O   UNL     1     -10.107  12.505  63.404  1.00  0.00    -0.396 OA 
HETATM   16  C   UNL     1      -8.769  13.554  67.994  1.00  0.00    -0.181 A  
HETATM   17  I   UNL     1      -7.492  14.828  69.199  1.00  0.00    -0.086 I  
BRANCH  12  18
HETATM   18  N   UNL     1      -7.257  11.648  68.453  1.00  0.00    -0.081 N  
HETATM   19  C   UNL     1      -7.389  10.637  69.369  1.00  0.00    -0.133 C  
HETATM   20  H   UNL     1      -6.309  11.997  68.309  1.00  0.00     0.000 HD 
HETATM   21  C   UNL     1      -8.742  10.133  69.802  1.00  0.00    -0.148 C  
HETATM   22  O   UNL     1      -6.363  10.103  69.794  1.00  0.00    -0.049 OA 
ENDBRANCH  12  18
ENDBRANCH   2   6
TORSDOF 2
ENDMDL
MODEL       29
REMARK 921   NORMALIZED FREE ENERGY PREDICTED BY IDOCK:   -4.32 KCAL/MOL
REMARK 922        TOTAL FREE ENERGY PREDICTED BY IDOCK:   -5.32 KCAL/MOL
REMARK 923 INTER-LIGAND FREE ENERGY PREDICTED BY IDOCK:   -4.90 KCAL/MOL
REMARK 924 INTRA-LIGAND FREE ENERGY PREDICTED BY IDOCK:   -0.42 KCAL/MOL
REMARK 927      BINDING AFFINITY PREDICTED BY RF-SCORE:    0.00 PKD
ROOT
HETATM    1  C   UNL     1     -10.992  12.950  69.002  1.00  0.00    -0.197 C  
HETATM    2  N   UNL     1     -10.730  11.610  68.466  1.00  0.00    -0.208 N  
HETATM    3  C   UNL     1     -11.270  11.301  67.217  1.00  0.00    -0.296 C  
HETATM    4  C   UNL     1     -11.011   9.948  66.588  1.00  0.00     0.079 C  
HETATM    5  O   UNL     1     -11.940  12.118  66.571  1.00  0.00    -0.618 OA 
ENDROOT
BRANCH   2   6
HETATM    6  C   UNL     1     -10.029  10.698  69.327  1.00  0.00    -0.193 A  
HETATM    7  C   UNL     1      -8.616  10.592  69.308  1.00  0.00    -0.126 A  
HETATM    8  C   UNL     1      -7.922   9.818  70.277  1.00  0.00    -0.185 A  
HETATM    9  I   UNL     1      -7.518  11.347  67.601  1.00  0.00    -0.128 I  
HETATM   10  C   UNL     1      -6.479  10.090  70.491  1.00  0.00    -0.121 C  
HETATM   11  C   UNL     1      -8.657   8.960  71.119  1.00  0.00    -0.208 A  
HETATM   12  C   UNL     1     -10.063   8.894  71.018  1.00  0.00    -0.255 A  
HETATM   13  I   UNL     1      -7.708   7.718  72.591  1.00  0.00    -0.176 I  
HETATM   14  O   UNL     1      -5.675   9.013  70.540  1.00  0.00    -0.029 OA 
HETATM   15  O   UNL     1      -6.054  11.234  70.586  1.00  0.00    -0.307 OA 
HETATM   16  C   UNL     1     -10.735   9.852  70.223  1.00  0.00    -0.310 A  
HETATM   17  I   UNL     1     -12.761  10.354  70.816  1.00  0.00    -0.317 I  
BRANCH  12  18
HETATM   18  N   UNL     1     -10.759   7.969  71.829  1.00  0.00    -0.230 N  
HETATM   19  C   UNL     1     -11.319   6.771  71.466  1.00  0.00    -0.275 C  
HETATM   20  H   UNL     1     -10.857   8.225  72.812  1.00  0.00     0.000 HD 
HETATM   21  C   UNL     1     -11.395   6.338  70.024  1.00  0.00    -0.486 C  
HETATM   22  O   UNL     1     -11.713   6.022  72.361  1.00  0.00    -0.309 OA 
ENDBRANCH  12  18
ENDBRANCH   2   6
TORSDOF 2
ENDMDL
MODEL       30
REMARK 921   NORMALIZED FREE ENERGY PREDICTED BY IDOCK:   -4.30 KCAL/MOL
REMARK 922        TOTAL FREE ENERGY PREDICTED BY IDOCK:   -5.30 KCAL/MOL
REMARK 923 INTER-LIGAND FREE ENERGY PREDICTED BY IDOCK:   -4.78 KCAL/MOL
REMARK 924 INTRA-LIGAND FREE ENERGY PREDICTED BY IDOCK:   -0.52 KCAL/MOL
REMARK 927      BINDING AFFINITY PREDICTED BY RF-SCORE:    0.00 PKD
ROOT
HETATM    1  C   UNL     1     -10.008  16.263  66.721  1.00  0.00    -0.261 C  
HETATM    2  N   UNL     1     -10.427  15.055  67.440  1.00  0.00    -0.254 N  
HETATM    3  C   UNL     1     -11.311  15.218  68.507  1.00  0.00    -0.327 C  
HETATM    4  C   UNL     1     -11.812  14.011  69.272  1.00  0.00    -0.389 C  
HETATM    5  O   UNL     1     -11.741  16.330  68.840  1.00  0.00    -0.313 OA 
ENDROOT
BRANCH   2   6
HETATM    6  C   UNL     1      -9.801  13.823  67.047  1.00  0.00    -0.251 A  
HETATM    7  C   UNL     1     -10.265  13.072  65.939  1.00  0.00    -0.292 A  
HETATM    8  C   UNL     1      -9.541  11.950  65.454  1.00  0.00    -0.183 A  
HETATM    9  I   UNL     1     -12.259  13.432  65.174  1.00  0.00    -0.538 I  
HETATM   10  C   UNL     1      -9.808  11.487  64.070  1.00  0.00    -0.274 C  
HETATM   11  C   UNL     1      -8.479  11.438  66.225  1.00  0.00    -0.138 A  
HETATM   12  C   UNL     1      -8.124  12.050  67.446  1.00  0.00    -0.168 A  
HETATM   13  I   UNL     1      -7.341   9.725  65.605  1.00  0.00    -0.123 I  
HETATM   14  O   UNL     1      -9.979  10.162  63.911  1.00  0.00    -0.213 OA 
HETATM   15  O   UNL     1      -9.894  12.278  63.139  1.00  0.00    -0.373 OA 
HETATM   16  C   UNL     1      -8.697  13.301  67.773  1.00  0.00    -0.194 A  
HETATM   17  I   UNL     1      -7.509  14.614  69.027  1.00  0.00    -0.077 I  
BRANCH  12  18
HETATM   18  N   UNL     1      -7.101  11.465  68.226  1.00  0.00    -0.074 N  
HETATM   19  C   UNL     1      -7.216  10.510  69.203  1.00  0.00    -0.099 C  
HETATM   20  H   UNL     1      -6.154  11.796  68.039  1.00  0.00     0.000 HD 
HETATM   21  C   UNL     1      -8.561  10.044  69.700  1.00  0.00    -0.198 C  
HETATM   22  O   UNL     1      -6.184   9.991  69.631  1.00  0.00    -0.043 OA 
ENDBRANCH  12  18
ENDBRANCH   2   6
TORSDOF 2
ENDMDL
MODEL       31
REMARK 921   NORMALIZED FREE ENERGY PREDICTED BY IDOCK:   -4.29 KCAL/MOL
REMARK 922        TOTAL FREE ENERGY PREDICTED BY IDOCK:   -5.28 KCAL/MOL
REMARK 923 INTER-LIGAND FREE ENERGY PREDICTED BY IDOCK:   -4.77 KCAL/MOL
REMARK 924 INTRA-LIGAND FREE ENERGY PREDICTED BY IDOCK:   -0.52 KCAL/MOL
REMARK 927      BINDING AFFINITY PREDICTED BY RF-SCORE:    0.00 PKD
ROOT
HETATM    1  C   UNL     1     -10.294  12.648  64.585  1.00  0.00    -0.330 C  
HETATM    2  N   UNL     1     -10.508  13.191  65.930  1.00  0.00    -0.275 N  
HETATM    3  C   UNL     1     -11.754  12.974  66.520  1.00  0.00    -0.382 C  
HETATM    4  C   UNL     1     -12.032  13.478  67.921  1.00  0.00    -0.372 C  
HETATM    5  O   UNL     1     -12.650  12.343  65.946  1.00  0.00    -0.475 OA 
ENDROOT
BRANCH   2   6
HETATM    6  C   UNL     1      -9.448  13.993  66.477  1.00  0.00    -0.279 A  
HETATM    7  C   UNL     1      -8.318  13.410  67.101  1.00  0.00    -0.139 A  
HETATM    8  C   UNL     1      -7.198  14.197  67.483  1.00  0.00    -0.188 A  
HETATM    9  I   UNL     1      -8.421  11.354  67.774  1.00  0.00    -0.148 I  
HETATM   10  C   UNL     1      -5.901  13.512  67.706  1.00  0.00    -0.116 C  
HETATM   11  C   UNL     1      -7.311  15.601  67.456  1.00  0.00    -0.185 A  
HETATM   12  C   UNL     1      -8.509  16.212  67.030  1.00  0.00    -0.208 A  
HETATM   13  I   UNL     1      -5.696  16.886  68.049  1.00  0.00    -0.156 I  
HETATM   14  O   UNL     1      -5.237  13.852  68.825  1.00  0.00    -0.077 OA 
HETATM   15  O   UNL     1      -5.484  12.666  66.925  1.00  0.00    -0.335 OA 
HETATM   16  C   UNL     1      -9.506  15.411  66.425  1.00  0.00    -0.296 A  
HETATM   17  I   UNL     1     -10.790  16.390  64.976  1.00  0.00     0.312 I  
BRANCH  12  18
HETATM   18  N   UNL     1      -8.609  17.622  67.086  1.00  0.00    -0.223 N  
HETATM   19  C   UNL     1      -9.359  18.388  67.941  1.00  0.00    -0.280 C  
HETATM   20  H   UNL     1      -8.051  18.135  66.403  1.00  0.00     0.000 HD 
HETATM   21  C   UNL     1     -10.351  17.772  68.893  1.00  0.00    -0.300 C  
HETATM   22  O   UNL     1      -9.159  19.604  67.954  1.00  0.00    -0.314 OA 
ENDBRANCH  12  18
ENDBRANCH   2   6
TORSDOF 2
ENDMDL
MODEL       32
REMARK 921   NORMALIZED FREE ENERGY PREDICTED BY IDOCK:   -4.26 KCAL/MOL
REMARK 922        TOTAL FREE ENERGY PREDICTED BY IDOCK:   -5.25 KCAL/MOL
REMARK 923 INTER-LIGAND FREE ENERGY PREDICTED BY IDOCK:   -5.35 KCAL/MOL
REMARK 924 INTRA-LIGAND FREE ENERGY PREDICTED BY IDOCK:    0.10 KCAL/MOL
REMARK 927      BINDING AFFINITY PREDICTED BY RF-SCORE:    0.00 PKD
ROOT
HETATM    1  C   UNL     1     -10.733  10.141  66.979  1.00  0.00    -0.196 C  
HETATM    2  N   UNL     1      -9.821  10.797  66.037  1.00  0.00    -0.225 N  
HETATM    3  C   UNL     1      -8.950   9.981  65.314  1.00  0.00    -0.186 C  
HETATM    4  C   UNL     1      -8.004  10.588  64.298  1.00  0.00    -0.005 C  
HETATM    5  O   UNL     1      -8.941   8.750  65.446  1.00  0.00    -0.197 OA 
ENDROOT
BRANCH   2   6
HETATM    6  C   UNL     1      -9.833  12.234  66.023  1.00  0.00    -0.248 A  
HETATM    7  C   UNL     1     -10.734  12.964  65.209  1.00  0.00    -0.296 A  
HETATM    8  C   UNL     1     -10.857  14.374  65.328  1.00  0.00    -0.370 A  
HETATM    9  I   UNL     1     -11.701  11.972  63.544  1.00  0.00    -0.333 I  
HETATM   10  C   UNL     1     -12.086  15.018  64.802  1.00  0.00    -0.263 C  
HETATM   11  C   UNL     1      -9.909  15.080  66.094  1.00  0.00    -0.301 A  
HETATM   12  C   UNL     1      -8.870  14.390  66.754  1.00  0.00    -0.200 A  
HETATM   13  I   UNL     1      -9.978  17.216  66.309  1.00  0.00    -0.225 I  
HETATM   14  O   UNL     1     -11.903  16.118  64.050  1.00  0.00    -0.876 OA 
HETATM   15  O   UNL     1     -13.196  14.549  65.023  1.00  0.00    -0.469 OA 
HETATM   16  C   UNL     1      -8.922  12.978  66.819  1.00  0.00    -0.175 A  
HETATM   17  I   UNL     1      -7.979  12.051  68.539  1.00  0.00     0.019 I  
BRANCH  12  18
HETATM   18  N   UNL     1      -7.895  15.140  67.453  1.00  0.00    -0.182 N  
HETATM   19  C   UNL     1      -7.957  15.633  68.731  1.00  0.00    -0.172 C  
HETATM   20  H   UNL     1      -7.036  15.339  66.941  1.00  0.00     0.000 HD 
HETATM   21  C   UNL     1      -9.220  15.558  69.549  1.00  0.00    -0.265 C  
HETATM   22  O   UNL     1      -6.926  16.095  69.223  1.00  0.00    -0.189 OA 
ENDBRANCH  12  18
ENDBRANCH   2   6
TORSDOF 2
ENDMDL
MODEL       33
REMARK 921   NORMALIZED FREE ENERGY PREDICTED BY IDOCK:   -4.23 KCAL/MOL
REMARK 922        TOTAL FREE ENERGY PREDICTED BY IDOCK:   -5.22 KCAL/MOL
REMARK 923 INTER-LIGAND FREE ENERGY PREDICTED BY IDOCK:   -4.64 KCAL/MOL
REMARK 924 INTRA-LIGAND FREE ENERGY PREDICTED BY IDOCK:   -0.58 KCAL/MOL
REMARK 927      BINDING AFFINITY PREDICTED BY RF-SCORE:    0.00 PKD
ROOT
HETATM    1  C   UNL     1      -5.898  11.054  66.182  1.00  0.00    -0.142 C  
HETATM    2  N   UNL     1      -6.866  10.916  67.275  1.00  0.00    -0.079 N  
HETATM    3  C   UNL     1      -6.868   9.713  67.982  1.00  0.00    -0.073 C  
HETATM    4  C   UNL     1      -7.817   9.515  69.145  1.00  0.00    -0.082 C  
HETATM    5  O   UNL     1      -6.085   8.793  67.714  1.00  0.00    -0.046 OA 
ENDROOT
BRANCH   2   6
HETATM    6  C   UNL     1      -7.799  11.995  67.448  1.00  0.00    -0.162 A  
HETATM    7  C   UNL     1      -9.106  11.944  66.904  1.00  0.00    -0.196 A  
HETATM    8  C   UNL     1     -10.076  12.933  67.222  1.00  0.00    -0.231 A  
HETATM    9  I   UNL     1      -9.543  10.532  65.321  1.00  0.00    -0.389 I  
HETATM   10  C   UNL     1     -11.507  12.607  67.007  1.00  0.00    -0.346 C  
HETATM   11  C   UNL     1      -9.664  14.100  67.894  1.00  0.00    -0.224 A  
HETATM   12  C   UNL     1      -8.314  14.269  68.269  1.00  0.00    -0.165 A  
HETATM   13  I   UNL     1     -11.037  15.675  68.390  1.00  0.00    -0.354 I  
HETATM   14  O   UNL     1     -12.240  13.546  66.381  1.00  0.00    -0.415 OA 
HETATM   15  O   UNL     1     -11.976  11.532  67.357  1.00  0.00    -0.623 OA 
HETATM   16  C   UNL     1      -7.433  13.168  68.160  1.00  0.00    -0.131 A  
HETATM   17  I   UNL     1      -5.773  13.113  69.555  1.00  0.00    -0.118 I  
BRANCH  12  18
HETATM   18  N   UNL     1      -7.926  15.486  68.876  1.00  0.00    -0.169 N  
HETATM   19  C   UNL     1      -7.381  16.596  68.285  1.00  0.00    -0.179 C  
HETATM   20  H   UNL     1      -8.069  15.545  69.885  1.00  0.00     0.000 HD 
HETATM   21  C   UNL     1      -6.964  16.598  66.836  1.00  0.00    -0.262 C  
HETATM   22  O   UNL     1      -7.292  17.625  68.957  1.00  0.00    -0.254 OA 
ENDBRANCH  12  18
ENDBRANCH   2   6
TORSDOF 2
ENDMDL
MODEL       34
REMARK 921   NORMALIZED FREE ENERGY PREDICTED BY IDOCK:   -4.20 KCAL/MOL
REMARK 922        TOTAL FREE ENERGY PREDICTED BY IDOCK:   -5.19 KCAL/MOL
REMARK 923 INTER-LIGAND FREE ENERGY PREDICTED BY IDOCK:   -4.63 KCAL/MOL
REMARK 924 INTRA-LIGAND FREE ENERGY PREDICTED BY IDOCK:   -0.56 KCAL/MOL
REMARK 927      BINDING AFFINITY PREDICTED BY RF-SCORE:    0.00 PKD
ROOT
HETATM    1  C   UNL     1      -7.758   9.749  70.239  1.00  0.00    -0.172 C  
HETATM    2  N   UNL     1      -8.719   9.034  69.393  1.00  0.00    -0.138 N  
HETATM    3  C   UNL     1      -9.101   7.754  69.794  1.00  0.00    -0.147 C  
HETATM    4  C   UNL     1     -10.115   6.973  68.985  1.00  0.00    -0.182 C  
HETATM    5  O   UNL     1      -8.662   7.232  70.827  1.00  0.00    -0.143 OA 
ENDROOT
BRANCH   2   6
HETATM    6  C   UNL     1      -9.097   9.678  68.164  1.00  0.00    -0.122 A  
HETATM    7  C   UNL     1      -8.431   9.405  66.944  1.00  0.00    -0.127 A  
HETATM    8  C   UNL     1      -8.918   9.912  65.709  1.00  0.00    -0.189 A  
HETATM    9  I   UNL     1      -6.475   8.476  66.987  1.00  0.00    -0.058 I  
HETATM   10  C   UNL     1      -8.475   9.254  64.456  1.00  0.00    -0.181 C  
HETATM   11  C   UNL     1      -9.934  10.888  65.726  1.00  0.00    -0.247 A  
HETATM   12  C   UNL     1     -10.476  11.332  66.951  1.00  0.00    -0.245 A  
HETATM   13  I   UNL     1     -10.717  11.751  63.922  1.00  0.00    -0.590 I  
HETATM   14  O   UNL     1      -8.072  10.073  63.468  1.00  0.00    -0.146 OA 
HETATM   15  O   UNL     1      -8.453   8.034  64.349  1.00  0.00    -0.071 OA 
HETATM   16  C   UNL     1     -10.148  10.633  68.135  1.00  0.00    -0.158 A  
HETATM   17  I   UNL     1     -11.631  10.659  69.719  1.00  0.00    -0.415 I  
BRANCH  12  18
HETATM   18  N   UNL     1     -11.442  12.365  66.930  1.00  0.00    -0.339 N  
HETATM   19  C   UNL     1     -11.251  13.712  67.101  1.00  0.00    -0.309 C  
HETATM   20  H   UNL     1     -12.405  12.070  66.768  1.00  0.00     0.000 HD 
HETATM   21  C   UNL     1      -9.914  14.277  67.507  1.00  0.00    -0.235 C  
HETATM   22  O   UNL     1     -12.194  14.465  66.855  1.00  0.00    -0.415 OA 
ENDBRANCH  12  18
ENDBRANCH   2   6
TORSDOF 2
ENDMDL
MODEL       35
REMARK 921   NORMALIZED FREE ENERGY PREDICTED BY IDOCK:   -4.16 KCAL/MOL
REMARK 922        TOTAL FREE ENERGY PREDICTED BY IDOCK:   -5.14 KCAL/MOL
REMARK 923 INTER-LIGAND FREE ENERGY PREDICTED BY IDOCK:   -4.67 KCAL/MOL
REMARK 924 INTRA-LIGAND FREE ENERGY PREDICTED BY IDOCK:   -0.48 KCAL/MOL
REMARK 927      BINDING AFFINITY PREDICTED BY RF-SCORE:    0.00 PKD
ROOT
HETATM    1  C   UNL     1      -7.904   9.762  68.460  1.00  0.00    -0.081 C  
HETATM    2  N   UNL     1      -7.262  10.579  67.426  1.00  0.00    -0.090 N  
HETATM    3  C   UNL     1      -6.129  10.053  66.803  1.00  0.00    -0.060 C  
HETATM    4  C   UNL     1      -5.436  10.828  65.702  1.00  0.00    -0.141 C  
HETATM    5  O   UNL     1      -5.678   8.939  67.096  1.00  0.00    -0.044 OA 
ENDROOT
BRANCH   2   6
HETATM    6  C   UNL     1      -7.797  11.898  67.223  1.00  0.00    -0.168 A  
HETATM    7  C   UNL     1      -7.176  13.046  67.772  1.00  0.00    -0.139 A  
HETATM    8  C   UNL     1      -7.610  14.355  67.428  1.00  0.00    -0.196 A  
HETATM    9  I   UNL     1      -5.765  12.814  69.399  1.00  0.00    -0.116 I  
HETATM   10  C   UNL     1      -6.679  15.487  67.658  1.00  0.00    -0.179 C  
HETATM   11  C   UNL     1      -8.818  14.508  66.719  1.00  0.00    -0.220 A  
HETATM   12  C   UNL     1      -9.568  13.376  66.335  1.00  0.00    -0.257 A  
HETATM   13  I   UNL     1      -9.586  16.440  66.180  1.00  0.00    -0.290 I  
HETATM   14  O   UNL     1      -7.202  16.571  68.257  1.00  0.00    -0.150 OA 
HETATM   15  O   UNL     1      -5.498  15.415  67.342  1.00  0.00    -0.331 OA 
HETATM   16  C   UNL     1      -8.987  12.094  66.474  1.00  0.00    -0.179 A  
HETATM   17  I   UNL     1      -9.650  10.573  65.076  1.00  0.00    -0.420 I  
BRANCH  12  18
HETATM   18  N   UNL     1     -10.811  13.574  65.690  1.00  0.00    -0.284 N  
HETATM   19  C   UNL     1     -12.048  13.737  66.258  1.00  0.00    -0.446 C  
HETATM   20  H   UNL     1     -10.783  13.597  64.670  1.00  0.00     0.000 HD 
HETATM   21  C   UNL     1     -12.268  13.565  67.739  1.00  0.00    -0.194 C  
HETATM   22  O   UNL     1     -12.977  14.088  65.529  1.00  0.00    -0.681 OA 
ENDBRANCH  12  18
ENDBRANCH   2   6
TORSDOF 2
ENDMDL
MODEL       36
REMARK 921   NORMALIZED FREE ENERGY PREDICTED BY IDOCK:   -4.16 KCAL/MOL
REMARK 922        TOTAL FREE ENERGY PREDICTED BY IDOCK:   -5.14 KCAL/MOL
REMARK 923 INTER-LIGAND FREE ENERGY PREDICTED BY IDOCK:   -4.62 KCAL/MOL
REMARK 924 INTRA-LIGAND FREE ENERGY PREDICTED BY IDOCK:   -0.52 KCAL/MOL
REMARK 927      BINDING AFFINITY PREDICTED BY RF-SCORE:    0.00 PKD
ROOT
HETATM    1  C   UNL     1      -9.098   6.594  66.417  1.00  0.00    -0.152 C  
HETATM    2  N   UNL     1      -8.571   7.433  67.499  1.00  0.00    -0.122 N  
HETATM    3  C   UNL     1      -7.471   6.950  68.208  1.00  0.00    -0.099 C  
HETATM    4  C   UNL     1      -6.855   7.780  69.315  1.00  0.00    -0.048 C  
HETATM    5  O   UNL     1      -6.944   5.862  67.941  1.00  0.00    -0.062 OA 
ENDROOT
BRANCH   2   6
HETATM    6  C   UNL     1      -9.307   8.630  67.800  1.00  0.00    -0.141 A  
HETATM    7  C   UNL     1     -10.263   8.674  68.844  1.00  0.00    -0.207 A  
HETATM    8  C   UNL     1     -10.859   9.900  69.247  1.00  0.00    -0.255 A  
HETATM    9  I   UNL     1     -11.071   6.822  69.623  1.00  0.00    -0.283 I  
HETATM   10  C   UNL     1     -11.486   9.968  70.590  1.00  0.00    -0.345 C  
HETATM   11  C   UNL     1     -10.674  11.044  68.445  1.00  0.00    -0.203 A  
HETATM   12  C   UNL     1      -9.886  10.976  67.277  1.00  0.00    -0.178 A  
HETATM   13  I   UNL     1     -11.560  12.937  68.939  1.00  0.00    -0.365 I  
HETATM   14  O   UNL     1     -12.707  10.531  70.645  1.00  0.00    -0.345 OA 
HETATM   15  O   UNL     1     -10.928   9.509  71.578  1.00  0.00    -0.364 OA 
HETATM   16  C   UNL     1      -9.111   9.816  67.043  1.00  0.00    -0.138 A  
HETATM   17  I   UNL     1      -7.286  10.082  65.901  1.00  0.00    -0.131 I  
BRANCH  12  18
HETATM   18  N   UNL     1      -9.783  12.126  66.460  1.00  0.00    -0.218 N  
HETATM   19  C   UNL     1     -10.330  12.341  65.222  1.00  0.00    -0.281 C  
HETATM   20  H   UNL     1      -9.231  12.894  66.842  1.00  0.00     0.000 HD 
HETATM   21  C   UNL     1     -11.033  11.244  64.465  1.00  0.00    -0.301 C  
HETATM   22  O   UNL     1     -10.285  13.483  64.760  1.00  0.00    -0.379 OA 
ENDBRANCH  12  18
ENDBRANCH   2   6
TORSDOF 2
ENDMDL
MODEL       37
REMARK 921   NORMALIZED FREE ENERGY PREDICTED BY IDOCK:   -4.15 KCAL/MOL
REMARK 922        TOTAL FREE ENERGY PREDICTED BY IDOCK:   -5.13 KCAL/MOL
REMARK 923 INTER-LIGAND FREE ENERGY PREDICTED BY IDOCK:   -4.57 KCAL/MOL
REMARK 924 INTRA-LIGAND FREE ENERGY PREDICTED BY IDOCK:   -0.55 KCAL/MOL
REMARK 927      BINDING AFFINITY PREDICTED BY RF-SCORE:    0.00 PKD
ROOT
HETATM    1  C   UNL     1      -9.311   9.845  65.071  1.00  0.00    -0.264 C  
HETATM    2  N   UNL     1      -9.584  10.158  66.478  1.00  0.00    -0.179 N  
HETATM    3  C   UNL     1     -10.330   9.234  67.209  1.00  0.00    -0.265 C  
HETATM    4  C   UNL     1     -10.619   9.478  68.676  1.00  0.00    -0.239 C  
HETATM    5  O   UNL     1     -10.746   8.183  66.706  1.00  0.00    -0.278 OA 
ENDROOT
BRANCH   2   6
HETATM    6  C   UNL     1      -9.146  11.445  66.946  1.00  0.00    -0.175 A  
HETATM    7  C   UNL     1      -7.835  11.652  67.440  1.00  0.00    -0.147 A  
HETATM    8  C   UNL     1      -7.357  12.956  67.739  1.00  0.00    -0.134 A  
HETATM    9  I   UNL     1      -6.650   9.946  68.053  1.00  0.00    -0.059 I  
HETATM   10  C   UNL     1      -5.890  13.166  67.816  1.00  0.00    -0.138 C  
HETATM   11  C   UNL     1      -8.271  14.027  67.769  1.00  0.00    -0.168 A  
HETATM   12  C   UNL     1      -9.635  13.809  67.479  1.00  0.00    -0.219 A  
HETATM   13  I   UNL     1      -7.665  16.032  68.247  1.00  0.00    -0.174 I  
HETATM   14  O   UNL     1      -5.447  13.864  68.877  1.00  0.00    -0.072 OA 
HETATM   15  O   UNL     1      -5.135  12.702  66.971  1.00  0.00    -0.330 OA 
HETATM   16  C   UNL     1     -10.027  12.559  66.946  1.00  0.00    -0.224 A  
HETATM   17  I   UNL     1     -11.774  12.558  65.659  1.00  0.00    -0.419 I  
BRANCH  12  18
HETATM   18  N   UNL     1     -10.534  14.895  67.590  1.00  0.00    -0.246 N  
HETATM   19  C   UNL     1     -11.366  15.207  68.634  1.00  0.00    -0.310 C  
HETATM   20  H   UNL     1     -10.569  15.527  66.790  1.00  0.00     0.000 HD 
HETATM   21  C   UNL     1     -11.542  14.280  69.810  1.00  0.00    -0.350 C  
HETATM   22  O   UNL     1     -11.930  16.302  68.618  1.00  0.00    -0.182 OA 
ENDBRANCH  12  18
ENDBRANCH   2   6
TORSDOF 2
ENDMDL
MODEL       38
REMARK 921   NORMALIZED FREE ENERGY PREDICTED BY IDOCK:   -4.12 KCAL/MOL
REMARK 922        TOTAL FREE ENERGY PREDICTED BY IDOCK:   -5.10 KCAL/MOL
REMARK 923 INTER-LIGAND FREE ENERGY PREDICTED BY IDOCK:   -4.77 KCAL/MOL
REMARK 924 INTRA-LIGAND FREE ENERGY PREDICTED BY IDOCK:   -0.33 KCAL/MOL
REMARK 927      BINDING AFFINITY PREDICTED BY RF-SCORE:    0.00 PKD
ROOT
HETATM    1  C   UNL     1     -13.009  13.458  65.955  1.00  0.00     0.108 C  
HETATM    2  N   UNL     1     -11.718  13.186  65.314  1.00  0.00    -0.329 N  
HETATM    3  C   UNL     1     -11.738  12.526  64.085  1.00  0.00    -0.399 C  
HETATM    4  C   UNL     1     -10.443  12.244  63.351  1.00  0.00    -0.408 C  
HETATM    5  O   UNL     1     -12.796  12.184  63.540  1.00  0.00    -0.768 OA 
ENDROOT
BRANCH   2   6
HETATM    6  C   UNL     1     -10.542  13.530  66.065  1.00  0.00    -0.285 A  
HETATM    7  C   UNL     1      -9.702  12.539  66.629  1.00  0.00    -0.242 A  
HETATM    8  C   UNL     1      -8.455  12.879  67.220  1.00  0.00    -0.197 A  
HETATM    9  I   UNL     1     -10.458  10.526  66.885  1.00  0.00    -0.241 I  
HETATM   10  C   UNL     1      -7.440  11.810  67.382  1.00  0.00    -0.143 C  
HETATM   11  C   UNL     1      -8.161  14.236  67.459  1.00  0.00    -0.189 A  
HETATM   12  C   UNL     1      -9.081  15.241  67.090  1.00  0.00    -0.210 A  
HETATM   13  I   UNL     1      -6.325  14.860  68.382  1.00  0.00    -0.149 I  
HETATM   14  O   UNL     1      -6.836  11.743  68.582  1.00  0.00    -0.069 OA 
HETATM   15  O   UNL     1      -7.195  11.022  66.477  1.00  0.00    -0.138 OA 
HETATM   16  C   UNL     1     -10.190  14.888  66.286  1.00  0.00    -0.294 A  
HETATM   17  I   UNL     1     -10.972  16.436  64.981  1.00  0.00     0.292 I  
BRANCH  12  18
HETATM   18  N   UNL     1      -8.783  16.585  67.412  1.00  0.00    -0.181 N  
HETATM   19  C   UNL     1      -9.306  17.355  68.418  1.00  0.00    -0.285 C  
HETATM   20  H   UNL     1      -8.088  17.040  66.820  1.00  0.00     0.000 HD 
HETATM   21  C   UNL     1     -10.453  16.873  69.269  1.00  0.00    -0.319 C  
HETATM   22  O   UNL     1      -8.774  18.441  68.652  1.00  0.00    -0.318 OA 
ENDBRANCH  12  18
ENDBRANCH   2   6
TORSDOF 2
ENDMDL
MODEL       39
REMARK 921   NORMALIZED FREE ENERGY PREDICTED BY IDOCK:   -4.09 KCAL/MOL
REMARK 922        TOTAL FREE ENERGY PREDICTED BY IDOCK:   -5.07 KCAL/MOL
REMARK 923 INTER-LIGAND FREE ENERGY PREDICTED BY IDOCK:   -4.53 KCAL/MOL
REMARK 924 INTRA-LIGAND FREE ENERGY PREDICTED BY IDOCK:   -0.54 KCAL/MOL
REMARK 927      BINDING AFFINITY PREDICTED BY RF-SCORE:    0.00 PKD
ROOT
HETATM    1  C   UNL     1      -9.590   8.578  72.667  1.00  0.00    -0.223 C  
HETATM    2  N   UNL     1     -10.251   8.316  71.384  1.00  0.00    -0.197 N  
HETATM    3  C   UNL     1     -10.766   7.036  71.176  1.00  0.00    -0.230 C  
HETATM    4  C   UNL     1     -11.491   6.707  69.888  1.00  0.00    -0.414 C  
HETATM    5  O   UNL     1     -10.682   6.148  72.034  1.00  0.00    -0.218 OA 
ENDROOT
BRANCH   2   6
HETATM    6  C   UNL     1     -10.213   9.375  70.413  1.00  0.00    -0.255 A  
HETATM    7  C   UNL     1     -11.201  10.390  70.378  1.00  0.00    -0.321 A  
HETATM    8  C   UNL     1     -11.064  11.523  69.531  1.00  0.00    -0.256 A  
HETATM    9  I   UNL     1     -13.093  10.063  71.379  1.00  0.00    -0.448 I  
HETATM   10  C   UNL     1     -11.860  12.735  69.845  1.00  0.00    -0.301 C  
HETATM   11  C   UNL     1     -10.056  11.521  68.547  1.00  0.00    -0.207 A  
HETATM   12  C   UNL     1      -9.180  10.421  68.426  1.00  0.00    -0.147 A  
HETATM   13  I   UNL     1      -9.784  13.163  67.190  1.00  0.00    -0.256 I  
HETATM   14  O   UNL     1     -12.499  13.308  68.810  1.00  0.00    -0.023 OA 
HETATM   15  O   UNL     1     -11.946  13.161  70.990  1.00  0.00    -0.161 OA 
HETATM   16  C   UNL     1      -9.184   9.431  69.436  1.00  0.00    -0.165 A  
HETATM   17  I   UNL     1      -7.317   8.377  69.767  1.00  0.00    -0.063 I  
BRANCH  12  18
HETATM   18  N   UNL     1      -8.228  10.425  67.379  1.00  0.00    -0.117 N  
HETATM   19  C   UNL     1      -8.290   9.780  66.172  1.00  0.00    -0.120 C  
HETATM   20  H   UNL     1      -7.387  10.978  67.545  1.00  0.00     0.000 HD 
HETATM   21  C   UNL     1      -9.390   8.800  65.852  1.00  0.00    -0.284 C  
HETATM   22  O   UNL     1      -7.447  10.065  65.320  1.00  0.00    -0.125 OA 
ENDBRANCH  12  18
ENDBRANCH   2   6
TORSDOF 2
ENDMDL
MODEL       40
REMARK 921   NORMALIZED FREE ENERGY PREDICTED BY IDOCK:   -4.09 KCAL/MOL
REMARK 922        TOTAL FREE ENERGY PREDICTED BY IDOCK:   -5.06 KCAL/MOL
REMARK 923 INTER-LIGAND FREE ENERGY PREDICTED BY IDOCK:   -4.51 KCAL/MOL
REMARK 924 INTRA-LIGAND FREE ENERGY PREDICTED BY IDOCK:   -0.55 KCAL/MOL
REMARK 927      BINDING AFFINITY PREDICTED BY RF-SCORE:    0.00 PKD
ROOT
HETATM    1  C   UNL     1     -12.150  13.981  67.072  1.00  0.00    -0.420 C  
HETATM    2  N   UNL     1     -11.258  14.062  68.233  1.00  0.00    -0.256 N  
HETATM    3  C   UNL     1     -11.545  15.028  69.198  1.00  0.00    -0.310 C  
HETATM    4  C   UNL     1     -10.686  15.145  70.439  1.00  0.00    -0.211 C  
HETATM    5  O   UNL     1     -12.517  15.789  69.095  1.00  0.00    -0.106 OA 
ENDROOT
BRANCH   2   6
HETATM    6  C   UNL     1     -10.103  13.207  68.217  1.00  0.00    -0.247 A  
HETATM    7  C   UNL     1      -8.835  13.676  67.793  1.00  0.00    -0.190 A  
HETATM    8  C   UNL     1      -7.668  12.879  67.941  1.00  0.00    -0.143 A  
HETATM    9  I   UNL     1      -8.714  15.488  66.613  1.00  0.00    -0.258 I  
HETATM   10  C   UNL     1      -6.348  13.555  67.907  1.00  0.00    -0.154 C  
HETATM   11  C   UNL     1      -7.808  11.523  68.295  1.00  0.00    -0.138 A  
HETATM   12  C   UNL     1      -9.088  10.974  68.525  1.00  0.00    -0.173 A  
HETATM   13  I   UNL     1      -6.115  10.219  68.509  1.00  0.00    -0.042 I  
HETATM   14  O   UNL     1      -5.408  12.981  67.134  1.00  0.00    -0.344 OA 
HETATM   15  O   UNL     1      -6.146  14.591  68.528  1.00  0.00    -0.081 OA 
HETATM   16  C   UNL     1     -10.198  11.846  68.613  1.00  0.00    -0.191 A  
HETATM   17  I   UNL     1     -11.846  11.195  69.863  1.00  0.00    -0.482 I  
BRANCH  12  18
HETATM   18  N   UNL     1      -9.193   9.592  68.807  1.00  0.00    -0.138 N  
HETATM   19  C   UNL     1      -9.647   8.590  67.990  1.00  0.00    -0.149 C  
HETATM   20  H   UNL     1      -8.892   9.305  69.738  1.00  0.00     0.000 HD 
HETATM   21  C   UNL     1     -10.272   8.882  66.650  1.00  0.00    -0.338 C  
HETATM   22  O   UNL     1      -9.478   7.425  68.354  1.00  0.00    -0.143 OA 
ENDBRANCH  12  18
ENDBRANCH   2   6
TORSDOF 2
ENDMDL
MODEL       41
REMARK 921   NORMALIZED FREE ENERGY PREDICTED BY IDOCK:   -4.08 KCAL/MOL
REMARK 922        TOTAL FREE ENERGY PREDICTED BY IDOCK:   -5.06 KCAL/MOL
REMARK 923 INTER-LIGAND FREE ENERGY PREDICTED BY IDOCK:   -5.11 KCAL/MOL
REMARK 924 INTRA-LIGAND FREE ENERGY PREDICTED BY IDOCK:    0.06 KCAL/MOL
REMARK 927      BINDING AFFINITY PREDICTED BY RF-SCORE:    0.00 PKD
ROOT
HETATM    1  C   UNL     1     -12.272  13.319  67.454  1.00  0.00    -0.186 C  
HETATM    2  N   UNL     1     -11.354  13.026  66.348  1.00  0.00    -0.304 N  
HETATM    3  C   UNL     1     -11.918  12.681  65.119  1.00  0.00    -0.428 C  
HETATM    4  C   UNL     1     -11.030  12.400  63.925  1.00  0.00    -0.467 C  
HETATM    5  O   UNL     1     -13.144  12.628  64.952  1.00  0.00    -0.850 OA 
ENDROOT
BRANCH   2   6
HETATM    6  C   UNL     1      -9.952  13.017  66.661  1.00  0.00    -0.250 A  
HETATM    7  C   UNL     1      -9.198  14.213  66.743  1.00  0.00    -0.266 A  
HETATM    8  C   UNL     1      -7.859  14.211  67.219  1.00  0.00    -0.154 A  
HETATM    9  I   UNL     1      -9.974  16.020  65.834  1.00  0.00    -0.324 I  
HETATM   10  C   UNL     1      -7.283  15.490  67.701  1.00  0.00    -0.179 C  
HETATM   11  C   UNL     1      -7.198  12.978  67.387  1.00  0.00    -0.116 A  
HETATM   12  C   UNL     1      -7.867  11.766  67.113  1.00  0.00    -0.166 A  
HETATM   13  I   UNL     1      -5.163  12.859  68.064  1.00  0.00    -0.093 I  
HETATM   14  O   UNL     1      -6.049  15.788  67.256  1.00  0.00    -0.288 OA 
HETATM   15  O   UNL     1      -7.915  16.236  68.438  1.00  0.00    -0.160 OA 
HETATM   16  C   UNL     1      -9.263  11.795  66.884  1.00  0.00    -0.189 A  
HETATM   17  I   UNL     1     -10.371  10.010  67.427  1.00  0.00    -0.321 I  
BRANCH  12  18
HETATM   18  N   UNL     1      -7.148  10.554  67.225  1.00  0.00    -0.086 N  
HETATM   19  C   UNL     1      -6.964   9.773  68.336  1.00  0.00    -0.068 C  
HETATM   20  H   UNL     1      -6.709  10.217  66.367  1.00  0.00     0.000 HD 
HETATM   21  C   UNL     1      -7.414  10.222  69.703  1.00  0.00    -0.159 C  
HETATM   22  O   UNL     1      -6.467   8.656  68.183  1.00  0.00    -0.058 OA 
ENDBRANCH  12  18
ENDBRANCH   2   6
TORSDOF 2
ENDMDL
MODEL       42
REMARK 921   NORMALIZED FREE ENERGY PREDICTED BY IDOCK:   -4.08 KCAL/MOL
REMARK 922        TOTAL FREE ENERGY PREDICTED BY IDOCK:   -5.05 KCAL/MOL
REMARK 923 INTER-LIGAND FREE ENERGY PREDICTED BY IDOCK:   -4.48 KCAL/MOL
REMARK 924 INTRA-LIGAND FREE ENERGY PREDICTED BY IDOCK:   -0.57 KCAL/MOL
REMARK 927      BINDING AFFINITY PREDICTED BY RF-SCORE:    0.00 PKD
ROOT
HETATM    1  C   UNL     1     -12.635  13.658  66.925  1.00  0.00     0.037 C  
HETATM    2  N   UNL     1     -11.459  13.321  66.117  1.00  0.00    -0.317 N  
HETATM    3  C   UNL     1     -11.682  12.857  64.821  1.00  0.00    -0.346 C  
HETATM    4  C   UNL     1     -10.511  12.523  63.919  1.00  0.00    -0.464 C  
HETATM    5  O   UNL     1     -12.822  12.736  64.354  1.00  0.00    -0.700 OA 
ENDROOT
BRANCH   2   6
HETATM    6  C   UNL     1     -10.183  13.398  66.775  1.00  0.00    -0.259 A  
HETATM    7  C   UNL     1      -9.506  14.630  66.945  1.00  0.00    -0.246 A  
HETATM    8  C   UNL     1      -8.334  14.723  67.743  1.00  0.00    -0.166 A  
HETATM    9  I   UNL     1     -10.067  16.327  65.721  1.00  0.00    -0.204 I  
HETATM   10  C   UNL     1      -7.931  16.060  68.246  1.00  0.00    -0.145 C  
HETATM   11  C   UNL     1      -7.707  13.538  68.175  1.00  0.00    -0.139 A  
HETATM   12  C   UNL     1      -8.254  12.280  67.843  1.00  0.00    -0.161 A  
HETATM   13  I   UNL     1      -5.911  13.561  69.353  1.00  0.00    -0.113 I  
HETATM   14  O   UNL     1      -6.632  16.379  68.105  1.00  0.00    -0.122 OA 
HETATM   15  O   UNL     1      -8.749  16.830  68.734  1.00  0.00    -0.252 OA 
HETATM   16  C   UNL     1      -9.545  12.228  67.267  1.00  0.00    -0.187 A  
HETATM   17  I   UNL     1     -10.711  10.442  67.659  1.00  0.00    -0.344 I  
BRANCH  12  18
HETATM   18  N   UNL     1      -7.557  11.113  68.234  1.00  0.00    -0.105 N  
HETATM   19  C   UNL     1      -6.750  10.309  67.472  1.00  0.00    -0.071 C  
HETATM   20  H   UNL     1      -7.670  10.834  69.209  1.00  0.00     0.000 HD 
HETATM   21  C   UNL     1      -6.619  10.503  65.983  1.00  0.00    -0.127 C  
HETATM   22  O   UNL     1      -6.081   9.449  68.047  1.00  0.00    -0.051 OA 
ENDBRANCH  12  18
ENDBRANCH   2   6
TORSDOF 2
ENDMDL
MODEL       43
REMARK 921   NORMALIZED FREE ENERGY PREDICTED BY IDOCK:   -4.05 KCAL/MOL
REMARK 922        TOTAL FREE ENERGY PREDICTED BY IDOCK:   -5.02 KCAL/MOL
REMARK 923 INTER-LIGAND FREE ENERGY PREDICTED BY IDOCK:   -4.57 KCAL/MOL
REMARK 924 INTRA-LIGAND FREE ENERGY PREDICTED BY IDOCK:   -0.45 KCAL/MOL
REMARK 927      BINDING AFFINITY PREDICTED BY RF-SCORE:    0.00 PKD
ROOT
HETATM    1  C   UNL     1      -7.773  11.755  66.682  1.00  0.00    -0.023 C  
HETATM    2  N   UNL     1      -9.048  12.301  67.159  1.00  0.00    -0.186 N  
HETATM    3  C   UNL     1      -9.919  11.426  67.807  1.00  0.00    -0.178 C  
HETATM    4  C   UNL     1     -11.238  11.930  68.356  1.00  0.00    -0.312 C  
HETATM    5  O   UNL     1      -9.638  10.234  67.988  1.00  0.00    -0.144 OA 
ENDROOT
BRANCH   2   6
HETATM    6  C   UNL     1      -9.329  13.669  66.818  1.00  0.00    -0.261 A  
HETATM    7  C   UNL     1     -10.164  14.007  65.725  1.00  0.00    -0.328 A  
HETATM    8  C   UNL     1     -10.574  15.349  65.499  1.00  0.00    -0.400 A  
HETATM    9  I   UNL     1     -10.560  12.528  64.194  1.00  0.00    -0.461 I  
HETATM   10  C   UNL     1     -11.767  15.584  64.649  1.00  0.00    -0.226 C  
HETATM   11  C   UNL     1      -9.955  16.383  66.227  1.00  0.00    -0.323 A  
HETATM   12  C   UNL     1      -8.964  16.086  67.187  1.00  0.00    -0.202 A  
HETATM   13  I   UNL     1     -10.471  18.448  65.939  1.00  0.00     0.305 I  
HETATM   14  O   UNL     1     -11.644  16.536  63.706  1.00  0.00    -1.109 OA 
HETATM   15  O   UNL     1     -12.789  14.924  64.787  1.00  0.00    -0.356 OA 
HETATM   16  C   UNL     1      -8.760  14.737  67.561  1.00  0.00    -0.186 A  
HETATM   17  I   UNL     1      -8.035  14.389  69.576  1.00  0.00     0.623 I  
BRANCH  12  18
HETATM   18  N   UNL     1      -8.315  17.156  67.846  1.00  0.00    -0.203 N  
HETATM   19  C   UNL     1      -7.006  17.548  67.744  1.00  0.00    -0.172 C  
HETATM   20  H   UNL     1      -8.896  17.706  68.478  1.00  0.00     0.000 HD 
HETATM   21  C   UNL     1      -5.993  16.738  66.976  1.00  0.00    -0.213 C  
HETATM   22  O   UNL     1      -6.683  18.623  68.252  1.00  0.00    -0.216 OA 
ENDBRANCH  12  18
ENDBRANCH   2   6
TORSDOF 2
ENDMDL
MODEL       44
REMARK 921   NORMALIZED FREE ENERGY PREDICTED BY IDOCK:   -4.01 KCAL/MOL
REMARK 922        TOTAL FREE ENERGY PREDICTED BY IDOCK:   -4.97 KCAL/MOL
REMARK 923 INTER-LIGAND FREE ENERGY PREDICTED BY IDOCK:   -4.45 KCAL/MOL
REMARK 924 INTRA-LIGAND FREE ENERGY PREDICTED BY IDOCK:   -0.52 KCAL/MOL
REMARK 927      BINDING AFFINITY PREDICTED BY RF-SCORE:    0.00 PKD
ROOT
HETATM    1  C   UNL     1     -12.014  11.357  68.714  1.00  0.00    -0.287 C  
HETATM    2  N   UNL     1     -10.783  11.821  68.067  1.00  0.00    -0.200 N  
HETATM    3  C   UNL     1     -10.329  13.099  68.391  1.00  0.00    -0.253 C  
HETATM    4  C   UNL     1      -9.045  13.629  67.786  1.00  0.00    -0.199 C  
HETATM    5  O   UNL     1     -10.927  13.823  69.198  1.00  0.00    -0.248 OA 
ENDROOT
BRANCH   2   6
HETATM    6  C   UNL     1     -10.213  10.953  67.073  1.00  0.00    -0.214 A  
HETATM    7  C   UNL     1     -10.369  11.204  65.688  1.00  0.00    -0.254 A  
HETATM    8  C   UNL     1      -9.663  10.443  64.717  1.00  0.00    -0.383 A  
HETATM    9  I   UNL     1     -11.937  12.540  65.021  1.00  0.00    -0.419 I  
HETATM   10  C   UNL     1      -9.508  11.013  63.355  1.00  0.00    -0.310 C  
HETATM   11  C   UNL     1      -8.986   9.277  65.124  1.00  0.00    -0.209 A  
HETATM   12  C   UNL     1      -8.987   8.889  66.481  1.00  0.00    -0.155 A  
HETATM   13  I   UNL     1      -7.920   8.033  63.736  1.00  0.00     0.025 I  
HETATM   14  O   UNL     1      -9.773  10.181  62.332  1.00  0.00    -0.222 OA 
HETATM   15  O   UNL     1      -9.186  12.182  63.186  1.00  0.00    -0.108 OA 
HETATM   16  C   UNL     1      -9.483   9.794  67.449  1.00  0.00    -0.152 A  
HETATM   17  I   UNL     1      -8.631   9.649  69.439  1.00  0.00    -0.213 I  
BRANCH  12  18
HETATM   18  N   UNL     1      -8.358   7.675  66.840  1.00  0.00    -0.122 N  
HETATM   19  C   UNL     1      -8.942   6.479  67.169  1.00  0.00    -0.113 C  
HETATM   20  H   UNL     1      -7.338   7.690  66.856  1.00  0.00     0.000 HD 
HETATM   21  C   UNL     1     -10.433   6.348  67.344  1.00  0.00    -0.312 C  
HETATM   22  O   UNL     1      -8.217   5.487  67.263  1.00  0.00    -0.102 OA 
ENDBRANCH  12  18
ENDBRANCH   2   6
TORSDOF 2
ENDMDL
MODEL       45
REMARK 921   NORMALIZED FREE ENERGY PREDICTED BY IDOCK:   -4.00 KCAL/MOL
REMARK 922        TOTAL FREE ENERGY PREDICTED BY IDOCK:   -4.97 KCAL/MOL
REMARK 923 INTER-LIGAND FREE ENERGY PREDICTED BY IDOCK:   -5.01 KCAL/MOL
REMARK 924 INTRA-LIGAND FREE ENERGY PREDICTED BY IDOCK:    0.05 KCAL/MOL
REMARK 927      BINDING AFFINITY PREDICTED BY RF-SCORE:    0.00 PKD
ROOT
HETATM    1  C   UNL     1     -10.430   8.090  69.478  1.00  0.00    -0.226 C  
HETATM    2  N   UNL     1      -9.572   9.198  69.045  1.00  0.00    -0.154 N  
HETATM    3  C   UNL     1      -8.525   9.568  69.890  1.00  0.00    -0.187 C  
HETATM    4  C   UNL     1      -7.580  10.681  69.490  1.00  0.00    -0.128 C  
HETATM    5  O   UNL     1      -8.311   8.987  70.962  1.00  0.00    -0.174 OA 
ENDROOT
BRANCH   2   6
HETATM    6  C   UNL     1      -9.957   9.875  67.837  1.00  0.00    -0.160 A  
HETATM    7  C   UNL     1     -10.730  11.061  67.861  1.00  0.00    -0.219 A  
HETATM    8  C   UNL     1     -10.960  11.816  66.679  1.00  0.00    -0.342 A  
HETATM    9  I   UNL     1     -11.845  11.565  69.648  1.00  0.00    -0.395 I  
HETATM   10  C   UNL     1     -11.372  13.234  66.820  1.00  0.00    -0.327 C  
HETATM   11  C   UNL     1     -10.616  11.254  65.434  1.00  0.00    -0.250 A  
HETATM   12  C   UNL     1     -10.026   9.974  65.368  1.00  0.00    -0.294 A  
HETATM   13  I   UNL     1     -10.955  12.289  63.583  1.00  0.00    -0.454 I  
HETATM   14  O   UNL     1     -12.406  13.629  66.056  1.00  0.00    -0.432 OA 
HETATM   15  O   UNL     1     -10.814  13.984  67.611  1.00  0.00    -0.257 OA 
HETATM   16  C   UNL     1      -9.586   9.363  66.565  1.00  0.00    -0.208 A  
HETATM   17  I   UNL     1      -7.915   7.989  66.396  1.00  0.00    -0.113 I  
BRANCH  12  18
HETATM   18  N   UNL     1      -9.761   9.414  64.096  1.00  0.00    -0.278 N  
HETATM   19  C   UNL     1      -8.629   9.533  63.334  1.00  0.00    -0.210 C  
HETATM   20  H   UNL     1     -10.510   8.849  63.695  1.00  0.00     0.000 HD 
HETATM   21  C   UNL     1      -7.507  10.462  63.721  1.00  0.00    -0.011 C  
HETATM   22  O   UNL     1      -8.521   8.810  62.342  1.00  0.00    -0.194 OA 
ENDBRANCH  12  18
ENDBRANCH   2   6
TORSDOF 2
ENDMDL
MODEL       46
REMARK 921   NORMALIZED FREE ENERGY PREDICTED BY IDOCK:   -4.00 KCAL/MOL
REMARK 922        TOTAL FREE ENERGY PREDICTED BY IDOCK:   -4.96 KCAL/MOL
REMARK 923 INTER-LIGAND FREE ENERGY PREDICTED BY IDOCK:   -4.39 KCAL/MOL
REMARK 924 INTRA-LIGAND FREE ENERGY PREDICTED BY IDOCK:   -0.57 KCAL/MOL
REMARK 927      BINDING AFFINITY PREDICTED BY RF-SCORE:    0.00 PKD
ROOT
HETATM    1  C   UNL     1      -8.136  11.435  68.563  1.00  0.00    -0.149 C  
HETATM    2  N   UNL     1      -9.470  10.883  68.310  1.00  0.00    -0.161 N  
HETATM    3  C   UNL     1     -10.564  11.721  68.527  1.00  0.00    -0.217 C  
HETATM    4  C   UNL     1     -11.969  11.228  68.252  1.00  0.00    -0.215 C  
HETATM    5  O   UNL     1     -10.428  12.890  68.911  1.00  0.00    -0.191 OA 
ENDROOT
BRANCH   2   6
HETATM    6  C   UNL     1      -9.535   9.490  67.962  1.00  0.00    -0.132 A  
HETATM    7  C   UNL     1      -9.844   8.496  68.923  1.00  0.00    -0.176 A  
HETATM    8  C   UNL     1     -10.074   7.147  68.540  1.00  0.00    -0.177 A  
HETATM    9  I   UNL     1      -9.651   8.959  71.029  1.00  0.00    -0.343 I  
HETATM   10  C   UNL     1     -10.814   6.267  69.478  1.00  0.00    -0.340 C  
HETATM   11  C   UNL     1      -9.760   6.748  67.226  1.00  0.00    -0.140 A  
HETATM   12  C   UNL     1      -9.251   7.682  66.299  1.00  0.00    -0.154 A  
HETATM   13  I   UNL     1     -10.031   4.727  66.552  1.00  0.00    -0.273 I  
HETATM   14  O   UNL     1     -10.283   5.049  69.690  1.00  0.00    -0.241 OA 
HETATM   15  O   UNL     1     -11.831   6.649  70.042  1.00  0.00    -0.372 OA 
HETATM   16  C   UNL     1      -9.270   9.056  66.636  1.00  0.00    -0.167 A  
HETATM   17  I   UNL     1      -9.431  10.456  64.986  1.00  0.00    -0.395 I  
BRANCH  12  18
HETATM   18  N   UNL     1      -8.879   7.228  65.013  1.00  0.00    -0.343 N  
HETATM   19  C   UNL     1      -7.620   6.987  64.527  1.00  0.00    -0.107 C  
HETATM   20  H   UNL     1      -9.646   7.058  64.362  1.00  0.00     0.000 HD 
HETATM   21  C   UNL     1      -6.385   7.345  65.314  1.00  0.00    -0.038 C  
HETATM   22  O   UNL     1      -7.519   6.411  63.443  1.00  0.00    -0.060 OA 
ENDBRANCH  12  18
ENDBRANCH   2   6
TORSDOF 2
ENDMDL
MODEL       47
REMARK 921   NORMALIZED FREE ENERGY PREDICTED BY IDOCK:   -3.94 KCAL/MOL
REMARK 922        TOTAL FREE ENERGY PREDICTED BY IDOCK:   -4.90 KCAL/MOL
REMARK 923 INTER-LIGAND FREE ENERGY PREDICTED BY IDOCK:   -4.95 KCAL/MOL
REMARK 924 INTRA-LIGAND FREE ENERGY PREDICTED BY IDOCK:    0.06 KCAL/MOL
REMARK 927      BINDING AFFINITY PREDICTED BY RF-SCORE:    0.00 PKD
ROOT
HETATM    1  C   UNL     1      -6.601   7.697  68.350  1.00  0.00    -0.054 C  
HETATM    2  N   UNL     1      -7.969   7.261  68.052  1.00  0.00    -0.118 N  
HETATM    3  C   UNL     1      -8.132   6.282  67.072  1.00  0.00    -0.109 C  
HETATM    4  C   UNL     1      -9.514   5.760  66.738  1.00  0.00    -0.154 C  
HETATM    5  O   UNL     1      -7.168   5.785  66.473  1.00  0.00    -0.071 OA 
ENDROOT
BRANCH   2   6
HETATM    6  C   UNL     1      -9.028   7.962  68.724  1.00  0.00    -0.141 A  
HETATM    7  C   UNL     1      -9.404   7.647  70.053  1.00  0.00    -0.154 A  
HETATM    8  C   UNL     1     -10.331   8.453  70.768  1.00  0.00    -0.228 A  
HETATM    9  I   UNL     1      -8.816   5.742  70.899  1.00  0.00    -0.160 I  
HETATM   10  C   UNL     1     -10.350   8.357  72.248  1.00  0.00    -0.333 C  
HETATM   11  C   UNL     1     -11.059   9.437  70.070  1.00  0.00    -0.221 A  
HETATM   12  C   UNL     1     -10.849   9.634  68.689  1.00  0.00    -0.167 A  
HETATM   13  I   UNL     1     -12.511  10.685  71.042  1.00  0.00    -0.533 I  
HETATM   14  O   UNL     1     -11.563   8.243  72.818  1.00  0.00    -0.395 OA 
HETATM   15  O   UNL     1      -9.313   8.352  72.900  1.00  0.00    -0.260 OA 
HETATM   16  C   UNL     1      -9.752   8.992  68.067  1.00  0.00    -0.155 A  
HETATM   17  I   UNL     1      -8.890   9.994  66.347  1.00  0.00    -0.185 I  
BRANCH  12  18
HETATM   18  N   UNL     1     -11.650  10.580  68.009  1.00  0.00    -0.450 N  
HETATM   19  C   UNL     1     -11.431  11.924  67.853  1.00  0.00    -0.316 C  
HETATM   20  H   UNL     1     -12.501  10.216  67.580  1.00  0.00     0.000 HD 
HETATM   21  C   UNL     1     -10.306  12.632  68.564  1.00  0.00    -0.232 C  
HETATM   22  O   UNL     1     -12.149  12.539  67.062  1.00  0.00    -0.521 OA 
ENDBRANCH  12  18
ENDBRANCH   2   6
TORSDOF 2
ENDMDL
MODEL       48
REMARK 921   NORMALIZED FREE ENERGY PREDICTED BY IDOCK:   -3.93 KCAL/MOL
REMARK 922        TOTAL FREE ENERGY PREDICTED BY IDOCK:   -4.89 KCAL/MOL
REMARK 923 INTER-LIGAND FREE ENERGY PREDICTED BY IDOCK:   -4.35 KCAL/MOL
REMARK 924 INTRA-LIGAND FREE ENERGY PREDICTED BY IDOCK:   -0.54 KCAL/MOL
REMARK 927      BINDING AFFINITY PREDICTED BY RF-SCORE:    0.00 PKD
ROOT
HETATM    1  C   UNL     1      -8.605   6.793  65.718  1.00  0.00    -0.137 C  
HETATM    2  N   UNL     1      -8.104   7.318  66.993  1.00  0.00    -0.115 N  
HETATM    3  C   UNL     1      -6.999   6.682  67.559  1.00  0.00    -0.082 C  
HETATM    4  C   UNL     1      -6.409   7.193  68.857  1.00  0.00    -0.032 C  
HETATM    5  O   UNL     1      -6.447   5.718  67.015  1.00  0.00    -0.044 OA 
ENDROOT
BRANCH   2   6
HETATM    6  C   UNL     1      -8.868   8.375  67.597  1.00  0.00    -0.136 A  
HETATM    7  C   UNL     1      -8.701   9.728  67.214  1.00  0.00    -0.132 A  
HETATM    8  C   UNL     1      -9.575  10.742  67.689  1.00  0.00    -0.174 A  
HETATM    9  I   UNL     1      -6.908  10.316  66.151  1.00  0.00    -0.133 I  
HETATM   10  C   UNL     1      -9.645  12.019  66.937  1.00  0.00    -0.203 C  
HETATM   11  C   UNL     1     -10.468  10.437  68.736  1.00  0.00    -0.199 A  
HETATM   12  C   UNL     1     -10.511   9.137  69.281  1.00  0.00    -0.221 A  
HETATM   13  I   UNL     1     -11.806  11.903  69.557  1.00  0.00    -0.293 I  
HETATM   14  O   UNL     1      -9.586  13.143  67.672  1.00  0.00    -0.198 OA 
HETATM   15  O   UNL     1      -9.723  12.035  65.715  1.00  0.00    -0.240 OA 
HETATM   16  C   UNL     1      -9.812   8.098  68.622  1.00  0.00    -0.183 A  
HETATM   17  I   UNL     1     -10.621   6.097  68.837  1.00  0.00    -0.411 I  
BRANCH  12  18
HETATM   18  N   UNL     1     -11.368   8.889  70.378  1.00  0.00    -0.360 N  
HETATM   19  C   UNL     1     -11.032   8.687  71.691  1.00  0.00    -0.308 C  
HETATM   20  H   UNL     1     -12.365   8.855  70.164  1.00  0.00     0.000 HD 
HETATM   21  C   UNL     1      -9.596   8.548  72.129  1.00  0.00    -0.382 C  
HETATM   22  O   UNL     1     -11.938   8.679  72.526  1.00  0.00    -0.368 OA 
ENDBRANCH  12  18
ENDBRANCH   2   6
TORSDOF 2
ENDMDL
MODEL       49
REMARK 921   NORMALIZED FREE ENERGY PREDICTED BY IDOCK:   -3.93 KCAL/MOL
REMARK 922        TOTAL FREE ENERGY PREDICTED BY IDOCK:   -4.89 KCAL/MOL
REMARK 923 INTER-LIGAND FREE ENERGY PREDICTED BY IDOCK:   -4.34 KCAL/MOL
REMARK 924 INTRA-LIGAND FREE ENERGY PREDICTED BY IDOCK:   -0.55 KCAL/MOL
REMARK 927      BINDING AFFINITY PREDICTED BY RF-SCORE:    0.00 PKD
ROOT
HETATM    1  C   UNL     1      -9.644   8.777  70.788  1.00  0.00    -0.208 C  
HETATM    2  N   UNL     1     -10.713   7.785  70.937  1.00  0.00    -0.219 N  
HETATM    3  C   UNL     1     -11.989   8.258  71.245  1.00  0.00    -0.287 C  
HETATM    4  C   UNL     1     -13.148   7.292  71.380  1.00  0.00    -0.412 C  
HETATM    5  O   UNL     1     -12.226   9.465  71.382  1.00  0.00    -0.313 OA 
ENDROOT
BRANCH   2   6
HETATM    6  C   UNL     1     -10.325   6.404  70.859  1.00  0.00    -0.204 A  
HETATM    7  C   UNL     1     -10.166   5.607  72.020  1.00  0.00    -0.205 A  
HETATM    8  C   UNL     1      -9.951   4.206  71.928  1.00  0.00    -0.253 A  
HETATM    9  I   UNL     1      -9.927   6.572  73.944  1.00  0.00    -0.386 I  
HETATM   10  C   UNL     1     -10.235   3.372  73.122  1.00  0.00    -0.155 C  
HETATM   11  C   UNL     1      -9.656   3.642  70.671  1.00  0.00    -0.183 A  
HETATM   12  C   UNL     1      -9.605   4.455  69.519  1.00  0.00    -0.201 A  
HETATM   13  I   UNL     1      -9.276   1.543  70.424  1.00  0.00    -0.134 I  
HETATM   14  O   UNL     1      -9.294   2.469  73.450  1.00  0.00    -0.083 OA 
HETATM   15  O   UNL     1     -11.256   3.527  73.779  1.00  0.00    -0.219 OA 
HETATM   16  C   UNL     1     -10.066   5.789  69.605  1.00  0.00    -0.212 A  
HETATM   17  I   UNL     1     -10.877   6.654  67.788  1.00  0.00    -0.297 I  
BRANCH  12  18
HETATM   18  N   UNL     1      -9.235   3.864  68.288  1.00  0.00    -0.143 N  
HETATM   19  C   UNL     1      -8.017   3.899  67.660  1.00  0.00    -0.090 C  
HETATM   20  H   UNL     1      -9.970   3.346  67.806  1.00  0.00     0.000 HD 
HETATM   21  C   UNL     1      -6.888   4.757  68.170  1.00  0.00    -0.056 C  
HETATM   22  O   UNL     1      -7.846   3.160  66.690  1.00  0.00    -0.076 OA 
ENDBRANCH  12  18
ENDBRANCH   2   6
TORSDOF 2
ENDMDL
MODEL       50
REMARK 921   NORMALIZED FREE ENERGY PREDICTED BY IDOCK:   -3.88 KCAL/MOL
REMARK 922        TOTAL FREE ENERGY PREDICTED BY IDOCK:   -4.83 KCAL/MOL
REMARK 923 INTER-LIGAND FREE ENERGY PREDICTED BY IDOCK:   -4.28 KCAL/MOL
REMARK 924 INTRA-LIGAND FREE ENERGY PREDICTED BY IDOCK:   -0.54 KCAL/MOL
REMARK 927      BINDING AFFINITY PREDICTED BY RF-SCORE:    0.00 PKD
ROOT
HETATM    1  C   UNL     1      -6.918  10.321  68.256  1.00  0.00    -0.073 C  
HETATM    2  N   UNL     1      -8.154  10.623  67.528  1.00  0.00    -0.110 N  
HETATM    3  C   UNL     1      -8.143  10.450  66.144  1.00  0.00    -0.139 C  
HETATM    4  C   UNL     1      -9.396  10.711  65.333  1.00  0.00    -0.250 C  
HETATM    5  O   UNL     1      -7.139  10.049  65.541  1.00  0.00    -0.117 OA 
ENDROOT
BRANCH   2   6
HETATM    6  C   UNL     1      -9.235  11.176  68.298  1.00  0.00    -0.169 A  
HETATM    7  C   UNL     1     -10.128  10.353  69.026  1.00  0.00    -0.213 A  
HETATM    8  C   UNL     1     -11.084  10.911  69.918  1.00  0.00    -0.311 A  
HETATM    9  I   UNL     1     -10.264   8.247  68.543  1.00  0.00    -0.188 I  
HETATM   10  C   UNL     1     -11.667  10.033  70.962  1.00  0.00    -0.392 C  
HETATM   11  C   UNL     1     -11.303  12.303  69.899  1.00  0.00    -0.007 A  
HETATM   12  C   UNL     1     -10.564  13.130  69.027  1.00  0.00    -0.056 A  
HETATM   13  I   UNL     1     -12.749  13.246  71.176  1.00  0.00    -0.106 I  
HETATM   14  O   UNL     1     -13.003  10.093  71.107  1.00  0.00    -0.353 OA 
HETATM   15  O   UNL     1     -10.966   9.280  71.626  1.00  0.00    -0.355 OA 
HETATM   16  C   UNL     1      -9.457  12.579  68.340  1.00  0.00    -0.167 A  
HETATM   17  I   UNL     1      -7.847  13.945  67.841  1.00  0.00    -0.229 I  
BRANCH  12  18
HETATM   18  N   UNL     1     -10.863  14.511  68.985  1.00  0.00    -0.248 N  
HETATM   19  C   UNL     1     -11.517  15.210  68.004  1.00  0.00    -0.342 C  
HETATM   20  H   UNL     1     -10.553  15.057  69.789  1.00  0.00     0.000 HD 
HETATM   21  C   UNL     1     -11.889  14.571  66.690  1.00  0.00    -0.383 C  
HETATM   22  O   UNL     1     -11.849  16.372  68.244  1.00  0.00    -0.072 OA 
ENDBRANCH  12  18
ENDBRANCH   2   6
TORSDOF 2
ENDMDL
MODEL       51
REMARK 921   NORMALIZED FREE ENERGY PREDICTED BY IDOCK:   -3.87 KCAL/MOL
REMARK 922        TOTAL FREE ENERGY PREDICTED BY IDOCK:   -4.82 KCAL/MOL
REMARK 923 INTER-LIGAND FREE ENERGY PREDICTED BY IDOCK:   -4.93 KCAL/MOL
REMARK 924 INTRA-LIGAND FREE ENERGY PREDICTED BY IDOCK:    0.11 KCAL/MOL
REMARK 927      BINDING AFFINITY PREDICTED BY RF-SCORE:    0.00 PKD
ROOT
HETATM    1  C   UNL     1     -11.979  12.700  65.385  1.00  0.00    -0.446 C  
HETATM    2  N   UNL     1     -10.813  12.842  66.263  1.00  0.00    -0.272 N  
HETATM    3  C   UNL     1      -9.991  13.952  66.065  1.00  0.00    -0.310 C  
HETATM    4  C   UNL     1      -8.789  14.179  66.958  1.00  0.00    -0.237 C  
HETATM    5  O   UNL     1     -10.227  14.796  65.192  1.00  0.00    -0.381 OA 
ENDROOT
BRANCH   2   6
HETATM    6  C   UNL     1     -10.564  11.764  67.180  1.00  0.00    -0.231 A  
HETATM    7  C   UNL     1     -11.152  11.730  68.468  1.00  0.00    -0.239 A  
HETATM    8  C   UNL     1     -11.040  10.583  69.300  1.00  0.00    -0.298 A  
HETATM    9  I   UNL     1     -11.957  13.553  69.315  1.00  0.00    -0.216 I  
HETATM   10  C   UNL     1     -12.014  10.421  70.407  1.00  0.00    -0.320 C  
HETATM   11  C   UNL     1     -10.137   9.564  68.938  1.00  0.00    -0.188 A  
HETATM   12  C   UNL     1      -9.380   9.670  67.752  1.00  0.00    -0.127 A  
HETATM   13  I   UNL     1      -9.859   7.806  70.141  1.00  0.00    -0.188 I  
HETATM   14  O   UNL     1     -11.500  10.084  71.603  1.00  0.00    -0.282 OA 
HETATM   15  O   UNL     1     -13.211  10.613  70.236  1.00  0.00    -0.156 OA 
HETATM   16  C   UNL     1      -9.697  10.695  66.830  1.00  0.00    -0.185 A  
HETATM   17  I   UNL     1      -9.270  10.286  64.742  1.00  0.00    -0.372 I  
BRANCH  12  18
HETATM   18  N   UNL     1      -8.432   8.662  67.460  1.00  0.00    -0.123 N  
HETATM   19  C   UNL     1      -8.637   7.456  66.841  1.00  0.00    -0.120 C  
HETATM   20  H   UNL     1      -7.473   8.856  67.747  1.00  0.00     0.000 HD 
HETATM   21  C   UNL     1     -10.022   6.962  66.507  1.00  0.00    -0.150 C  
HETATM   22  O   UNL     1      -7.648   6.802  66.507  1.00  0.00    -0.086 OA 
ENDBRANCH  12  18
ENDBRANCH   2   6
TORSDOF 2
ENDMDL
MODEL       52
REMARK 921   NORMALIZED FREE ENERGY PREDICTED BY IDOCK:   -3.87 KCAL/MOL
REMARK 922        TOTAL FREE ENERGY PREDICTED BY IDOCK:   -4.81 KCAL/MOL
REMARK 923 INTER-LIGAND FREE ENERGY PREDICTED BY IDOCK:   -4.59 KCAL/MOL
REMARK 924 INTRA-LIGAND FREE ENERGY PREDICTED BY IDOCK:   -0.22 KCAL/MOL
REMARK 927      BINDING AFFINITY PREDICTED BY RF-SCORE:    0.00 PKD
ROOT
HETATM    1  C   UNL     1     -11.773  11.846  66.635  1.00  0.00    -0.186 C  
HETATM    2  N   UNL     1     -10.770  12.072  67.681  1.00  0.00    -0.211 N  
HETATM    3  C   UNL     1      -9.904  13.153  67.518  1.00  0.00    -0.216 C  
HETATM    4  C   UNL     1      -8.867  13.465  68.577  1.00  0.00    -0.068 C  
HETATM    5  O   UNL     1      -9.972  13.907  66.538  1.00  0.00    -0.269 OA 
ENDROOT
BRANCH   2   6
HETATM    6  C   UNL     1     -10.702  11.090  68.728  1.00  0.00    -0.203 A  
HETATM    7  C   UNL     1      -9.784  10.012  68.681  1.00  0.00    -0.159 A  
HETATM    8  C   UNL     1      -9.604   9.147  69.794  1.00  0.00    -0.191 A  
HETATM    9  I   UNL     1      -8.877   9.473  66.789  1.00  0.00    -0.168 I  
HETATM   10  C   UNL     1      -8.357   8.346  69.866  1.00  0.00    -0.124 C  
HETATM   11  C   UNL     1     -10.514   9.218  70.866  1.00  0.00    -0.302 A  
HETATM   12  C   UNL     1     -11.571  10.153  70.844  1.00  0.00    -0.372 A  
HETATM   13  I   UNL     1     -10.359   7.933  72.580  1.00  0.00    -0.388 I  
HETATM   14  O   UNL     1      -8.507   7.045  70.172  1.00  0.00    -0.136 OA 
HETATM   15  O   UNL     1      -7.264   8.845  69.630  1.00  0.00    -0.053 OA 
HETATM   16  C   UNL     1     -11.573  11.156  69.848  1.00  0.00    -0.337 A  
HETATM   17  I   UNL     1     -12.530  13.034  70.365  1.00  0.00     0.014 I  
BRANCH  12  18
HETATM   18  N   UNL     1     -12.507  10.143  71.905  1.00  0.00    -0.348 N  
HETATM   19  C   UNL     1     -13.542   9.270  72.118  1.00  0.00    -0.471 C  
HETATM   20  H   UNL     1     -12.397  10.881  72.600  1.00  0.00     0.000 HD 
HETATM   21  C   UNL     1     -13.925   8.231  71.095  1.00  0.00    -0.137 C  
HETATM   22  O   UNL     1     -14.124   9.317  73.203  1.00  0.00    -0.264 OA 
ENDBRANCH  12  18
ENDBRANCH   2   6
TORSDOF 2
ENDMDL
MODEL       53
REMARK 921   NORMALIZED FREE ENERGY PREDICTED BY IDOCK:   -3.86 KCAL/MOL
REMARK 922        TOTAL FREE ENERGY PREDICTED BY IDOCK:   -4.80 KCAL/MOL
REMARK 923 INTER-LIGAND FREE ENERGY PREDICTED BY IDOCK:   -4.31 KCAL/MOL
REMARK 924 INTRA-LIGAND FREE ENERGY PREDICTED BY IDOCK:   -0.50 KCAL/MOL
REMARK 927      BINDING AFFINITY PREDICTED BY RF-SCORE:    0.00 PKD
ROOT
HETATM    1  C   UNL     1      -9.906   7.711  73.395  1.00  0.00    -0.303 C  
HETATM    2  N   UNL     1     -10.180   7.157  72.066  1.00  0.00    -0.189 N  
HETATM    3  C   UNL     1     -10.410   5.784  71.977  1.00  0.00    -0.208 C  
HETATM    4  C   UNL     1     -10.734   5.150  70.640  1.00  0.00    -0.133 C  
HETATM    5  O   UNL     1     -10.395   5.050  72.974  1.00  0.00    -0.170 OA 
ENDROOT
BRANCH   2   6
HETATM    6  C   UNL     1     -10.080   8.066  70.957  1.00  0.00    -0.186 A  
HETATM    7  C   UNL     1     -11.105   8.999  70.664  1.00  0.00    -0.265 A  
HETATM    8  C   UNL     1     -10.925  10.005  69.677  1.00  0.00    -0.301 A  
HETATM    9  I   UNL     1     -13.083   8.698  71.491  1.00  0.00    -0.255 I  
HETATM   10  C   UNL     1     -11.809  11.196  69.718  1.00  0.00    -0.349 C  
HETATM   11  C   UNL     1      -9.810   9.928  68.819  1.00  0.00    -0.171 A  
HETATM   12  C   UNL     1      -8.874   8.881  68.959  1.00  0.00    -0.136 A  
HETATM   13  I   UNL     1      -9.461  11.372  67.268  1.00  0.00    -0.192 I  
HETATM   14  O   UNL     1     -12.350  11.573  68.546  1.00  0.00    -0.459 OA 
HETATM   15  O   UNL     1     -12.049  11.776  70.770  1.00  0.00    -0.360 OA 
HETATM   16  C   UNL     1      -8.948   8.048  70.099  1.00  0.00    -0.150 A  
HETATM   17  I   UNL     1      -7.084   7.174  70.785  1.00  0.00    -0.068 I  
BRANCH  12  18
HETATM   18  N   UNL     1      -7.808   8.796  68.033  1.00  0.00    -0.102 N  
HETATM   19  C   UNL     1      -7.753   8.086  66.862  1.00  0.00    -0.099 C  
HETATM   20  H   UNL     1      -6.972   9.333  68.267  1.00  0.00     0.000 HD 
HETATM   21  C   UNL     1      -8.844   7.124  66.468  1.00  0.00    -0.154 C  
HETATM   22  O   UNL     1      -6.807   8.296  66.102  1.00  0.00    -0.057 OA 
ENDBRANCH  12  18
ENDBRANCH   2   6
TORSDOF 2
ENDMDL
MODEL       54
REMARK 921   NORMALIZED FREE ENERGY PREDICTED BY IDOCK:   -3.86 KCAL/MOL
REMARK 922        TOTAL FREE ENERGY PREDICTED BY IDOCK:   -4.80 KCAL/MOL
REMARK 923 INTER-LIGAND FREE ENERGY PREDICTED BY IDOCK:   -4.23 KCAL/MOL
REMARK 924 INTRA-LIGAND FREE ENERGY PREDICTED BY IDOCK:   -0.57 KCAL/MOL
REMARK 927      BINDING AFFINITY PREDICTED BY RF-SCORE:    0.00 PKD
ROOT
HETATM    1  C   UNL     1     -10.328   6.975  73.502  1.00  0.00    -0.356 C  
HETATM    2  N   UNL     1      -9.269   7.349  72.560  1.00  0.00    -0.138 N  
HETATM    3  C   UNL     1      -8.253   8.181  73.032  1.00  0.00    -0.189 C  
HETATM    4  C   UNL     1      -7.110   8.578  72.122  1.00  0.00    -0.102 C  
HETATM    5  O   UNL     1      -8.229   8.588  74.200  1.00  0.00    -0.334 OA 
ENDROOT
BRANCH   2   6
HETATM    6  C   UNL     1      -9.433   6.910  71.201  1.00  0.00    -0.166 A  
HETATM    7  C   UNL     1      -9.022   5.622  70.779  1.00  0.00    -0.143 A  
HETATM    8  C   UNL     1      -9.341   5.134  69.483  1.00  0.00    -0.181 A  
HETATM    9  I   UNL     1      -7.618   4.506  71.993  1.00  0.00    -0.094 I  
HETATM   10  C   UNL     1      -9.291   3.669  69.253  1.00  0.00    -0.175 C  
HETATM   11  C   UNL     1      -9.866   6.027  68.528  1.00  0.00    -0.130 A  
HETATM   12  C   UNL     1     -10.095   7.378  68.865  1.00  0.00    -0.186 A  
HETATM   13  I   UNL     1     -10.348   5.406  66.529  1.00  0.00    -0.220 I  
HETATM   14  O   UNL     1      -8.657   3.267  68.137  1.00  0.00    -0.086 OA 
HETATM   15  O   UNL     1      -9.777   2.881  70.053  1.00  0.00    -0.100 OA 
HETATM   16  C   UNL     1     -10.002   7.768  70.222  1.00  0.00    -0.189 A  
HETATM   17  I   UNL     1     -11.234   9.445  70.835  1.00  0.00    -0.479 I  
BRANCH  12  18
HETATM   18  N   UNL     1     -10.554   8.260  67.859  1.00  0.00    -0.411 N  
HETATM   19  C   UNL     1      -9.832   9.174  67.136  1.00  0.00    -0.195 C  
HETATM   20  H   UNL     1     -11.550   8.209  67.644  1.00  0.00     0.000 HD 
HETATM   21  C   UNL     1      -8.390   9.475  67.454  1.00  0.00    -0.125 C  
HETATM   22  O   UNL     1     -10.379   9.710  66.171  1.00  0.00    -0.230 OA 
ENDBRANCH  12  18
ENDBRANCH   2   6
TORSDOF 2
ENDMDL
MODEL       55
REMARK 921   NORMALIZED FREE ENERGY PREDICTED BY IDOCK:   -3.84 KCAL/MOL
REMARK 922        TOTAL FREE ENERGY PREDICTED BY IDOCK:   -4.79 KCAL/MOL
REMARK 923 INTER-LIGAND FREE ENERGY PREDICTED BY IDOCK:   -4.24 KCAL/MOL
REMARK 924 INTRA-LIGAND FREE ENERGY PREDICTED BY IDOCK:   -0.54 KCAL/MOL
REMARK 927      BINDING AFFINITY PREDICTED BY RF-SCORE:    0.00 PKD
ROOT
HETATM    1  C   UNL     1     -12.245   6.919  70.898  1.00  0.00    -0.353 C  
HETATM    2  N   UNL     1     -10.882   7.447  71.007  1.00  0.00    -0.236 N  
HETATM    3  C   UNL     1     -10.424   7.788  72.280  1.00  0.00    -0.246 C  
HETATM    4  C   UNL     1      -9.014   8.307  72.470  1.00  0.00    -0.305 C  
HETATM    5  O   UNL     1     -11.127   7.647  73.289  1.00  0.00    -0.382 OA 
ENDROOT
BRANCH   2   6
HETATM    6  C   UNL     1     -10.177   7.668  69.774  1.00  0.00    -0.210 A  
HETATM    7  C   UNL     1     -10.086   8.954  69.187  1.00  0.00    -0.197 A  
HETATM    8  C   UNL     1      -9.248   9.194  68.065  1.00  0.00    -0.142 A  
HETATM    9  I   UNL     1     -11.475  10.499  69.797  1.00  0.00    -0.391 I  
HETATM   10  C   UNL     1      -8.845  10.593  67.777  1.00  0.00    -0.133 C  
HETATM   11  C   UNL     1      -8.687   8.096  67.385  1.00  0.00    -0.124 A  
HETATM   12  C   UNL     1      -8.932   6.779  67.831  1.00  0.00    -0.113 A  
HETATM   13  I   UNL     1      -7.438   8.342  65.655  1.00  0.00    -0.090 I  
HETATM   14  O   UNL     1      -8.956  10.988  66.496  1.00  0.00    -0.162 OA 
HETATM   15  O   UNL     1      -8.462  11.342  68.666  1.00  0.00    -0.155 OA 
HETATM   16  C   UNL     1      -9.559   6.590  69.085  1.00  0.00    -0.134 A  
HETATM   17  I   UNL     1      -9.065   4.766  70.149  1.00  0.00    -0.207 I  
BRANCH  12  18
HETATM   18  N   UNL     1      -8.411   5.701  67.079  1.00  0.00    -0.111 N  
HETATM   19  C   UNL     1      -9.083   4.837  66.254  1.00  0.00    -0.122 C  
HETATM   20  H   UNL     1      -7.407   5.545  67.163  1.00  0.00     0.000 HD 
HETATM   21  C   UNL     1     -10.587   4.842  66.156  1.00  0.00    -0.322 C  
HETATM   22  O   UNL     1      -8.418   4.085  65.539  1.00  0.00    -0.108 OA 
ENDBRANCH  12  18
ENDBRANCH   2   6
TORSDOF 2
ENDMDL
MODEL       56
REMARK 921   NORMALIZED FREE ENERGY PREDICTED BY IDOCK:   -3.82 KCAL/MOL
REMARK 922        TOTAL FREE ENERGY PREDICTED BY IDOCK:   -4.76 KCAL/MOL
REMARK 923 INTER-LIGAND FREE ENERGY PREDICTED BY IDOCK:   -4.34 KCAL/MOL
REMARK 924 INTRA-LIGAND FREE ENERGY PREDICTED BY IDOCK:   -0.41 KCAL/MOL
REMARK 927      BINDING AFFINITY PREDICTED BY RF-SCORE:    0.00 PKD
ROOT
HETATM    1  C   UNL     1      -7.404  16.013  66.828  1.00  0.00    -0.151 C  
HETATM    2  N   UNL     1      -8.505  15.447  67.614  1.00  0.00    -0.156 N  
HETATM    3  C   UNL     1      -9.040  16.237  68.632  1.00  0.00    -0.228 C  
HETATM    4  C   UNL     1     -10.202  15.730  69.461  1.00  0.00    -0.271 C  
HETATM    5  O   UNL     1      -8.618  17.377  68.868  1.00  0.00    -0.246 OA 
ENDROOT
BRANCH   2   6
HETATM    6  C   UNL     1      -8.861  14.083  67.334  1.00  0.00    -0.206 A  
HETATM    7  C   UNL     1      -9.751  13.746  66.285  1.00  0.00    -0.284 A  
HETATM    8  C   UNL     1      -9.963  12.393  65.905  1.00  0.00    -0.271 A  
HETATM    9  I   UNL     1     -11.046  15.272  65.460  1.00  0.00    -0.219 I  
HETATM   10  C   UNL     1     -10.527  12.122  64.559  1.00  0.00    -0.303 C  
HETATM   11  C   UNL     1      -9.468  11.366  66.732  1.00  0.00    -0.182 A  
HETATM   12  C   UNL     1      -8.747  11.680  67.905  1.00  0.00    -0.154 A  
HETATM   13  I   UNL     1      -9.764   9.289  66.274  1.00  0.00    -0.320 I  
HETATM   14  O   UNL     1     -11.533  11.230  64.508  1.00  0.00    -0.133 OA 
HETATM   15  O   UNL     1     -10.111  12.703  63.565  1.00  0.00    -0.392 OA 
HETATM   16  C   UNL     1      -8.342  13.018  68.118  1.00  0.00    -0.164 A  
HETATM   17  I   UNL     1      -6.532  13.310  69.279  1.00  0.00    -0.012 I  
BRANCH  12  18
HETATM   18  N   UNL     1      -8.329  10.624  68.747  1.00  0.00    -0.136 N  
HETATM   19  C   UNL     1      -9.045   9.979  69.722  1.00  0.00    -0.193 C  
HETATM   20  H   UNL     1      -7.371  10.300  68.611  1.00  0.00     0.000 HD 
HETATM   21  C   UNL     1     -10.412  10.452  70.144  1.00  0.00    -0.185 C  
HETATM   22  O   UNL     1      -8.564   8.956  70.212  1.00  0.00    -0.138 OA 
ENDBRANCH  12  18
ENDBRANCH   2   6
TORSDOF 2
ENDMDL
MODEL       57
REMARK 921   NORMALIZED FREE ENERGY PREDICTED BY IDOCK:   -3.79 KCAL/MOL
REMARK 922        TOTAL FREE ENERGY PREDICTED BY IDOCK:   -4.73 KCAL/MOL
REMARK 923 INTER-LIGAND FREE ENERGY PREDICTED BY IDOCK:   -4.27 KCAL/MOL
REMARK 924 INTRA-LIGAND FREE ENERGY PREDICTED BY IDOCK:   -0.46 KCAL/MOL
REMARK 927      BINDING AFFINITY PREDICTED BY RF-SCORE:    0.00 PKD
ROOT
HETATM    1  C   UNL     1     -10.604   5.440  66.534  1.00  0.00    -0.289 C  
HETATM    2  N   UNL     1      -9.456   5.891  67.326  1.00  0.00    -0.112 N  
HETATM    3  C   UNL     1      -8.244   6.069  66.657  1.00  0.00    -0.106 C  
HETATM    4  C   UNL     1      -7.026   6.567  67.407  1.00  0.00    -0.078 C  
HETATM    5  O   UNL     1      -8.130   5.867  65.441  1.00  0.00    -0.116 OA 
ENDROOT
BRANCH   2   6
HETATM    6  C   UNL     1      -9.658   6.005  68.745  1.00  0.00    -0.129 A  
HETATM    7  C   UNL     1      -9.287   4.968  69.636  1.00  0.00    -0.127 A  
HETATM    8  C   UNL     1      -9.330   5.155  71.044  1.00  0.00    -0.198 A  
HETATM    9  I   UNL     1      -8.956   2.972  68.863  1.00  0.00    -0.234 I  
HETATM   10  C   UNL     1      -8.533   4.242  71.898  1.00  0.00    -0.106 C  
HETATM   11  C   UNL     1      -9.972   6.298  71.560  1.00  0.00    -0.184 A  
HETATM   12  C   UNL     1     -10.536   7.254  70.689  1.00  0.00    -0.226 A  
HETATM   13  I   UNL     1     -10.130   6.661  73.671  1.00  0.00    -0.399 I  
HETATM   14  O   UNL     1      -9.166   3.730  72.969  1.00  0.00    -0.102 OA 
HETATM   15  O   UNL     1      -7.375   3.955  71.619  1.00  0.00    -0.051 OA 
HETATM   16  C   UNL     1     -10.258   7.163  69.305  1.00  0.00    -0.190 A  
HETATM   17  I   UNL     1     -10.267   9.025  68.190  1.00  0.00    -0.240 I  
BRANCH  12  18
HETATM   18  N   UNL     1     -11.235   8.350  71.246  1.00  0.00    -0.250 N  
HETATM   19  C   UNL     1     -12.550   8.415  71.627  1.00  0.00    -0.332 C  
HETATM   20  H   UNL     1     -10.690   9.202  71.381  1.00  0.00     0.000 HD 
HETATM   21  C   UNL     1     -13.514   7.293  71.340  1.00  0.00    -0.400 C  
HETATM   22  O   UNL     1     -12.918   9.400  72.269  1.00  0.00    -0.401 OA 
ENDBRANCH  12  18
ENDBRANCH   2   6
TORSDOF 2
ENDMDL
MODEL       58
REMARK 921   NORMALIZED FREE ENERGY PREDICTED BY IDOCK:   -3.72 KCAL/MOL
REMARK 922        TOTAL FREE ENERGY PREDICTED BY IDOCK:   -4.65 KCAL/MOL
REMARK 923 INTER-LIGAND FREE ENERGY PREDICTED BY IDOCK:   -4.19 KCAL/MOL
REMARK 924 INTRA-LIGAND FREE ENERGY PREDICTED BY IDOCK:   -0.46 KCAL/MOL
REMARK 927      BINDING AFFINITY PREDICTED BY RF-SCORE:    0.00 PKD
ROOT
HETATM    1  C   UNL     1      -8.691   8.518  71.843  1.00  0.00    -0.203 C  
HETATM    2  N   UNL     1      -9.741   8.082  70.916  1.00  0.00    -0.164 N  
HETATM    3  C   UNL     1     -10.768   7.294  71.435  1.00  0.00    -0.227 C  
HETATM    4  C   UNL     1     -11.903   6.836  70.542  1.00  0.00    -0.418 C  
HETATM    5  O   UNL     1     -10.810   6.973  72.630  1.00  0.00    -0.239 OA 
ENDROOT
BRANCH   2   6
HETATM    6  C   UNL     1      -9.556   8.418  69.531  1.00  0.00    -0.170 A  
HETATM    7  C   UNL     1     -10.013   9.647  68.995  1.00  0.00    -0.185 A  
HETATM    8  C   UNL     1      -9.677  10.045  67.673  1.00  0.00    -0.185 A  
HETATM    9  I   UNL     1     -11.501  10.789  70.078  1.00  0.00    -0.405 I  
HETATM   10  C   UNL     1      -9.786  11.483  67.323  1.00  0.00    -0.190 C  
HETATM   11  C   UNL     1      -9.085   9.104  66.808  1.00  0.00    -0.144 A  
HETATM   12  C   UNL     1      -8.805   7.797  67.259  1.00  0.00    -0.128 A  
HETATM   13  I   UNL     1      -8.572   9.586  64.779  1.00  0.00    -0.239 I  
HETATM   14  O   UNL     1     -10.405  11.764  66.163  1.00  0.00    -0.218 OA 
HETATM   15  O   UNL     1      -9.360  12.355  68.070  1.00  0.00    -0.191 OA 
HETATM   16  C   UNL     1      -8.920   7.513  68.640  1.00  0.00    -0.132 A  
HETATM   17  I   UNL     1      -7.633   5.950  69.420  1.00  0.00    -0.096 I  
BRANCH  12  18
HETATM   18  N   UNL     1      -8.277   6.861  66.340  1.00  0.00    -0.112 N  
HETATM   19  C   UNL     1      -8.891   5.761  65.799  1.00  0.00    -0.146 C  
HETATM   20  H   UNL     1      -7.315   7.024  66.042  1.00  0.00     0.000 HD 
HETATM   21  C   UNL     1     -10.249   5.303  66.266  1.00  0.00    -0.263 C  
HETATM   22  O   UNL     1      -8.327   5.182  64.870  1.00  0.00    -0.132 OA 
ENDBRANCH  12  18
ENDBRANCH   2   6
TORSDOF 2
ENDMDL
MODEL       59
REMARK 921   NORMALIZED FREE ENERGY PREDICTED BY IDOCK:   -3.71 KCAL/MOL
REMARK 922        TOTAL FREE ENERGY PREDICTED BY IDOCK:   -4.64 KCAL/MOL
REMARK 923 INTER-LIGAND FREE ENERGY PREDICTED BY IDOCK:   -4.10 KCAL/MOL
REMARK 924 INTRA-LIGAND FREE ENERGY PREDICTED BY IDOCK:   -0.54 KCAL/MOL
REMARK 927      BINDING AFFINITY PREDICTED BY RF-SCORE:    0.00 PKD
ROOT
HETATM    1  C   UNL     1      -9.397  14.030  67.508  1.00  0.00    -0.209 C  
HETATM    2  N   UNL     1     -10.082  12.738  67.612  1.00  0.00    -0.216 N  
HETATM    3  C   UNL     1     -11.085  12.618  68.574  1.00  0.00    -0.266 C  
HETATM    4  C   UNL     1     -11.856  11.322  68.713  1.00  0.00    -0.396 C  
HETATM    5  O   UNL     1     -11.402  13.559  69.312  1.00  0.00    -0.259 OA 
ENDROOT
BRANCH   2   6
HETATM    6  C   UNL     1      -9.580  11.676  66.783  1.00  0.00    -0.192 A  
HETATM    7  C   UNL     1      -9.935  11.567  65.416  1.00  0.00    -0.248 A  
HETATM    8  C   UNL     1      -9.305  10.621  64.564  1.00  0.00    -0.284 A  
HETATM    9  I   UNL     1     -11.678  12.624  64.684  1.00  0.00    -0.510 I  
HETATM   10  C   UNL     1      -9.375  10.839  63.098  1.00  0.00    -0.319 C  
HETATM   11  C   UNL     1      -8.490   9.624  65.136  1.00  0.00    -0.150 A  
HETATM   12  C   UNL     1      -8.283   9.586  66.532  1.00  0.00    -0.119 A  
HETATM   13  I   UNL     1      -7.520   8.122  63.947  1.00  0.00    -0.135 I  
HETATM   14  O   UNL     1      -9.705   9.768  62.355  1.00  0.00    -0.075 OA 
HETATM   15  O   UNL     1      -9.171  11.943  62.608  1.00  0.00    -0.206 OA 
HETATM   16  C   UNL     1      -8.718  10.681  67.315  1.00  0.00    -0.129 A  
HETATM   17  I   UNL     1      -7.605  11.074  69.135  1.00  0.00     0.031 I  
BRANCH  12  18
HETATM   18  N   UNL     1      -7.518   8.529  67.076  1.00  0.00    -0.084 N  
HETATM   19  C   UNL     1      -7.956   7.439  67.782  1.00  0.00    -0.118 C  
HETATM   20  H   UNL     1      -6.511   8.584  66.922  1.00  0.00     0.000 HD 
HETATM   21  C   UNL     1      -9.391   7.305  68.224  1.00  0.00    -0.135 C  
HETATM   22  O   UNL     1      -7.152   6.531  68.003  1.00  0.00    -0.080 OA 
ENDBRANCH  12  18
ENDBRANCH   2   6
TORSDOF 2
ENDMDL
MODEL       60
REMARK 921   NORMALIZED FREE ENERGY PREDICTED BY IDOCK:   -3.69 KCAL/MOL
REMARK 922        TOTAL FREE ENERGY PREDICTED BY IDOCK:   -4.61 KCAL/MOL
REMARK 923 INTER-LIGAND FREE ENERGY PREDICTED BY IDOCK:   -4.04 KCAL/MOL
REMARK 924 INTRA-LIGAND FREE ENERGY PREDICTED BY IDOCK:   -0.57 KCAL/MOL
REMARK 927      BINDING AFFINITY PREDICTED BY RF-SCORE:    0.00 PKD
ROOT
HETATM    1  C   UNL     1     -10.158   8.889  66.423  1.00  0.00    -0.263 C  
HETATM    2  N   UNL     1      -9.326   9.678  67.337  1.00  0.00    -0.133 N  
HETATM    3  C   UNL     1      -8.597  10.734  66.792  1.00  0.00    -0.136 C  
HETATM    4  C   UNL     1      -7.743  11.612  67.684  1.00  0.00    -0.133 C  
HETATM    5  O   UNL     1      -8.646  11.013  65.587  1.00  0.00    -0.181 OA 
ENDROOT
BRANCH   2   6
HETATM    6  C   UNL     1      -9.255   9.220  68.698  1.00  0.00    -0.135 A  
HETATM    7  C   UNL     1      -8.211   8.373  69.146  1.00  0.00    -0.120 A  
HETATM    8  C   UNL     1      -8.052   8.066  70.524  1.00  0.00    -0.105 A  
HETATM    9  I   UNL     1      -7.040   7.274  67.694  1.00  0.00    -0.091 I  
HETATM   10  C   UNL     1      -6.732   7.568  70.984  1.00  0.00    -0.043 C  
HETATM   11  C   UNL     1      -9.078   8.414  71.424  1.00  0.00    -0.186 A  
HETATM   12  C   UNL     1     -10.233   9.083  70.965  1.00  0.00    -0.277 A  
HETATM   13  I   UNL     1      -8.958   7.964  73.520  1.00  0.00    -0.224 I  
HETATM   14  O   UNL     1      -6.754   6.492  71.791  1.00  0.00    -0.060 OA 
HETATM   15  O   UNL     1      -5.689   8.096  70.620  1.00  0.00    -0.029 OA 
HETATM   16  C   UNL     1     -10.247   9.591  69.645  1.00  0.00    -0.218 A  
HETATM   17  I   UNL     1     -11.479  11.341  69.292  1.00  0.00    -0.467 I  
BRANCH  12  18
HETATM   18  N   UNL     1     -11.272   9.351  71.885  1.00  0.00    -0.287 N  
HETATM   19  C   UNL     1     -12.401   8.613  72.131  1.00  0.00    -0.386 C  
HETATM   20  H   UNL     1     -11.169  10.203  72.436  1.00  0.00     0.000 HD 
HETATM   21  C   UNL     1     -12.768   7.421  71.286  1.00  0.00    -0.371 C  
HETATM   22  O   UNL     1     -13.088   8.915  73.108  1.00  0.00    -0.201 OA 
ENDBRANCH  12  18
ENDBRANCH   2   6
TORSDOF 2
ENDMDL
MODEL       61
REMARK 921   NORMALIZED FREE ENERGY PREDICTED BY IDOCK:   -3.69 KCAL/MOL
REMARK 922        TOTAL FREE ENERGY PREDICTED BY IDOCK:   -4.61 KCAL/MOL
REMARK 923 INTER-LIGAND FREE ENERGY PREDICTED BY IDOCK:   -4.71 KCAL/MOL
REMARK 924 INTRA-LIGAND FREE ENERGY PREDICTED BY IDOCK:    0.10 KCAL/MOL
REMARK 927      BINDING AFFINITY PREDICTED BY RF-SCORE:    0.00 PKD
ROOT
HETATM    1  C   UNL     1      -9.374  15.934  69.475  1.00  0.00    -0.196 C  
HETATM    2  N   UNL     1      -8.501  15.746  68.312  1.00  0.00    -0.161 N  
HETATM    3  C   UNL     1      -7.568  16.747  68.041  1.00  0.00    -0.169 C  
HETATM    4  C   UNL     1      -6.611  16.601  66.876  1.00  0.00    -0.242 C  
HETATM    5  O   UNL     1      -7.464  17.756  68.749  1.00  0.00    -0.265 OA 
ENDROOT
BRANCH   2   6
HETATM    6  C   UNL     1      -8.761  14.594  67.493  1.00  0.00    -0.186 A  
HETATM    7  C   UNL     1      -8.184  13.332  67.778  1.00  0.00    -0.168 A  
HETATM    8  C   UNL     1      -8.578  12.165  67.070  1.00  0.00    -0.191 A  
HETATM    9  I   UNL     1      -6.456  13.224  69.079  1.00  0.00    -0.084 I  
HETATM   10  C   UNL     1      -8.297  10.843  67.682  1.00  0.00    -0.116 C  
HETATM   11  C   UNL     1      -9.375  12.303  65.916  1.00  0.00    -0.095 A  
HETATM   12  C   UNL     1      -9.796  13.581  65.490  1.00  0.00    -0.143 A  
HETATM   13  I   UNL     1      -9.996  10.611  64.748  1.00  0.00    -0.345 I  
HETATM   14  O   UNL     1      -7.753   9.918  66.871  1.00  0.00    -0.098 OA 
HETATM   15  O   UNL     1      -8.525  10.628  68.866  1.00  0.00    -0.139 OA 
HETATM   16  C   UNL     1      -9.597  14.686  66.349  1.00  0.00    -0.301 A  
HETATM   17  I   UNL     1     -11.018  16.317  66.176  1.00  0.00     0.347 I  
BRANCH  12  18
HETATM   18  N   UNL     1     -10.533  13.686  64.287  1.00  0.00    -0.603 N  
HETATM   19  C   UNL     1     -11.880  13.515  64.098  1.00  0.00    -0.437 C  
HETATM   20  H   UNL     1      -9.993  13.918  63.454  1.00  0.00     0.000 HD 
HETATM   21  C   UNL     1     -12.778  13.014  65.200  1.00  0.00    -0.461 C  
HETATM   22  O   UNL     1     -12.357  13.839  63.009  1.00  0.00    -0.661 OA 
ENDBRANCH  12  18
ENDBRANCH   2   6
TORSDOF 2
ENDMDL
MODEL       62
REMARK 921   NORMALIZED FREE ENERGY PREDICTED BY IDOCK:   -3.68 KCAL/MOL
REMARK 922        TOTAL FREE ENERGY PREDICTED BY IDOCK:   -4.60 KCAL/MOL
REMARK 923 INTER-LIGAND FREE ENERGY PREDICTED BY IDOCK:   -4.65 KCAL/MOL
REMARK 924 INTRA-LIGAND FREE ENERGY PREDICTED BY IDOCK:    0.05 KCAL/MOL
REMARK 927      BINDING AFFINITY PREDICTED BY RF-SCORE:    0.00 PKD
ROOT
HETATM    1  C   UNL     1      -6.188  10.224  67.538  1.00  0.00    -0.057 C  
HETATM    2  N   UNL     1      -7.533   9.799  67.136  1.00  0.00    -0.088 N  
HETATM    3  C   UNL     1      -7.781   9.661  65.770  1.00  0.00    -0.106 C  
HETATM    4  C   UNL     1      -9.137   9.192  65.286  1.00  0.00    -0.252 C  
HETATM    5  O   UNL     1      -6.909   9.878  64.919  1.00  0.00    -0.114 OA 
ENDROOT
BRANCH   2   6
HETATM    6  C   UNL     1      -8.506   9.666  68.185  1.00  0.00    -0.118 A  
HETATM    7  C   UNL     1      -9.482  10.664  68.427  1.00  0.00    -0.165 A  
HETATM    8  C   UNL     1     -10.542  10.451  69.348  1.00  0.00    -0.267 A  
HETATM    9  I   UNL     1      -9.182  12.656  67.631  1.00  0.00    -0.221 I  
HETATM   10  C   UNL     1     -11.751  11.304  69.238  1.00  0.00    -0.334 C  
HETATM   11  C   UNL     1     -10.488   9.332  70.202  1.00  0.00    -0.230 A  
HETATM   12  C   UNL     1      -9.411   8.424  70.122  1.00  0.00    -0.163 A  
HETATM   13  I   UNL     1     -12.016   8.933  71.658  1.00  0.00    -0.479 I  
HETATM   14  O   UNL     1     -12.213  11.826  70.388  1.00  0.00    -0.346 OA 
HETATM   15  O   UNL     1     -12.270  11.536  68.154  1.00  0.00    -0.576 OA 
HETATM   16  C   UNL     1      -8.511   8.529  69.036  1.00  0.00    -0.126 A  
HETATM   17  I   UNL     1      -7.548   6.693  68.394  1.00  0.00    -0.108 I  
BRANCH  12  18
HETATM   18  N   UNL     1      -9.355   7.354  71.045  1.00  0.00    -0.157 N  
HETATM   19  C   UNL     1      -9.940   6.118  70.950  1.00  0.00    -0.185 C  
HETATM   20  H   UNL     1      -8.809   7.524  71.889  1.00  0.00     0.000 HD 
HETATM   21  C   UNL     1     -10.904   5.781  69.841  1.00  0.00    -0.417 C  
HETATM   22  O   UNL     1      -9.613   5.258  71.769  1.00  0.00    -0.145 OA 
ENDBRANCH  12  18
ENDBRANCH   2   6
TORSDOF 2
ENDMDL
MODEL       63
REMARK 921   NORMALIZED FREE ENERGY PREDICTED BY IDOCK:   -3.67 KCAL/MOL
REMARK 922        TOTAL FREE ENERGY PREDICTED BY IDOCK:   -4.59 KCAL/MOL
REMARK 923 INTER-LIGAND FREE ENERGY PREDICTED BY IDOCK:   -4.37 KCAL/MOL
REMARK 924 INTRA-LIGAND FREE ENERGY PREDICTED BY IDOCK:   -0.22 KCAL/MOL
REMARK 927      BINDING AFFINITY PREDICTED BY RF-SCORE:    0.00 PKD
ROOT
HETATM    1  C   UNL     1      -9.009   8.391  73.587  1.00  0.00     0.001 C  
HETATM    2  N   UNL     1      -9.595   7.402  72.678  1.00  0.00    -0.151 N  
HETATM    3  C   UNL     1     -10.053   6.209  73.235  1.00  0.00    -0.196 C  
HETATM    4  C   UNL     1     -10.702   5.157  72.359  1.00  0.00    -0.276 C  
HETATM    5  O   UNL     1      -9.982   5.982  74.450  1.00  0.00    -0.225 OA 
ENDROOT
BRANCH   2   6
HETATM    6  C   UNL     1      -9.546   7.710  71.275  1.00  0.00    -0.157 A  
HETATM    7  C   UNL     1      -8.513   7.218  70.440  1.00  0.00    -0.139 A  
HETATM    8  C   UNL     1      -8.563   7.383  69.029  1.00  0.00    -0.133 A  
HETATM    9  I   UNL     1      -6.680   6.491  71.335  1.00  0.00    -0.060 I  
HETATM   10  C   UNL     1      -7.728   6.492  68.188  1.00  0.00    -0.105 C  
HETATM   11  C   UNL     1      -9.529   8.248  68.478  1.00  0.00    -0.146 A  
HETATM   12  C   UNL     1     -10.447   8.918  69.314  1.00  0.00    -0.224 A  
HETATM   13  I   UNL     1      -9.670   8.601  66.364  1.00  0.00    -0.214 I  
HETATM   14  O   UNL     1      -7.021   7.090  67.212  1.00  0.00    -0.073 OA 
HETATM   15  O   UNL     1      -7.670   5.287  68.397  1.00  0.00    -0.079 OA 
HETATM   16  C   UNL     1     -10.530   8.541  70.675  1.00  0.00    -0.201 A  
HETATM   17  I   UNL     1     -12.454   8.810  71.641  1.00  0.00    -0.451 I  
BRANCH  12  18
HETATM   18  N   UNL     1     -11.353   9.833  68.731  1.00  0.00    -0.482 N  
HETATM   19  C   UNL     1     -11.111  11.111  68.298  1.00  0.00    -0.251 C  
HETATM   20  H   UNL     1     -12.311   9.500  68.618  1.00  0.00     0.000 HD 
HETATM   21  C   UNL     1      -9.790  11.794  68.546  1.00  0.00    -0.192 C  
HETATM   22  O   UNL     1     -11.988  11.676  67.643  1.00  0.00    -0.618 OA 
ENDBRANCH  12  18
ENDBRANCH   2   6
TORSDOF 2
ENDMDL
MODEL       64
REMARK 921   NORMALIZED FREE ENERGY PREDICTED BY IDOCK:   -3.66 KCAL/MOL
REMARK 922        TOTAL FREE ENERGY PREDICTED BY IDOCK:   -4.58 KCAL/MOL
REMARK 923 INTER-LIGAND FREE ENERGY PREDICTED BY IDOCK:   -4.04 KCAL/MOL
REMARK 924 INTRA-LIGAND FREE ENERGY PREDICTED BY IDOCK:   -0.54 KCAL/MOL
REMARK 927      BINDING AFFINITY PREDICTED BY RF-SCORE:    0.00 PKD
ROOT
HETATM    1  C   UNL     1      -9.807  15.590  65.580  1.00  0.00    -0.313 C  
HETATM    2  N   UNL     1     -10.137  14.591  66.601  1.00  0.00    -0.266 N  
HETATM    3  C   UNL     1     -10.975  14.989  67.642  1.00  0.00    -0.305 C  
HETATM    4  C   UNL     1     -11.385  13.999  68.712  1.00  0.00    -0.309 C  
HETATM    5  O   UNL     1     -11.437  16.136  67.711  1.00  0.00    -0.197 OA 
ENDROOT
BRANCH   2   6
HETATM    6  C   UNL     1      -9.477  13.318  66.492  1.00  0.00    -0.245 A  
HETATM    7  C   UNL     1      -8.373  12.979  67.312  1.00  0.00    -0.185 A  
HETATM    8  C   UNL     1      -7.837  11.663  67.319  1.00  0.00    -0.157 A  
HETATM    9  I   UNL     1      -7.282  14.551  68.326  1.00  0.00    -0.186 I  
HETATM   10  C   UNL     1      -7.011  11.248  68.479  1.00  0.00    -0.078 C  
HETATM   11  C   UNL     1      -8.255  10.751  66.330  1.00  0.00    -0.162 A  
HETATM   12  C   UNL     1      -9.212  11.134  65.365  1.00  0.00    -0.205 A  
HETATM   13  I   UNL     1      -7.482   8.750  66.223  1.00  0.00    -0.088 I  
HETATM   14  O   UNL     1      -5.855  10.623  68.189  1.00  0.00    -0.043 OA 
HETATM   15  O   UNL     1      -7.357  11.491  69.628  1.00  0.00     0.033 OA 
HETATM   16  C   UNL     1      -9.902  12.356  65.538  1.00  0.00    -0.200 A  
HETATM   17  I   UNL     1     -11.905  12.463  64.710  1.00  0.00    -0.411 I  
BRANCH  12  18
HETATM   18  N   UNL     1      -9.551  10.215  64.345  1.00  0.00    -0.305 N  
HETATM   19  C   UNL     1      -9.059  10.142  63.068  1.00  0.00    -0.279 C  
HETATM   20  H   UNL     1     -10.254   9.517  64.592  1.00  0.00     0.000 HD 
HETATM   21  C   UNL     1      -8.140  11.199  62.512  1.00  0.00    -0.091 C  
HETATM   22  O   UNL     1      -9.342   9.149  62.395  1.00  0.00    -0.045 OA 
ENDBRANCH  12  18
ENDBRANCH   2   6
TORSDOF 2
ENDMDL
MODEL       65
REMARK 921   NORMALIZED FREE ENERGY PREDICTED BY IDOCK:   -3.63 KCAL/MOL
REMARK 922        TOTAL FREE ENERGY PREDICTED BY IDOCK:   -4.55 KCAL/MOL
REMARK 923 INTER-LIGAND FREE ENERGY PREDICTED BY IDOCK:   -3.98 KCAL/MOL
REMARK 924 INTRA-LIGAND FREE ENERGY PREDICTED BY IDOCK:   -0.57 KCAL/MOL
REMARK 927      BINDING AFFINITY PREDICTED BY RF-SCORE:    0.00 PKD
ROOT
HETATM    1  C   UNL     1      -6.824   5.994  67.914  1.00  0.00    -0.063 C  
HETATM    2  N   UNL     1      -7.836   5.895  66.858  1.00  0.00    -0.101 N  
HETATM    3  C   UNL     1      -8.064   4.636  66.302  1.00  0.00    -0.103 C  
HETATM    4  C   UNL     1      -9.120   4.455  65.231  1.00  0.00    -0.146 C  
HETATM    5  O   UNL     1      -7.450   3.631  66.681  1.00  0.00    -0.074 OA 
ENDROOT
BRANCH   2   6
HETATM    6  C   UNL     1      -8.426   7.129  66.415  1.00  0.00    -0.130 A  
HETATM    7  C   UNL     1      -7.922   7.837  65.297  1.00  0.00    -0.127 A  
HETATM    8  C   UNL     1      -8.611   8.959  64.763  1.00  0.00    -0.184 A  
HETATM    9  I   UNL     1      -5.921   7.412  64.586  1.00  0.00    -0.037 I  
HETATM   10  C   UNL     1      -8.304   9.375  63.373  1.00  0.00    -0.188 C  
HETATM   11  C   UNL     1      -9.678   9.516  65.496  1.00  0.00    -0.273 A  
HETATM   12  C   UNL     1     -10.072   8.948  66.726  1.00  0.00    -0.280 A  
HETATM   13  I   UNL     1     -10.764  11.234  64.802  1.00  0.00    -0.191 I  
HETATM   14  O   UNL     1      -8.101  10.691  63.180  1.00  0.00    -0.132 OA 
HETATM   15  O   UNL     1      -8.215   8.556  62.467  1.00  0.00    -0.173 OA 
HETATM   16  C   UNL     1      -9.534   7.695  67.102  1.00  0.00    -0.155 A  
HETATM   17  I   UNL     1     -10.777   6.445  68.366  1.00  0.00    -0.381 I  
BRANCH  12  18
HETATM   18  N   UNL     1     -11.099   9.577  67.466  1.00  0.00    -0.421 N  
HETATM   19  C   UNL     1     -10.980  10.404  68.553  1.00  0.00    -0.254 C  
HETATM   20  H   UNL     1     -12.052   9.392  67.151  1.00  0.00     0.000 HD 
HETATM   21  C   UNL     1      -9.653  10.639  69.227  1.00  0.00    -0.164 C  
HETATM   22  O   UNL     1     -11.985  11.005  68.936  1.00  0.00    -0.403 OA 
ENDBRANCH  12  18
ENDBRANCH   2   6
TORSDOF 2
ENDMDL
MODEL       66
REMARK 921   NORMALIZED FREE ENERGY PREDICTED BY IDOCK:   -3.62 KCAL/MOL
REMARK 922        TOTAL FREE ENERGY PREDICTED BY IDOCK:   -4.54 KCAL/MOL
REMARK 923 INTER-LIGAND FREE ENERGY PREDICTED BY IDOCK:   -3.96 KCAL/MOL
REMARK 924 INTRA-LIGAND FREE ENERGY PREDICTED BY IDOCK:   -0.58 KCAL/MOL
REMARK 927      BINDING AFFINITY PREDICTED BY RF-SCORE:    0.00 PKD
ROOT
HETATM    1  C   UNL     1     -11.403   6.467  71.186  1.00  0.00    -0.314 C  
HETATM    2  N   UNL     1     -10.080   6.298  70.576  1.00  0.00    -0.185 N  
HETATM    3  C   UNL     1      -9.495   5.034  70.651  1.00  0.00    -0.169 C  
HETATM    4  C   UNL     1      -8.146   4.779  70.013  1.00  0.00    -0.069 C  
HETATM    5  O   UNL     1     -10.062   4.080  71.200  1.00  0.00    -0.158 OA 
ENDROOT
BRANCH   2   6
HETATM    6  C   UNL     1      -9.458   7.482  70.050  1.00  0.00    -0.161 A  
HETATM    7  C   UNL     1      -8.479   8.197  70.782  1.00  0.00    -0.125 A  
HETATM    8  C   UNL     1      -7.748   9.262  70.190  1.00  0.00    -0.122 A  
HETATM    9  I   UNL     1      -8.313   7.886  72.919  1.00  0.00    -0.254 I  
HETATM   10  C   UNL     1      -6.466   9.668  70.817  1.00  0.00    -0.104 C  
HETATM   11  C   UNL     1      -8.166   9.765  68.942  1.00  0.00    -0.117 A  
HETATM   12  C   UNL     1      -9.276   9.199  68.280  1.00  0.00    -0.132 A  
HETATM   13  I   UNL     1      -7.158  11.397  67.974  1.00  0.00    -0.093 I  
HETATM   14  O   UNL     1      -6.283  10.989  70.988  1.00  0.00    -0.356 OA 
HETATM   15  O   UNL     1      -5.642   8.837  71.179  1.00  0.00    -0.033 OA 
HETATM   16  C   UNL     1      -9.821   7.991  68.775  1.00  0.00    -0.172 A  
HETATM   17  I   UNL     1     -10.775   6.692  67.322  1.00  0.00    -0.425 I  
BRANCH  12  18
HETATM   18  N   UNL     1      -9.709   9.778  67.065  1.00  0.00    -0.175 N  
HETATM   19  C   UNL     1     -10.721  10.681  66.866  1.00  0.00    -0.237 C  
HETATM   20  H   UNL     1      -9.204   9.486  66.229  1.00  0.00     0.000 HD 
HETATM   21  C   UNL     1     -11.656  11.081  67.979  1.00  0.00    -0.326 C  
HETATM   22  O   UNL     1     -10.815  11.210  65.758  1.00  0.00    -0.238 OA 
ENDBRANCH  12  18
ENDBRANCH   2   6
TORSDOF 2
ENDMDL
MODEL       67
REMARK 921   NORMALIZED FREE ENERGY PREDICTED BY IDOCK:   -3.59 KCAL/MOL
REMARK 922        TOTAL FREE ENERGY PREDICTED BY IDOCK:   -4.50 KCAL/MOL
REMARK 923 INTER-LIGAND FREE ENERGY PREDICTED BY IDOCK:   -4.04 KCAL/MOL
REMARK 924 INTRA-LIGAND FREE ENERGY PREDICTED BY IDOCK:   -0.46 KCAL/MOL
REMARK 927      BINDING AFFINITY PREDICTED BY RF-SCORE:    0.00 PKD
ROOT
HETATM    1  C   UNL     1     -11.097   7.774  70.462  1.00  0.00    -0.257 C  
HETATM    2  N   UNL     1      -9.828   8.407  70.091  1.00  0.00    -0.179 N  
HETATM    3  C   UNL     1      -9.045   8.930  71.121  1.00  0.00    -0.249 C  
HETATM    4  C   UNL     1      -7.707   9.568  70.812  1.00  0.00    -0.094 C  
HETATM    5  O   UNL     1      -9.392   8.863  72.307  1.00  0.00    -0.360 OA 
ENDROOT
BRANCH   2   6
HETATM    6  C   UNL     1      -9.556   8.527  68.684  1.00  0.00    -0.149 A  
HETATM    7  C   UNL     1      -9.856   9.710  67.966  1.00  0.00    -0.150 A  
HETATM    8  C   UNL     1      -9.430   9.884  66.621  1.00  0.00    -0.220 A  
HETATM    9  I   UNL     1     -11.251  11.137  68.806  1.00  0.00    -0.427 I  
HETATM   10  C   UNL     1      -9.369  11.262  66.076  1.00  0.00    -0.214 C  
HETATM   11  C   UNL     1      -8.911   8.776  65.922  1.00  0.00    -0.195 A  
HETATM   12  C   UNL     1      -8.792   7.523  66.558  1.00  0.00    -0.148 A  
HETATM   13  I   UNL     1      -8.274   8.917  63.876  1.00  0.00    -0.095 I  
HETATM   14  O   UNL     1      -9.910  11.441  64.858  1.00  0.00    -0.240 OA 
HETATM   15  O   UNL     1      -8.880  12.181  66.720  1.00  0.00    -0.197 OA 
HETATM   16  C   UNL     1      -8.989   7.447  67.957  1.00  0.00    -0.132 A  
HETATM   17  I   UNL     1      -7.909   5.884  69.005  1.00  0.00    -0.096 I  
BRANCH  12  18
HETATM   18  N   UNL     1      -8.335   6.419  65.802  1.00  0.00    -0.140 N  
HETATM   19  C   UNL     1      -9.033   5.302  65.420  1.00  0.00    -0.144 C  
HETATM   20  H   UNL     1      -7.361   6.458  65.502  1.00  0.00     0.000 HD 
HETATM   21  C   UNL     1     -10.427   5.029  65.923  1.00  0.00    -0.233 C  
HETATM   22  O   UNL     1      -8.510   4.545  64.601  1.00  0.00    -0.118 OA 
ENDBRANCH  12  18
ENDBRANCH   2   6
TORSDOF 2
ENDMDL
MODEL       68
REMARK 921   NORMALIZED FREE ENERGY PREDICTED BY IDOCK:   -3.57 KCAL/MOL
REMARK 922        TOTAL FREE ENERGY PREDICTED BY IDOCK:   -4.48 KCAL/MOL
REMARK 923 INTER-LIGAND FREE ENERGY PREDICTED BY IDOCK:   -4.54 KCAL/MOL
REMARK 924 INTRA-LIGAND FREE ENERGY PREDICTED BY IDOCK:    0.07 KCAL/MOL
REMARK 927      BINDING AFFINITY PREDICTED BY RF-SCORE:    0.00 PKD
ROOT
HETATM    1  C   UNL     1     -10.024   8.244  72.878  1.00  0.00    -0.226 C  
HETATM    2  N   UNL     1     -10.300   7.856  71.491  1.00  0.00    -0.199 N  
HETATM    3  C   UNL     1     -11.164   6.781  71.284  1.00  0.00    -0.276 C  
HETATM    4  C   UNL     1     -11.520   6.349  69.876  1.00  0.00    -0.483 C  
HETATM    5  O   UNL     1     -11.693   6.174  72.224  1.00  0.00    -0.309 OA 
ENDROOT
BRANCH   2   6
HETATM    6  C   UNL     1      -9.566   8.554  70.470  1.00  0.00    -0.170 A  
HETATM    7  C   UNL     1      -8.450   7.969  69.824  1.00  0.00    -0.127 A  
HETATM    8  C   UNL     1      -7.838   8.592  68.702  1.00  0.00    -0.108 A  
HETATM    9  I   UNL     1      -7.459   6.275  70.740  1.00  0.00    -0.095 I  
HETATM   10  C   UNL     1      -6.997   7.758  67.809  1.00  0.00    -0.081 C  
HETATM   11  C   UNL     1      -8.195   9.916  68.379  1.00  0.00    -0.106 A  
HETATM   12  C   UNL     1      -9.165  10.600  69.141  1.00  0.00    -0.148 A  
HETATM   13  I   UNL     1      -7.305  10.966  66.730  1.00  0.00    -0.138 I  
HETATM   14  O   UNL     1      -5.805   8.278  67.464  1.00  0.00    -0.041 OA 
HETATM   15  O   UNL     1      -7.365   6.651  67.437  1.00  0.00    -0.089 OA 
HETATM   16  C   UNL     1      -9.927   9.872  70.085  1.00  0.00    -0.238 A  
HETATM   17  I   UNL     1     -11.927  10.610  70.492  1.00  0.00    -0.485 I  
BRANCH  12  18
HETATM   18  N   UNL     1      -9.444  11.951  68.830  1.00  0.00    -0.410 N  
HETATM   19  C   UNL     1     -10.342  12.447  67.922  1.00  0.00    -0.210 C  
HETATM   20  H   UNL     1      -8.906  12.646  69.349  1.00  0.00     0.000 HD 
HETATM   21  C   UNL     1     -11.087  11.545  66.971  1.00  0.00    -0.365 C  
HETATM   22  O   UNL     1     -10.572  13.657  67.937  1.00  0.00    -0.241 OA 
ENDBRANCH  12  18
ENDBRANCH   2   6
TORSDOF 2
ENDMDL
MODEL       69
REMARK 921   NORMALIZED FREE ENERGY PREDICTED BY IDOCK:   -3.56 KCAL/MOL
REMARK 922        TOTAL FREE ENERGY PREDICTED BY IDOCK:   -4.47 KCAL/MOL
REMARK 923 INTER-LIGAND FREE ENERGY PREDICTED BY IDOCK:   -4.59 KCAL/MOL
REMARK 924 INTRA-LIGAND FREE ENERGY PREDICTED BY IDOCK:    0.11 KCAL/MOL
REMARK 927      BINDING AFFINITY PREDICTED BY RF-SCORE:    0.00 PKD
ROOT
HETATM    1  C   UNL     1     -11.106   8.010  70.409  1.00  0.00    -0.238 C  
HETATM    2  N   UNL     1      -9.913   8.743  69.973  1.00  0.00    -0.182 N  
HETATM    3  C   UNL     1      -8.961   9.056  70.944  1.00  0.00    -0.243 C  
HETATM    4  C   UNL     1      -7.689   9.781  70.557  1.00  0.00    -0.094 C  
HETATM    5  O   UNL     1      -9.100   8.728  72.129  1.00  0.00    -0.325 OA 
ENDROOT
BRANCH   2   6
HETATM    6  C   UNL     1      -9.885   9.166  68.600  1.00  0.00    -0.164 A  
HETATM    7  C   UNL     1     -10.388  10.428  68.199  1.00  0.00    -0.172 A  
HETATM    8  C   UNL     1     -10.203  10.909  66.875  1.00  0.00    -0.272 A  
HETATM    9  I   UNL     1     -11.732  11.502  69.516  1.00  0.00    -0.431 I  
HETATM   10  C   UNL     1     -10.338  12.367  66.632  1.00  0.00    -0.226 C  
HETATM   11  C   UNL     1      -9.722  10.025  65.890  1.00  0.00    -0.247 A  
HETATM   12  C   UNL     1      -9.404   8.691  66.222  1.00  0.00    -0.220 A  
HETATM   13  I   UNL     1      -9.440  10.635  63.850  1.00  0.00    -0.384 I  
HETATM   14  O   UNL     1     -11.082  12.723  65.570  1.00  0.00    -0.277 OA 
HETATM   15  O   UNL     1      -9.821  13.188  67.379  1.00  0.00    -0.219 OA 
HETATM   16  C   UNL     1      -9.364   8.319  67.586  1.00  0.00    -0.137 A  
HETATM   17  I   UNL     1      -8.010   6.707  68.112  1.00  0.00    -0.111 I  
BRANCH  12  18
HETATM   18  N   UNL     1      -8.994   7.814  65.191  1.00  0.00    -0.368 N  
HETATM   19  C   UNL     1      -7.732   7.615  64.696  1.00  0.00    -0.121 C  
HETATM   20  H   UNL     1      -9.734   7.259  64.760  1.00  0.00     0.000 HD 
HETATM   21  C   UNL     1      -6.570   8.476  65.120  1.00  0.00    -0.064 C  
HETATM   22  O   UNL     1      -7.554   6.667  63.929  1.00  0.00    -0.093 OA 
ENDBRANCH  12  18
ENDBRANCH   2   6
TORSDOF 2
ENDMDL
MODEL       70
REMARK 921   NORMALIZED FREE ENERGY PREDICTED BY IDOCK:   -3.56 KCAL/MOL
REMARK 922        TOTAL FREE ENERGY PREDICTED BY IDOCK:   -4.47 KCAL/MOL
REMARK 923 INTER-LIGAND FREE ENERGY PREDICTED BY IDOCK:   -4.10 KCAL/MOL
REMARK 924 INTRA-LIGAND FREE ENERGY PREDICTED BY IDOCK:   -0.37 KCAL/MOL
REMARK 927      BINDING AFFINITY PREDICTED BY RF-SCORE:    0.00 PKD
ROOT
HETATM    1  C   UNL     1      -6.672  18.413  65.405  1.00  0.00    -0.141 C  
HETATM    2  N   UNL     1      -7.280  18.320  66.737  1.00  0.00    -0.204 N  
HETATM    3  C   UNL     1      -7.063  19.380  67.617  1.00  0.00    -0.230 C  
HETATM    4  C   UNL     1      -7.689  19.366  68.996  1.00  0.00    -0.350 C  
HETATM    5  O   UNL     1      -6.393  20.371  67.299  1.00  0.00    -0.195 OA 
ENDROOT
BRANCH   2   6
HETATM    6  C   UNL     1      -7.956  17.091  67.050  1.00  0.00    -0.203 A  
HETATM    7  C   UNL     1      -7.290  16.016  67.687  1.00  0.00    -0.151 A  
HETATM    8  C   UNL     1      -8.002  14.876  68.147  1.00  0.00    -0.130 A  
HETATM    9  I   UNL     1      -5.125  15.954  67.678  1.00  0.00     0.044 I  
HETATM   10  C   UNL     1      -7.364  14.015  69.174  1.00  0.00    -0.037 C  
HETATM   11  C   UNL     1      -9.345  14.707  67.755  1.00  0.00    -0.197 A  
HETATM   12  C   UNL     1      -9.977  15.671  66.942  1.00  0.00    -0.248 A  
HETATM   13  I   UNL     1     -10.504  13.003  68.360  1.00  0.00    -0.217 I  
HETATM   14  O   UNL     1      -7.410  12.690  68.947  1.00  0.00    -0.094 OA 
HETATM   15  O   UNL     1      -6.806  14.497  70.151  1.00  0.00    -0.142 OA 
HETATM   16  C   UNL     1      -9.323  16.904  66.712  1.00  0.00    -0.251 A  
HETATM   17  I   UNL     1     -10.595  18.625  66.354  1.00  0.00    -0.098 I  
BRANCH  12  18
HETATM   18  N   UNL     1     -11.302  15.431  66.510  1.00  0.00    -0.178 N  
HETATM   19  C   UNL     1     -11.726  14.683  65.443  1.00  0.00    -0.330 C  
HETATM   20  H   UNL     1     -12.037  15.871  67.064  1.00  0.00     0.000 HD 
HETATM   21  C   UNL     1     -10.756  14.108  64.443  1.00  0.00    -0.176 C  
HETATM   22  O   UNL     1     -12.930  14.439  65.349  1.00  0.00    -0.571 OA 
ENDBRANCH  12  18
ENDBRANCH   2   6
TORSDOF 2
ENDMDL
MODEL       71
REMARK 921   NORMALIZED FREE ENERGY PREDICTED BY IDOCK:   -3.51 KCAL/MOL
REMARK 922        TOTAL FREE ENERGY PREDICTED BY IDOCK:   -4.41 KCAL/MOL
REMARK 923 INTER-LIGAND FREE ENERGY PREDICTED BY IDOCK:   -4.47 KCAL/MOL
REMARK 924 INTRA-LIGAND FREE ENERGY PREDICTED BY IDOCK:    0.06 KCAL/MOL
REMARK 927      BINDING AFFINITY PREDICTED BY RF-SCORE:    0.00 PKD
ROOT
HETATM    1  C   UNL     1      -8.675  12.911  68.310  1.00  0.00    -0.168 C  
HETATM    2  N   UNL     1      -9.341  11.902  67.480  1.00  0.00    -0.173 N  
HETATM    3  C   UNL     1     -10.074  12.354  66.383  1.00  0.00    -0.236 C  
HETATM    4  C   UNL     1     -10.760  11.364  65.464  1.00  0.00    -0.313 C  
HETATM    5  O   UNL     1     -10.162  13.557  66.104  1.00  0.00    -0.288 OA 
ENDROOT
BRANCH   2   6
HETATM    6  C   UNL     1      -9.265  10.541  67.938  1.00  0.00    -0.140 A  
HETATM    7  C   UNL     1      -8.143   9.723  67.660  1.00  0.00    -0.113 A  
HETATM    8  C   UNL     1      -7.998   8.442  68.258  1.00  0.00    -0.119 A  
HETATM    9  I   UNL     1      -6.791  10.283  66.064  1.00  0.00    -0.129 I  
HETATM   10  C   UNL     1      -6.646   7.834  68.297  1.00  0.00    -0.058 C  
HETATM   11  C   UNL     1      -9.093   7.884  68.946  1.00  0.00    -0.141 A  
HETATM   12  C   UNL     1     -10.303   8.600  69.063  1.00  0.00    -0.213 A  
HETATM   13  I   UNL     1      -8.998   5.940  69.854  1.00  0.00    -0.165 I  
HETATM   14  O   UNL     1      -6.565   6.545  67.923  1.00  0.00    -0.059 OA 
HETATM   15  O   UNL     1      -5.663   8.487  68.626  1.00  0.00    -0.036 OA 
HETATM   16  C   UNL     1     -10.330   9.960  68.676  1.00  0.00    -0.195 A  
HETATM   17  I   UNL     1     -11.755  11.233  69.705  1.00  0.00    -0.455 I  
BRANCH  12  18
HETATM   18  N   UNL     1     -11.402   7.977  69.698  1.00  0.00    -0.441 N  
HETATM   19  C   UNL     1     -11.728   7.979  71.030  1.00  0.00    -0.277 C  
HETATM   20  H   UNL     1     -12.033   7.458  69.087  1.00  0.00     0.000 HD 
HETATM   21  C   UNL     1     -10.807   8.563  72.070  1.00  0.00    -0.405 C  
HETATM   22  O   UNL     1     -12.831   7.538  71.356  1.00  0.00    -0.347 OA 
ENDBRANCH  12  18
ENDBRANCH   2   6
TORSDOF 2
ENDMDL
MODEL       72
REMARK 921   NORMALIZED FREE ENERGY PREDICTED BY IDOCK:   -3.50 KCAL/MOL
REMARK 922        TOTAL FREE ENERGY PREDICTED BY IDOCK:   -4.41 KCAL/MOL
REMARK 923 INTER-LIGAND FREE ENERGY PREDICTED BY IDOCK:   -3.83 KCAL/MOL
REMARK 924 INTRA-LIGAND FREE ENERGY PREDICTED BY IDOCK:   -0.58 KCAL/MOL
REMARK 927      BINDING AFFINITY PREDICTED BY RF-SCORE:    0.00 PKD
ROOT
HETATM    1  C   UNL     1      -8.950   8.127  71.564  1.00  0.00    -0.158 C  
HETATM    2  N   UNL     1      -9.884   7.744  70.501  1.00  0.00    -0.183 N  
HETATM    3  C   UNL     1     -10.860   6.797  70.814  1.00  0.00    -0.249 C  
HETATM    4  C   UNL     1     -11.879   6.381  69.774  1.00  0.00    -0.071 C  
HETATM    5  O   UNL     1     -10.951   6.297  71.942  1.00  0.00    -0.236 OA 
ENDROOT
BRANCH   2   6
HETATM    6  C   UNL     1      -9.641   8.302  69.199  1.00  0.00    -0.160 A  
HETATM    7  C   UNL     1      -8.964   7.573  68.191  1.00  0.00    -0.129 A  
HETATM    8  C   UNL     1      -8.878   8.062  66.859  1.00  0.00    -0.146 A  
HETATM    9  I   UNL     1      -7.769   5.854  68.745  1.00  0.00    -0.092 I  
HETATM   10  C   UNL     1      -8.571   7.097  65.775  1.00  0.00    -0.133 C  
HETATM   11  C   UNL     1      -9.264   9.391  66.595  1.00  0.00    -0.153 A  
HETATM   12  C   UNL     1      -9.753  10.212  67.633  1.00  0.00    -0.161 A  
HETATM   13  I   UNL     1      -9.139  10.245  64.628  1.00  0.00    -0.348 I  
HETATM   14  O   UNL     1      -7.628   7.477  64.895  1.00  0.00    -0.086 OA 
HETATM   15  O   UNL     1      -9.129   6.009  65.714  1.00  0.00    -0.148 OA 
HETATM   16  C   UNL     1     -10.058   9.623  68.882  1.00  0.00    -0.187 A  
HETATM   17  I   UNL     1     -11.623  10.572  70.047  1.00  0.00    -0.422 I  
BRANCH  12  18
HETATM   18  N   UNL     1     -10.062  11.561  67.343  1.00  0.00    -0.189 N  
HETATM   19  C   UNL     1      -9.281  12.672  67.533  1.00  0.00    -0.190 C  
HETATM   20  H   UNL     1     -10.984  11.730  66.941  1.00  0.00     0.000 HD 
HETATM   21  C   UNL     1      -7.965  12.599  68.264  1.00  0.00    -0.153 C  
HETATM   22  O   UNL     1      -9.657  13.735  67.037  1.00  0.00    -0.235 OA 
ENDBRANCH  12  18
ENDBRANCH   2   6
TORSDOF 2
ENDMDL
MODEL       73
REMARK 921   NORMALIZED FREE ENERGY PREDICTED BY IDOCK:   -3.49 KCAL/MOL
REMARK 922        TOTAL FREE ENERGY PREDICTED BY IDOCK:   -4.40 KCAL/MOL
REMARK 923 INTER-LIGAND FREE ENERGY PREDICTED BY IDOCK:   -3.83 KCAL/MOL
REMARK 924 INTRA-LIGAND FREE ENERGY PREDICTED BY IDOCK:   -0.57 KCAL/MOL
REMARK 927      BINDING AFFINITY PREDICTED BY RF-SCORE:    0.00 PKD
ROOT
HETATM    1  C   UNL     1     -12.029   6.829  70.663  1.00  0.00    -0.362 C  
HETATM    2  N   UNL     1     -10.710   7.437  70.865  1.00  0.00    -0.232 N  
HETATM    3  C   UNL     1     -10.328   7.723  72.176  1.00  0.00    -0.224 C  
HETATM    4  C   UNL     1      -8.965   8.320  72.460  1.00  0.00    -0.305 C  
HETATM    5  O   UNL     1     -11.060   7.473  73.142  1.00  0.00    -0.383 OA 
ENDROOT
BRANCH   2   6
HETATM    6  C   UNL     1      -9.972   7.781  69.680  1.00  0.00    -0.190 A  
HETATM    7  C   UNL     1      -9.227   6.816  68.959  1.00  0.00    -0.136 A  
HETATM    8  C   UNL     1      -8.644   7.125  67.701  1.00  0.00    -0.122 A  
HETATM    9  I   UNL     1      -8.692   4.952  69.923  1.00  0.00    -0.145 I  
HETATM   10  C   UNL     1      -8.276   6.002  66.803  1.00  0.00    -0.106 C  
HETATM   11  C   UNL     1      -8.607   8.468  67.277  1.00  0.00    -0.123 A  
HETATM   12  C   UNL     1      -9.166   9.485  68.080  1.00  0.00    -0.129 A  
HETATM   13  I   UNL     1      -7.716   9.051  65.412  1.00  0.00    -0.106 I  
HETATM   14  O   UNL     1      -7.055   6.070  66.242  1.00  0.00    -0.065 OA 
HETATM   15  O   UNL     1      -9.035   5.060  66.616  1.00  0.00    -0.114 OA 
HETATM   16  C   UNL     1      -9.951   9.117  69.197  1.00  0.00    -0.187 A  
HETATM   17  I   UNL     1     -11.512  10.505  69.784  1.00  0.00    -0.391 I  
BRANCH  12  18
HETATM   18  N   UNL     1      -9.044  10.828  67.655  1.00  0.00    -0.146 N  
HETATM   19  C   UNL     1      -8.139  11.772  68.067  1.00  0.00    -0.145 C  
HETATM   20  H   UNL     1      -9.718  11.134  66.952  1.00  0.00     0.000 HD 
HETATM   21  C   UNL     1      -7.192  11.515  69.210  1.00  0.00    -0.048 C  
HETATM   22  O   UNL     1      -8.077  12.828  67.435  1.00  0.00    -0.168 OA 
ENDBRANCH  12  18
ENDBRANCH   2   6
TORSDOF 2
ENDMDL
MODEL       74
REMARK 921   NORMALIZED FREE ENERGY PREDICTED BY IDOCK:   -3.49 KCAL/MOL
REMARK 922        TOTAL FREE ENERGY PREDICTED BY IDOCK:   -4.39 KCAL/MOL
REMARK 923 INTER-LIGAND FREE ENERGY PREDICTED BY IDOCK:   -4.60 KCAL/MOL
REMARK 924 INTRA-LIGAND FREE ENERGY PREDICTED BY IDOCK:    0.21 KCAL/MOL
REMARK 927      BINDING AFFINITY PREDICTED BY RF-SCORE:    0.00 PKD
ROOT
HETATM    1  C   UNL     1     -10.342  12.912  64.267  1.00  0.00    -0.372 C  
HETATM    2  N   UNL     1     -10.726  13.170  65.658  1.00  0.00    -0.277 N  
HETATM    3  C   UNL     1     -12.058  13.501  65.905  1.00  0.00    -0.435 C  
HETATM    4  C   UNL     1     -12.532  13.747  67.323  1.00  0.00    -0.022 C  
HETATM    5  O   UNL     1     -12.897  13.571  64.997  1.00  0.00    -0.684 OA 
ENDROOT
BRANCH   2   6
HETATM    6  C   UNL     1      -9.667  13.164  66.630  1.00  0.00    -0.261 A  
HETATM    7  C   UNL     1      -9.051  11.961  67.053  1.00  0.00    -0.191 A  
HETATM    8  C   UNL     1      -7.895  11.975  67.880  1.00  0.00    -0.144 A  
HETATM    9  I   UNL     1     -10.058  10.075  66.707  1.00  0.00    -0.279 I  
HETATM   10  C   UNL     1      -7.047  10.759  67.923  1.00  0.00    -0.085 C  
HETATM   11  C   UNL     1      -7.500  13.188  68.477  1.00  0.00    -0.117 A  
HETATM   12  C   UNL     1      -8.225  14.374  68.233  1.00  0.00    -0.149 A  
HETATM   13  I   UNL     1      -5.793  13.317  69.775  1.00  0.00    -0.124 I  
HETATM   14  O   UNL     1      -6.671  10.342  69.145  1.00  0.00    -0.053 OA 
HETATM   15  O   UNL     1      -6.738  10.161  66.900  1.00  0.00    -0.076 OA 
HETATM   16  C   UNL     1      -9.210  14.373  67.218  1.00  0.00    -0.209 A  
HETATM   17  I   UNL     1      -9.580  16.267  66.226  1.00  0.00    -0.375 I  
BRANCH  12  18
HETATM   18  N   UNL     1      -7.841  15.555  68.908  1.00  0.00    -0.166 N  
HETATM   19  C   UNL     1      -6.908  16.486  68.529  1.00  0.00    -0.151 C  
HETATM   20  H   UNL     1      -8.319  15.739  69.791  1.00  0.00     0.000 HD 
HETATM   21  C   UNL     1      -6.012  16.269  67.337  1.00  0.00    -0.190 C  
HETATM   22  O   UNL     1      -6.858  17.544  69.159  1.00  0.00    -0.244 OA 
ENDBRANCH  12  18
ENDBRANCH   2   6
TORSDOF 2
ENDMDL
MODEL       75
REMARK 921   NORMALIZED FREE ENERGY PREDICTED BY IDOCK:   -3.47 KCAL/MOL
REMARK 922        TOTAL FREE ENERGY PREDICTED BY IDOCK:   -4.37 KCAL/MOL
REMARK 923 INTER-LIGAND FREE ENERGY PREDICTED BY IDOCK:   -4.60 KCAL/MOL
REMARK 924 INTRA-LIGAND FREE ENERGY PREDICTED BY IDOCK:    0.23 KCAL/MOL
REMARK 927      BINDING AFFINITY PREDICTED BY RF-SCORE:    0.00 PKD
ROOT
HETATM    1  C   UNL     1      -8.487  12.080  66.708  1.00  0.00    -0.155 C  
HETATM    2  N   UNL     1      -9.509  11.372  65.931  1.00  0.00    -0.223 N  
HETATM    3  C   UNL     1     -10.435  12.145  65.232  1.00  0.00    -0.276 C  
HETATM    4  C   UNL     1     -11.497  11.479  64.381  1.00  0.00    -0.236 C  
HETATM    5  O   UNL     1     -10.405  13.382  65.251  1.00  0.00    -0.303 OA 
ENDROOT
BRANCH   2   6
HETATM    6  C   UNL     1      -9.527   9.939  66.048  1.00  0.00    -0.202 A  
HETATM    7  C   UNL     1      -8.810   9.109  65.151  1.00  0.00    -0.200 A  
HETATM    8  C   UNL     1      -8.693   7.711  65.374  1.00  0.00    -0.029 A  
HETATM    9  I   UNL     1      -8.155   9.916  63.251  1.00  0.00    -0.189 I  
HETATM   10  C   UNL     1      -7.598   6.980  64.691  1.00  0.00    -0.106 C  
HETATM   11  C   UNL     1      -9.494   7.109  66.365  1.00  0.00    -0.123 A  
HETATM   12  C   UNL     1     -10.376   7.891  67.141  1.00  0.00    -0.328 A  
HETATM   13  I   UNL     1      -9.427   4.999  66.760  1.00  0.00    -0.220 I  
HETATM   14  O   UNL     1      -7.941   5.826  64.091  1.00  0.00    -0.112 OA 
HETATM   15  O   UNL     1      -6.458   7.425  64.658  1.00  0.00    -0.040 OA 
HETATM   16  C   UNL     1     -10.285   9.300  67.064  1.00  0.00    -0.262 A  
HETATM   17  I   UNL     1     -10.869  10.407  68.837  1.00  0.00    -0.330 I  
BRANCH  12  18
HETATM   18  N   UNL     1     -11.216   7.241  68.075  1.00  0.00    -0.468 N  
HETATM   19  C   UNL     1     -10.933   6.881  69.367  1.00  0.00    -0.237 C  
HETATM   20  H   UNL     1     -12.153   7.009  67.744  1.00  0.00     0.000 HD 
HETATM   21  C   UNL     1      -9.545   7.012  69.939  1.00  0.00    -0.159 C  
HETATM   22  O   UNL     1     -11.863   6.497  70.078  1.00  0.00    -0.404 OA 
ENDBRANCH  12  18
ENDBRANCH   2   6
TORSDOF 2
ENDMDL
MODEL       76
REMARK 921   NORMALIZED FREE ENERGY PREDICTED BY IDOCK:   -3.47 KCAL/MOL
REMARK 922        TOTAL FREE ENERGY PREDICTED BY IDOCK:   -4.37 KCAL/MOL
REMARK 923 INTER-LIGAND FREE ENERGY PREDICTED BY IDOCK:   -4.21 KCAL/MOL
REMARK 924 INTRA-LIGAND FREE ENERGY PREDICTED BY IDOCK:   -0.16 KCAL/MOL
REMARK 927      BINDING AFFINITY PREDICTED BY RF-SCORE:    0.00 PKD
ROOT
HETATM    1  C   UNL     1     -10.596  16.057  69.638  1.00  0.00    -0.311 C  
HETATM    2  N   UNL     1      -9.857  15.946  68.376  1.00  0.00    -0.211 N  
HETATM    3  C   UNL     1      -9.923  17.027  67.496  1.00  0.00    -0.274 C  
HETATM    4  C   UNL     1      -9.156  16.995  66.191  1.00  0.00    -0.239 C  
HETATM    5  O   UNL     1     -10.570  18.049  67.759  1.00  0.00    -0.401 OA 
ENDROOT
BRANCH   2   6
HETATM    6  C   UNL     1      -9.216  14.687  68.114  1.00  0.00    -0.192 A  
HETATM    7  C   UNL     1      -7.911  14.401  68.586  1.00  0.00    -0.145 A  
HETATM    8  C   UNL     1      -7.354  13.099  68.472  1.00  0.00    -0.111 A  
HETATM    9  I   UNL     1      -6.624  16.032  69.195  1.00  0.00    -0.192 I  
HETATM   10  C   UNL     1      -6.214  12.744  69.351  1.00  0.00    -0.112 C  
HETATM   11  C   UNL     1      -8.012  12.144  67.671  1.00  0.00    -0.157 A  
HETATM   12  C   UNL     1      -9.219  12.470  67.018  1.00  0.00    -0.214 A  
HETATM   13  I   UNL     1      -7.239  10.159  67.398  1.00  0.00    -0.090 I  
HETATM   14  O   UNL     1      -5.173  12.136  68.754  1.00  0.00    -0.051 OA 
HETATM   15  O   UNL     1      -6.219  13.019  70.544  1.00  0.00    -0.071 OA 
HETATM   16  C   UNL     1      -9.869  13.682  67.351  1.00  0.00    -0.234 A  
HETATM   17  I   UNL     1     -12.028  13.714  67.140  1.00  0.00    -0.293 I  
BRANCH  12  18
HETATM   18  N   UNL     1      -9.811  11.509  66.166  1.00  0.00    -0.213 N  
HETATM   19  C   UNL     1     -10.100  11.619  64.831  1.00  0.00    -0.260 C  
HETATM   20  H   UNL     1     -10.055  10.619  66.602  1.00  0.00     0.000 HD 
HETATM   21  C   UNL     1      -9.946  12.924  64.092  1.00  0.00    -0.087 C  
HETATM   22  O   UNL     1     -10.437  10.600  64.226  1.00  0.00    -0.349 OA 
ENDBRANCH  12  18
ENDBRANCH   2   6
TORSDOF 2
ENDMDL
MODEL       77
REMARK 921   NORMALIZED FREE ENERGY PREDICTED BY IDOCK:   -3.45 KCAL/MOL
REMARK 922        TOTAL FREE ENERGY PREDICTED BY IDOCK:   -4.35 KCAL/MOL
REMARK 923 INTER-LIGAND FREE ENERGY PREDICTED BY IDOCK:   -4.39 KCAL/MOL
REMARK 924 INTRA-LIGAND FREE ENERGY PREDICTED BY IDOCK:    0.04 KCAL/MOL
REMARK 927      BINDING AFFINITY PREDICTED BY RF-SCORE:    0.00 PKD
ROOT
HETATM    1  C   UNL     1      -7.878   7.085  69.712  1.00  0.00    -0.115 C  
HETATM    2  N   UNL     1      -9.090   7.397  68.948  1.00  0.00    -0.137 N  
HETATM    3  C   UNL     1      -9.352   6.625  67.816  1.00  0.00    -0.119 C  
HETATM    4  C   UNL     1     -10.604   6.870  66.999  1.00  0.00    -0.403 C  
HETATM    5  O   UNL     1      -8.604   5.705  67.462  1.00  0.00    -0.110 OA 
ENDROOT
BRANCH   2   6
HETATM    6  C   UNL     1      -9.844   8.543  69.377  1.00  0.00    -0.185 A  
HETATM    7  C   UNL     1      -9.704   9.805  68.748  1.00  0.00    -0.161 A  
HETATM    8  C   UNL     1     -10.572  10.885  69.062  1.00  0.00    -0.248 A  
HETATM    9  I   UNL     1      -7.954  10.197  67.534  1.00  0.00    -0.105 I  
HETATM   10  C   UNL     1     -10.680  12.003  68.093  1.00  0.00    -0.216 C  
HETATM   11  C   UNL     1     -11.426  10.772  70.177  1.00  0.00    -0.331 A  
HETATM   12  C   UNL     1     -11.437   9.592  70.951  1.00  0.00    -0.353 A  
HETATM   13  I   UNL     1     -12.750  12.358  70.765  1.00  0.00     0.162 I  
HETATM   14  O   UNL     1     -10.608  13.243  68.609  1.00  0.00    -0.253 OA 
HETATM   15  O   UNL     1     -10.799  11.796  66.892  1.00  0.00    -0.244 OA 
HETATM   16  C   UNL     1     -10.750   8.454  70.468  1.00  0.00    -0.227 A  
HETATM   17  I   UNL     1     -11.531   6.522  71.071  1.00  0.00    -0.339 I  
BRANCH  12  18
HETATM   18  N   UNL     1     -12.254   9.545  72.104  1.00  0.00    -0.288 N  
HETATM   19  C   UNL     1     -13.563   9.151  72.203  1.00  0.00    -0.474 C  
HETATM   20  H   UNL     1     -11.812   9.842  72.974  1.00  0.00     0.000 HD 
HETATM   21  C   UNL     1     -14.391   8.841  70.982  1.00  0.00     0.014 C  
HETATM   22  O   UNL     1     -14.038   8.999  73.329  1.00  0.00    -0.261 OA 
ENDBRANCH  12  18
ENDBRANCH   2   6
TORSDOF 2
ENDMDL
MODEL       78
REMARK 921   NORMALIZED FREE ENERGY PREDICTED BY IDOCK:   -3.45 KCAL/MOL
REMARK 922        TOTAL FREE ENERGY PREDICTED BY IDOCK:   -4.35 KCAL/MOL
REMARK 923 INTER-LIGAND FREE ENERGY PREDICTED BY IDOCK:   -3.80 KCAL/MOL
REMARK 924 INTRA-LIGAND FREE ENERGY PREDICTED BY IDOCK:   -0.55 KCAL/MOL
REMARK 927      BINDING AFFINITY PREDICTED BY RF-SCORE:    0.00 PKD
ROOT
HETATM    1  C   UNL     1      -8.542   8.811  65.504  1.00  0.00    -0.174 C  
HETATM    2  N   UNL     1      -7.976   8.623  66.844  1.00  0.00    -0.095 N  
HETATM    3  C   UNL     1      -6.587   8.551  66.950  1.00  0.00    -0.058 C  
HETATM    4  C   UNL     1      -5.934   8.392  68.308  1.00  0.00    -0.046 C  
HETATM    5  O   UNL     1      -5.848   8.650  65.963  1.00  0.00    -0.046 OA 
ENDROOT
BRANCH   2   6
HETATM    6  C   UNL     1      -8.914   8.420  67.914  1.00  0.00    -0.137 A  
HETATM    7  C   UNL     1      -9.615   9.499  68.506  1.00  0.00    -0.142 A  
HETATM    8  C   UNL     1     -10.661   9.275  69.441  1.00  0.00    -0.234 A  
HETATM    9  I   UNL     1      -8.880  11.518  68.233  1.00  0.00    -0.123 I  
HETATM   10  C   UNL     1     -11.635  10.368  69.680  1.00  0.00    -0.239 C  
HETATM   11  C   UNL     1     -10.843   7.979  69.963  1.00  0.00    -0.235 A  
HETATM   12  C   UNL     1     -10.015   6.917  69.539  1.00  0.00    -0.164 A  
HETATM   13  I   UNL     1     -12.366   7.536  71.410  1.00  0.00    -0.343 I  
HETATM   14  O   UNL     1     -11.917  10.637  70.968  1.00  0.00    -0.343 OA 
HETATM   15  O   UNL     1     -12.124  11.000  68.753  1.00  0.00    -0.518 OA 
HETATM   16  C   UNL     1      -9.157   7.120  68.434  1.00  0.00    -0.127 A  
HETATM   17  I   UNL     1      -8.683   5.371  67.241  1.00  0.00    -0.104 I  
BRANCH  12  18
HETATM   18  N   UNL     1     -10.182   5.647  70.139  1.00  0.00    -0.228 N  
HETATM   19  C   UNL     1      -9.456   5.087  71.158  1.00  0.00    -0.155 C  
HETATM   20  H   UNL     1     -10.939   5.075  69.765  1.00  0.00     0.000 HD 
HETATM   21  C   UNL     1      -8.212   5.744  71.699  1.00  0.00    -0.119 C  
HETATM   22  O   UNL     1      -9.881   4.049  71.668  1.00  0.00    -0.172 OA 
ENDBRANCH  12  18
ENDBRANCH   2   6
TORSDOF 2
ENDMDL
MODEL       79
REMARK 921   NORMALIZED FREE ENERGY PREDICTED BY IDOCK:   -3.44 KCAL/MOL
REMARK 922        TOTAL FREE ENERGY PREDICTED BY IDOCK:   -4.34 KCAL/MOL
REMARK 923 INTER-LIGAND FREE ENERGY PREDICTED BY IDOCK:   -3.79 KCAL/MOL
REMARK 924 INTRA-LIGAND FREE ENERGY PREDICTED BY IDOCK:   -0.54 KCAL/MOL
REMARK 927      BINDING AFFINITY PREDICTED BY RF-SCORE:    0.00 PKD
ROOT
HETATM    1  C   UNL     1      -7.104  10.465  65.608  1.00  0.00    -0.142 C  
HETATM    2  N   UNL     1      -7.260  10.389  67.064  1.00  0.00    -0.090 N  
HETATM    3  C   UNL     1      -6.540   9.401  67.737  1.00  0.00    -0.063 C  
HETATM    4  C   UNL     1      -6.627   9.288  69.244  1.00  0.00    -0.049 C  
HETATM    5  O   UNL     1      -5.789   8.617  67.142  1.00  0.00    -0.042 OA 
ENDROOT
BRANCH   2   6
HETATM    6  C   UNL     1      -8.226  11.274  67.655  1.00  0.00    -0.120 A  
HETATM    7  C   UNL     1      -7.915  12.622  67.958  1.00  0.00    -0.155 A  
HETATM    8  C   UNL     1      -8.920  13.534  68.380  1.00  0.00    -0.146 A  
HETATM    9  I   UNL     1      -5.840  13.227  68.094  1.00  0.00    -0.134 I  
HETATM   10  C   UNL     1      -8.649  14.987  68.252  1.00  0.00    -0.156 C  
HETATM   11  C   UNL     1     -10.191  13.035  68.726  1.00  0.00    -0.089 A  
HETATM   12  C   UNL     1     -10.467  11.655  68.628  1.00  0.00    -0.213 A  
HETATM   13  I   UNL     1     -11.771  14.318  69.413  1.00  0.00    -0.405 I  
HETATM   14  O   UNL     1      -8.946  15.741  69.325  1.00  0.00    -0.243 OA 
HETATM   15  O   UNL     1      -8.155  15.456  67.234  1.00  0.00    -0.166 OA 
HETATM   16  C   UNL     1      -9.533  10.818  67.974  1.00  0.00    -0.160 A  
HETATM   17  I   UNL     1     -10.331   9.051  67.000  1.00  0.00    -0.209 I  
BRANCH  12  18
HETATM   18  N   UNL     1     -11.731  11.183  69.054  1.00  0.00    -0.314 N  
HETATM   19  C   UNL     1     -12.037  10.479  70.189  1.00  0.00    -0.300 C  
HETATM   20  H   UNL     1     -12.515  11.395  68.437  1.00  0.00     0.000 HD 
HETATM   21  C   UNL     1     -10.965   9.956  71.111  1.00  0.00    -0.298 C  
HETATM   22  O   UNL     1     -13.226  10.329  70.474  1.00  0.00    -0.299 OA 
ENDBRANCH  12  18
ENDBRANCH   2   6
TORSDOF 2
ENDMDL
MODEL       80
REMARK 921   NORMALIZED FREE ENERGY PREDICTED BY IDOCK:   -3.42 KCAL/MOL
REMARK 922        TOTAL FREE ENERGY PREDICTED BY IDOCK:   -4.31 KCAL/MOL
REMARK 923 INTER-LIGAND FREE ENERGY PREDICTED BY IDOCK:   -3.77 KCAL/MOL
REMARK 924 INTRA-LIGAND FREE ENERGY PREDICTED BY IDOCK:   -0.54 KCAL/MOL
REMARK 927      BINDING AFFINITY PREDICTED BY RF-SCORE:    0.00 PKD
ROOT
HETATM    1  C   UNL     1      -6.292   5.129  71.299  1.00  0.00    -0.030 C  
HETATM    2  N   UNL     1      -7.493   4.965  70.473  1.00  0.00    -0.057 N  
HETATM    3  C   UNL     1      -7.579   3.816  69.686  1.00  0.00    -0.052 C  
HETATM    4  C   UNL     1      -8.806   3.566  68.835  1.00  0.00    -0.162 C  
HETATM    5  O   UNL     1      -6.688   2.957  69.680  1.00  0.00    -0.033 OA 
ENDROOT
BRANCH   2   6
HETATM    6  C   UNL     1      -8.425   6.059  70.469  1.00  0.00    -0.132 A  
HETATM    7  C   UNL     1      -9.427   6.187  71.463  1.00  0.00    -0.148 A  
HETATM    8  C   UNL     1     -10.231   7.355  71.552  1.00  0.00    -0.205 A  
HETATM    9  I   UNL     1      -9.963   4.463  72.659  1.00  0.00    -0.245 I  
HETATM   10  C   UNL     1     -10.927   7.633  72.832  1.00  0.00    -0.400 C  
HETATM   11  C   UNL     1     -10.193   8.291  70.499  1.00  0.00    -0.198 A  
HETATM   12  C   UNL     1      -9.347   8.082  69.389  1.00  0.00    -0.155 A  
HETATM   13  I   UNL     1     -11.395  10.071  70.512  1.00  0.00    -0.436 I  
HETATM   14  O   UNL     1     -12.223   7.980  72.738  1.00  0.00    -0.251 OA 
HETATM   15  O   UNL     1     -10.352   7.522  73.907  1.00  0.00    -0.271 OA 
HETATM   16  C   UNL     1      -8.386   7.047  69.450  1.00  0.00    -0.133 A  
HETATM   17  I   UNL     1      -6.573   7.338  68.294  1.00  0.00    -0.053 I  
BRANCH  12  18
HETATM   18  N   UNL     1      -9.391   9.007  68.320  1.00  0.00    -0.139 N  
HETATM   19  C   UNL     1      -9.948   8.845  67.078  1.00  0.00    -0.233 C  
HETATM   20  H   UNL     1      -8.951   9.910  68.495  1.00  0.00     0.000 HD 
HETATM   21  C   UNL     1     -10.489   7.514  66.620  1.00  0.00    -0.201 C  
HETATM   22  O   UNL     1     -10.051   9.838  66.356  1.00  0.00    -0.233 OA 
ENDBRANCH  12  18
ENDBRANCH   2   6
TORSDOF 2
ENDMDL
MODEL       81
REMARK 921   NORMALIZED FREE ENERGY PREDICTED BY IDOCK:   -3.39 KCAL/MOL
REMARK 922        TOTAL FREE ENERGY PREDICTED BY IDOCK:   -4.28 KCAL/MOL
REMARK 923 INTER-LIGAND FREE ENERGY PREDICTED BY IDOCK:   -3.72 KCAL/MOL
REMARK 924 INTRA-LIGAND FREE ENERGY PREDICTED BY IDOCK:   -0.56 KCAL/MOL
REMARK 927      BINDING AFFINITY PREDICTED BY RF-SCORE:    0.00 PKD
ROOT
HETATM    1  C   UNL     1      -7.094   7.022  65.449  1.00  0.00    -0.068 C  
HETATM    2  N   UNL     1      -8.242   7.573  66.175  1.00  0.00    -0.118 N  
HETATM    3  C   UNL     1      -9.396   6.791  66.242  1.00  0.00    -0.100 C  
HETATM    4  C   UNL     1     -10.608   7.285  67.004  1.00  0.00    -0.415 C  
HETATM    5  O   UNL     1      -9.459   5.670  65.721  1.00  0.00    -0.122 OA 
ENDROOT
BRANCH   2   6
HETATM    6  C   UNL     1      -8.110   8.920  66.660  1.00  0.00    -0.107 A  
HETATM    7  C   UNL     1      -7.521   9.204  67.917  1.00  0.00    -0.084 A  
HETATM    8  C   UNL     1      -7.239  10.539  68.313  1.00  0.00    -0.083 A  
HETATM    9  I   UNL     1      -7.342   7.624  69.387  1.00  0.00    -0.092 I  
HETATM   10  C   UNL     1      -6.246  10.756  69.394  1.00  0.00    -0.059 C  
HETATM   11  C   UNL     1      -7.764  11.602  67.552  1.00  0.00    -0.136 A  
HETATM   12  C   UNL     1      -8.535  11.341  66.399  1.00  0.00    -0.169 A  
HETATM   13  I   UNL     1      -7.432  13.657  68.081  1.00  0.00    -0.183 I  
HETATM   14  O   UNL     1      -6.602  11.623  70.359  1.00  0.00    -0.148 OA 
HETATM   15  O   UNL     1      -5.181  10.153  69.412  1.00  0.00    -0.039 OA 
HETATM   16  C   UNL     1      -8.586  10.020  65.898  1.00  0.00    -0.139 A  
HETATM   17  I   UNL     1      -8.890   9.804  63.761  1.00  0.00    -0.206 I  
BRANCH  12  18
HETATM   18  N   UNL     1      -9.105  12.432  65.703  1.00  0.00    -0.416 N  
HETATM   19  C   UNL     1     -10.391  12.903  65.768  1.00  0.00    -0.284 C  
HETATM   20  H   UNL     1      -8.479  12.933  65.072  1.00  0.00     0.000 HD 
HETATM   21  C   UNL     1     -11.465  12.171  66.530  1.00  0.00    -0.430 C  
HETATM   22  O   UNL     1     -10.639  13.983  65.229  1.00  0.00    -0.321 OA 
ENDBRANCH  12  18
ENDBRANCH   2   6
TORSDOF 2
ENDMDL
MODEL       82
REMARK 921   NORMALIZED FREE ENERGY PREDICTED BY IDOCK:   -3.38 KCAL/MOL
REMARK 922        TOTAL FREE ENERGY PREDICTED BY IDOCK:   -4.27 KCAL/MOL
REMARK 923 INTER-LIGAND FREE ENERGY PREDICTED BY IDOCK:   -3.69 KCAL/MOL
REMARK 924 INTRA-LIGAND FREE ENERGY PREDICTED BY IDOCK:   -0.58 KCAL/MOL
REMARK 927      BINDING AFFINITY PREDICTED BY RF-SCORE:    0.00 PKD
ROOT
HETATM    1  C   UNL     1     -10.405   8.262  66.754  1.00  0.00    -0.290 C  
HETATM    2  N   UNL     1      -9.157   7.603  67.151  1.00  0.00    -0.124 N  
HETATM    3  C   UNL     1      -8.010   7.902  66.415  1.00  0.00    -0.102 C  
HETATM    4  C   UNL     1      -6.680   7.284  66.792  1.00  0.00    -0.061 C  
HETATM    5  O   UNL     1      -8.029   8.697  65.466  1.00  0.00    -0.098 OA 
ENDROOT
BRANCH   2   6
HETATM    6  C   UNL     1      -9.252   6.623  68.199  1.00  0.00    -0.117 A  
HETATM    7  C   UNL     1      -9.311   5.236  67.918  1.00  0.00    -0.116 A  
HETATM    8  C   UNL     1      -9.231   4.270  68.958  1.00  0.00    -0.207 A  
HETATM    9  I   UNL     1      -9.849   4.578  65.927  1.00  0.00    -0.250 I  
HETATM   10  C   UNL     1      -8.851   2.882  68.598  1.00  0.00    -0.116 C  
HETATM   11  C   UNL     1      -9.333   4.698  70.296  1.00  0.00    -0.149 A  
HETATM   12  C   UNL     1      -9.484   6.069  70.597  1.00  0.00    -0.168 A  
HETATM   13  I   UNL     1      -9.265   3.321  71.942  1.00  0.00    -0.219 I  
HETATM   14  O   UNL     1      -9.606   1.905  69.133  1.00  0.00    -0.105 OA 
HETATM   15  O   UNL     1      -7.922   2.652  67.835  1.00  0.00    -0.059 OA 
HETATM   16  C   UNL     1      -9.309   7.017  69.562  1.00  0.00    -0.148 A  
HETATM   17  I   UNL     1      -8.590   8.977  70.154  1.00  0.00    -0.246 I  
BRANCH  12  18
HETATM   18  N   UNL     1      -9.656   6.452  71.947  1.00  0.00    -0.153 N  
HETATM   19  C   UNL     1     -10.818   6.771  72.599  1.00  0.00    -0.250 C  
HETATM   20  H   UNL     1      -8.805   6.496  72.508  1.00  0.00     0.000 HD 
HETATM   21  C   UNL     1     -12.127   6.906  71.864  1.00  0.00    -0.370 C  
HETATM   22  O   UNL     1     -10.780   6.891  73.825  1.00  0.00    -0.347 OA 
ENDBRANCH  12  18
ENDBRANCH   2   6
TORSDOF 2
ENDMDL
MODEL       83
REMARK 921   NORMALIZED FREE ENERGY PREDICTED BY IDOCK:   -3.37 KCAL/MOL
REMARK 922        TOTAL FREE ENERGY PREDICTED BY IDOCK:   -4.26 KCAL/MOL
REMARK 923 INTER-LIGAND FREE ENERGY PREDICTED BY IDOCK:   -3.71 KCAL/MOL
REMARK 924 INTRA-LIGAND FREE ENERGY PREDICTED BY IDOCK:   -0.55 KCAL/MOL
REMARK 927      BINDING AFFINITY PREDICTED BY RF-SCORE:    0.00 PKD
ROOT
HETATM    1  C   UNL     1      -8.727   8.901  71.108  1.00  0.00    -0.222 C  
HETATM    2  N   UNL     1      -9.755   8.009  70.563  1.00  0.00    -0.177 N  
HETATM    3  C   UNL     1     -10.911   7.823  71.322  1.00  0.00    -0.234 C  
HETATM    4  C   UNL     1     -12.029   6.943  70.803  1.00  0.00    -0.424 C  
HETATM    5  O   UNL     1     -11.080   8.388  72.410  1.00  0.00    -0.346 OA 
ENDROOT
BRANCH   2   6
HETATM    6  C   UNL     1      -9.430   7.322  69.343  1.00  0.00    -0.154 A  
HETATM    7  C   UNL     1      -8.993   5.975  69.341  1.00  0.00    -0.126 A  
HETATM    8  C   UNL     1      -8.839   5.252  68.127  1.00  0.00    -0.107 A  
HETATM    9  I   UNL     1      -8.243   5.099  71.174  1.00  0.00    -0.125 I  
HETATM   10  C   UNL     1      -8.822   3.770  68.189  1.00  0.00    -0.113 C  
HETATM   11  C   UNL     1      -8.893   5.952  66.905  1.00  0.00    -0.115 A  
HETATM   12  C   UNL     1      -9.125   7.344  66.890  1.00  0.00    -0.141 A  
HETATM   13  I   UNL     1      -8.635   4.967  65.014  1.00  0.00    -0.135 I  
HETATM   14  O   UNL     1      -7.848   3.160  67.491  1.00  0.00    -0.075 OA 
HETATM   15  O   UNL     1      -9.635   3.151  68.865  1.00  0.00    -0.157 OA 
HETATM   16  C   UNL     1      -9.519   7.983  68.089  1.00  0.00    -0.143 A  
HETATM   17  I   UNL     1     -10.754   9.754  67.883  1.00  0.00    -0.161 I  
BRANCH  12  18
HETATM   18  N   UNL     1      -9.099   8.022  65.649  1.00  0.00    -0.383 N  
HETATM   19  C   UNL     1      -8.047   8.669  65.055  1.00  0.00    -0.143 C  
HETATM   20  H   UNL     1      -9.977   8.031  65.130  1.00  0.00     0.000 HD 
HETATM   21  C   UNL     1      -6.738   8.878  65.773  1.00  0.00    -0.068 C  
HETATM   22  O   UNL     1      -8.177   9.032  63.885  1.00  0.00    -0.155 OA 
ENDBRANCH  12  18
ENDBRANCH   2   6
TORSDOF 2
ENDMDL
MODEL       84
REMARK 921   NORMALIZED FREE ENERGY PREDICTED BY IDOCK:   -3.37 KCAL/MOL
REMARK 922        TOTAL FREE ENERGY PREDICTED BY IDOCK:   -4.25 KCAL/MOL
REMARK 923 INTER-LIGAND FREE ENERGY PREDICTED BY IDOCK:   -3.71 KCAL/MOL
REMARK 924 INTRA-LIGAND FREE ENERGY PREDICTED BY IDOCK:   -0.54 KCAL/MOL
REMARK 927      BINDING AFFINITY PREDICTED BY RF-SCORE:    0.00 PKD
ROOT
HETATM    1  C   UNL     1      -7.557   8.525  68.054  1.00  0.00    -0.098 C  
HETATM    2  N   UNL     1      -8.756   7.680  68.071  1.00  0.00    -0.126 N  
HETATM    3  C   UNL     1      -9.484   7.574  66.886  1.00  0.00    -0.171 C  
HETATM    4  C   UNL     1     -10.713   6.691  66.823  1.00  0.00    -0.329 C  
HETATM    5  O   UNL     1      -9.140   8.158  65.850  1.00  0.00    -0.177 OA 
ENDROOT
BRANCH   2   6
HETATM    6  C   UNL     1      -9.131   7.123  69.341  1.00  0.00    -0.145 A  
HETATM    7  C   UNL     1     -10.046   7.778  70.201  1.00  0.00    -0.197 A  
HETATM    8  C   UNL     1     -10.542   7.143  71.372  1.00  0.00    -0.234 A  
HETATM    9  I   UNL     1     -10.451   9.886  69.913  1.00  0.00    -0.338 I  
HETATM   10  C   UNL     1     -11.794   7.661  71.975  1.00  0.00    -0.301 C  
HETATM   11  C   UNL     1      -9.939   5.946  71.806  1.00  0.00    -0.166 A  
HETATM   12  C   UNL     1      -8.877   5.375  71.072  1.00  0.00    -0.139 A  
HETATM   13  I   UNL     1     -10.582   4.923  73.581  1.00  0.00    -0.393 I  
HETATM   14  O   UNL     1     -11.779   7.840  73.308  1.00  0.00    -0.188 OA 
HETATM   15  O   UNL     1     -12.768   7.935  71.286  1.00  0.00    -0.300 OA 
HETATM   16  C   UNL     1      -8.578   5.893  69.790  1.00  0.00    -0.129 A  
HETATM   17  I   UNL     1      -7.717   4.508  68.360  1.00  0.00    -0.079 I  
BRANCH  12  18
HETATM   18  N   UNL     1      -8.250   4.213  71.578  1.00  0.00    -0.084 N  
HETATM   19  C   UNL     1      -7.112   4.123  72.337  1.00  0.00    -0.056 C  
HETATM   20  H   UNL     1      -8.703   3.328  71.349  1.00  0.00     0.000 HD 
HETATM   21  C   UNL     1      -6.250   5.327  72.618  1.00  0.00    -0.038 C  
HETATM   22  O   UNL     1      -6.837   3.033  72.840  1.00  0.00    -0.025 OA 
ENDBRANCH  12  18
ENDBRANCH   2   6
TORSDOF 2
ENDMDL
MODEL       85
REMARK 921   NORMALIZED FREE ENERGY PREDICTED BY IDOCK:   -3.36 KCAL/MOL
REMARK 922        TOTAL FREE ENERGY PREDICTED BY IDOCK:   -4.25 KCAL/MOL
REMARK 923 INTER-LIGAND FREE ENERGY PREDICTED BY IDOCK:   -3.98 KCAL/MOL
REMARK 924 INTRA-LIGAND FREE ENERGY PREDICTED BY IDOCK:   -0.27 KCAL/MOL
REMARK 927      BINDING AFFINITY PREDICTED BY RF-SCORE:    0.00 PKD
ROOT
HETATM    1  C   UNL     1      -8.618   5.671  70.528  1.00  0.00    -0.129 C  
HETATM    2  N   UNL     1      -8.894   6.790  71.436  1.00  0.00    -0.131 N  
HETATM    3  C   UNL     1      -8.693   6.574  72.799  1.00  0.00    -0.124 C  
HETATM    4  C   UNL     1      -8.924   7.696  73.790  1.00  0.00    -0.315 C  
HETATM    5  O   UNL     1      -8.290   5.490  73.240  1.00  0.00    -0.117 OA 
ENDROOT
BRANCH   2   6
HETATM    6  C   UNL     1      -9.450   7.976  70.845  1.00  0.00    -0.161 A  
HETATM    7  C   UNL     1     -10.810   8.331  71.025  1.00  0.00    -0.233 A  
HETATM    8  C   UNL     1     -11.309   9.586  70.584  1.00  0.00    -0.364 A  
HETATM    9  I   UNL     1     -12.220   6.827  71.688  1.00  0.00    -0.261 I  
HETATM   10  C   UNL     1     -12.574  10.085  71.176  1.00  0.00    -0.381 C  
HETATM   11  C   UNL     1     -10.502  10.385  69.751  1.00  0.00    -0.240 A  
HETATM   12  C   UNL     1      -9.209   9.956  69.384  1.00  0.00    -0.214 A  
HETATM   13  I   UNL     1     -11.171  12.281  68.995  1.00  0.00    -0.273 I  
HETATM   14  O   UNL     1     -13.483  10.566  70.308  1.00  0.00     0.025 OA 
HETATM   15  O   UNL     1     -12.779  10.031  72.382  1.00  0.00    -0.253 OA 
HETATM   16  C   UNL     1      -8.654   8.830  70.037  1.00  0.00    -0.136 A  
HETATM   17  I   UNL     1      -6.492   8.779  70.210  1.00  0.00    -0.051 I  
BRANCH  12  18
HETATM   18  N   UNL     1      -8.459  10.752  68.488  1.00  0.00    -0.136 N  
HETATM   19  C   UNL     1      -8.512  10.771  67.118  1.00  0.00    -0.126 C  
HETATM   20  H   UNL     1      -7.791  11.394  68.916  1.00  0.00     0.000 HD 
HETATM   21  C   UNL     1      -9.330   9.769  66.344  1.00  0.00    -0.218 C  
HETATM   22  O   UNL     1      -7.915  11.673  66.529  1.00  0.00    -0.141 OA 
ENDBRANCH  12  18
ENDBRANCH   2   6
TORSDOF 2
ENDMDL
MODEL       86
REMARK 921   NORMALIZED FREE ENERGY PREDICTED BY IDOCK:   -3.34 KCAL/MOL
REMARK 922        TOTAL FREE ENERGY PREDICTED BY IDOCK:   -4.23 KCAL/MOL
REMARK 923 INTER-LIGAND FREE ENERGY PREDICTED BY IDOCK:   -4.36 KCAL/MOL
REMARK 924 INTRA-LIGAND FREE ENERGY PREDICTED BY IDOCK:    0.13 KCAL/MOL
REMARK 927      BINDING AFFINITY PREDICTED BY RF-SCORE:    0.00 PKD
ROOT
HETATM    1  C   UNL     1      -6.844  10.131  65.123  1.00  0.00    -0.134 C  
HETATM    2  N   UNL     1      -8.215   9.932  65.604  1.00  0.00    -0.132 N  
HETATM    3  C   UNL     1      -8.598   8.632  65.933  1.00  0.00    -0.157 C  
HETATM    4  C   UNL     1      -9.988   8.359  66.469  1.00  0.00    -0.335 C  
HETATM    5  O   UNL     1      -7.820   7.674  65.836  1.00  0.00    -0.093 OA 
ENDROOT
BRANCH   2   6
HETATM    6  C   UNL     1      -9.075  11.084  65.590  1.00  0.00    -0.206 A  
HETATM    7  C   UNL     1      -9.877  11.401  64.466  1.00  0.00    -0.260 A  
HETATM    8  C   UNL     1     -10.847  12.437  64.522  1.00  0.00    -0.358 A  
HETATM    9  I   UNL     1      -9.405  10.522  62.544  1.00  0.00    -0.186 I  
HETATM   10  C   UNL     1     -11.936  12.435  63.515  1.00  0.00    -0.538 C  
HETATM   11  C   UNL     1     -10.848  13.312  65.626  1.00  0.00    -0.279 A  
HETATM   12  C   UNL     1      -9.916  13.141  66.672  1.00  0.00    -0.270 A  
HETATM   13  I   UNL     1     -12.244  14.935  65.795  1.00  0.00     0.453 I  
HETATM   14  O   UNL     1     -12.195  13.613  62.920  1.00  0.00    -0.428 OA 
HETATM   15  O   UNL     1     -12.538  11.407  63.229  1.00  0.00    -0.191 OA 
HETATM   16  C   UNL     1      -9.136  11.962  66.705  1.00  0.00    -0.203 A  
HETATM   17  I   UNL     1      -8.502  11.272  68.662  1.00  0.00    -0.008 I  
BRANCH  12  18
HETATM   18  N   UNL     1      -9.901  14.082  67.728  1.00  0.00    -0.227 N  
HETATM   19  C   UNL     1     -10.671  14.102  68.861  1.00  0.00    -0.256 C  
HETATM   20  H   UNL     1      -9.230  14.845  67.633  1.00  0.00     0.000 HD 
HETATM   21  C   UNL     1     -11.811  13.136  69.060  1.00  0.00    -0.358 C  
HETATM   22  O   UNL     1     -10.372  14.900  69.751  1.00  0.00    -0.188 OA 
ENDBRANCH  12  18
ENDBRANCH   2   6
TORSDOF 2
ENDMDL
MODEL       87
REMARK 921   NORMALIZED FREE ENERGY PREDICTED BY IDOCK:   -3.33 KCAL/MOL
REMARK 922        TOTAL FREE ENERGY PREDICTED BY IDOCK:   -4.22 KCAL/MOL
REMARK 923 INTER-LIGAND FREE ENERGY PREDICTED BY IDOCK:   -4.28 KCAL/MOL
REMARK 924 INTRA-LIGAND FREE ENERGY PREDICTED BY IDOCK:    0.06 KCAL/MOL
REMARK 927      BINDING AFFINITY PREDICTED BY RF-SCORE:    0.00 PKD
ROOT
HETATM    1  C   UNL     1      -6.524  12.647  68.342  1.00  0.00    -0.078 C  
HETATM    2  N   UNL     1      -7.691  11.766  68.452  1.00  0.00    -0.124 N  
HETATM    3  C   UNL     1      -7.720  10.868  69.519  1.00  0.00    -0.013 C  
HETATM    4  C   UNL     1      -8.911   9.953  69.714  1.00  0.00    -0.229 C  
HETATM    5  O   UNL     1      -6.807  10.811  70.353  1.00  0.00    -0.278 OA 
ENDROOT
BRANCH   2   6
HETATM    6  C   UNL     1      -8.652  11.835  67.385  1.00  0.00    -0.160 A  
HETATM    7  C   UNL     1      -9.677  12.813  67.367  1.00  0.00    -0.197 A  
HETATM    8  C   UNL     1     -10.513  12.983  66.231  1.00  0.00    -0.285 A  
HETATM    9  I   UNL     1     -10.192  13.844  69.201  1.00  0.00     0.349 I  
HETATM   10  C   UNL     1     -11.242  14.267  66.082  1.00  0.00    -0.331 C  
HETATM   11  C   UNL     1     -10.478  12.016  65.208  1.00  0.00    -0.284 A  
HETATM   12  C   UNL     1      -9.605  10.912  65.299  1.00  0.00    -0.229 A  
HETATM   13  I   UNL     1     -11.726  12.154  63.465  1.00  0.00    -0.430 I  
HETATM   14  O   UNL     1     -12.545  14.174  65.760  1.00  0.00    -0.488 OA 
HETATM   15  O   UNL     1     -10.686  15.341  66.272  1.00  0.00    -0.305 OA 
HETATM   16  C   UNL     1      -8.618  10.905  66.312  1.00  0.00    -0.164 A  
HETATM   17  I   UNL     1      -6.789   9.821  65.878  1.00  0.00    -0.115 I  
BRANCH  12  18
HETATM   18  N   UNL     1      -9.650   9.925  64.287  1.00  0.00    -0.403 N  
HETATM   19  C   UNL     1      -9.006   9.917  63.077  1.00  0.00    -0.259 C  
HETATM   20  H   UNL     1     -10.239   9.115  64.483  1.00  0.00     0.000 HD 
HETATM   21  C   UNL     1      -8.234  11.114  62.583  1.00  0.00    -0.066 C  
HETATM   22  O   UNL     1      -9.024   8.876  62.419  1.00  0.00    -0.189 OA 
ENDBRANCH  12  18
ENDBRANCH   2   6
TORSDOF 2
ENDMDL
MODEL       88
REMARK 921   NORMALIZED FREE ENERGY PREDICTED BY IDOCK:   -3.32 KCAL/MOL
REMARK 922        TOTAL FREE ENERGY PREDICTED BY IDOCK:   -4.20 KCAL/MOL
REMARK 923 INTER-LIGAND FREE ENERGY PREDICTED BY IDOCK:   -4.04 KCAL/MOL
REMARK 924 INTRA-LIGAND FREE ENERGY PREDICTED BY IDOCK:   -0.16 KCAL/MOL
REMARK 927      BINDING AFFINITY PREDICTED BY RF-SCORE:    0.00 PKD
ROOT
HETATM    1  C   UNL     1      -8.980   9.326  70.429  1.00  0.00    -0.239 C  
HETATM    2  N   UNL     1      -9.796   9.215  69.216  1.00  0.00    -0.170 N  
HETATM    3  C   UNL     1     -10.039   7.934  68.720  1.00  0.00    -0.193 C  
HETATM    4  C   UNL     1     -10.902   7.744  67.490  1.00  0.00    -0.182 C  
HETATM    5  O   UNL     1      -9.597   6.920  69.276  1.00  0.00    -0.150 OA 
ENDROOT
BRANCH   2   6
HETATM    6  C   UNL     1     -10.181  10.448  68.585  1.00  0.00    -0.181 A  
HETATM    7  C   UNL     1     -11.115  11.330  69.182  1.00  0.00    -0.253 A  
HETATM    8  C   UNL     1     -11.361  12.621  68.640  1.00  0.00    -0.331 A  
HETATM    9  I   UNL     1     -12.420  10.594  70.746  1.00  0.00    -0.495 I  
HETATM   10  C   UNL     1     -11.979  13.645  69.518  1.00  0.00    -0.341 C  
HETATM   11  C   UNL     1     -10.848  12.934  67.366  1.00  0.00    -0.251 A  
HETATM   12  C   UNL     1     -10.079  11.989  66.654  1.00  0.00    -0.198 A  
HETATM   13  I   UNL     1     -11.191  14.839  66.436  1.00  0.00    -0.256 I  
HETATM   14  O   UNL     1     -12.998  14.342  68.986  1.00  0.00     0.560 OA 
HETATM   15  O   UNL     1     -11.594  13.815  70.668  1.00  0.00    -0.150 OA 
HETATM   16  C   UNL     1      -9.648  10.819  67.322  1.00  0.00    -0.160 A  
HETATM   17  I   UNL     1      -7.791   9.936  66.630  1.00  0.00    -0.114 I  
BRANCH  12  18
HETATM   18  N   UNL     1      -9.643  12.314  65.349  1.00  0.00    -0.429 N  
HETATM   19  C   UNL     1     -10.303  12.129  64.162  1.00  0.00    -0.354 C  
HETATM   20  H   UNL     1      -8.719  12.740  65.282  1.00  0.00     0.000 HD 
HETATM   21  C   UNL     1     -11.601  11.367  64.087  1.00  0.00    -0.114 C  
HETATM   22  O   UNL     1      -9.834  12.655  63.151  1.00  0.00    -0.043 OA 
ENDBRANCH  12  18
ENDBRANCH   2   6
TORSDOF 2
ENDMDL
MODEL       89
REMARK 921   NORMALIZED FREE ENERGY PREDICTED BY IDOCK:   -3.31 KCAL/MOL
REMARK 922        TOTAL FREE ENERGY PREDICTED BY IDOCK:   -4.19 KCAL/MOL
REMARK 923 INTER-LIGAND FREE ENERGY PREDICTED BY IDOCK:   -3.62 KCAL/MOL
REMARK 924 INTRA-LIGAND FREE ENERGY PREDICTED BY IDOCK:   -0.56 KCAL/MOL
REMARK 927      BINDING AFFINITY PREDICTED BY RF-SCORE:    0.00 PKD
ROOT
HETATM    1  C   UNL     1      -8.701   8.248  69.557  1.00  0.00    -0.138 C  
HETATM    2  N   UNL     1      -8.065   9.347  68.825  1.00  0.00    -0.102 N  
HETATM    3  C   UNL     1      -7.360  10.292  69.570  1.00  0.00    -0.132 C  
HETATM    4  C   UNL     1      -6.650  11.435  68.875  1.00  0.00    -0.071 C  
HETATM    5  O   UNL     1      -7.261  10.216  70.802  1.00  0.00    -0.320 OA 
ENDROOT
BRANCH   2   6
HETATM    6  C   UNL     1      -8.317   9.409  67.411  1.00  0.00    -0.125 A  
HETATM    7  C   UNL     1      -9.347  10.219  66.873  1.00  0.00    -0.158 A  
HETATM    8  C   UNL     1      -9.479  10.407  65.470  1.00  0.00    -0.267 A  
HETATM    9  I   UNL     1     -10.933  10.921  68.170  1.00  0.00    -0.384 I  
HETATM   10  C   UNL     1     -10.253  11.578  64.989  1.00  0.00    -0.280 C  
HETATM   11  C   UNL     1      -8.728   9.594  64.599  1.00  0.00    -0.201 A  
HETATM   12  C   UNL     1      -7.838   8.628  65.115  1.00  0.00    -0.110 A  
HETATM   13  I   UNL     1      -8.879   9.767  62.464  1.00  0.00    -0.286 I  
HETATM   14  O   UNL     1     -11.148  11.335  64.015  1.00  0.00    -0.372 OA 
HETATM   15  O   UNL     1     -10.098  12.689  65.479  1.00  0.00    -0.273 OA 
HETATM   16  C   UNL     1      -7.548   8.638  66.499  1.00  0.00    -0.088 A  
HETATM   17  I   UNL     1      -5.594   7.899  67.085  1.00  0.00    -0.039 I  
BRANCH  12  18
HETATM   18  N   UNL     1      -7.157   7.782  64.209  1.00  0.00    -0.071 N  
HETATM   19  C   UNL     1      -7.412   6.467  63.917  1.00  0.00    -0.085 C  
HETATM   20  H   UNL     1      -6.374   8.204  63.710  1.00  0.00     0.000 HD 
HETATM   21  C   UNL     1      -8.428   5.667  64.691  1.00  0.00    -0.085 C  
HETATM   22  O   UNL     1      -6.825   5.963  62.958  1.00  0.00    -0.038 OA 
ENDBRANCH  12  18
ENDBRANCH   2   6
TORSDOF 2
ENDMDL
MODEL       90
REMARK 921   NORMALIZED FREE ENERGY PREDICTED BY IDOCK:   -3.30 KCAL/MOL
REMARK 922        TOTAL FREE ENERGY PREDICTED BY IDOCK:   -4.18 KCAL/MOL
REMARK 923 INTER-LIGAND FREE ENERGY PREDICTED BY IDOCK:   -3.67 KCAL/MOL
REMARK 924 INTRA-LIGAND FREE ENERGY PREDICTED BY IDOCK:   -0.51 KCAL/MOL
REMARK 927      BINDING AFFINITY PREDICTED BY RF-SCORE:    0.00 PKD
ROOT
HETATM    1  C   UNL     1      -7.610  11.453  68.166  1.00  0.00    -0.114 C  
HETATM    2  N   UNL     1      -8.889  10.747  68.038  1.00  0.00    -0.129 N  
HETATM    3  C   UNL     1     -10.049  11.461  68.340  1.00  0.00    -0.201 C  
HETATM    4  C   UNL     1     -11.407  10.804  68.197  1.00  0.00    -0.377 C  
HETATM    5  O   UNL     1     -10.017  12.646  68.696  1.00  0.00    -0.194 OA 
ENDROOT
BRANCH   2   6
HETATM    6  C   UNL     1      -8.822   9.348  67.715  1.00  0.00    -0.123 A  
HETATM    7  C   UNL     1      -8.679   8.897  66.380  1.00  0.00    -0.129 A  
HETATM    8  C   UNL     1      -8.442   7.527  66.086  1.00  0.00    -0.147 A  
HETATM    9  I   UNL     1      -9.144  10.245  64.750  1.00  0.00    -0.340 I  
HETATM   10  C   UNL     1      -7.866   7.183  64.763  1.00  0.00    -0.126 C  
HETATM   11  C   UNL     1      -8.586   6.575  67.114  1.00  0.00    -0.111 A  
HETATM   12  C   UNL     1      -8.933   6.981  68.420  1.00  0.00    -0.122 A  
HETATM   13  I   UNL     1      -8.290   4.475  66.772  1.00  0.00    -0.104 I  
HETATM   14  O   UNL     1      -8.460   6.171  64.105  1.00  0.00    -0.016 OA 
HETATM   15  O   UNL     1      -6.924   7.809  64.295  1.00  0.00    -0.064 OA 
HETATM   16  C   UNL     1      -8.917   8.360  68.732  1.00  0.00    -0.140 A  
HETATM   17  I   UNL     1      -8.486   8.883  70.793  1.00  0.00    -0.246 I  
BRANCH  12  18
HETATM   18  N   UNL     1      -9.140   5.989  69.406  1.00  0.00    -0.132 N  
HETATM   19  C   UNL     1     -10.318   5.608  69.996  1.00  0.00    -0.275 C  
HETATM   20  H   UNL     1      -8.305   5.493  69.720  1.00  0.00     0.000 HD 
HETATM   21  C   UNL     1     -11.603   6.357  69.754  1.00  0.00    -0.397 C  
HETATM   22  O   UNL     1     -10.314   4.592  70.693  1.00  0.00    -0.182 OA 
ENDBRANCH  12  18
ENDBRANCH   2   6
TORSDOF 2
ENDMDL
MODEL       91
REMARK 921   NORMALIZED FREE ENERGY PREDICTED BY IDOCK:   -3.28 KCAL/MOL
REMARK 922        TOTAL FREE ENERGY PREDICTED BY IDOCK:   -4.16 KCAL/MOL
REMARK 923 INTER-LIGAND FREE ENERGY PREDICTED BY IDOCK:   -3.93 KCAL/MOL
REMARK 924 INTRA-LIGAND FREE ENERGY PREDICTED BY IDOCK:   -0.23 KCAL/MOL
REMARK 927      BINDING AFFINITY PREDICTED BY RF-SCORE:    0.00 PKD
ROOT
HETATM    1  C   UNL     1      -6.573   8.868  66.973  1.00  0.00    -0.061 C  
HETATM    2  N   UNL     1      -6.851   9.440  68.294  1.00  0.00    -0.063 N  
HETATM    3  C   UNL     1      -6.105   8.962  69.371  1.00  0.00    -0.040 C  
HETATM    4  C   UNL     1      -6.316   9.532  70.758  1.00  0.00    -0.091 C  
HETATM    5  O   UNL     1      -5.233   8.095  69.232  1.00  0.00    -0.029 OA 
ENDROOT
BRANCH   2   6
HETATM    6  C   UNL     1      -7.947  10.367  68.375  1.00  0.00    -0.110 A  
HETATM    7  C   UNL     1      -9.217   9.978  68.866  1.00  0.00    -0.169 A  
HETATM    8  C   UNL     1     -10.240  10.935  69.104  1.00  0.00    -0.215 A  
HETATM    9  I   UNL     1      -9.723   7.874  68.952  1.00  0.00    -0.176 I  
HETATM   10  C   UNL     1     -11.354  10.562  70.010  1.00  0.00    -0.318 C  
HETATM   11  C   UNL     1     -10.069  12.249  68.625  1.00  0.00    -0.144 A  
HETATM   12  C   UNL     1      -8.887  12.613  67.945  1.00  0.00    -0.182 A  
HETATM   13  I   UNL     1     -11.567  13.765  68.895  1.00  0.00    -0.422 I  
HETATM   14  O   UNL     1     -12.593  10.849  69.574  1.00  0.00    -0.304 OA 
HETATM   15  O   UNL     1     -11.145  10.000  71.078  1.00  0.00    -0.343 OA 
HETATM   16  C   UNL     1      -7.796  11.713  67.946  1.00  0.00    -0.129 A  
HETATM   17  I   UNL     1      -5.817  12.589  67.804  1.00  0.00    -0.134 I  
BRANCH  12  18
HETATM   18  N   UNL     1      -8.784  13.920  67.417  1.00  0.00    -0.192 N  
HETATM   19  C   UNL     1      -9.351  14.423  66.274  1.00  0.00    -0.232 C  
HETATM   20  H   UNL     1      -8.213  14.573  67.955  1.00  0.00     0.000 HD 
HETATM   21  C   UNL     1     -10.083  13.539  65.298  1.00  0.00    -0.277 C  
HETATM   22  O   UNL     1      -9.297  15.640  66.090  1.00  0.00    -0.293 OA 
ENDBRANCH  12  18
ENDBRANCH   2   6
TORSDOF 2
ENDMDL
MODEL       92
REMARK 921   NORMALIZED FREE ENERGY PREDICTED BY IDOCK:   -3.27 KCAL/MOL
REMARK 922        TOTAL FREE ENERGY PREDICTED BY IDOCK:   -4.15 KCAL/MOL
REMARK 923 INTER-LIGAND FREE ENERGY PREDICTED BY IDOCK:   -3.78 KCAL/MOL
REMARK 924 INTRA-LIGAND FREE ENERGY PREDICTED BY IDOCK:   -0.37 KCAL/MOL
REMARK 927      BINDING AFFINITY PREDICTED BY RF-SCORE:    0.00 PKD
ROOT
HETATM    1  C   UNL     1      -7.108  15.676  69.995  1.00  0.00     0.103 C  
HETATM    2  N   UNL     1      -7.705  15.428  68.679  1.00  0.00    -0.134 N  
HETATM    3  C   UNL     1      -7.781  16.505  67.795  1.00  0.00    -0.152 C  
HETATM    4  C   UNL     1      -8.354  16.313  66.407  1.00  0.00    -0.365 C  
HETATM    5  O   UNL     1      -7.358  17.630  68.094  1.00  0.00    -0.213 OA 
ENDROOT
BRANCH   2   6
HETATM    6  C   UNL     1      -8.256  14.119  68.458  1.00  0.00    -0.146 A  
HETATM    7  C   UNL     1      -9.654  13.892  68.448  1.00  0.00    -0.215 A  
HETATM    8  C   UNL     1     -10.193  12.635  68.061  1.00  0.00    -0.230 A  
HETATM    9  I   UNL     1     -10.975  15.361  69.335  1.00  0.00    -0.376 I  
HETATM   10  C   UNL     1     -11.615  12.581  67.641  1.00  0.00    -0.355 C  
HETATM   11  C   UNL     1      -9.325  11.536  67.915  1.00  0.00    -0.171 A  
HETATM   12  C   UNL     1      -7.937  11.691  68.123  1.00  0.00    -0.141 A  
HETATM   13  I   UNL     1     -10.037   9.584  67.372  1.00  0.00    -0.317 I  
HETATM   14  O   UNL     1     -12.352  11.588  68.172  1.00  0.00    -0.473 OA 
HETATM   15  O   UNL     1     -12.087  13.414  66.877  1.00  0.00    -0.388 OA 
HETATM   16  C   UNL     1      -7.410  12.996  68.260  1.00  0.00    -0.116 A  
HETATM   17  I   UNL     1      -5.359  13.286  67.614  1.00  0.00     0.209 I  
BRANCH  12  18
HETATM   18  N   UNL     1      -7.107  10.549  68.038  1.00  0.00    -0.084 N  
HETATM   19  C   UNL     1      -6.424   9.918  69.044  1.00  0.00    -0.048 C  
HETATM   20  H   UNL     1      -7.004  10.143  67.108  1.00  0.00     0.000 HD 
HETATM   21  C   UNL     1      -6.351  10.494  70.435  1.00  0.00    -0.126 C  
HETATM   22  O   UNL     1      -5.911   8.825  68.799  1.00  0.00    -0.043 OA 
ENDBRANCH  12  18
ENDBRANCH   2   6
TORSDOF 2
ENDMDL
MODEL       93
REMARK 921   NORMALIZED FREE ENERGY PREDICTED BY IDOCK:   -3.24 KCAL/MOL
REMARK 922        TOTAL FREE ENERGY PREDICTED BY IDOCK:   -4.11 KCAL/MOL
REMARK 923 INTER-LIGAND FREE ENERGY PREDICTED BY IDOCK:   -3.56 KCAL/MOL
REMARK 924 INTRA-LIGAND FREE ENERGY PREDICTED BY IDOCK:   -0.54 KCAL/MOL
REMARK 927      BINDING AFFINITY PREDICTED BY RF-SCORE:    0.00 PKD
ROOT
HETATM    1  C   UNL     1     -10.588   8.891  67.002  1.00  0.00    -0.209 C  
HETATM    2  N   UNL     1      -9.640   8.977  68.117  1.00  0.00    -0.146 N  
HETATM    3  C   UNL     1      -8.786  10.079  68.151  1.00  0.00    -0.122 C  
HETATM    4  C   UNL     1      -7.805  10.248  69.293  1.00  0.00    -0.142 C  
HETATM    5  O   UNL     1      -8.820  10.962  67.285  1.00  0.00    -0.134 OA 
ENDROOT
BRANCH   2   6
HETATM    6  C   UNL     1      -9.605   7.857  69.018  1.00  0.00    -0.155 A  
HETATM    7  C   UNL     1     -10.469   7.773  70.137  1.00  0.00    -0.231 A  
HETATM    8  C   UNL     1     -10.548   6.591  70.921  1.00  0.00    -0.275 A  
HETATM    9  I   UNL     1     -11.446   9.566  70.860  1.00  0.00    -0.477 I  
HETATM   10  C   UNL     1     -11.747   6.390  71.770  1.00  0.00    -0.324 C  
HETATM   11  C   UNL     1      -9.587   5.579  70.727  1.00  0.00    -0.170 A  
HETATM   12  C   UNL     1      -8.580   5.729  69.750  1.00  0.00    -0.127 A  
HETATM   13  I   UNL     1      -9.588   3.769  71.883  1.00  0.00    -0.230 I  
HETATM   14  O   UNL     1     -11.517   5.997  73.036  1.00  0.00    -0.196 OA 
HETATM   15  O   UNL     1     -12.875   6.601  71.341  1.00  0.00    -0.277 OA 
HETATM   16  C   UNL     1      -8.680   6.796  68.826  1.00  0.00    -0.125 A  
HETATM   17  I   UNL     1      -7.792   6.474  66.873  1.00  0.00    -0.111 I  
BRANCH  12  18
HETATM   18  N   UNL     1      -7.591   4.725  69.635  1.00  0.00    -0.055 N  
HETATM   19  C   UNL     1      -6.311   4.733  70.125  1.00  0.00    -0.026 C  
HETATM   20  H   UNL     1      -7.865   3.888  69.121  1.00  0.00     0.000 HD 
HETATM   21  C   UNL     1      -5.714   5.961  70.763  1.00  0.00    -0.017 C  
HETATM   22  O   UNL     1      -5.669   3.682  70.085  1.00  0.00    -0.016 OA 
ENDBRANCH  12  18
ENDBRANCH   2   6
TORSDOF 2
ENDMDL
MODEL       94
REMARK 921   NORMALIZED FREE ENERGY PREDICTED BY IDOCK:   -3.21 KCAL/MOL
REMARK 922        TOTAL FREE ENERGY PREDICTED BY IDOCK:   -4.08 KCAL/MOL
REMARK 923 INTER-LIGAND FREE ENERGY PREDICTED BY IDOCK:   -3.57 KCAL/MOL
REMARK 924 INTRA-LIGAND FREE ENERGY PREDICTED BY IDOCK:   -0.51 KCAL/MOL
REMARK 927      BINDING AFFINITY PREDICTED BY RF-SCORE:    0.00 PKD
ROOT
HETATM    1  C   UNL     1      -8.488  10.918  68.976  1.00  0.00    -0.105 C  
HETATM    2  N   UNL     1      -7.667  11.680  68.030  1.00  0.00    -0.113 N  
HETATM    3  C   UNL     1      -6.456  11.116  67.631  1.00  0.00    -0.065 C  
HETATM    4  C   UNL     1      -5.574  11.833  66.629  1.00  0.00    -0.059 C  
HETATM    5  O   UNL     1      -6.079  10.012  68.044  1.00  0.00    -0.049 OA 
ENDROOT
BRANCH   2   6
HETATM    6  C   UNL     1      -8.138  12.994  67.684  1.00  0.00    -0.172 A  
HETATM    7  C   UNL     1      -9.196  13.187  66.762  1.00  0.00    -0.230 A  
HETATM    8  C   UNL     1      -9.768  14.471  66.555  1.00  0.00    -0.301 A  
HETATM    9  I   UNL     1      -9.738  11.579  65.417  1.00  0.00    -0.213 I  
HETATM   10  C   UNL     1     -11.120  14.548  65.948  1.00  0.00    -0.327 C  
HETATM   11  C   UNL     1      -9.121  15.600  67.094  1.00  0.00    -0.210 A  
HETATM   12  C   UNL     1      -7.940  15.452  67.852  1.00  0.00    -0.135 A  
HETATM   13  I   UNL     1      -9.877  17.591  66.811  1.00  0.00    -0.354 I  
HETATM   14  O   UNL     1     -11.271  15.441  64.954  1.00  0.00    -0.401 OA 
HETATM   15  O   UNL     1     -12.028  13.816  66.320  1.00  0.00    -0.381 OA 
HETATM   16  C   UNL     1      -7.540  14.154  68.245  1.00  0.00    -0.130 A  
HETATM   17  I   UNL     1      -6.410  14.005  70.091  1.00  0.00     0.084 I  
BRANCH  12  18
HETATM   18  N   UNL     1      -7.281  16.615  68.314  1.00  0.00    -0.163 N  
HETATM   19  C   UNL     1      -6.252  17.302  67.723  1.00  0.00    -0.148 C  
HETATM   20  H   UNL     1      -7.613  16.990  69.203  1.00  0.00     0.000 HD 
HETATM   21  C   UNL     1      -5.553  16.778  66.495  1.00  0.00     0.080 C  
HETATM   22  O   UNL     1      -5.946  18.400  68.190  1.00  0.00    -0.178 OA 
ENDBRANCH  12  18
ENDBRANCH   2   6
TORSDOF 2
ENDMDL
MODEL       95
REMARK 921   NORMALIZED FREE ENERGY PREDICTED BY IDOCK:   -3.20 KCAL/MOL
REMARK 922        TOTAL FREE ENERGY PREDICTED BY IDOCK:   -4.06 KCAL/MOL
REMARK 923 INTER-LIGAND FREE ENERGY PREDICTED BY IDOCK:   -4.14 KCAL/MOL
REMARK 924 INTRA-LIGAND FREE ENERGY PREDICTED BY IDOCK:    0.08 KCAL/MOL
REMARK 927      BINDING AFFINITY PREDICTED BY RF-SCORE:    0.00 PKD
ROOT
HETATM    1  C   UNL     1      -6.699   5.436  67.374  1.00  0.00    -0.059 C  
HETATM    2  N   UNL     1      -8.140   5.304  67.135  1.00  0.00    -0.101 N  
HETATM    3  C   UNL     1      -8.541   4.641  65.974  1.00  0.00    -0.115 C  
HETATM    4  C   UNL     1     -10.013   4.439  65.682  1.00  0.00    -0.247 C  
HETATM    5  O   UNL     1      -7.724   4.171  65.172  1.00  0.00    -0.083 OA 
ENDROOT
BRANCH   2   6
HETATM    6  C   UNL     1      -9.010   5.966  68.068  1.00  0.00    -0.118 A  
HETATM    7  C   UNL     1      -9.316   5.402  69.330  1.00  0.00    -0.124 A  
HETATM    8  C   UNL     1     -10.035   6.137  70.312  1.00  0.00    -0.226 A  
HETATM    9  I   UNL     1      -8.974   3.289  69.660  1.00  0.00    -0.220 I  
HETATM   10  C   UNL     1      -9.942   5.698  71.726  1.00  0.00    -0.176 C  
HETATM   11  C   UNL     1     -10.651   7.348  69.940  1.00  0.00    -0.236 A  
HETATM   12  C   UNL     1     -10.532   7.834  68.621  1.00  0.00    -0.172 A  
HETATM   13  I   UNL     1     -11.793   8.520  71.331  1.00  0.00    -0.388 I  
HETATM   14  O   UNL     1     -11.103   5.622  72.399  1.00  0.00    -0.248 OA 
HETATM   15  O   UNL     1      -8.867   5.398  72.230  1.00  0.00    -0.129 OA 
HETATM   16  C   UNL     1      -9.612   7.212  67.745  1.00  0.00    -0.129 A  
HETATM   17  I   UNL     1      -8.750   8.462  66.196  1.00  0.00    -0.214 I  
BRANCH  12  18
HETATM   18  N   UNL     1     -11.225   9.015  68.268  1.00  0.00    -0.343 N  
HETATM   19  C   UNL     1     -10.801  10.314  68.372  1.00  0.00    -0.245 C  
HETATM   20  H   UNL     1     -12.162   8.883  67.886  1.00  0.00     0.000 HD 
HETATM   21  C   UNL     1      -9.510  10.672  69.064  1.00  0.00    -0.202 C  
HETATM   22  O   UNL     1     -11.478  11.190  67.831  1.00  0.00    -0.368 OA 
ENDBRANCH  12  18
ENDBRANCH   2   6
TORSDOF 2
ENDMDL
MODEL       96
REMARK 921   NORMALIZED FREE ENERGY PREDICTED BY IDOCK:   -3.16 KCAL/MOL
REMARK 922        TOTAL FREE ENERGY PREDICTED BY IDOCK:   -4.03 KCAL/MOL
REMARK 923 INTER-LIGAND FREE ENERGY PREDICTED BY IDOCK:   -3.46 KCAL/MOL
REMARK 924 INTRA-LIGAND FREE ENERGY PREDICTED BY IDOCK:   -0.57 KCAL/MOL
REMARK 927      BINDING AFFINITY PREDICTED BY RF-SCORE:    0.00 PKD
ROOT
HETATM    1  C   UNL     1     -11.955   6.542  71.884  1.00  0.00    -0.341 C  
HETATM    2  N   UNL     1     -10.539   6.920  71.855  1.00  0.00    -0.210 N  
HETATM    3  C   UNL     1      -9.972   7.381  73.043  1.00  0.00    -0.249 C  
HETATM    4  C   UNL     1      -8.505   7.757  73.092  1.00  0.00    -0.215 C  
HETATM    5  O   UNL     1     -10.624   7.465  74.092  1.00  0.00    -0.194 OA 
ENDROOT
BRANCH   2   6
HETATM    6  C   UNL     1      -9.890   6.884  70.572  1.00  0.00    -0.179 A  
HETATM    7  C   UNL     1      -9.409   5.674  70.015  1.00  0.00    -0.149 A  
HETATM    8  C   UNL     1      -8.926   5.618  68.679  1.00  0.00    -0.113 A  
HETATM    9  I   UNL     1      -9.102   3.960  71.302  1.00  0.00    -0.219 I  
HETATM   10  C   UNL     1      -8.862   4.296  68.011  1.00  0.00    -0.111 C  
HETATM   11  C   UNL     1      -8.704   6.823  67.984  1.00  0.00    -0.118 A  
HETATM   12  C   UNL     1      -8.984   8.063  68.597  1.00  0.00    -0.134 A  
HETATM   13  I   UNL     1      -7.940   6.857  65.977  1.00  0.00    -0.127 I  
HETATM   14  O   UNL     1      -7.719   4.018  67.358  1.00  0.00    -0.078 OA 
HETATM   15  O   UNL     1      -9.789   3.500  68.081  1.00  0.00    -0.072 OA 
HETATM   16  C   UNL     1      -9.691   8.073  69.822  1.00  0.00    -0.176 A  
HETATM   17  I   UNL     1     -10.911   9.822  70.222  1.00  0.00    -0.415 I  
BRANCH  12  18
HETATM   18  N   UNL     1      -8.679   9.252  67.894  1.00  0.00    -0.124 N  
HETATM   19  C   UNL     1      -7.599  10.080  68.053  1.00  0.00    -0.088 C  
HETATM   20  H   UNL     1      -9.350   9.528  67.177  1.00  0.00     0.000 HD 
HETATM   21  C   UNL     1      -6.613   9.890  69.176  1.00  0.00    -0.052 C  
HETATM   22  O   UNL     1      -7.417  10.961  67.211  1.00  0.00    -0.096 OA 
ENDBRANCH  12  18
ENDBRANCH   2   6
TORSDOF 2
ENDMDL
MODEL       97
REMARK 921   NORMALIZED FREE ENERGY PREDICTED BY IDOCK:   -3.14 KCAL/MOL
REMARK 922        TOTAL FREE ENERGY PREDICTED BY IDOCK:   -4.00 KCAL/MOL
REMARK 923 INTER-LIGAND FREE ENERGY PREDICTED BY IDOCK:   -3.48 KCAL/MOL
REMARK 924 INTRA-LIGAND FREE ENERGY PREDICTED BY IDOCK:   -0.52 KCAL/MOL
REMARK 927      BINDING AFFINITY PREDICTED BY RF-SCORE:    0.00 PKD
ROOT
HETATM    1  C   UNL     1      -7.097   3.863  73.465  1.00  0.00    -0.063 C  
HETATM    2  N   UNL     1      -8.419   3.519  72.934  1.00  0.00    -0.081 N  
HETATM    3  C   UNL     1      -9.118   2.490  73.565  1.00  0.00    -0.084 C  
HETATM    4  C   UNL     1     -10.504   2.107  73.091  1.00  0.00    -0.225 C  
HETATM    5  O   UNL     1      -8.656   1.887  74.542  1.00  0.00    -0.056 OA 
ENDROOT
BRANCH   2   6
HETATM    6  C   UNL     1      -8.830   4.205  71.739  1.00  0.00    -0.114 A  
HETATM    7  C   UNL     1      -8.623   3.650  70.453  1.00  0.00    -0.066 A  
HETATM    8  C   UNL     1      -9.182   4.250  69.292  1.00  0.00    -0.210 A  
HETATM    9  I   UNL     1      -7.176   2.058  70.205  1.00  0.00    -0.032 I  
HETATM   10  C   UNL     1      -9.319   3.420  68.070  1.00  0.00    -0.187 C  
HETATM   11  C   UNL     1      -9.748   5.536  69.394  1.00  0.00    -0.160 A  
HETATM   12  C   UNL     1      -9.783   6.203  70.637  1.00  0.00    -0.174 A  
HETATM   13  I   UNL     1     -10.587   6.551  67.698  1.00  0.00    -0.457 I  
HETATM   14  O   UNL     1      -8.904   3.985  66.922  1.00  0.00    -0.113 OA 
HETATM   15  O   UNL     1      -9.758   2.279  68.120  1.00  0.00    -0.145 OA 
HETATM   16  C   UNL     1      -9.448   5.483  71.807  1.00  0.00    -0.149 A  
HETATM   17  I   UNL     1     -10.393   6.131  73.649  1.00  0.00    -0.295 I  
BRANCH  12  18
HETATM   18  N   UNL     1     -10.294   7.521  70.686  1.00  0.00    -0.207 N  
HETATM   19  C   UNL     1      -9.607   8.693  70.866  1.00  0.00    -0.203 C  
HETATM   20  H   UNL     1     -11.304   7.610  70.572  1.00  0.00     0.000 HD 
HETATM   21  C   UNL     1      -8.138   8.706  71.207  1.00  0.00    -0.182 C  
HETATM   22  O   UNL     1     -10.210   9.751  70.684  1.00  0.00    -0.279 OA 
ENDBRANCH  12  18
ENDBRANCH   2   6
TORSDOF 2
ENDMDL
MODEL       98
REMARK 921   NORMALIZED FREE ENERGY PREDICTED BY IDOCK:   -3.10 KCAL/MOL
REMARK 922        TOTAL FREE ENERGY PREDICTED BY IDOCK:   -3.95 KCAL/MOL
REMARK 923 INTER-LIGAND FREE ENERGY PREDICTED BY IDOCK:   -4.06 KCAL/MOL
REMARK 924 INTRA-LIGAND FREE ENERGY PREDICTED BY IDOCK:    0.10 KCAL/MOL
REMARK 927      BINDING AFFINITY PREDICTED BY RF-SCORE:    0.00 PKD
ROOT
HETATM    1  C   UNL     1      -8.582  13.196  68.173  1.00  0.00    -0.181 C  
HETATM    2  N   UNL     1      -9.402  12.029  67.831  1.00  0.00    -0.183 N  
HETATM    3  C   UNL     1      -9.873  11.937  66.522  1.00  0.00    -0.206 C  
HETATM    4  C   UNL     1     -10.696  10.741  66.090  1.00  0.00    -0.187 C  
HETATM    5  O   UNL     1      -9.611  12.794  65.668  1.00  0.00    -0.175 OA 
ENDROOT
BRANCH   2   6
HETATM    6  C   UNL     1      -9.735  11.139  68.910  1.00  0.00    -0.150 A  
HETATM    7  C   UNL     1     -10.926  11.292  69.661  1.00  0.00    -0.151 A  
HETATM    8  C   UNL     1     -11.332  10.312  70.607  1.00  0.00    -0.431 A  
HETATM    9  I   UNL     1     -11.980  13.183  69.607  1.00  0.00    -0.166 I  
HETATM   10  C   UNL     1     -12.755  10.285  71.023  1.00  0.00    -0.396 C  
HETATM   11  C   UNL     1     -10.423   9.300  70.972  1.00  0.00    -0.314 A  
HETATM   12  C   UNL     1      -9.141   9.246  70.384  1.00  0.00    -0.247 A  
HETATM   13  I   UNL     1     -10.916   7.792  72.420  1.00  0.00    -0.466 I  
HETATM   14  O   UNL     1     -12.984  10.187  72.345  1.00  0.00    -0.314 OA 
HETATM   15  O   UNL     1     -13.661  10.376  70.204  1.00  0.00     0.196 OA 
HETATM   16  C   UNL     1      -8.864  10.078  69.275  1.00  0.00    -0.178 A  
HETATM   17  I   UNL     1      -7.397   9.345  67.855  1.00  0.00    -0.082 I  
BRANCH  12  18
HETATM   18  N   UNL     1      -8.232   8.259  70.830  1.00  0.00    -0.108 N  
HETATM   19  C   UNL     1      -8.056   6.986  70.351  1.00  0.00    -0.119 C  
HETATM   20  H   UNL     1      -7.629   8.528  71.608  1.00  0.00     0.000 HD 
HETATM   21  C   UNL     1      -8.978   6.395  69.317  1.00  0.00    -0.133 C  
HETATM   22  O   UNL     1      -7.079   6.349  70.748  1.00  0.00    -0.066 OA 
ENDBRANCH  12  18
ENDBRANCH   2   6
TORSDOF 2
ENDMDL
MODEL       99
REMARK 921   NORMALIZED FREE ENERGY PREDICTED BY IDOCK:   -3.07 KCAL/MOL
REMARK 922        TOTAL FREE ENERGY PREDICTED BY IDOCK:   -3.93 KCAL/MOL
REMARK 923 INTER-LIGAND FREE ENERGY PREDICTED BY IDOCK:   -4.01 KCAL/MOL
REMARK 924 INTRA-LIGAND FREE ENERGY PREDICTED BY IDOCK:    0.08 KCAL/MOL
REMARK 927      BINDING AFFINITY PREDICTED BY RF-SCORE:    0.00 PKD
ROOT
HETATM    1  C   UNL     1      -7.361   4.313  72.304  1.00  0.00    -0.067 C  
HETATM    2  N   UNL     1      -8.790   4.630  72.207  1.00  0.00    -0.121 N  
HETATM    3  C   UNL     1      -9.658   3.951  73.062  1.00  0.00    -0.123 C  
HETATM    4  C   UNL     1     -11.142   4.253  73.039  1.00  0.00    -0.232 C  
HETATM    5  O   UNL     1      -9.253   3.115  73.880  1.00  0.00    -0.085 OA 
ENDROOT
BRANCH   2   6
HETATM    6  C   UNL     1      -9.178   5.538  71.162  1.00  0.00    -0.149 A  
HETATM    7  C   UNL     1      -9.170   6.941  71.353  1.00  0.00    -0.156 A  
HETATM    8  C   UNL     1      -9.388   7.834  70.269  1.00  0.00    -0.156 A  
HETATM    9  I   UNL     1      -9.147   7.738  73.367  1.00  0.00    -0.326 I  
HETATM   10  C   UNL     1      -8.937   9.240  70.416  1.00  0.00    -0.239 C  
HETATM   11  C   UNL     1      -9.850   7.317  69.043  1.00  0.00    -0.165 A  
HETATM   12  C   UNL     1     -10.064   5.931  68.888  1.00  0.00    -0.180 A  
HETATM   13  I   UNL     1     -10.249   8.580  67.352  1.00  0.00    -0.339 I  
HETATM   14  O   UNL     1      -9.818  10.186  70.044  1.00  0.00    -0.228 OA 
HETATM   15  O   UNL     1      -7.836   9.511  70.877  1.00  0.00    -0.299 OA 
HETATM   16  C   UNL     1      -9.603   5.053  69.897  1.00  0.00    -0.176 A  
HETATM   17  I   UNL     1      -9.056   3.052  69.264  1.00  0.00    -0.192 I  
BRANCH  12  18
HETATM   18  N   UNL     1     -10.597   5.460  67.666  1.00  0.00    -0.161 N  
HETATM   19  C   UNL     1      -9.927   5.143  66.512  1.00  0.00    -0.212 C  
HETATM   20  H   UNL     1     -11.609   5.340  67.639  1.00  0.00     0.000 HD 
HETATM   21  C   UNL     1      -8.455   5.420  66.349  1.00  0.00    -0.114 C  
HETATM   22  O   UNL     1     -10.552   4.566  65.621  1.00  0.00    -0.288 OA 
ENDBRANCH  12  18
ENDBRANCH   2   6
TORSDOF 2
ENDMDL
MODEL      100
REMARK 921   NORMALIZED FREE ENERGY PREDICTED BY IDOCK:   -3.07 KCAL/MOL
REMARK 922        TOTAL FREE ENERGY PREDICTED BY IDOCK:   -3.92 KCAL/MOL
REMARK 923 INTER-LIGAND FREE ENERGY PREDICTED BY IDOCK:   -4.39 KCAL/MOL
REMARK 924 INTRA-LIGAND FREE ENERGY PREDICTED BY IDOCK:    0.47 KCAL/MOL
REMARK 927      BINDING AFFINITY PREDICTED BY RF-SCORE:    0.00 PKD
ROOT
HETATM    1  C   UNL     1     -11.397  17.550  68.093  1.00  0.00     0.441 C  
HETATM    2  N   UNL     1     -10.383  16.583  68.524  1.00  0.00    -0.271 N  
HETATM    3  C   UNL     1      -9.061  17.024  68.587  1.00  0.00    -0.271 C  
HETATM    4  C   UNL     1      -7.967  16.087  69.057  1.00  0.00    -0.224 C  
HETATM    5  O   UNL     1      -8.742  18.185  68.301  1.00  0.00    -0.270 OA 
ENDROOT
BRANCH   2   6
HETATM    6  C   UNL     1     -10.831  15.234  68.739  1.00  0.00    -0.254 A  
HETATM    7  C   UNL     1     -10.701  14.238  67.741  1.00  0.00    -0.251 A  
HETATM    8  C   UNL     1     -10.987  12.874  68.020  1.00  0.00    -0.271 A  
HETATM    9  I   UNL     1     -10.376  14.832  65.684  1.00  0.00    -0.450 I  
HETATM   10  C   UNL     1     -10.424  11.840  67.117  1.00  0.00    -0.220 C  
HETATM   11  C   UNL     1     -11.631  12.545  69.229  1.00  0.00    -0.319 A  
HETATM   12  C   UNL     1     -11.959  13.554  70.159  1.00  0.00    -0.329 A  
HETATM   13  I   UNL     1     -12.144  10.522  69.734  1.00  0.00    -0.070 I  
HETATM   14  O   UNL     1     -11.275  10.881  66.712  1.00  0.00    -0.244 OA 
HETATM   15  O   UNL     1      -9.258  11.885  66.745  1.00  0.00    -0.183 OA 
HETATM   16  C   UNL     1     -11.442  14.856  69.965  1.00  0.00    -0.278 A  
HETATM   17  I   UNL     1     -11.118  16.047  71.749  1.00  0.00     0.905 I  
BRANCH  12  18
HETATM   18  N   UNL     1     -12.669  13.194  71.328  1.00  0.00    -0.352 N  
HETATM   19  C   UNL     1     -13.785  13.785  71.862  1.00  0.00    -0.426 C  
HETATM   20  H   UNL     1     -12.304  12.390  71.839  1.00  0.00     0.000 HD 
HETATM   21  C   UNL     1     -14.339  15.073  71.309  1.00  0.00    -0.503 C  
HETATM   22  O   UNL     1     -14.365  13.203  72.779  1.00  0.00    -0.551 OA 
ENDBRANCH  12  18
ENDBRANCH   2   6
TORSDOF 2
ENDMDL
MODEL      101
REMARK 921   NORMALIZED FREE ENERGY PREDICTED BY IDOCK:   -3.07 KCAL/MOL
REMARK 922        TOTAL FREE ENERGY PREDICTED BY IDOCK:   -3.92 KCAL/MOL
REMARK 923 INTER-LIGAND FREE ENERGY PREDICTED BY IDOCK:   -3.38 KCAL/MOL
REMARK 924 INTRA-LIGAND FREE ENERGY PREDICTED BY IDOCK:   -0.54 KCAL/MOL
REMARK 927      BINDING AFFINITY PREDICTED BY RF-SCORE:    0.00 PKD
ROOT
HETATM    1  C   UNL     1      -6.714   6.083  71.524  1.00  0.00    -0.055 C  
HETATM    2  N   UNL     1      -7.573   6.143  70.337  1.00  0.00    -0.094 N  
HETATM    3  C   UNL     1      -7.214   5.353  69.245  1.00  0.00    -0.065 C  
HETATM    4  C   UNL     1      -8.074   5.339  67.998  1.00  0.00    -0.099 C  
HETATM    5  O   UNL     1      -6.217   4.619  69.265  1.00  0.00    -0.028 OA 
ENDROOT
BRANCH   2   6
HETATM    6  C   UNL     1      -8.649   7.095  70.369  1.00  0.00    -0.142 A  
HETATM    7  C   UNL     1      -9.883   6.804  71.000  1.00  0.00    -0.182 A  
HETATM    8  C   UNL     1     -10.875   7.806  71.177  1.00  0.00    -0.254 A  
HETATM    9  I   UNL     1     -10.403   4.743  71.414  1.00  0.00     0.038 I  
HETATM   10  C   UNL     1     -11.921   7.585  72.205  1.00  0.00    -0.263 C  
HETATM   11  C   UNL     1     -10.727   9.037  70.509  1.00  0.00    -0.239 A  
HETATM   12  C   UNL     1      -9.596   9.279  69.701  1.00  0.00    -0.183 A  
HETATM   13  I   UNL     1     -12.184  10.607  70.674  1.00  0.00    -0.508 I  
HETATM   14  O   UNL     1     -13.187   7.835  71.826  1.00  0.00    -0.328 OA 
HETATM   15  O   UNL     1     -11.639   7.171  73.323  1.00  0.00     0.003 OA 
HETATM   16  C   UNL     1      -8.517   8.365  69.746  1.00  0.00    -0.127 A  
HETATM   17  I   UNL     1      -6.545   9.172  69.340  1.00  0.00    -0.046 I  
BRANCH  12  18
HETATM   18  N   UNL     1      -9.518  10.499  68.989  1.00  0.00    -0.196 N  
HETATM   19  C   UNL     1      -9.945  10.769  67.715  1.00  0.00    -0.171 C  
HETATM   20  H   UNL     1      -9.089  11.278  69.489  1.00  0.00     0.000 HD 
HETATM   21  C   UNL     1     -10.449   9.681  66.801  1.00  0.00    -0.257 C  
HETATM   22  O   UNL     1      -9.962  11.944  67.347  1.00  0.00    -0.188 OA 
ENDBRANCH  12  18
ENDBRANCH   2   6
TORSDOF 2
ENDMDL
MODEL      102
REMARK 921   NORMALIZED FREE ENERGY PREDICTED BY IDOCK:   -3.02 KCAL/MOL
REMARK 922        TOTAL FREE ENERGY PREDICTED BY IDOCK:   -3.87 KCAL/MOL
REMARK 923 INTER-LIGAND FREE ENERGY PREDICTED BY IDOCK:   -3.30 KCAL/MOL
REMARK 924 INTRA-LIGAND FREE ENERGY PREDICTED BY IDOCK:   -0.57 KCAL/MOL
REMARK 927      BINDING AFFINITY PREDICTED BY RF-SCORE:    0.00 PKD
ROOT
HETATM    1  C   UNL     1      -6.911   8.099  68.420  1.00  0.00    -0.073 C  
HETATM    2  N   UNL     1      -8.328   7.864  68.714  1.00  0.00    -0.127 N  
HETATM    3  C   UNL     1      -9.210   8.927  68.519  1.00  0.00    -0.137 C  
HETATM    4  C   UNL     1     -10.692   8.744  68.770  1.00  0.00    -0.111 C  
HETATM    5  O   UNL     1      -8.827  10.030  68.107  1.00  0.00    -0.121 OA 
ENDROOT
BRANCH   2   6
HETATM    6  C   UNL     1      -8.664   6.586  69.280  1.00  0.00    -0.130 A  
HETATM    7  C   UNL     1      -8.842   5.436  68.472  1.00  0.00    -0.100 A  
HETATM    8  C   UNL     1      -9.003   4.147  69.049  1.00  0.00    -0.163 A  
HETATM    9  I   UNL     1      -9.193   5.675  66.349  1.00  0.00    -0.161 I  
HETATM   10  C   UNL     1      -8.738   2.960  68.201  1.00  0.00    -0.106 C  
HETATM   11  C   UNL     1      -9.226   4.045  70.437  1.00  0.00    -0.134 A  
HETATM   12  C   UNL     1      -9.259   5.203  71.242  1.00  0.00    -0.145 A  
HETATM   13  I   UNL     1      -9.521   2.152  71.407  1.00  0.00    -0.189 I  
HETATM   14  O   UNL     1      -9.659   1.980  68.250  1.00  0.00    -0.207 OA 
HETATM   15  O   UNL     1      -7.751   2.899  67.480  1.00  0.00    -0.067 OA 
HETATM   16  C   UNL     1      -8.850   6.435  70.680  1.00  0.00    -0.144 A  
HETATM   17  I   UNL     1      -7.997   7.888  72.048  1.00  0.00    -0.187 I  
BRANCH  12  18
HETATM   18  N   UNL     1      -9.557   5.065  72.617  1.00  0.00    -0.140 N  
HETATM   19  C   UNL     1     -10.738   5.327  73.261  1.00  0.00    -0.277 C  
HETATM   20  H   UNL     1      -8.795   4.728  73.205  1.00  0.00     0.000 HD 
HETATM   21  C   UNL     1     -11.898   5.981  72.555  1.00  0.00    -0.236 C  
HETATM   22  O   UNL     1     -10.853   4.959  74.432  1.00  0.00    -0.346 OA 
ENDBRANCH  12  18
ENDBRANCH   2   6
TORSDOF 2
ENDMDL
MODEL      103
REMARK 921   NORMALIZED FREE ENERGY PREDICTED BY IDOCK:   -2.99 KCAL/MOL
REMARK 922        TOTAL FREE ENERGY PREDICTED BY IDOCK:   -3.84 KCAL/MOL
REMARK 923 INTER-LIGAND FREE ENERGY PREDICTED BY IDOCK:   -3.34 KCAL/MOL
REMARK 924 INTRA-LIGAND FREE ENERGY PREDICTED BY IDOCK:   -0.49 KCAL/MOL
REMARK 927      BINDING AFFINITY PREDICTED BY RF-SCORE:    0.00 PKD
ROOT
HETATM    1  C   UNL     1      -9.548   6.196  74.327  1.00  0.00    -0.207 C  
HETATM    2  N   UNL     1      -8.763   6.673  73.184  1.00  0.00    -0.123 N  
HETATM    3  C   UNL     1      -8.166   7.928  73.294  1.00  0.00    -0.182 C  
HETATM    4  C   UNL     1      -7.313   8.468  72.164  1.00  0.00    -0.106 C  
HETATM    5  O   UNL     1      -8.278   8.621  74.313  1.00  0.00    -0.317 OA 
ENDROOT
BRANCH   2   6
HETATM    6  C   UNL     1      -8.771   5.845  72.008  1.00  0.00    -0.137 A  
HETATM    7  C   UNL     1      -7.838   4.795  71.830  1.00  0.00    -0.100 A  
HETATM    8  C   UNL     1      -7.958   3.876  70.753  1.00  0.00    -0.055 A  
HETATM    9  I   UNL     1      -6.026   4.773  73.017  1.00  0.00    -0.023 I  
HETATM   10  C   UNL     1      -7.257   2.573  70.859  1.00  0.00    -0.033 C  
HETATM   11  C   UNL     1      -8.875   4.154  69.720  1.00  0.00    -0.087 A  
HETATM   12  C   UNL     1      -9.679   5.312  69.771  1.00  0.00    -0.189 A  
HETATM   13  I   UNL     1      -9.111   2.855  68.025  1.00  0.00    -0.233 I  
HETATM   14  O   UNL     1      -6.561   2.186  69.776  1.00  0.00    -0.028 OA 
HETATM   15  O   UNL     1      -7.294   1.912  71.889  1.00  0.00    -0.037 OA 
HETATM   16  C   UNL     1      -9.712   6.066  70.967  1.00  0.00    -0.177 A  
HETATM   17  I   UNL     1     -11.543   7.155  71.376  1.00  0.00    -0.392 I  
BRANCH  12  18
HETATM   18  N   UNL     1     -10.534   5.594  68.680  1.00  0.00    -0.211 N  
HETATM   19  C   UNL     1     -10.397   6.563  67.721  1.00  0.00    -0.192 C  
HETATM   20  H   UNL     1     -11.359   4.999  68.598  1.00  0.00     0.000 HD 
HETATM   21  C   UNL     1      -9.320   7.614  67.805  1.00  0.00    -0.153 C  
HETATM   22  O   UNL     1     -11.148   6.520  66.745  1.00  0.00    -0.362 OA 
ENDBRANCH  12  18
ENDBRANCH   2   6
TORSDOF 2
ENDMDL
MODEL      104
REMARK 921   NORMALIZED FREE ENERGY PREDICTED BY IDOCK:   -2.93 KCAL/MOL
REMARK 922        TOTAL FREE ENERGY PREDICTED BY IDOCK:   -3.76 KCAL/MOL
REMARK 923 INTER-LIGAND FREE ENERGY PREDICTED BY IDOCK:   -3.90 KCAL/MOL
REMARK 924 INTRA-LIGAND FREE ENERGY PREDICTED BY IDOCK:    0.14 KCAL/MOL
REMARK 927      BINDING AFFINITY PREDICTED BY RF-SCORE:    0.00 PKD
ROOT
HETATM    1  C   UNL     1      -7.984   8.903  70.502  1.00  0.00    -0.126 C  
HETATM    2  N   UNL     1      -7.399   9.370  69.241  1.00  0.00    -0.069 N  
HETATM    3  C   UNL     1      -6.408   8.579  68.661  1.00  0.00    -0.053 C  
HETATM    4  C   UNL     1      -5.785   8.984  67.341  1.00  0.00    -0.042 C  
HETATM    5  O   UNL     1      -6.031   7.518  69.175  1.00  0.00    -0.031 OA 
ENDROOT
BRANCH   2   6
HETATM    6  C   UNL     1      -7.828  10.660  68.773  1.00  0.00    -0.125 A  
HETATM    7  C   UNL     1      -6.994  11.801  68.866  1.00  0.00    -0.109 A  
HETATM    8  C   UNL     1      -7.354  13.030  68.249  1.00  0.00    -0.116 A  
HETATM    9  I   UNL     1      -5.311  11.777  70.228  1.00  0.00    -0.152 I  
HETATM   10  C   UNL     1      -6.286  14.026  67.992  1.00  0.00    -0.142 C  
HETATM   11  C   UNL     1      -8.660  13.181  67.742  1.00  0.00    -0.188 A  
HETATM   12  C   UNL     1      -9.584  12.117  67.822  1.00  0.00    -0.195 A  
HETATM   13  I   UNL     1      -9.323  15.006  66.825  1.00  0.00    -0.323 I  
HETATM   14  O   UNL     1      -6.562  15.294  68.345  1.00  0.00    -0.101 OA 
HETATM   15  O   UNL     1      -5.208  13.696  67.513  1.00  0.00    -0.317 OA 
HETATM   16  C   UNL     1      -9.121  10.839  68.213  1.00  0.00    -0.157 A  
HETATM   17  I   UNL     1     -10.207   9.133  67.428  1.00  0.00    -0.329 I  
BRANCH  12  18
HETATM   18  N   UNL     1     -10.906  12.332  67.369  1.00  0.00    -0.232 N  
HETATM   19  C   UNL     1     -11.402  12.196  66.098  1.00  0.00    -0.361 C  
HETATM   20  H   UNL     1     -11.578  12.626  68.078  1.00  0.00     0.000 HD 
HETATM   21  C   UNL     1     -10.500  11.925  64.921  1.00  0.00    -0.331 C  
HETATM   22  O   UNL     1     -12.624  12.242  65.945  1.00  0.00    -0.398 OA 
ENDBRANCH  12  18
ENDBRANCH   2   6
TORSDOF 2
ENDMDL
MODEL      105
REMARK 921   NORMALIZED FREE ENERGY PREDICTED BY IDOCK:   -2.91 KCAL/MOL
REMARK 922        TOTAL FREE ENERGY PREDICTED BY IDOCK:   -3.75 KCAL/MOL
REMARK 923 INTER-LIGAND FREE ENERGY PREDICTED BY IDOCK:   -3.34 KCAL/MOL
REMARK 924 INTRA-LIGAND FREE ENERGY PREDICTED BY IDOCK:   -0.41 KCAL/MOL
REMARK 927      BINDING AFFINITY PREDICTED BY RF-SCORE:    0.00 PKD
ROOT
HETATM    1  C   UNL     1      -6.832  19.028  65.408  1.00  0.00    -0.183 C  
HETATM    2  N   UNL     1      -7.530  18.599  66.625  1.00  0.00    -0.225 N  
HETATM    3  C   UNL     1      -7.506  19.465  67.718  1.00  0.00    -0.261 C  
HETATM    4  C   UNL     1      -8.236  19.101  68.994  1.00  0.00    -0.256 C  
HETATM    5  O   UNL     1      -6.930  20.560  67.675  1.00  0.00    -0.286 OA 
ENDROOT
BRANCH   2   6
HETATM    6  C   UNL     1      -8.084  17.273  66.614  1.00  0.00    -0.265 A  
HETATM    7  C   UNL     1      -9.393  17.016  66.137  1.00  0.00    -0.214 A  
HETATM    8  C   UNL     1      -9.870  15.688  65.970  1.00  0.00    -0.362 A  
HETATM    9  I   UNL     1     -10.799  18.654  65.963  1.00  0.00     0.585 I  
HETATM   10  C   UNL     1     -11.031  15.466  65.073  1.00  0.00    -0.436 C  
HETATM   11  C   UNL     1      -9.121  14.623  66.506  1.00  0.00    -0.237 A  
HETATM   12  C   UNL     1      -7.902  14.872  67.173  1.00  0.00    -0.170 A  
HETATM   13  I   UNL     1      -9.766  12.580  66.345  1.00  0.00    -0.222 I  
HETATM   14  O   UNL     1     -12.005  14.672  65.552  1.00  0.00    -0.334 OA 
HETATM   15  O   UNL     1     -11.100  16.004  63.975  1.00  0.00    -0.444 OA 
HETATM   16  C   UNL     1      -7.339  16.167  67.103  1.00  0.00    -0.215 A  
HETATM   17  I   UNL     1      -5.178  16.293  67.239  1.00  0.00     0.172 I  
BRANCH  12  18
HETATM   18  N   UNL     1      -7.216  13.784  67.761  1.00  0.00    -0.147 N  
HETATM   19  C   UNL     1      -7.000  13.533  69.091  1.00  0.00    -0.055 C  
HETATM   20  H   UNL     1      -6.832  13.097  67.111  1.00  0.00     0.000 HD 
HETATM   21  C   UNL     1      -7.366  14.536  70.156  1.00  0.00     0.319 C  
HETATM   22  O   UNL     1      -6.547  12.432  69.406  1.00  0.00    -0.108 OA 
ENDBRANCH  12  18
ENDBRANCH   2   6
TORSDOF 2
ENDMDL
MODEL      106
REMARK 921   NORMALIZED FREE ENERGY PREDICTED BY IDOCK:   -2.91 KCAL/MOL
REMARK 922        TOTAL FREE ENERGY PREDICTED BY IDOCK:   -3.74 KCAL/MOL
REMARK 923 INTER-LIGAND FREE ENERGY PREDICTED BY IDOCK:   -3.80 KCAL/MOL
REMARK 924 INTRA-LIGAND FREE ENERGY PREDICTED BY IDOCK:    0.06 KCAL/MOL
REMARK 927      BINDING AFFINITY PREDICTED BY RF-SCORE:    0.00 PKD
ROOT
HETATM    1  C   UNL     1      -7.146  11.644  69.360  1.00  0.00    -0.007 C  
HETATM    2  N   UNL     1      -7.943  10.502  68.903  1.00  0.00    -0.119 N  
HETATM    3  C   UNL     1      -8.225   9.502  69.833  1.00  0.00    -0.161 C  
HETATM    4  C   UNL     1      -9.073   8.310  69.439  1.00  0.00    -0.154 C  
HETATM    5  O   UNL     1      -7.831   9.566  71.005  1.00  0.00    -0.316 OA 
ENDROOT
BRANCH   2   6
HETATM    6  C   UNL     1      -8.271  10.465  67.504  1.00  0.00    -0.114 A  
HETATM    7  C   UNL     1      -9.382  11.171  66.980  1.00  0.00    -0.170 A  
HETATM    8  C   UNL     1      -9.599  11.269  65.579  1.00  0.00    -0.259 A  
HETATM    9  I   UNL     1     -10.946  11.836  68.323  1.00  0.00    -0.371 I  
HETATM   10  C   UNL     1     -10.478  12.355  65.079  1.00  0.00    -0.294 C  
HETATM   11  C   UNL     1      -8.837  10.461  64.713  1.00  0.00    -0.193 A  
HETATM   12  C   UNL     1      -7.856   9.589  65.229  1.00  0.00    -0.111 A  
HETATM   13  I   UNL     1      -9.109  10.501  62.582  1.00  0.00    -0.381 I  
HETATM   14  O   UNL     1     -11.402  11.996  64.170  1.00  0.00    -0.337 OA 
HETATM   15  O   UNL     1     -10.378  13.500  65.499  1.00  0.00    -0.285 OA 
HETATM   16  C   UNL     1      -7.496   9.698  66.593  1.00  0.00    -0.094 A  
HETATM   17  I   UNL     1      -5.468   9.129  67.110  1.00  0.00    -0.041 I  
BRANCH  12  18
HETATM   18  N   UNL     1      -7.162   8.741  64.335  1.00  0.00    -0.092 N  
HETATM   19  C   UNL     1      -6.045   9.021  63.591  1.00  0.00    -0.087 C  
HETATM   20  H   UNL     1      -7.543   7.800  64.229  1.00  0.00     0.000 HD 
HETATM   21  C   UNL     1      -5.469  10.411  63.520  1.00  0.00    -0.155 C  
HETATM   22  O   UNL     1      -5.482   8.086  63.019  1.00  0.00    -0.057 OA 
ENDBRANCH  12  18
ENDBRANCH   2   6
TORSDOF 2
ENDMDL
MODEL      107
REMARK 921   NORMALIZED FREE ENERGY PREDICTED BY IDOCK:   -2.90 KCAL/MOL
REMARK 922        TOTAL FREE ENERGY PREDICTED BY IDOCK:   -3.74 KCAL/MOL
REMARK 923 INTER-LIGAND FREE ENERGY PREDICTED BY IDOCK:   -3.16 KCAL/MOL
REMARK 924 INTRA-LIGAND FREE ENERGY PREDICTED BY IDOCK:   -0.57 KCAL/MOL
REMARK 927      BINDING AFFINITY PREDICTED BY RF-SCORE:    0.00 PKD
ROOT
HETATM    1  C   UNL     1     -10.327   4.769  71.782  1.00  0.00    -0.160 C  
HETATM    2  N   UNL     1      -8.972   5.027  71.286  1.00  0.00    -0.136 N  
HETATM    3  C   UNL     1      -7.937   4.257  71.815  1.00  0.00    -0.087 C  
HETATM    4  C   UNL     1      -6.517   4.446  71.323  1.00  0.00    -0.019 C  
HETATM    5  O   UNL     1      -8.139   3.380  72.665  1.00  0.00    -0.073 OA 
ENDROOT
BRANCH   2   6
HETATM    6  C   UNL     1      -8.820   6.128  70.374  1.00  0.00    -0.149 A  
HETATM    7  C   UNL     1      -9.041   5.980  68.983  1.00  0.00    -0.122 A  
HETATM    8  C   UNL     1      -9.057   7.105  68.115  1.00  0.00    -0.133 A  
HETATM    9  I   UNL     1      -9.036   3.997  68.113  1.00  0.00    -0.223 I  
HETATM   10  C   UNL     1      -9.718   6.964  66.794  1.00  0.00    -0.177 C  
HETATM   11  C   UNL     1      -8.614   8.350  68.604  1.00  0.00    -0.132 A  
HETATM   12  C   UNL     1      -8.190   8.480  69.944  1.00  0.00    -0.121 A  
HETATM   13  I   UNL     1      -8.559  10.106  67.370  1.00  0.00    -0.125 I  
HETATM   14  O   UNL     1      -9.034   7.437  65.737  1.00  0.00    -0.127 OA 
HETATM   15  O   UNL     1     -10.809   6.421  66.683  1.00  0.00    -0.285 OA 
HETATM   16  C   UNL     1      -8.421   7.409  70.839  1.00  0.00    -0.123 A  
HETATM   17  I   UNL     1      -8.683   7.933  72.929  1.00  0.00    -0.316 I  
BRANCH  12  18
HETATM   18  N   UNL     1      -7.684   9.727  70.377  1.00  0.00    -0.167 N  
HETATM   19  C   UNL     1      -6.376  10.112  70.520  1.00  0.00    -0.117 C  
HETATM   20  H   UNL     1      -8.383  10.431  70.615  1.00  0.00     0.000 HD 
HETATM   21  C   UNL     1      -5.241   9.133  70.362  1.00  0.00    -0.027 C  
HETATM   22  O   UNL     1      -6.143  11.304  70.726  1.00  0.00    -0.344 OA 
ENDBRANCH  12  18
ENDBRANCH   2   6
TORSDOF 2
ENDMDL
MODEL      108
REMARK 921   NORMALIZED FREE ENERGY PREDICTED BY IDOCK:   -2.89 KCAL/MOL
REMARK 922        TOTAL FREE ENERGY PREDICTED BY IDOCK:   -3.72 KCAL/MOL
REMARK 923 INTER-LIGAND FREE ENERGY PREDICTED BY IDOCK:   -3.76 KCAL/MOL
REMARK 924 INTRA-LIGAND FREE ENERGY PREDICTED BY IDOCK:    0.04 KCAL/MOL
REMARK 927      BINDING AFFINITY PREDICTED BY RF-SCORE:    0.00 PKD
ROOT
HETATM    1  C   UNL     1      -8.960   8.498  72.011  1.00  0.00    -0.231 C  
HETATM    2  N   UNL     1      -9.992   7.594  71.493  1.00  0.00    -0.173 N  
HETATM    3  C   UNL     1     -11.316   7.866  71.838  1.00  0.00    -0.276 C  
HETATM    4  C   UNL     1     -12.436   6.994  71.309  1.00  0.00    -0.430 C  
HETATM    5  O   UNL     1     -11.624   8.833  72.546  1.00  0.00    -0.317 OA 
ENDROOT
BRANCH   2   6
HETATM    6  C   UNL     1      -9.532   6.444  70.763  1.00  0.00    -0.169 A  
HETATM    7  C   UNL     1      -9.340   5.190  71.393  1.00  0.00    -0.148 A  
HETATM    8  C   UNL     1      -9.052   4.022  70.636  1.00  0.00    -0.179 A  
HETATM    9  I   UNL     1      -9.162   5.101  73.549  1.00  0.00    -0.136 I  
HETATM   10  C   UNL     1      -9.300   2.701  71.263  1.00  0.00    -0.137 C  
HETATM   11  C   UNL     1      -8.722   4.156  69.274  1.00  0.00    -0.085 A  
HETATM   12  C   UNL     1      -8.706   5.430  68.666  1.00  0.00    -0.097 A  
HETATM   13  I   UNL     1      -8.232   2.463  68.046  1.00  0.00    -0.096 I  
HETATM   14  O   UNL     1      -8.316   1.792  71.138  1.00  0.00    -0.049 OA 
HETATM   15  O   UNL     1     -10.332   2.472  71.882  1.00  0.00    -0.085 OA 
HETATM   16  C   UNL     1      -9.235   6.532  69.377  1.00  0.00    -0.144 A  
HETATM   17  I   UNL     1     -10.078   8.139  68.188  1.00  0.00    -0.249 I  
BRANCH  12  18
HETATM   18  N   UNL     1      -8.299   5.532  67.315  1.00  0.00    -0.104 N  
HETATM   19  C   UNL     1      -9.064   5.409  66.185  1.00  0.00    -0.151 C  
HETATM   20  H   UNL     1      -7.308   5.720  67.163  1.00  0.00     0.000 HD 
HETATM   21  C   UNL     1     -10.506   4.974  66.248  1.00  0.00    -0.352 C  
HETATM   22  O   UNL     1      -8.558   5.723  65.106  1.00  0.00    -0.149 OA 
ENDBRANCH  12  18
ENDBRANCH   2   6
TORSDOF 2
ENDMDL
MODEL      109
REMARK 921   NORMALIZED FREE ENERGY PREDICTED BY IDOCK:   -2.87 KCAL/MOL
REMARK 922        TOTAL FREE ENERGY PREDICTED BY IDOCK:   -3.70 KCAL/MOL
REMARK 923 INTER-LIGAND FREE ENERGY PREDICTED BY IDOCK:   -3.75 KCAL/MOL
REMARK 924 INTRA-LIGAND FREE ENERGY PREDICTED BY IDOCK:    0.05 KCAL/MOL
REMARK 927      BINDING AFFINITY PREDICTED BY RF-SCORE:    0.00 PKD
ROOT
HETATM    1  C   UNL     1      -9.117   8.017  72.385  1.00  0.00    -0.192 C  
HETATM    2  N   UNL     1     -10.271   7.586  71.591  1.00  0.00    -0.185 N  
HETATM    3  C   UNL     1     -11.503   7.501  72.241  1.00  0.00    -0.303 C  
HETATM    4  C   UNL     1     -12.744   7.095  71.474  1.00  0.00    -0.433 C  
HETATM    5  O   UNL     1     -11.633   7.783  73.439  1.00  0.00    -0.165 OA 
ENDROOT
BRANCH   2   6
HETATM    6  C   UNL     1     -10.006   7.185  70.236  1.00  0.00    -0.187 A  
HETATM    7  C   UNL     1      -9.917   8.128  69.184  1.00  0.00    -0.192 A  
HETATM    8  C   UNL     1      -9.488   7.745  67.885  1.00  0.00    -0.158 A  
HETATM    9  I   UNL     1     -10.748  10.109  69.461  1.00  0.00    -0.353 I  
HETATM   10  C   UNL     1      -8.990   8.802  66.970  1.00  0.00    -0.131 C  
HETATM   11  C   UNL     1      -9.376   6.374  67.580  1.00  0.00    -0.118 A  
HETATM   12  C   UNL     1      -9.661   5.400  68.561  1.00  0.00    -0.129 A  
HETATM   13  I   UNL     1      -8.773   5.683  65.638  1.00  0.00    -0.076 I  
HETATM   14  O   UNL     1      -9.469   8.769  65.713  1.00  0.00    -0.229 OA 
HETATM   15  O   UNL     1      -8.212   9.665  67.355  1.00  0.00    -0.113 OA 
HETATM   16  C   UNL     1      -9.841   5.814  69.901  1.00  0.00    -0.179 A  
HETATM   17  I   UNL     1      -9.310   4.379  71.439  1.00  0.00    -0.246 I  
BRANCH  12  18
HETATM   18  N   UNL     1      -9.608   4.035  68.196  1.00  0.00    -0.154 N  
HETATM   19  C   UNL     1      -8.524   3.196  68.195  1.00  0.00    -0.086 C  
HETATM   20  H   UNL     1     -10.490   3.621  67.894  1.00  0.00     0.000 HD 
HETATM   21  C   UNL     1      -7.129   3.703  68.460  1.00  0.00    -0.051 C  
HETATM   22  O   UNL     1      -8.724   1.992  68.028  1.00  0.00    -0.074 OA 
ENDBRANCH  12  18
ENDBRANCH   2   6
TORSDOF 2
ENDMDL
MODEL      110
REMARK 921   NORMALIZED FREE ENERGY PREDICTED BY IDOCK:   -2.87 KCAL/MOL
REMARK 922        TOTAL FREE ENERGY PREDICTED BY IDOCK:   -3.70 KCAL/MOL
REMARK 923 INTER-LIGAND FREE ENERGY PREDICTED BY IDOCK:   -3.17 KCAL/MOL
REMARK 924 INTRA-LIGAND FREE ENERGY PREDICTED BY IDOCK:   -0.53 KCAL/MOL
REMARK 927      BINDING AFFINITY PREDICTED BY RF-SCORE:    0.00 PKD
ROOT
HETATM    1  C   UNL     1      -7.959   6.686  63.960  1.00  0.00    -0.084 C  
HETATM    2  N   UNL     1      -7.681   6.540  65.393  1.00  0.00    -0.093 N  
HETATM    3  C   UNL     1      -6.820   5.512  65.779  1.00  0.00    -0.057 C  
HETATM    4  C   UNL     1      -6.463   5.326  67.239  1.00  0.00    -0.052 C  
HETATM    5  O   UNL     1      -6.298   4.750  64.955  1.00  0.00    -0.033 OA 
ENDROOT
BRANCH   2   6
HETATM    6  C   UNL     1      -8.409   7.406  66.280  1.00  0.00    -0.132 A  
HETATM    7  C   UNL     1      -8.040   8.760  66.469  1.00  0.00    -0.103 A  
HETATM    8  C   UNL     1      -8.861   9.651  67.210  1.00  0.00    -0.139 A  
HETATM    9  I   UNL     1      -6.054   9.408  65.899  1.00  0.00    -0.060 I  
HETATM   10  C   UNL     1      -8.678  11.109  67.007  1.00  0.00    -0.148 C  
HETATM   11  C   UNL     1      -9.930   9.127  67.963  1.00  0.00    -0.178 A  
HETATM   12  C   UNL     1     -10.196   7.741  67.955  1.00  0.00    -0.201 A  
HETATM   13  I   UNL     1     -11.211  10.377  69.150  1.00  0.00    -0.258 I  
HETATM   14  O   UNL     1      -8.610  11.858  68.122  1.00  0.00    -0.152 OA 
HETATM   15  O   UNL     1      -8.566  11.588  65.885  1.00  0.00    -0.116 OA 
HETATM   16  C   UNL     1      -9.521   6.923  67.019  1.00  0.00    -0.151 A  
HETATM   17  I   UNL     1     -10.566   5.138  66.362  1.00  0.00     0.111 I  
BRANCH  12  18
HETATM   18  N   UNL     1     -11.232   7.244  68.780  1.00  0.00    -0.447 N  
HETATM   19  C   UNL     1     -11.123   6.585  69.977  1.00  0.00    -0.363 C  
HETATM   20  H   UNL     1     -12.181   7.395  68.440  1.00  0.00     0.000 HD 
HETATM   21  C   UNL     1      -9.788   6.149  70.523  1.00  0.00    -0.214 C  
HETATM   22  O   UNL     1     -12.150   6.405  70.633  1.00  0.00    -0.299 OA 
ENDBRANCH  12  18
ENDBRANCH   2   6
TORSDOF 2
ENDMDL
MODEL      111
REMARK 921   NORMALIZED FREE ENERGY PREDICTED BY IDOCK:   -2.84 KCAL/MOL
REMARK 922        TOTAL FREE ENERGY PREDICTED BY IDOCK:   -3.67 KCAL/MOL
REMARK 923 INTER-LIGAND FREE ENERGY PREDICTED BY IDOCK:   -3.20 KCAL/MOL
REMARK 924 INTRA-LIGAND FREE ENERGY PREDICTED BY IDOCK:   -0.47 KCAL/MOL
REMARK 927      BINDING AFFINITY PREDICTED BY RF-SCORE:    0.00 PKD
ROOT
HETATM    1  C   UNL     1      -7.971   9.971  69.927  1.00  0.00    -0.171 C  
HETATM    2  N   UNL     1      -8.908   8.952  69.442  1.00  0.00    -0.141 N  
HETATM    3  C   UNL     1      -9.883   8.500  70.331  1.00  0.00    -0.179 C  
HETATM    4  C   UNL     1     -10.904   7.474  69.885  1.00  0.00    -0.250 C  
HETATM    5  O   UNL     1      -9.971   8.938  71.485  1.00  0.00    -0.267 OA 
ENDROOT
BRANCH   2   6
HETATM    6  C   UNL     1      -8.667   8.434  68.123  1.00  0.00    -0.143 A  
HETATM    7  C   UNL     1      -8.976   9.181  66.960  1.00  0.00    -0.123 A  
HETATM    8  C   UNL     1      -8.579   8.736  65.670  1.00  0.00    -0.195 A  
HETATM    9  I   UNL     1     -10.344  10.853  67.106  1.00  0.00    -0.309 I  
HETATM   10  C   UNL     1      -8.523   9.730  64.571  1.00  0.00    -0.176 C  
HETATM   11  C   UNL     1      -8.082   7.425  65.524  1.00  0.00    -0.131 A  
HETATM   12  C   UNL     1      -7.956   6.581  66.648  1.00  0.00    -0.109 A  
HETATM   13  I   UNL     1      -7.489   6.636  63.617  1.00  0.00    -0.091 I  
HETATM   14  O   UNL     1      -9.089   9.359  63.408  1.00  0.00    -0.198 OA 
HETATM   15  O   UNL     1      -8.013  10.831  64.733  1.00  0.00    -0.031 OA 
HETATM   16  C   UNL     1      -8.122   7.135  67.939  1.00  0.00    -0.119 A  
HETATM   17  I   UNL     1      -7.028   6.181  69.551  1.00  0.00    -0.072 I  
BRANCH  12  18
HETATM   18  N   UNL     1      -7.522   5.250  66.451  1.00  0.00    -0.086 N  
HETATM   19  C   UNL     1      -8.284   4.121  66.297  1.00  0.00    -0.105 C  
HETATM   20  H   UNL     1      -6.511   5.112  66.419  1.00  0.00     0.000 HD 
HETATM   21  C   UNL     1      -9.780   4.144  66.481  1.00  0.00    -0.228 C  
HETATM   22  O   UNL     1      -7.719   3.085  65.943  1.00  0.00    -0.076 OA 
ENDBRANCH  12  18
ENDBRANCH   2   6
TORSDOF 2
ENDMDL
MODEL      112
REMARK 921   NORMALIZED FREE ENERGY PREDICTED BY IDOCK:   -2.84 KCAL/MOL
REMARK 922        TOTAL FREE ENERGY PREDICTED BY IDOCK:   -3.66 KCAL/MOL
REMARK 923 INTER-LIGAND FREE ENERGY PREDICTED BY IDOCK:   -3.24 KCAL/MOL
REMARK 924 INTRA-LIGAND FREE ENERGY PREDICTED BY IDOCK:   -0.42 KCAL/MOL
REMARK 927      BINDING AFFINITY PREDICTED BY RF-SCORE:    0.00 PKD
ROOT
HETATM    1  C   UNL     1      -6.915   5.845  65.884  1.00  0.00    -0.062 C  
HETATM    2  N   UNL     1      -8.307   5.740  66.332  1.00  0.00    -0.111 N  
HETATM    3  C   UNL     1      -9.212   5.113  65.475  1.00  0.00    -0.136 C  
HETATM    4  C   UNL     1     -10.658   4.939  65.890  1.00  0.00    -0.280 C  
HETATM    5  O   UNL     1      -8.867   4.652  64.380  1.00  0.00    -0.148 OA 
ENDROOT
BRANCH   2   6
HETATM    6  C   UNL     1      -8.634   6.390  67.571  1.00  0.00    -0.115 A  
HETATM    7  C   UNL     1      -9.063   7.739  67.614  1.00  0.00    -0.133 A  
HETATM    8  C   UNL     1      -9.548   8.321  68.817  1.00  0.00    -0.150 A  
HETATM    9  I   UNL     1      -8.681   9.029  65.917  1.00  0.00    -0.248 I  
HETATM   10  C   UNL     1     -10.380   9.545  68.720  1.00  0.00    -0.208 C  
HETATM   11  C   UNL     1      -9.378   7.623  70.029  1.00  0.00    -0.154 A  
HETATM   12  C   UNL     1      -8.762   6.353  70.040  1.00  0.00    -0.142 A  
HETATM   13  I   UNL     1     -10.036   8.425  71.909  1.00  0.00    -0.399 I  
HETATM   14  O   UNL     1     -10.062  10.546  69.560  1.00  0.00    -0.222 OA 
HETATM   15  O   UNL     1     -11.283   9.638  67.898  1.00  0.00    -0.143 OA 
HETATM   16  C   UNL     1      -8.520   5.701  68.808  1.00  0.00    -0.102 A  
HETATM   17  I   UNL     1      -8.519   3.532  68.844  1.00  0.00    -0.145 I  
BRANCH  12  18
HETATM   18  N   UNL     1      -8.544   5.716  71.284  1.00  0.00    -0.127 N  
HETATM   19  C   UNL     1      -7.361   5.539  71.953  1.00  0.00    -0.092 C  
HETATM   20  H   UNL     1      -9.374   5.340  71.742  1.00  0.00     0.000 HD 
HETATM   21  C   UNL     1      -6.036   5.896  71.328  1.00  0.00    -0.034 C  
HETATM   22  O   UNL     1      -7.408   5.129  73.114  1.00  0.00    -0.087 OA 
ENDBRANCH  12  18
ENDBRANCH   2   6
TORSDOF 2
ENDMDL
MODEL      113
REMARK 921   NORMALIZED FREE ENERGY PREDICTED BY IDOCK:   -2.82 KCAL/MOL
REMARK 922        TOTAL FREE ENERGY PREDICTED BY IDOCK:   -3.64 KCAL/MOL
REMARK 923 INTER-LIGAND FREE ENERGY PREDICTED BY IDOCK:   -3.09 KCAL/MOL
REMARK 924 INTRA-LIGAND FREE ENERGY PREDICTED BY IDOCK:   -0.56 KCAL/MOL
REMARK 927      BINDING AFFINITY PREDICTED BY RF-SCORE:    0.00 PKD
ROOT
HETATM    1  C   UNL     1      -9.489   6.473  73.741  1.00  0.00    -0.161 C  
HETATM    2  N   UNL     1      -8.601   7.060  72.733  1.00  0.00    -0.115 N  
HETATM    3  C   UNL     1      -7.745   8.081  73.148  1.00  0.00    -0.150 C  
HETATM    4  C   UNL     1      -6.776   8.708  72.168  1.00  0.00    -0.072 C  
HETATM    5  O   UNL     1      -7.720   8.481  74.319  1.00  0.00    -0.333 OA 
ENDROOT
BRANCH   2   6
HETATM    6  C   UNL     1      -8.770   6.602  71.382  1.00  0.00    -0.129 A  
HETATM    7  C   UNL     1      -9.597   7.288  70.460  1.00  0.00    -0.168 A  
HETATM    8  C   UNL     1      -9.625   6.930  69.085  1.00  0.00    -0.144 A  
HETATM    9  I   UNL     1     -11.077   8.686  71.199  1.00  0.00    -0.405 I  
HETATM   10  C   UNL     1     -10.136   7.925  68.110  1.00  0.00    -0.191 C  
HETATM   11  C   UNL     1      -9.005   5.732  68.680  1.00  0.00    -0.112 A  
HETATM   12  C   UNL     1      -8.343   4.917  69.623  1.00  0.00    -0.083 A  
HETATM   13  I   UNL     1      -9.019   5.075  66.635  1.00  0.00    -0.128 I  
HETATM   14  O   UNL     1     -11.014   7.466  67.201  1.00  0.00    -0.312 OA 
HETATM   15  O   UNL     1      -9.792   9.100  68.159  1.00  0.00    -0.154 OA 
HETATM   16  C   UNL     1      -8.121   5.423  70.925  1.00  0.00    -0.112 A  
HETATM   17  I   UNL     1      -6.377   4.672  71.973  1.00  0.00    -0.024 I  
BRANCH  12  18
HETATM   18  N   UNL     1      -7.796   3.687  69.191  1.00  0.00    -0.052 N  
HETATM   19  C   UNL     1      -8.292   2.423  69.378  1.00  0.00    -0.049 C  
HETATM   20  H   UNL     1      -6.919   3.748  68.673  1.00  0.00     0.000 HD 
HETATM   21  C   UNL     1      -9.488   2.164  70.258  1.00  0.00    -0.146 C  
HETATM   22  O   UNL     1      -7.766   1.497  68.757  1.00  0.00    -0.046 OA 
ENDBRANCH  12  18
ENDBRANCH   2   6
TORSDOF 2
ENDMDL
MODEL      114
REMARK 921   NORMALIZED FREE ENERGY PREDICTED BY IDOCK:   -2.80 KCAL/MOL
REMARK 922        TOTAL FREE ENERGY PREDICTED BY IDOCK:   -3.62 KCAL/MOL
REMARK 923 INTER-LIGAND FREE ENERGY PREDICTED BY IDOCK:   -3.70 KCAL/MOL
REMARK 924 INTRA-LIGAND FREE ENERGY PREDICTED BY IDOCK:    0.07 KCAL/MOL
REMARK 927      BINDING AFFINITY PREDICTED BY RF-SCORE:    0.00 PKD
ROOT
HETATM    1  C   UNL     1      -7.966   7.274  67.887  1.00  0.00    -0.119 C  
HETATM    2  N   UNL     1      -7.515   8.628  68.226  1.00  0.00    -0.094 N  
HETATM    3  C   UNL     1      -6.322   8.747  68.939  1.00  0.00    -0.045 C  
HETATM    4  C   UNL     1      -5.780  10.116  69.293  1.00  0.00    -0.037 C  
HETATM    5  O   UNL     1      -5.655   7.759  69.272  1.00  0.00    -0.025 OA 
ENDROOT
BRANCH   2   6
HETATM    6  C   UNL     1      -8.403   9.705  67.886  1.00  0.00    -0.117 A  
HETATM    7  C   UNL     1      -8.477  10.222  66.569  1.00  0.00    -0.125 A  
HETATM    8  C   UNL     1      -9.474  11.166  66.203  1.00  0.00    -0.229 A  
HETATM    9  I   UNL     1      -6.866   9.821  65.179  1.00  0.00    -0.125 I  
HETATM   10  C   UNL     1      -9.791  11.329  64.763  1.00  0.00    -0.266 C  
HETATM   11  C   UNL     1     -10.246  11.770  67.215  1.00  0.00    -0.203 A  
HETATM   12  C   UNL     1     -10.048  11.421  68.567  1.00  0.00    -0.206 A  
HETATM   13  I   UNL     1     -11.753  13.237  66.777  1.00  0.00    -0.442 I  
HETATM   14  O   UNL     1      -9.872  12.595  64.314  1.00  0.00    -0.201 OA 
HETATM   15  O   UNL     1      -9.939  10.360  64.028  1.00  0.00    -0.323 OA 
HETATM   16  C   UNL     1      -9.230  10.307  68.871  1.00  0.00    -0.175 A  
HETATM   17  I   UNL     1      -9.694   9.233  70.698  1.00  0.00    -0.274 I  
BRANCH  12  18
HETATM   18  N   UNL     1     -10.791  12.102  69.560  1.00  0.00    -0.449 N  
HETATM   19  C   UNL     1     -12.029  11.791  70.058  1.00  0.00    -0.344 C  
HETATM   20  H   UNL     1     -10.348  12.931  69.955  1.00  0.00     0.000 HD 
HETATM   21  C   UNL     1     -12.871  10.693  69.460  1.00  0.00     0.469 C  
HETATM   22  O   UNL     1     -12.420  12.398  71.056  1.00  0.00    -0.368 OA 
ENDBRANCH  12  18
ENDBRANCH   2   6
TORSDOF 2
ENDMDL
MODEL      115
REMARK 921   NORMALIZED FREE ENERGY PREDICTED BY IDOCK:   -2.80 KCAL/MOL
REMARK 922        TOTAL FREE ENERGY PREDICTED BY IDOCK:   -3.62 KCAL/MOL
REMARK 923 INTER-LIGAND FREE ENERGY PREDICTED BY IDOCK:   -3.76 KCAL/MOL
REMARK 924 INTRA-LIGAND FREE ENERGY PREDICTED BY IDOCK:    0.14 KCAL/MOL
REMARK 927      BINDING AFFINITY PREDICTED BY RF-SCORE:    0.00 PKD
ROOT
HETATM    1  C   UNL     1      -8.022   8.975  68.832  1.00  0.00    -0.100 C  
HETATM    2  N   UNL     1      -9.060   7.965  68.603  1.00  0.00    -0.137 N  
HETATM    3  C   UNL     1      -9.959   8.193  67.561  1.00  0.00    -0.192 C  
HETATM    4  C   UNL     1     -11.035   7.174  67.246  1.00  0.00    -0.333 C  
HETATM    5  O   UNL     1      -9.890   9.199  66.843  1.00  0.00    -0.182 OA 
ENDROOT
BRANCH   2   6
HETATM    6  C   UNL     1      -9.122   6.882  69.546  1.00  0.00    -0.142 A  
HETATM    7  C   UNL     1      -9.914   6.959  70.718  1.00  0.00    -0.190 A  
HETATM    8  C   UNL     1     -10.106   5.826  71.554  1.00  0.00    -0.246 A  
HETATM    9  I   UNL     1     -10.580   8.895  71.424  1.00  0.00    -0.434 I  
HETATM   10  C   UNL     1     -11.262   5.826  72.482  1.00  0.00    -0.297 C  
HETATM   11  C   UNL     1      -9.311   4.682  71.344  1.00  0.00    -0.149 A  
HETATM   12  C   UNL     1      -8.360   4.655  70.301  1.00  0.00    -0.075 A  
HETATM   13  I   UNL     1      -9.489   2.929  72.572  1.00  0.00    -0.206 I  
HETATM   14  O   UNL     1     -11.006   5.445  73.747  1.00  0.00    -0.283 OA 
HETATM   15  O   UNL     1     -12.375   6.182  72.115  1.00  0.00    -0.299 OA 
HETATM   16  C   UNL     1      -8.371   5.694  69.342  1.00  0.00    -0.107 A  
HETATM   17  I   UNL     1      -7.668   5.185  67.354  1.00  0.00    -0.092 I  
BRANCH  12  18
HETATM   18  N   UNL     1      -7.532   3.517  70.168  1.00  0.00    -0.041 N  
HETATM   19  C   UNL     1      -7.786   2.355  69.487  1.00  0.00    -0.043 C  
HETATM   20  H   UNL     1      -6.629   3.567  70.641  1.00  0.00     0.000 HD 
HETATM   21  C   UNL     1      -9.135   2.072  68.879  1.00  0.00    -0.186 C  
HETATM   22  O   UNL     1      -6.857   1.560  69.331  1.00  0.00    -0.032 OA 
ENDBRANCH  12  18
ENDBRANCH   2   6
TORSDOF 2
ENDMDL
MODEL      116
REMARK 921   NORMALIZED FREE ENERGY PREDICTED BY IDOCK:   -2.78 KCAL/MOL
REMARK 922        TOTAL FREE ENERGY PREDICTED BY IDOCK:   -3.60 KCAL/MOL
REMARK 923 INTER-LIGAND FREE ENERGY PREDICTED BY IDOCK:   -4.09 KCAL/MOL
REMARK 924 INTRA-LIGAND FREE ENERGY PREDICTED BY IDOCK:    0.49 KCAL/MOL
REMARK 927      BINDING AFFINITY PREDICTED BY RF-SCORE:    0.00 PKD
ROOT
HETATM    1  C   UNL     1      -9.204  18.281  68.898  1.00  0.00    -0.165 C  
HETATM    2  N   UNL     1      -9.512  17.589  67.642  1.00  0.00    -0.253 N  
HETATM    3  C   UNL     1     -10.288  18.273  66.706  1.00  0.00    -0.384 C  
HETATM    4  C   UNL     1     -10.615  17.632  65.374  1.00  0.00     0.033 C  
HETATM    5  O   UNL     1     -10.701  19.422  66.910  1.00  0.00    -0.457 OA 
ENDROOT
BRANCH   2   6
HETATM    6  C   UNL     1      -9.075  16.224  67.536  1.00  0.00    -0.192 A  
HETATM    7  C   UNL     1      -7.702  15.886  67.457  1.00  0.00    -0.159 A  
HETATM    8  C   UNL     1      -7.271  14.533  67.525  1.00  0.00    -0.210 A  
HETATM    9  I   UNL     1      -6.264  17.408  66.903  1.00  0.00    -0.263 I  
HETATM   10  C   UNL     1      -5.857  14.264  67.883  1.00  0.00    -0.123 C  
HETATM   11  C   UNL     1      -8.231  13.506  67.432  1.00  0.00    -0.181 A  
HETATM   12  C   UNL     1      -9.601  13.820  67.303  1.00  0.00    -0.237 A  
HETATM   13  I   UNL     1      -7.687  11.429  67.485  1.00  0.00    -0.151 I  
HETATM   14  O   UNL     1      -5.212  13.367  67.116  1.00  0.00    -0.313 OA 
HETATM   15  O   UNL     1      -5.310  14.853  68.808  1.00  0.00    -0.084 OA 
HETATM   16  C   UNL     1     -10.014  15.160  67.488  1.00  0.00    -0.225 A  
HETATM   17  I   UNL     1     -12.028  15.458  68.238  1.00  0.00     0.408 I  
BRANCH  12  18
HETATM   18  N   UNL     1     -10.526  12.763  67.140  1.00  0.00    -0.232 N  
HETATM   19  C   UNL     1     -11.213  12.078  68.108  1.00  0.00    -0.260 C  
HETATM   20  H   UNL     1     -10.704  12.473  66.179  1.00  0.00     0.000 HD 
HETATM   21  C   UNL     1     -10.934  12.284  69.575  1.00  0.00    -0.007 C  
HETATM   22  O   UNL     1     -12.117  11.321  67.750  1.00  0.00    -0.631 OA 
ENDBRANCH  12  18
ENDBRANCH   2   6
TORSDOF 2
ENDMDL
MODEL      117
REMARK 921   NORMALIZED FREE ENERGY PREDICTED BY IDOCK:   -2.77 KCAL/MOL
REMARK 922        TOTAL FREE ENERGY PREDICTED BY IDOCK:   -3.59 KCAL/MOL
REMARK 923 INTER-LIGAND FREE ENERGY PREDICTED BY IDOCK:   -3.02 KCAL/MOL
REMARK 924 INTRA-LIGAND FREE ENERGY PREDICTED BY IDOCK:   -0.57 KCAL/MOL
REMARK 927      BINDING AFFINITY PREDICTED BY RF-SCORE:    0.00 PKD
ROOT
HETATM    1  C   UNL     1     -10.882   6.489  70.672  1.00  0.00    -0.266 C  
HETATM    2  N   UNL     1      -9.527   6.637  70.130  1.00  0.00    -0.158 N  
HETATM    3  C   UNL     1      -8.657   7.494  70.803  1.00  0.00    -0.135 C  
HETATM    4  C   UNL     1      -7.232   7.668  70.319  1.00  0.00    -0.067 C  
HETATM    5  O   UNL     1      -8.997   8.107  71.823  1.00  0.00    -0.134 OA 
ENDROOT
BRANCH   2   6
HETATM    6  C   UNL     1      -9.254   5.965  68.889  1.00  0.00    -0.119 A  
HETATM    7  C   UNL     1      -8.925   4.588  68.844  1.00  0.00    -0.110 A  
HETATM    8  C   UNL     1      -8.825   3.894  67.608  1.00  0.00    -0.133 A  
HETATM    9  I   UNL     1      -8.251   3.598  70.648  1.00  0.00    -0.095 I  
HETATM   10  C   UNL     1      -8.925   2.414  67.623  1.00  0.00    -0.154 C  
HETATM   11  C   UNL     1      -8.820   4.634  66.409  1.00  0.00    -0.112 A  
HETATM   12  C   UNL     1      -8.942   6.040  66.438  1.00  0.00    -0.145 A  
HETATM   13  I   UNL     1      -8.636   3.692  64.488  1.00  0.00    -0.105 I  
HETATM   14  O   UNL     1      -8.001   1.751  66.906  1.00  0.00    -0.065 OA 
HETATM   15  O   UNL     1      -9.786   1.840  68.278  1.00  0.00    -0.177 OA 
HETATM   16  C   UNL     1      -9.287   6.670  67.656  1.00  0.00    -0.119 A  
HETATM   17  I   UNL     1     -10.378   8.539  67.506  1.00  0.00    -0.258 I  
BRANCH  12  18
HETATM   18  N   UNL     1      -8.860   6.753  65.219  1.00  0.00    -0.365 N  
HETATM   19  C   UNL     1      -7.799   7.462  64.718  1.00  0.00    -0.126 C  
HETATM   20  H   UNL     1      -9.698   6.738  64.638  1.00  0.00     0.000 HD 
HETATM   21  C   UNL     1      -6.555   7.707  65.533  1.00  0.00    -0.045 C  
HETATM   22  O   UNL     1      -7.862   7.851  63.551  1.00  0.00    -0.133 OA 
ENDBRANCH  12  18
ENDBRANCH   2   6
TORSDOF 2
ENDMDL
MODEL      118
REMARK 921   NORMALIZED FREE ENERGY PREDICTED BY IDOCK:   -2.76 KCAL/MOL
REMARK 922        TOTAL FREE ENERGY PREDICTED BY IDOCK:   -3.58 KCAL/MOL
REMARK 923 INTER-LIGAND FREE ENERGY PREDICTED BY IDOCK:   -3.62 KCAL/MOL
REMARK 924 INTRA-LIGAND FREE ENERGY PREDICTED BY IDOCK:    0.04 KCAL/MOL
REMARK 927      BINDING AFFINITY PREDICTED BY RF-SCORE:    0.00 PKD
ROOT
HETATM    1  C   UNL     1      -7.398  12.398  67.137  1.00  0.00    -0.081 C  
HETATM    2  N   UNL     1      -6.957  10.999  67.144  1.00  0.00    -0.095 N  
HETATM    3  C   UNL     1      -5.797  10.688  66.436  1.00  0.00    -0.092 C  
HETATM    4  C   UNL     1      -5.265   9.270  66.429  1.00  0.00    -0.040 C  
HETATM    5  O   UNL     1      -5.149  11.549  65.826  1.00  0.00    -0.314 OA 
ENDROOT
BRANCH   2   6
HETATM    6  C   UNL     1      -7.824  10.055  67.794  1.00  0.00    -0.094 A  
HETATM    7  C   UNL     1      -8.704   9.223  67.059  1.00  0.00    -0.124 A  
HETATM    8  C   UNL     1      -9.430   8.178  67.691  1.00  0.00    -0.172 A  
HETATM    9  I   UNL     1      -9.201   9.746  65.017  1.00  0.00    -0.278 I  
HETATM   10  C   UNL     1      -9.968   7.085  66.844  1.00  0.00    -0.217 C  
HETATM   11  C   UNL     1      -9.456   8.119  69.098  1.00  0.00    -0.155 A  
HETATM   12  C   UNL     1      -8.747   9.069  69.865  1.00  0.00    -0.156 A  
HETATM   13  I   UNL     1     -10.552   6.606  70.157  1.00  0.00    -0.342 I  
HETATM   14  O   UNL     1     -11.246   6.733  67.072  1.00  0.00    -0.393 OA 
HETATM   15  O   UNL     1      -9.286   6.561  65.972  1.00  0.00    -0.115 OA 
HETATM   16  C   UNL     1      -7.842   9.936  69.209  1.00  0.00    -0.117 A  
HETATM   17  I   UNL     1      -6.151  10.634  70.376  1.00  0.00    -0.025 I  
BRANCH  12  18
HETATM   18  N   UNL     1      -8.856   9.021  71.274  1.00  0.00    -0.220 N  
HETATM   19  C   UNL     1      -8.112   8.286  72.160  1.00  0.00    -0.145 C  
HETATM   20  H   UNL     1      -9.582   9.609  71.684  1.00  0.00     0.000 HD 
HETATM   21  C   UNL     1      -7.117   7.255  71.693  1.00  0.00    -0.067 C  
HETATM   22  O   UNL     1      -8.235   8.530  73.361  1.00  0.00    -0.379 OA 
ENDBRANCH  12  18
ENDBRANCH   2   6
TORSDOF 2
ENDMDL
MODEL      119
REMARK 921   NORMALIZED FREE ENERGY PREDICTED BY IDOCK:   -2.71 KCAL/MOL
REMARK 922        TOTAL FREE ENERGY PREDICTED BY IDOCK:   -3.52 KCAL/MOL
REMARK 923 INTER-LIGAND FREE ENERGY PREDICTED BY IDOCK:   -3.07 KCAL/MOL
REMARK 924 INTRA-LIGAND FREE ENERGY PREDICTED BY IDOCK:   -0.45 KCAL/MOL
REMARK 927      BINDING AFFINITY PREDICTED BY RF-SCORE:    0.00 PKD
ROOT
HETATM    1  C   UNL     1      -8.740   9.636  69.909  1.00  0.00    -0.219 C  
HETATM    2  N   UNL     1      -9.711   8.584  70.225  1.00  0.00    -0.169 N  
HETATM    3  C   UNL     1     -10.988   8.985  70.618  1.00  0.00    -0.257 C  
HETATM    4  C   UNL     1     -12.051   7.952  70.926  1.00  0.00    -0.181 C  
HETATM    5  O   UNL     1     -11.306  10.179  70.695  1.00  0.00    -0.307 OA 
ENDROOT
BRANCH   2   6
HETATM    6  C   UNL     1      -9.224   7.232  70.204  1.00  0.00    -0.152 A  
HETATM    7  C   UNL     1      -8.967   6.513  71.397  1.00  0.00    -0.140 A  
HETATM    8  C   UNL     1      -8.652   5.128  71.371  1.00  0.00    -0.132 A  
HETATM    9  I   UNL     1      -8.735   7.596  73.259  1.00  0.00    -0.333 I  
HETATM   10  C   UNL     1      -8.833   4.343  72.616  1.00  0.00    -0.109 C  
HETATM   11  C   UNL     1      -8.360   4.519  70.135  1.00  0.00    -0.070 A  
HETATM   12  C   UNL     1      -8.408   5.269  68.941  1.00  0.00    -0.092 A  
HETATM   13  I   UNL     1      -7.833   2.442  69.983  1.00  0.00    -0.059 I  
HETATM   14  O   UNL     1      -7.817   3.529  72.955  1.00  0.00    -0.064 OA 
HETATM   15  O   UNL     1      -9.840   4.459  73.303  1.00  0.00    -0.130 OA 
HETATM   16  C   UNL     1      -8.963   6.570  68.974  1.00  0.00    -0.129 A  
HETATM   17  I   UNL     1      -9.897   7.273  67.147  1.00  0.00    -0.314 I  
BRANCH  12  18
HETATM   18  N   UNL     1      -8.037   4.641  67.729  1.00  0.00    -0.096 N  
HETATM   19  C   UNL     1      -6.892   4.815  66.996  1.00  0.00    -0.056 C  
HETATM   20  H   UNL     1      -8.709   3.972  67.352  1.00  0.00     0.000 HD 
HETATM   21  C   UNL     1      -5.886   5.883  67.341  1.00  0.00    -0.017 C  
HETATM   22  O   UNL     1      -6.672   4.032  66.071  1.00  0.00    -0.047 OA 
ENDBRANCH  12  18
ENDBRANCH   2   6
TORSDOF 2
ENDMDL
MODEL      120
REMARK 921   NORMALIZED FREE ENERGY PREDICTED BY IDOCK:   -2.71 KCAL/MOL
REMARK 922        TOTAL FREE ENERGY PREDICTED BY IDOCK:   -3.52 KCAL/MOL
REMARK 923 INTER-LIGAND FREE ENERGY PREDICTED BY IDOCK:   -2.98 KCAL/MOL
REMARK 924 INTRA-LIGAND FREE ENERGY PREDICTED BY IDOCK:   -0.54 KCAL/MOL
REMARK 927      BINDING AFFINITY PREDICTED BY RF-SCORE:    0.00 PKD
ROOT
HETATM    1  C   UNL     1     -10.839   9.937  68.959  1.00  0.00    -0.215 C  
HETATM    2  N   UNL     1      -9.469   9.441  69.123  1.00  0.00    -0.158 N  
HETATM    3  C   UNL     1      -8.435  10.375  69.054  1.00  0.00    -0.155 C  
HETATM    4  C   UNL     1      -6.998   9.938  69.250  1.00  0.00    -0.059 C  
HETATM    5  O   UNL     1      -8.651  11.580  68.870  1.00  0.00    -0.093 OA 
ENDROOT
BRANCH   2   6
HETATM    6  C   UNL     1      -9.309   8.017  69.233  1.00  0.00    -0.151 A  
HETATM    7  C   UNL     1      -9.567   7.329  70.444  1.00  0.00    -0.165 A  
HETATM    8  C   UNL     1      -9.574   5.909  70.498  1.00  0.00    -0.208 A  
HETATM    9  I   UNL     1      -9.637   8.440  72.301  1.00  0.00    -0.296 I  
HETATM   10  C   UNL     1     -10.270   5.253  71.632  1.00  0.00    -0.212 C  
HETATM   11  C   UNL     1      -9.086   5.182  69.394  1.00  0.00    -0.108 A  
HETATM   12  C   UNL     1      -8.626   5.856  68.243  1.00  0.00    -0.113 A  
HETATM   13  I   UNL     1      -9.014   3.036  69.384  1.00  0.00    -0.212 I  
HETATM   14  O   UNL     1      -9.600   4.260  72.243  1.00  0.00    -0.130 OA 
HETATM   15  O   UNL     1     -11.378   5.622  71.999  1.00  0.00    -0.250 OA 
HETATM   16  C   UNL     1      -8.864   7.246  68.126  1.00  0.00    -0.126 A  
HETATM   17  I   UNL     1      -9.062   8.029  66.112  1.00  0.00    -0.120 I  
BRANCH  12  18
HETATM   18  N   UNL     1      -8.077   5.095  67.185  1.00  0.00    -0.104 N  
HETATM   19  C   UNL     1      -6.757   4.843  66.915  1.00  0.00    -0.054 C  
HETATM   20  H   UNL     1      -8.750   4.681  66.540  1.00  0.00     0.000 HD 
HETATM   21  C   UNL     1      -5.649   5.516  67.683  1.00  0.00    -0.012 C  
HETATM   22  O   UNL     1      -6.493   3.997  66.059  1.00  0.00    -0.035 OA 
ENDBRANCH  12  18
ENDBRANCH   2   6
TORSDOF 2
ENDMDL
MODEL      121
REMARK 921   NORMALIZED FREE ENERGY PREDICTED BY IDOCK:   -2.67 KCAL/MOL
REMARK 922        TOTAL FREE ENERGY PREDICTED BY IDOCK:   -3.48 KCAL/MOL
REMARK 923 INTER-LIGAND FREE ENERGY PREDICTED BY IDOCK:   -3.10 KCAL/MOL
REMARK 924 INTRA-LIGAND FREE ENERGY PREDICTED BY IDOCK:   -0.38 KCAL/MOL
REMARK 927      BINDING AFFINITY PREDICTED BY RF-SCORE:    0.00 PKD
ROOT
HETATM    1  C   UNL     1      -9.461   2.776  67.816  1.00  0.00    -0.125 C  
HETATM    2  N   UNL     1      -8.648   3.995  67.745  1.00  0.00    -0.095 N  
HETATM    3  C   UNL     1      -7.868   4.181  66.604  1.00  0.00    -0.097 C  
HETATM    4  C   UNL     1      -7.030   5.434  66.450  1.00  0.00    -0.064 C  
HETATM    5  O   UNL     1      -7.857   3.363  65.676  1.00  0.00    -0.084 OA 
ENDROOT
BRANCH   2   6
HETATM    6  C   UNL     1      -8.648   4.836  68.911  1.00  0.00    -0.084 A  
HETATM    7  C   UNL     1      -7.681   4.689  69.936  1.00  0.00    -0.058 A  
HETATM    8  C   UNL     1      -7.583   5.630  70.996  1.00  0.00    -0.095 A  
HETATM    9  I   UNL     1      -6.552   2.847  70.073  1.00  0.00    -0.034 I  
HETATM   10  C   UNL     1      -6.316   5.690  71.766  1.00  0.00    -0.044 C  
HETATM   11  C   UNL     1      -8.606   6.584  71.159  1.00  0.00    -0.130 A  
HETATM   12  C   UNL     1      -9.697   6.620  70.264  1.00  0.00    -0.171 A  
HETATM   13  I   UNL     1      -8.578   8.027  72.749  1.00  0.00    -0.283 I  
HETATM   14  O   UNL     1      -6.438   5.723  73.105  1.00  0.00    -0.061 OA 
HETATM   15  O   UNL     1      -5.228   5.681  71.204  1.00  0.00    -0.008 OA 
HETATM   16  C   UNL     1      -9.637   5.840  69.085  1.00  0.00    -0.135 A  
HETATM   17  I   UNL     1     -10.730   6.593  67.368  1.00  0.00    -0.441 I  
BRANCH  12  18
HETATM   18  N   UNL     1     -10.740   7.544  70.502  1.00  0.00    -0.230 N  
HETATM   19  C   UNL     1     -11.825   7.408  71.329  1.00  0.00    -0.301 C  
HETATM   20  H   UNL     1     -10.677   8.427  69.993  1.00  0.00     0.000 HD 
HETATM   21  C   UNL     1     -12.136   6.104  72.018  1.00  0.00    -0.256 C  
HETATM   22  O   UNL     1     -12.517   8.404  71.544  1.00  0.00    -0.301 OA 
ENDBRANCH  12  18
ENDBRANCH   2   6
TORSDOF 2
ENDMDL
MODEL      122
REMARK 921   NORMALIZED FREE ENERGY PREDICTED BY IDOCK:   -2.67 KCAL/MOL
REMARK 922        TOTAL FREE ENERGY PREDICTED BY IDOCK:   -3.48 KCAL/MOL
REMARK 923 INTER-LIGAND FREE ENERGY PREDICTED BY IDOCK:   -2.90 KCAL/MOL
REMARK 924 INTRA-LIGAND FREE ENERGY PREDICTED BY IDOCK:   -0.57 KCAL/MOL
REMARK 927      BINDING AFFINITY PREDICTED BY RF-SCORE:    0.00 PKD
ROOT
HETATM    1  C   UNL     1      -5.510   5.848  70.793  1.00  0.00    -0.013 C  
HETATM    2  N   UNL     1      -6.370   6.682  71.638  1.00  0.00    -0.042 N  
HETATM    3  C   UNL     1      -6.185   6.602  73.019  1.00  0.00    -0.058 C  
HETATM    4  C   UNL     1      -7.015   7.462  73.950  1.00  0.00    -0.094 C  
HETATM    5  O   UNL     1      -5.327   5.867  73.524  1.00  0.00    -0.023 OA 
ENDROOT
BRANCH   2   6
HETATM    6  C   UNL     1      -7.402   7.427  70.970  1.00  0.00    -0.073 A  
HETATM    7  C   UNL     1      -7.140   8.678  70.359  1.00  0.00    -0.044 A  
HETATM    8  C   UNL     1      -8.118   9.325  69.556  1.00  0.00    -0.111 A  
HETATM    9  I   UNL     1      -5.356   9.776  70.909  1.00  0.00    -0.075 I  
HETATM   10  C   UNL     1      -7.666  10.367  68.601  1.00  0.00    -0.101 C  
HETATM   11  C   UNL     1      -9.438   8.833  69.561  1.00  0.00    -0.165 A  
HETATM   12  C   UNL     1      -9.774   7.699  70.331  1.00  0.00    -0.179 A  
HETATM   13  I   UNL     1     -11.004   9.756  68.416  1.00  0.00     0.011 I  
HETATM   14  O   UNL     1      -8.375  11.510  68.593  1.00  0.00    -0.157 OA 
HETATM   15  O   UNL     1      -6.685  10.195  67.889  1.00  0.00    -0.066 OA 
HETATM   16  C   UNL     1      -8.734   6.939  70.914  1.00  0.00    -0.141 A  
HETATM   17  I   UNL     1      -9.126   4.825  71.209  1.00  0.00    -0.216 I  
BRANCH  12  18
HETATM   18  N   UNL     1     -11.124   7.279  70.367  1.00  0.00    -0.263 N  
HETATM   19  C   UNL     1     -12.053   7.486  71.354  1.00  0.00    -0.327 C  
HETATM   20  H   UNL     1     -11.449   6.755  69.554  1.00  0.00     0.000 HD 
HETATM   21  C   UNL     1     -11.678   8.100  72.678  1.00  0.00    -0.419 C  
HETATM   22  O   UNL     1     -13.228   7.207  71.110  1.00  0.00    -0.347 OA 
ENDBRANCH  12  18
ENDBRANCH   2   6
TORSDOF 2
ENDMDL
MODEL      123
REMARK 921   NORMALIZED FREE ENERGY PREDICTED BY IDOCK:   -2.67 KCAL/MOL
REMARK 922        TOTAL FREE ENERGY PREDICTED BY IDOCK:   -3.47 KCAL/MOL
REMARK 923 INTER-LIGAND FREE ENERGY PREDICTED BY IDOCK:   -3.53 KCAL/MOL
REMARK 924 INTRA-LIGAND FREE ENERGY PREDICTED BY IDOCK:    0.05 KCAL/MOL
REMARK 927      BINDING AFFINITY PREDICTED BY RF-SCORE:    0.00 PKD
ROOT
HETATM    1  C   UNL     1      -9.257  11.199  68.882  1.00  0.00    -0.096 C  
HETATM    2  N   UNL     1      -8.477  11.715  67.753  1.00  0.00    -0.138 N  
HETATM    3  C   UNL     1      -7.192  11.203  67.573  1.00  0.00    -0.101 C  
HETATM    4  C   UNL     1      -6.343  11.665  66.407  1.00  0.00     0.095 C  
HETATM    5  O   UNL     1      -6.718  10.340  68.323  1.00  0.00    -0.057 OA 
ENDROOT
BRANCH   2   6
HETATM    6  C   UNL     1      -9.069  12.784  66.997  1.00  0.00    -0.220 A  
HETATM    7  C   UNL     1      -9.997  12.535  65.956  1.00  0.00    -0.257 A  
HETATM    8  C   UNL     1     -10.706  13.597  65.331  1.00  0.00    -0.311 A  
HETATM    9  I   UNL     1     -10.108  10.557  65.083  1.00  0.00    -0.224 I  
HETATM   10  C   UNL     1     -11.951  13.271  64.593  1.00  0.00    -0.394 C  
HETATM   11  C   UNL     1     -10.308  14.924  65.584  1.00  0.00    -0.349 A  
HETATM   12  C   UNL     1      -9.242  15.193  66.468  1.00  0.00    -0.287 A  
HETATM   13  I   UNL     1     -11.283  16.602  64.664  1.00  0.00     1.299 I  
HETATM   14  O   UNL     1     -12.078  13.824  63.374  1.00  0.00    -0.468 OA 
HETATM   15  O   UNL     1     -12.794  12.518  65.066  1.00  0.00    -0.742 OA 
HETATM   16  C   UNL     1      -8.727  14.138  67.257  1.00  0.00    -0.218 A  
HETATM   17  I   UNL     1      -7.870  14.689  69.173  1.00  0.00     0.067 I  
BRANCH  12  18
HETATM   18  N   UNL     1      -8.825  16.534  66.641  1.00  0.00    -0.232 N  
HETATM   19  C   UNL     1      -9.325  17.475  67.502  1.00  0.00    -0.246 C  
HETATM   20  H   UNL     1      -8.054  16.839  66.047  1.00  0.00     0.000 HD 
HETATM   21  C   UNL     1     -10.564  17.220  68.322  1.00  0.00    -0.383 C  
HETATM   22  O   UNL     1      -8.698  18.527  67.637  1.00  0.00    -0.264 OA 
ENDBRANCH  12  18
ENDBRANCH   2   6
TORSDOF 2
ENDMDL
MODEL      124
REMARK 921   NORMALIZED FREE ENERGY PREDICTED BY IDOCK:   -2.66 KCAL/MOL
REMARK 922        TOTAL FREE ENERGY PREDICTED BY IDOCK:   -3.46 KCAL/MOL
REMARK 923 INTER-LIGAND FREE ENERGY PREDICTED BY IDOCK:   -3.54 KCAL/MOL
REMARK 924 INTRA-LIGAND FREE ENERGY PREDICTED BY IDOCK:    0.08 KCAL/MOL
REMARK 927      BINDING AFFINITY PREDICTED BY RF-SCORE:    0.00 PKD
ROOT
HETATM    1  C   UNL     1      -7.152   6.171  70.645  1.00  0.00    -0.068 C  
HETATM    2  N   UNL     1      -7.799   6.326  69.339  1.00  0.00    -0.103 N  
HETATM    3  C   UNL     1      -7.776   5.230  68.476  1.00  0.00    -0.080 C  
HETATM    4  C   UNL     1      -8.454   5.310  67.124  1.00  0.00    -0.106 C  
HETATM    5  O   UNL     1      -7.240   4.159  68.790  1.00  0.00    -0.054 OA 
ENDROOT
BRANCH   2   6
HETATM    6  C   UNL     1      -8.306   7.634  69.024  1.00  0.00    -0.128 A  
HETATM    7  C   UNL     1      -7.486   8.630  68.439  1.00  0.00    -0.095 A  
HETATM    8  C   UNL     1      -8.034   9.856  67.975  1.00  0.00    -0.100 A  
HETATM    9  I   UNL     1      -5.333   8.427  68.542  1.00  0.00    -0.034 I  
HETATM   10  C   UNL     1      -7.251  10.649  66.996  1.00  0.00    -0.101 C  
HETATM   11  C   UNL     1      -9.362  10.181  68.314  1.00  0.00    -0.133 A  
HETATM   12  C   UNL     1     -10.143   9.288  69.078  1.00  0.00    -0.199 A  
HETATM   13  I   UNL     1     -10.277  12.024  67.698  1.00  0.00    -0.242 I  
HETATM   14  O   UNL     1      -7.145  11.966  67.250  1.00  0.00    -0.121 OA 
HETATM   15  O   UNL     1      -6.712  10.119  66.032  1.00  0.00    -0.092 OA 
HETATM   16  C   UNL     1      -9.654   7.981  69.308  1.00  0.00    -0.157 A  
HETATM   17  I   UNL     1     -11.140   6.423  69.574  1.00  0.00    -0.369 I  
BRANCH  12  18
HETATM   18  N   UNL     1     -11.446   9.682  69.459  1.00  0.00    -0.444 N  
HETATM   19  C   UNL     1     -11.964   9.800  70.723  1.00  0.00    -0.299 C  
HETATM   20  H   UNL     1     -12.084   9.906  68.695  1.00  0.00     0.000 HD 
HETATM   21  C   UNL     1     -11.195   9.350  71.939  1.00  0.00    -0.233 C  
HETATM   22  O   UNL     1     -13.063  10.343  70.849  1.00  0.00    -0.384 OA 
ENDBRANCH  12  18
ENDBRANCH   2   6
TORSDOF 2
ENDMDL
MODEL      125
REMARK 921   NORMALIZED FREE ENERGY PREDICTED BY IDOCK:   -2.65 KCAL/MOL
REMARK 922        TOTAL FREE ENERGY PREDICTED BY IDOCK:   -3.45 KCAL/MOL
REMARK 923 INTER-LIGAND FREE ENERGY PREDICTED BY IDOCK:   -2.89 KCAL/MOL
REMARK 924 INTRA-LIGAND FREE ENERGY PREDICTED BY IDOCK:   -0.56 KCAL/MOL
REMARK 927      BINDING AFFINITY PREDICTED BY RF-SCORE:    0.00 PKD
ROOT
HETATM    1  C   UNL     1      -5.812   4.969  70.754  1.00  0.00    -0.017 C  
HETATM    2  N   UNL     1      -6.936   5.808  71.181  1.00  0.00    -0.065 N  
HETATM    3  C   UNL     1      -7.360   5.690  72.505  1.00  0.00    -0.095 C  
HETATM    4  C   UNL     1      -8.493   6.551  73.023  1.00  0.00    -0.121 C  
HETATM    5  O   UNL     1      -6.812   4.917  73.302  1.00  0.00    -0.065 OA 
ENDROOT
BRANCH   2   6
HETATM    6  C   UNL     1      -7.571   6.600  70.163  1.00  0.00    -0.096 A  
HETATM    7  C   UNL     1      -8.714   6.139  69.466  1.00  0.00    -0.130 A  
HETATM    8  C   UNL     1      -9.435   6.992  68.587  1.00  0.00    -0.135 A  
HETATM    9  I   UNL     1      -9.189   4.026  69.484  1.00  0.00    -0.259 I  
HETATM   10  C   UNL     1     -10.832   6.628  68.243  1.00  0.00    -0.254 C  
HETATM   11  C   UNL     1      -8.871   8.231  68.224  1.00  0.00    -0.140 A  
HETATM   12  C   UNL     1      -7.623   8.628  68.750  1.00  0.00    -0.096 A  
HETATM   13  I   UNL     1      -9.855   9.581  66.874  1.00  0.00    -0.321 I  
HETATM   14  O   UNL     1     -11.158   6.697  66.940  1.00  0.00    -0.400 OA 
HETATM   15  O   UNL     1     -11.624   6.260  69.101  1.00  0.00    -0.324 OA 
HETATM   16  C   UNL     1      -7.057   7.875  69.805  1.00  0.00    -0.061 A  
HETATM   17  I   UNL     1      -5.772   8.950  71.183  1.00  0.00    -0.060 I  
BRANCH  12  18
HETATM   18  N   UNL     1      -7.056   9.845  68.306  1.00  0.00    -0.076 N  
HETATM   19  C   UNL     1      -6.141  10.042  67.305  1.00  0.00    -0.058 C  
HETATM   20  H   UNL     1      -7.369  10.685  68.795  1.00  0.00     0.000 HD 
HETATM   21  C   UNL     1      -5.470   8.887  66.607  1.00  0.00    -0.039 C  
HETATM   22  O   UNL     1      -5.918  11.199  66.944  1.00  0.00    -0.076 OA 
ENDBRANCH  12  18
ENDBRANCH   2   6
TORSDOF 2
ENDMDL
MODEL      126
REMARK 921   NORMALIZED FREE ENERGY PREDICTED BY IDOCK:   -2.64 KCAL/MOL
REMARK 922        TOTAL FREE ENERGY PREDICTED BY IDOCK:   -3.45 KCAL/MOL
REMARK 923 INTER-LIGAND FREE ENERGY PREDICTED BY IDOCK:   -2.90 KCAL/MOL
REMARK 924 INTRA-LIGAND FREE ENERGY PREDICTED BY IDOCK:   -0.55 KCAL/MOL
REMARK 927      BINDING AFFINITY PREDICTED BY RF-SCORE:    0.00 PKD
ROOT
HETATM    1  C   UNL     1      -9.431   3.984  68.880  1.00  0.00    -0.167 C  
HETATM    2  N   UNL     1      -8.510   5.104  69.101  1.00  0.00    -0.090 N  
HETATM    3  C   UNL     1      -7.682   5.043  70.223  1.00  0.00    -0.067 C  
HETATM    4  C   UNL     1      -6.683   6.148  70.493  1.00  0.00    -0.053 C  
HETATM    5  O   UNL     1      -7.706   4.084  71.005  1.00  0.00    -0.053 OA 
ENDROOT
BRANCH   2   6
HETATM    6  C   UNL     1      -8.622   6.216  68.198  1.00  0.00    -0.115 A  
HETATM    7  C   UNL     1      -7.994   6.211  66.929  1.00  0.00    -0.105 A  
HETATM    8  C   UNL     1      -8.248   7.235  65.976  1.00  0.00    -0.138 A  
HETATM    9  I   UNL     1      -6.386   4.812  66.545  1.00  0.00    -0.042 I  
HETATM   10  C   UNL     1      -7.940   6.961  64.551  1.00  0.00    -0.106 C  
HETATM   11  C   UNL     1      -8.946   8.388  66.385  1.00  0.00    -0.171 A  
HETATM   12  C   UNL     1      -9.408   8.509  67.713  1.00  0.00    -0.137 A  
HETATM   13  I   UNL     1      -9.352  10.013  65.040  1.00  0.00    -0.348 I  
HETATM   14  O   UNL     1      -7.268   7.924  63.896  1.00  0.00    -0.079 OA 
HETATM   15  O   UNL     1      -8.258   5.903  64.022  1.00  0.00    -0.123 OA 
HETATM   16  C   UNL     1      -9.357   7.377  68.559  1.00  0.00    -0.141 A  
HETATM   17  I   UNL     1     -10.858   7.265  70.121  1.00  0.00    -0.263 I  
BRANCH  12  18
HETATM   18  N   UNL     1     -10.040   9.712  68.104  1.00  0.00    -0.167 N  
HETATM   19  C   UNL     1      -9.476  10.821  68.680  1.00  0.00    -0.188 C  
HETATM   20  H   UNL     1     -11.045   9.761  67.937  1.00  0.00     0.000 HD 
HETATM   21  C   UNL     1      -8.039  10.834  69.133  1.00  0.00    -0.133 C  
HETATM   22  O   UNL     1     -10.163  11.840  68.768  1.00  0.00    -0.211 OA 
ENDBRANCH  12  18
ENDBRANCH   2   6
TORSDOF 2
ENDMDL
MODEL      127
REMARK 921   NORMALIZED FREE ENERGY PREDICTED BY IDOCK:   -2.64 KCAL/MOL
REMARK 922        TOTAL FREE ENERGY PREDICTED BY IDOCK:   -3.45 KCAL/MOL
REMARK 923 INTER-LIGAND FREE ENERGY PREDICTED BY IDOCK:   -2.88 KCAL/MOL
REMARK 924 INTRA-LIGAND FREE ENERGY PREDICTED BY IDOCK:   -0.57 KCAL/MOL
REMARK 927      BINDING AFFINITY PREDICTED BY RF-SCORE:    0.00 PKD
ROOT
HETATM    1  C   UNL     1      -6.798   9.374  67.971  1.00  0.00    -0.074 C  
HETATM    2  N   UNL     1      -8.091   8.770  67.631  1.00  0.00    -0.106 N  
HETATM    3  C   UNL     1      -9.041   9.589  67.020  1.00  0.00    -0.134 C  
HETATM    4  C   UNL     1     -10.384   9.023  66.611  1.00  0.00    -0.289 C  
HETATM    5  O   UNL     1      -8.813  10.778  66.761  1.00  0.00    -0.138 OA 
ENDROOT
BRANCH   2   6
HETATM    6  C   UNL     1      -8.299   7.414  68.059  1.00  0.00    -0.124 A  
HETATM    7  C   UNL     1      -8.970   7.109  69.269  1.00  0.00    -0.138 A  
HETATM    8  C   UNL     1      -9.323   5.773  69.600  1.00  0.00    -0.166 A  
HETATM    9  I   UNL     1      -9.176   8.644  70.783  1.00  0.00    -0.302 I  
HETATM   10  C   UNL     1     -10.383   5.558  70.615  1.00  0.00    -0.262 C  
HETATM   11  C   UNL     1      -8.793   4.718  68.832  1.00  0.00    -0.094 A  
HETATM   12  C   UNL     1      -7.948   4.988  67.734  1.00  0.00    -0.095 A  
HETATM   13  I   UNL     1      -9.229   2.660  69.266  1.00  0.00    -0.089 I  
HETATM   14  O   UNL     1     -10.115   4.646  71.566  1.00  0.00    -0.191 OA 
HETATM   15  O   UNL     1     -11.425   6.200  70.594  1.00  0.00    -0.338 OA 
HETATM   16  C   UNL     1      -7.820   6.324  67.285  1.00  0.00    -0.108 A  
HETATM   17  I   UNL     1      -7.385   6.600  65.178  1.00  0.00    -0.100 I  
BRANCH  12  18
HETATM   18  N   UNL     1      -7.378   3.901  67.033  1.00  0.00    -0.071 N  
HETATM   19  C   UNL     1      -6.152   3.318  67.219  1.00  0.00    -0.028 C  
HETATM   20  H   UNL     1      -7.954   3.499  66.293  1.00  0.00     0.000 HD 
HETATM   21  C   UNL     1      -5.131   3.903  68.162  1.00  0.00    -0.007 C  
HETATM   22  O   UNL     1      -5.920   2.258  66.634  1.00  0.00    -0.022 OA 
ENDBRANCH  12  18
ENDBRANCH   2   6
TORSDOF 2
ENDMDL
MODEL      128
REMARK 921   NORMALIZED FREE ENERGY PREDICTED BY IDOCK:   -2.60 KCAL/MOL
REMARK 922        TOTAL FREE ENERGY PREDICTED BY IDOCK:   -3.40 KCAL/MOL
REMARK 923 INTER-LIGAND FREE ENERGY PREDICTED BY IDOCK:   -2.87 KCAL/MOL
REMARK 924 INTRA-LIGAND FREE ENERGY PREDICTED BY IDOCK:   -0.53 KCAL/MOL
REMARK 927      BINDING AFFINITY PREDICTED BY RF-SCORE:    0.00 PKD
ROOT
HETATM    1  C   UNL     1      -6.291   4.637  71.695  1.00  0.00    -0.022 C  
HETATM    2  N   UNL     1      -7.477   4.287  70.906  1.00  0.00    -0.050 N  
HETATM    3  C   UNL     1      -7.867   2.948  70.892  1.00  0.00    -0.046 C  
HETATM    4  C   UNL     1      -9.102   2.522  70.126  1.00  0.00    -0.184 C  
HETATM    5  O   UNL     1      -7.251   2.078  71.522  1.00  0.00    -0.031 OA 
ENDROOT
BRANCH   2   6
HETATM    6  C   UNL     1      -8.067   5.343  70.131  1.00  0.00    -0.089 A  
HETATM    7  C   UNL     1      -9.041   6.214  70.677  1.00  0.00    -0.150 A  
HETATM    8  C   UNL     1      -9.493   7.357  69.963  1.00  0.00    -0.161 A  
HETATM    9  I   UNL     1     -10.094   5.632  72.478  1.00  0.00    -0.243 I  
HETATM   10  C   UNL     1     -10.146   8.449  70.726  1.00  0.00    -0.193 C  
HETATM   11  C   UNL     1      -9.144   7.493  68.605  1.00  0.00    -0.134 A  
HETATM   12  C   UNL     1      -8.336   6.523  67.975  1.00  0.00    -0.116 A  
HETATM   13  I   UNL     1      -9.803   9.159  67.420  1.00  0.00    -0.299 I  
HETATM   14  O   UNL     1     -11.289   8.932  70.206  1.00  0.00    -0.244 OA 
HETATM   15  O   UNL     1      -9.678   8.858  71.781  1.00  0.00    -0.288 OA 
HETATM   16  C   UNL     1      -7.704   5.540  68.772  1.00  0.00    -0.091 A  
HETATM   17  I   UNL     1      -5.827   4.748  68.027  1.00  0.00    -0.024 I  
BRANCH  12  18
HETATM   18  N   UNL     1      -8.068   6.658  66.593  1.00  0.00    -0.108 N  
HETATM   19  C   UNL     1      -8.615   5.959  65.549  1.00  0.00    -0.150 C  
HETATM   20  H   UNL     1      -7.378   7.366  66.341  1.00  0.00     0.000 HD 
HETATM   21  C   UNL     1      -9.524   4.778  65.776  1.00  0.00    -0.173 C  
HETATM   22  O   UNL     1      -8.392   6.358  64.405  1.00  0.00    -0.072 OA 
ENDBRANCH  12  18
ENDBRANCH   2   6
TORSDOF 2
ENDMDL
MODEL      129
REMARK 921   NORMALIZED FREE ENERGY PREDICTED BY IDOCK:   -2.58 KCAL/MOL
REMARK 922        TOTAL FREE ENERGY PREDICTED BY IDOCK:   -3.38 KCAL/MOL
REMARK 923 INTER-LIGAND FREE ENERGY PREDICTED BY IDOCK:   -2.80 KCAL/MOL
REMARK 924 INTRA-LIGAND FREE ENERGY PREDICTED BY IDOCK:   -0.58 KCAL/MOL
REMARK 927      BINDING AFFINITY PREDICTED BY RF-SCORE:    0.00 PKD
ROOT
HETATM    1  C   UNL     1      -9.073   7.000  72.108  1.00  0.00    -0.130 C  
HETATM    2  N   UNL     1      -8.101   7.723  71.282  1.00  0.00    -0.093 N  
HETATM    3  C   UNL     1      -7.260   8.631  71.926  1.00  0.00    -0.065 C  
HETATM    4  C   UNL     1      -6.210   9.387  71.139  1.00  0.00    -0.077 C  
HETATM    5  O   UNL     1      -7.315   8.823  73.147  1.00  0.00    -0.356 OA 
ENDROOT
BRANCH   2   6
HETATM    6  C   UNL     1      -8.178   7.508  69.862  1.00  0.00    -0.131 A  
HETATM    7  C   UNL     1      -8.838   8.422  69.005  1.00  0.00    -0.146 A  
HETATM    8  C   UNL     1      -8.762   8.294  67.592  1.00  0.00    -0.133 A  
HETATM    9  I   UNL     1     -10.241   9.842  69.846  1.00  0.00    -0.323 I  
HETATM   10  C   UNL     1      -9.073   9.483  66.761  1.00  0.00    -0.146 C  
HETATM   11  C   UNL     1      -8.224   7.114  67.042  1.00  0.00    -0.117 A  
HETATM   12  C   UNL     1      -7.743   6.089  67.885  1.00  0.00    -0.098 A  
HETATM   13  I   UNL     1      -8.097   6.798  64.922  1.00  0.00     0.032 I  
HETATM   14  O   UNL     1      -9.896   9.277  65.717  1.00  0.00    -0.296 OA 
HETATM   15  O   UNL     1      -8.623  10.588  67.037  1.00  0.00    -0.127 OA 
HETATM   16  C   UNL     1      -7.605   6.352  69.268  1.00  0.00    -0.099 A  
HETATM   17  I   UNL     1      -6.055   5.252  70.314  1.00  0.00    -0.024 I  
BRANCH  12  18
HETATM   18  N   UNL     1      -7.277   4.890  67.297  1.00  0.00    -0.072 N  
HETATM   19  C   UNL     1      -7.940   3.699  67.157  1.00  0.00    -0.087 C  
HETATM   20  H   UNL     1      -6.325   4.915  66.931  1.00  0.00     0.000 HD 
HETATM   21  C   UNL     1      -9.287   3.462  67.790  1.00  0.00    -0.243 C  
HETATM   22  O   UNL     1      -7.430   2.833  66.444  1.00  0.00    -0.069 OA 
ENDBRANCH  12  18
ENDBRANCH   2   6
TORSDOF 2
ENDMDL
MODEL      130
REMARK 921   NORMALIZED FREE ENERGY PREDICTED BY IDOCK:   -2.57 KCAL/MOL
REMARK 922        TOTAL FREE ENERGY PREDICTED BY IDOCK:   -3.37 KCAL/MOL
REMARK 923 INTER-LIGAND FREE ENERGY PREDICTED BY IDOCK:   -2.80 KCAL/MOL
REMARK 924 INTRA-LIGAND FREE ENERGY PREDICTED BY IDOCK:   -0.57 KCAL/MOL
REMARK 927      BINDING AFFINITY PREDICTED BY RF-SCORE:    0.00 PKD
ROOT
HETATM    1  C   UNL     1     -10.914   5.740  71.091  1.00  0.00    -0.225 C  
HETATM    2  N   UNL     1      -9.459   5.864  70.959  1.00  0.00    -0.164 N  
HETATM    3  C   UNL     1      -8.695   5.735  72.120  1.00  0.00    -0.133 C  
HETATM    4  C   UNL     1      -7.185   5.818  72.051  1.00  0.00    -0.089 C  
HETATM    5  O   UNL     1      -9.211   5.516  73.224  1.00  0.00    -0.133 OA 
ENDROOT
BRANCH   2   6
HETATM    6  C   UNL     1      -8.959   6.216  69.659  1.00  0.00    -0.134 A  
HETATM    7  C   UNL     1      -8.681   7.559  69.305  1.00  0.00    -0.136 A  
HETATM    8  C   UNL     1      -8.029   7.881  68.085  1.00  0.00    -0.125 A  
HETATM    9  I   UNL     1      -9.541   9.165  70.478  1.00  0.00    -0.334 I  
HETATM   10  C   UNL     1      -7.373   9.206  67.967  1.00  0.00    -0.083 C  
HETATM   11  C   UNL     1      -7.870   6.875  67.111  1.00  0.00    -0.109 A  
HETATM   12  C   UNL     1      -8.328   5.563  67.359  1.00  0.00    -0.103 A  
HETATM   13  I   UNL     1      -6.934   7.259  65.217  1.00  0.00    -0.061 I  
HETATM   14  O   UNL     1      -7.621   9.891  66.835  1.00  0.00    -0.094 OA 
HETATM   15  O   UNL     1      -6.673   9.653  68.866  1.00  0.00    -0.047 OA 
HETATM   16  C   UNL     1      -8.742   5.222  68.668  1.00  0.00    -0.093 A  
HETATM   17  I   UNL     1      -8.498   3.147  69.251  1.00  0.00    -0.137 I  
BRANCH  12  18
HETATM   18  N   UNL     1      -8.216   4.600  66.330  1.00  0.00    -0.107 N  
HETATM   19  C   UNL     1      -9.194   4.137  65.489  1.00  0.00    -0.149 C  
HETATM   20  H   UNL     1      -7.288   4.198  66.197  1.00  0.00     0.000 HD 
HETATM   21  C   UNL     1     -10.641   4.518  65.671  1.00  0.00    -0.231 C  
HETATM   22  O   UNL     1      -8.852   3.439  64.532  1.00  0.00    -0.109 OA 
ENDBRANCH  12  18
ENDBRANCH   2   6
TORSDOF 2
ENDMDL
MODEL      131
REMARK 921   NORMALIZED FREE ENERGY PREDICTED BY IDOCK:   -2.53 KCAL/MOL
REMARK 922        TOTAL FREE ENERGY PREDICTED BY IDOCK:   -3.32 KCAL/MOL
REMARK 923 INTER-LIGAND FREE ENERGY PREDICTED BY IDOCK:   -2.75 KCAL/MOL
REMARK 924 INTRA-LIGAND FREE ENERGY PREDICTED BY IDOCK:   -0.57 KCAL/MOL
REMARK 927      BINDING AFFINITY PREDICTED BY RF-SCORE:    0.00 PKD
ROOT
HETATM    1  C   UNL     1      -6.491   8.796  68.400  1.00  0.00    -0.055 C  
HETATM    2  N   UNL     1      -7.524   8.199  69.253  1.00  0.00    -0.087 N  
HETATM    3  C   UNL     1      -8.058   8.994  70.267  1.00  0.00    -0.136 C  
HETATM    4  C   UNL     1      -9.152   8.453  71.164  1.00  0.00    -0.217 C  
HETATM    5  O   UNL     1      -7.691  10.162  70.448  1.00  0.00    -0.230 OA 
ENDROOT
BRANCH   2   6
HETATM    6  C   UNL     1      -7.815   6.809  69.033  1.00  0.00    -0.111 A  
HETATM    7  C   UNL     1      -7.181   5.787  69.781  1.00  0.00    -0.069 A  
HETATM    8  C   UNL     1      -7.596   4.432  69.679  1.00  0.00    -0.054 A  
HETATM    9  I   UNL     1      -5.351   6.235  70.851  1.00  0.00    -0.019 I  
HETATM   10  C   UNL     1      -7.228   3.500  70.773  1.00  0.00    -0.033 C  
HETATM   11  C   UNL     1      -8.486   4.068  68.650  1.00  0.00    -0.087 A  
HETATM   12  C   UNL     1      -8.978   5.041  67.754  1.00  0.00    -0.111 A  
HETATM   13  I   UNL     1      -9.149   2.043  68.378  1.00  0.00    -0.246 I  
HETATM   14  O   UNL     1      -6.724   2.312  70.394  1.00  0.00    -0.031 OA 
HETATM   15  O   UNL     1      -7.354   3.817  71.949  1.00  0.00    -0.052 OA 
HETATM   16  C   UNL     1      -8.743   6.407  68.035  1.00  0.00    -0.115 A  
HETATM   17  I   UNL     1     -10.220   7.816  67.301  1.00  0.00    -0.391 I  
BRANCH  12  18
HETATM   18  N   UNL     1      -9.812   4.625  66.690  1.00  0.00    -0.201 N  
HETATM   19  C   UNL     1      -9.472   4.397  65.382  1.00  0.00    -0.175 C  
HETATM   20  H   UNL     1     -10.793   4.475  66.927  1.00  0.00     0.000 HD 
HETATM   21  C   UNL     1      -8.101   4.730  64.850  1.00  0.00    -0.105 C  
HETATM   22  O   UNL     1     -10.304   3.854  64.654  1.00  0.00    -0.225 OA 
ENDBRANCH  12  18
ENDBRANCH   2   6
TORSDOF 2
ENDMDL
MODEL      132
REMARK 921   NORMALIZED FREE ENERGY PREDICTED BY IDOCK:   -2.53 KCAL/MOL
REMARK 922        TOTAL FREE ENERGY PREDICTED BY IDOCK:   -3.31 KCAL/MOL
REMARK 923 INTER-LIGAND FREE ENERGY PREDICTED BY IDOCK:   -3.06 KCAL/MOL
REMARK 924 INTRA-LIGAND FREE ENERGY PREDICTED BY IDOCK:   -0.26 KCAL/MOL
REMARK 927      BINDING AFFINITY PREDICTED BY RF-SCORE:    0.00 PKD
ROOT
HETATM    1  C   UNL     1      -7.090  17.831  66.906  1.00  0.00    -0.185 C  
HETATM    2  N   UNL     1      -8.379  17.758  67.601  1.00  0.00    -0.226 N  
HETATM    3  C   UNL     1      -8.592  18.645  68.656  1.00  0.00    -0.307 C  
HETATM    4  C   UNL     1      -9.914  18.648  69.395  1.00  0.00     0.029 C  
HETATM    5  O   UNL     1      -7.738  19.473  68.999  1.00  0.00    -0.362 OA 
ENDROOT
BRANCH   2   6
HETATM    6  C   UNL     1      -9.267  16.701  67.198  1.00  0.00    -0.222 A  
HETATM    7  C   UNL     1     -10.237  16.889  66.184  1.00  0.00    -0.341 A  
HETATM    8  C   UNL     1     -10.992  15.798  65.674  1.00  0.00    -0.248 A  
HETATM    9  I   UNL     1     -10.812  18.901  65.624  1.00  0.00     1.098 I  
HETATM   10  C   UNL     1     -11.643  15.953  64.350  1.00  0.00    -0.234 C  
HETATM   11  C   UNL     1     -10.943  14.562  66.347  1.00  0.00    -0.324 A  
HETATM   12  C   UNL     1     -10.135  14.405  67.493  1.00  0.00    -0.232 A  
HETATM   13  I   UNL     1     -12.072  12.858  65.687  1.00  0.00    -0.390 I  
HETATM   14  O   UNL     1     -12.926  15.557  64.272  1.00  0.00    -0.225 OA 
HETATM   15  O   UNL     1     -11.046  16.440  63.398  1.00  0.00     0.483 OA 
HETATM   16  C   UNL     1      -9.214  15.427  67.823  1.00  0.00    -0.183 A  
HETATM   17  I   UNL     1      -7.421  14.813  68.878  1.00  0.00    -0.143 I  
BRANCH  12  18
HETATM   18  N   UNL     1     -10.168  13.171  68.183  1.00  0.00    -0.234 N  
HETATM   19  C   UNL     1     -11.073  12.745  69.120  1.00  0.00    -0.189 C  
HETATM   20  H   UNL     1      -9.423  12.514  67.954  1.00  0.00     0.000 HD 
HETATM   21  C   UNL     1     -12.131  13.665  69.675  1.00  0.00    -0.378 C  
HETATM   22  O   UNL     1     -11.040  11.562  69.462  1.00  0.00    -0.244 OA 
ENDBRANCH  12  18
ENDBRANCH   2   6
TORSDOF 2
ENDMDL
MODEL      133
REMARK 921   NORMALIZED FREE ENERGY PREDICTED BY IDOCK:   -2.51 KCAL/MOL
REMARK 922        TOTAL FREE ENERGY PREDICTED BY IDOCK:   -3.30 KCAL/MOL
REMARK 923 INTER-LIGAND FREE ENERGY PREDICTED BY IDOCK:   -2.74 KCAL/MOL
REMARK 924 INTRA-LIGAND FREE ENERGY PREDICTED BY IDOCK:   -0.56 KCAL/MOL
REMARK 927      BINDING AFFINITY PREDICTED BY RF-SCORE:    0.00 PKD
ROOT
HETATM    1  C   UNL     1      -6.811   4.391  72.043  1.00  0.00    -0.045 C  
HETATM    2  N   UNL     1      -7.801   4.000  71.034  1.00  0.00    -0.058 N  
HETATM    3  C   UNL     1      -8.284   2.692  71.081  1.00  0.00    -0.057 C  
HETATM    4  C   UNL     1      -9.333   2.231  70.091  1.00  0.00    -0.179 C  
HETATM    5  O   UNL     1      -7.907   1.884  71.940  1.00  0.00    -0.043 OA 
ENDROOT
BRANCH   2   6
HETATM    6  C   UNL     1      -8.103   4.973  70.020  1.00  0.00    -0.074 A  
HETATM    7  C   UNL     1      -7.511   4.917  68.734  1.00  0.00    -0.065 A  
HETATM    8  C   UNL     1      -7.942   5.775  67.687  1.00  0.00    -0.102 A  
HETATM    9  I   UNL     1      -5.716   3.741  68.442  1.00  0.00    -0.024 I  
HETATM   10  C   UNL     1      -7.628   5.389  66.289  1.00  0.00    -0.087 C  
HETATM   11  C   UNL     1      -8.799   6.850  67.994  1.00  0.00    -0.123 A  
HETATM   12  C   UNL     1      -9.244   7.051  69.318  1.00  0.00    -0.139 A  
HETATM   13  I   UNL     1      -9.481   8.230  66.497  1.00  0.00    -0.261 I  
HETATM   14  O   UNL     1      -7.127   6.361  65.505  1.00  0.00    -0.062 OA 
HETATM   15  O   UNL     1      -7.791   4.243  65.892  1.00  0.00    -0.093 OA 
HETATM   16  C   UNL     1      -9.000   6.043  70.280  1.00  0.00    -0.148 A  
HETATM   17  I   UNL     1     -10.430   5.887  71.905  1.00  0.00    -0.300 I  
BRANCH  12  18
HETATM   18  N   UNL     1     -10.044   8.182  69.601  1.00  0.00    -0.194 N  
HETATM   19  C   UNL     1      -9.646   9.417  70.042  1.00  0.00    -0.226 C  
HETATM   20  H   UNL     1     -11.048   8.063  69.457  1.00  0.00     0.000 HD 
HETATM   21  C   UNL     1      -8.221   9.691  70.450  1.00  0.00    -0.194 C  
HETATM   22  O   UNL     1     -10.477  10.327  70.043  1.00  0.00    -0.268 OA 
ENDBRANCH  12  18
ENDBRANCH   2   6
TORSDOF 2
ENDMDL
MODEL      134
REMARK 921   NORMALIZED FREE ENERGY PREDICTED BY IDOCK:   -2.38 KCAL/MOL
REMARK 922        TOTAL FREE ENERGY PREDICTED BY IDOCK:   -3.16 KCAL/MOL
REMARK 923 INTER-LIGAND FREE ENERGY PREDICTED BY IDOCK:   -2.62 KCAL/MOL
REMARK 924 INTRA-LIGAND FREE ENERGY PREDICTED BY IDOCK:   -0.54 KCAL/MOL
REMARK 927      BINDING AFFINITY PREDICTED BY RF-SCORE:    0.00 PKD
ROOT
HETATM    1  C   UNL     1      -9.515   8.802  65.806  1.00  0.00    -0.169 C  
HETATM    2  N   UNL     1      -8.395   8.479  66.695  1.00  0.00    -0.110 N  
HETATM    3  C   UNL     1      -7.117   8.855  66.281  1.00  0.00    -0.083 C  
HETATM    4  C   UNL     1      -5.918   8.582  67.165  1.00  0.00    -0.054 C  
HETATM    5  O   UNL     1      -6.921   9.446  65.211  1.00  0.00    -0.086 OA 
ENDROOT
BRANCH   2   6
HETATM    6  C   UNL     1      -8.706   7.705  67.866  1.00  0.00    -0.124 A  
HETATM    7  C   UNL     1      -9.235   8.304  69.036  1.00  0.00    -0.147 A  
HETATM    8  C   UNL     1      -9.698   7.514  70.123  1.00  0.00    -0.172 A  
HETATM    9  I   UNL     1      -9.043  10.443  69.313  1.00  0.00    -0.034 I  
HETATM   10  C   UNL     1     -10.627   8.137  71.097  1.00  0.00    -0.204 C  
HETATM   11  C   UNL     1      -9.411   6.135  70.135  1.00  0.00    -0.159 A  
HETATM   12  C   UNL     1      -8.699   5.545  69.069  1.00  0.00    -0.102 A  
HETATM   13  I   UNL     1     -10.029   4.856  71.745  1.00  0.00    -0.250 I  
HETATM   14  O   UNL     1     -10.343   7.937  72.397  1.00  0.00    -0.227 OA 
HETATM   15  O   UNL     1     -11.576   8.817  70.728  1.00  0.00    -0.281 OA 
HETATM   16  C   UNL     1      -8.473   6.304  67.897  1.00  0.00    -0.117 A  
HETATM   17  I   UNL     1      -8.302   5.194  66.041  1.00  0.00    -0.126 I  
BRANCH  12  18
HETATM   18  N   UNL     1      -8.367   4.173  69.152  1.00  0.00    -0.072 N  
HETATM   19  C   UNL     1      -7.222   3.603  69.645  1.00  0.00    -0.042 C  
HETATM   20  H   UNL     1      -9.071   3.524  68.799  1.00  0.00     0.000 HD 
HETATM   21  C   UNL     1      -6.033   4.437  70.049  1.00  0.00    -0.018 C  
HETATM   22  O   UNL     1      -7.207   2.382  69.806  1.00  0.00    -0.042 OA 
ENDBRANCH  12  18
ENDBRANCH   2   6
TORSDOF 2
ENDMDL
MODEL      135
REMARK 921   NORMALIZED FREE ENERGY PREDICTED BY IDOCK:   -2.35 KCAL/MOL
REMARK 922        TOTAL FREE ENERGY PREDICTED BY IDOCK:   -3.12 KCAL/MOL
REMARK 923 INTER-LIGAND FREE ENERGY PREDICTED BY IDOCK:   -2.79 KCAL/MOL
REMARK 924 INTRA-LIGAND FREE ENERGY PREDICTED BY IDOCK:   -0.34 KCAL/MOL
REMARK 927      BINDING AFFINITY PREDICTED BY RF-SCORE:    0.00 PKD
ROOT
HETATM    1  C   UNL     1     -11.227  18.044  68.105  1.00  0.00     0.486 C  
HETATM    2  N   UNL     1     -10.159  17.149  68.561  1.00  0.00    -0.307 N  
HETATM    3  C   UNL     1      -8.882  17.693  68.704  1.00  0.00    -0.259 C  
HETATM    4  C   UNL     1      -7.739  16.834  69.203  1.00  0.00    -0.165 C  
HETATM    5  O   UNL     1      -8.647  18.885  68.467  1.00  0.00    -0.329 OA 
ENDROOT
BRANCH   2   6
HETATM    6  C   UNL     1     -10.504  15.762  68.716  1.00  0.00    -0.228 A  
HETATM    7  C   UNL     1     -11.232  15.296  69.838  1.00  0.00    -0.288 A  
HETATM    8  C   UNL     1     -11.716  13.961  69.900  1.00  0.00    -0.358 A  
HETATM    9  I   UNL     1     -11.335  16.523  71.620  1.00  0.00     1.095 I  
HETATM   10  C   UNL     1     -12.818  13.658  70.845  1.00  0.00    -0.251 C  
HETATM   11  C   UNL     1     -11.266  13.028  68.946  1.00  0.00    -0.278 A  
HETATM   12  C   UNL     1     -10.371  13.422  67.929  1.00  0.00    -0.238 A  
HETATM   13  I   UNL     1     -11.903  10.977  68.970  1.00  0.00    -0.145 I  
HETATM   14  O   UNL     1     -12.662  12.558  71.604  1.00  0.00    -0.287 OA 
HETATM   15  O   UNL     1     -13.796  14.390  70.941  1.00  0.00    -0.198 OA 
HETATM   16  C   UNL     1     -10.108  14.800  67.749  1.00  0.00    -0.224 A  
HETATM   17  I   UNL     1      -9.593  15.434  65.739  1.00  0.00    -0.095 I  
BRANCH  12  18
HETATM   18  N   UNL     1      -9.886  12.440  67.034  1.00  0.00    -0.208 N  
HETATM   19  C   UNL     1      -8.598  12.003  66.869  1.00  0.00    -0.189 C  
HETATM   20  H   UNL     1     -10.585  12.001  66.435  1.00  0.00     0.000 HD 
HETATM   21  C   UNL     1      -7.439  12.669  67.565  1.00  0.00    -0.155 C  
HETATM   22  O   UNL     1      -8.411  11.003  66.173  1.00  0.00    -0.166 OA 
ENDBRANCH  12  18
ENDBRANCH   2   6
TORSDOF 2
ENDMDL
MODEL      136
REMARK 921   NORMALIZED FREE ENERGY PREDICTED BY IDOCK:   -2.35 KCAL/MOL
REMARK 922        TOTAL FREE ENERGY PREDICTED BY IDOCK:   -3.12 KCAL/MOL
REMARK 923 INTER-LIGAND FREE ENERGY PREDICTED BY IDOCK:   -3.27 KCAL/MOL
REMARK 924 INTRA-LIGAND FREE ENERGY PREDICTED BY IDOCK:    0.15 KCAL/MOL
REMARK 927      BINDING AFFINITY PREDICTED BY RF-SCORE:    0.00 PKD
ROOT
HETATM    1  C   UNL     1      -5.380  12.685  67.336  1.00  0.00    -0.058 C  
HETATM    2  N   UNL     1      -6.194  13.536  68.209  1.00  0.00    -0.093 N  
HETATM    3  C   UNL     1      -5.998  13.418  69.585  1.00  0.00    -0.119 C  
HETATM    4  C   UNL     1      -6.780  14.291  70.545  1.00  0.00     0.167 C  
HETATM    5  O   UNL     1      -5.166  12.636  70.065  1.00  0.00    -0.081 OA 
ENDROOT
BRANCH   2   6
HETATM    6  C   UNL     1      -7.200  14.339  67.569  1.00  0.00    -0.176 A  
HETATM    7  C   UNL     1      -8.515  13.857  67.358  1.00  0.00    -0.199 A  
HETATM    8  C   UNL     1      -9.547  14.712  66.883  1.00  0.00    -0.253 A  
HETATM    9  I   UNL     1      -8.892  11.726  67.449  1.00  0.00    -0.188 I  
HETATM   10  C   UNL     1     -10.955  14.301  67.102  1.00  0.00    -0.302 C  
HETATM   11  C   UNL     1      -9.203  15.987  66.394  1.00  0.00    -0.305 A  
HETATM   12  C   UNL     1      -7.859  16.417  66.403  1.00  0.00    -0.262 A  
HETATM   13  I   UNL     1     -10.675  17.345  65.618  1.00  0.00     0.553 I  
HETATM   14  O   UNL     1     -11.774  14.407  66.040  1.00  0.00    -0.364 OA 
HETATM   15  O   UNL     1     -11.332  13.865  68.182  1.00  0.00    -0.266 OA 
HETATM   16  C   UNL     1      -6.902  15.648  67.106  1.00  0.00    -0.092 A  
HETATM   17  I   UNL     1      -5.202  16.723  67.918  1.00  0.00    -0.164 I  
BRANCH  12  18
HETATM   18  N   UNL     1      -7.545  17.674  65.837  1.00  0.00    -0.209 N  
HETATM   19  C   UNL     1      -7.590  18.909  66.431  1.00  0.00    -0.262 C  
HETATM   20  H   UNL     1      -7.247  17.661  64.862  1.00  0.00     0.000 HD 
HETATM   21  C   UNL     1      -8.163  19.104  67.811  1.00  0.00    -0.319 C  
HETATM   22  O   UNL     1      -7.093  19.860  65.826  1.00  0.00    -0.276 OA 
ENDBRANCH  12  18
ENDBRANCH   2   6
TORSDOF 2
ENDMDL
MODEL      137
REMARK 921   NORMALIZED FREE ENERGY PREDICTED BY IDOCK:   -2.35 KCAL/MOL
REMARK 922        TOTAL FREE ENERGY PREDICTED BY IDOCK:   -3.12 KCAL/MOL
REMARK 923 INTER-LIGAND FREE ENERGY PREDICTED BY IDOCK:   -3.24 KCAL/MOL
REMARK 924 INTRA-LIGAND FREE ENERGY PREDICTED BY IDOCK:    0.13 KCAL/MOL
REMARK 927      BINDING AFFINITY PREDICTED BY RF-SCORE:    0.00 PKD
ROOT
HETATM    1  C   UNL     1      -6.628   4.696  65.540  1.00  0.00    -0.041 C  
HETATM    2  N   UNL     1      -8.049   5.034  65.669  1.00  0.00    -0.111 N  
HETATM    3  C   UNL     1      -8.947   4.365  64.837  1.00  0.00    -0.147 C  
HETATM    4  C   UNL     1     -10.433   4.640  64.940  1.00  0.00     0.072 C  
HETATM    5  O   UNL     1      -8.575   3.511  64.022  1.00  0.00    -0.090 OA 
ENDROOT
BRANCH   2   6
HETATM    6  C   UNL     1      -8.376   6.106  66.569  1.00  0.00    -0.113 A  
HETATM    7  C   UNL     1      -8.469   7.448  66.127  1.00  0.00    -0.145 A  
HETATM    8  C   UNL     1      -8.957   8.473  66.981  1.00  0.00    -0.157 A  
HETATM    9  I   UNL     1      -7.559   8.010  64.244  1.00  0.00    -0.131 I  
HETATM   10  C   UNL     1      -9.449   9.728  66.361  1.00  0.00    -0.184 C  
HETATM   11  C   UNL     1      -9.128   8.196  68.352  1.00  0.00    -0.136 A  
HETATM   12  C   UNL     1      -8.843   6.910  68.860  1.00  0.00    -0.129 A  
HETATM   13  I   UNL     1      -9.823   9.681  69.739  1.00  0.00    -0.302 I  
HETATM   14  O   UNL     1      -9.017  10.873  66.920  1.00  0.00    -0.148 OA 
HETATM   15  O   UNL     1     -10.182   9.710  65.381  1.00  0.00    -0.192 OA 
HETATM   16  C   UNL     1      -8.601   5.855  67.949  1.00  0.00    -0.105 A  
HETATM   17  I   UNL     1      -9.127   3.859  68.616  1.00  0.00    -0.229 I  
BRANCH  12  18
HETATM   18  N   UNL     1      -8.957   6.691  70.252  1.00  0.00    -0.151 N  
HETATM   19  C   UNL     1     -10.083   6.406  70.979  1.00  0.00    -0.182 C  
HETATM   20  H   UNL     1      -8.088   6.753  70.784  1.00  0.00     0.000 HD 
HETATM   21  C   UNL     1     -11.456   6.441  70.359  1.00  0.00    -0.458 C  
HETATM   22  O   UNL     1      -9.942   6.059  72.153  1.00  0.00    -0.165 OA 
ENDBRANCH  12  18
ENDBRANCH   2   6
TORSDOF 2
ENDMDL
MODEL      138
REMARK 921   NORMALIZED FREE ENERGY PREDICTED BY IDOCK:   -2.33 KCAL/MOL
REMARK 922        TOTAL FREE ENERGY PREDICTED BY IDOCK:   -3.10 KCAL/MOL
REMARK 923 INTER-LIGAND FREE ENERGY PREDICTED BY IDOCK:   -2.55 KCAL/MOL
REMARK 924 INTRA-LIGAND FREE ENERGY PREDICTED BY IDOCK:   -0.55 KCAL/MOL
REMARK 927      BINDING AFFINITY PREDICTED BY RF-SCORE:    0.00 PKD
ROOT
HETATM    1  C   UNL     1     -11.248   5.891  71.107  1.00  0.00    -0.211 C  
HETATM    2  N   UNL     1      -9.820   5.560  71.165  1.00  0.00    -0.174 N  
HETATM    3  C   UNL     1      -9.478   4.214  71.305  1.00  0.00    -0.160 C  
HETATM    4  C   UNL     1      -8.023   3.797  71.337  1.00  0.00    -0.064 C  
HETATM    5  O   UNL     1     -10.335   3.323  71.370  1.00  0.00     0.115 OA 
ENDROOT
BRANCH   2   6
HETATM    6  C   UNL     1      -8.904   6.666  71.182  1.00  0.00    -0.137 A  
HETATM    7  C   UNL     1      -8.308   7.123  72.383  1.00  0.00    -0.108 A  
HETATM    8  C   UNL     1      -7.277   8.101  72.370  1.00  0.00    -0.119 A  
HETATM    9  I   UNL     1      -9.192   6.571  74.282  1.00  0.00    -0.273 I  
HETATM   10  C   UNL     1      -6.400   8.213  73.561  1.00  0.00    -0.099 C  
HETATM   11  C   UNL     1      -7.010   8.793  71.172  1.00  0.00    -0.082 A  
HETATM   12  C   UNL     1      -7.737   8.498  70.000  1.00  0.00    -0.086 A  
HETATM   13  I   UNL     1      -5.501  10.317  71.049  1.00  0.00    -0.011 I  
HETATM   14  O   UNL     1      -6.180   9.459  74.018  1.00  0.00    -0.332 OA 
HETATM   15  O   UNL     1      -5.934   7.220  74.105  1.00  0.00    -0.070 OA 
HETATM   16  C   UNL     1      -8.574   7.358  69.985  1.00  0.00    -0.140 A  
HETATM   17  I   UNL     1      -8.872   6.398  68.063  1.00  0.00    -0.107 I  
BRANCH  12  18
HETATM   18  N   UNL     1      -7.490   9.264  68.837  1.00  0.00    -0.074 N  
HETATM   19  C   UNL     1      -8.257  10.264  68.298  1.00  0.00    -0.115 C  
HETATM   20  H   UNL     1      -6.629   9.044  68.335  1.00  0.00     0.000 HD 
HETATM   21  C   UNL     1      -9.628  10.587  68.836  1.00  0.00    -0.199 C  
HETATM   22  O   UNL     1      -7.773  10.939  67.389  1.00  0.00    -0.103 OA 
ENDBRANCH  12  18
ENDBRANCH   2   6
TORSDOF 2
ENDMDL
MODEL      139
REMARK 921   NORMALIZED FREE ENERGY PREDICTED BY IDOCK:   -2.33 KCAL/MOL
REMARK 922        TOTAL FREE ENERGY PREDICTED BY IDOCK:   -3.09 KCAL/MOL
REMARK 923 INTER-LIGAND FREE ENERGY PREDICTED BY IDOCK:   -3.19 KCAL/MOL
REMARK 924 INTRA-LIGAND FREE ENERGY PREDICTED BY IDOCK:    0.09 KCAL/MOL
REMARK 927      BINDING AFFINITY PREDICTED BY RF-SCORE:    0.00 PKD
ROOT
HETATM    1  C   UNL     1      -8.019   5.541  70.227  1.00  0.00    -0.101 C  
HETATM    2  N   UNL     1      -8.845   5.991  69.102  1.00  0.00    -0.119 N  
HETATM    3  C   UNL     1      -9.627   5.032  68.456  1.00  0.00    -0.146 C  
HETATM    4  C   UNL     1     -10.531   5.433  67.309  1.00  0.00    -0.274 C  
HETATM    5  O   UNL     1      -9.640   3.847  68.813  1.00  0.00    -0.162 OA 
ENDROOT
BRANCH   2   6
HETATM    6  C   UNL     1      -8.691   7.361  68.697  1.00  0.00    -0.128 A  
HETATM    7  C   UNL     1      -7.790   7.739  67.671  1.00  0.00    -0.123 A  
HETATM    8  C   UNL     1      -7.768   9.065  67.161  1.00  0.00    -0.099 A  
HETATM    9  I   UNL     1      -6.210   6.376  67.092  1.00  0.00    -0.040 I  
HETATM   10  C   UNL     1      -7.156   9.294  65.830  1.00  0.00    -0.086 C  
HETATM   11  C   UNL     1      -8.481  10.070  67.843  1.00  0.00    -0.118 A  
HETATM   12  C   UNL     1      -9.228   9.756  68.999  1.00  0.00    -0.165 A  
HETATM   13  I   UNL     1      -8.485  12.114  67.183  1.00  0.00    -0.141 I  
HETATM   14  O   UNL     1      -6.303  10.331  65.741  1.00  0.00    -0.093 OA 
HETATM   15  O   UNL     1      -7.398   8.559  64.881  1.00  0.00    -0.082 OA 
HETATM   16  C   UNL     1      -9.430   8.396  69.331  1.00  0.00    -0.158 A  
HETATM   17  I   UNL     1     -11.252   7.921  70.409  1.00  0.00    -0.072 I  
BRANCH  12  18
HETATM   18  N   UNL     1      -9.871  10.804  69.697  1.00  0.00    -0.438 N  
HETATM   19  C   UNL     1     -11.082  11.387  69.428  1.00  0.00    -0.241 C  
HETATM   20  H   UNL     1      -9.368  11.174  70.504  1.00  0.00     0.000 HD 
HETATM   21  C   UNL     1     -11.860  11.058  68.181  1.00  0.00    -0.195 C  
HETATM   22  O   UNL     1     -11.554  12.154  70.269  1.00  0.00    -0.208 OA 
ENDBRANCH  12  18
ENDBRANCH   2   6
TORSDOF 2
ENDMDL
MODEL      140
REMARK 921   NORMALIZED FREE ENERGY PREDICTED BY IDOCK:   -2.32 KCAL/MOL
REMARK 922        TOTAL FREE ENERGY PREDICTED BY IDOCK:   -3.08 KCAL/MOL
REMARK 923 INTER-LIGAND FREE ENERGY PREDICTED BY IDOCK:   -3.13 KCAL/MOL
REMARK 924 INTRA-LIGAND FREE ENERGY PREDICTED BY IDOCK:    0.04 KCAL/MOL
REMARK 927      BINDING AFFINITY PREDICTED BY RF-SCORE:    0.00 PKD
ROOT
HETATM    1  C   UNL     1     -12.265  13.685  67.359  1.00  0.00    -0.244 C  
HETATM    2  N   UNL     1     -11.343  13.693  68.500  1.00  0.00    -0.270 N  
HETATM    3  C   UNL     1     -11.390  14.794  69.355  1.00  0.00    -0.285 C  
HETATM    4  C   UNL     1     -10.490  14.852  70.572  1.00  0.00     0.151 C  
HETATM    5  O   UNL     1     -12.179  15.730  69.177  1.00  0.00    -0.293 OA 
ENDROOT
BRANCH   2   6
HETATM    6  C   UNL     1     -10.397  12.613  68.570  1.00  0.00    -0.221 A  
HETATM    7  C   UNL     1      -9.060  12.763  68.129  1.00  0.00    -0.203 A  
HETATM    8  C   UNL     1      -8.090  11.751  68.358  1.00  0.00    -0.150 A  
HETATM    9  I   UNL     1      -8.556  14.405  66.809  1.00  0.00     0.222 I  
HETATM   10  C   UNL     1      -6.655  12.124  68.290  1.00  0.00    -0.056 C  
HETATM   11  C   UNL     1      -8.516  10.489  68.818  1.00  0.00    -0.141 A  
HETATM   12  C   UNL     1      -9.883  10.247  69.071  1.00  0.00    -0.207 A  
HETATM   13  I   UNL     1      -7.141   8.876  69.161  1.00  0.00    -0.065 I  
HETATM   14  O   UNL     1      -5.863  11.302  67.581  1.00  0.00    -0.046 OA 
HETATM   15  O   UNL     1      -6.235  13.141  68.829  1.00  0.00    -0.073 OA 
HETATM   16  C   UNL     1     -10.780  11.340  69.072  1.00  0.00    -0.217 A  
HETATM   17  I   UNL     1     -12.528  11.160  70.345  1.00  0.00    -0.268 I  
BRANCH  12  18
HETATM   18  N   UNL     1     -10.281   8.947  69.462  1.00  0.00    -0.199 N  
HETATM   19  C   UNL     1     -10.358   8.425  70.727  1.00  0.00    -0.195 C  
HETATM   20  H   UNL     1     -10.543   8.317  68.704  1.00  0.00     0.000 HD 
HETATM   21  C   UNL     1      -9.851   9.181  71.928  1.00  0.00    -0.123 C  
HETATM   22  O   UNL     1     -10.912   7.334  70.869  1.00  0.00    -0.243 OA 
ENDBRANCH  12  18
ENDBRANCH   2   6
TORSDOF 2
ENDMDL
MODEL      141
REMARK 921   NORMALIZED FREE ENERGY PREDICTED BY IDOCK:   -2.30 KCAL/MOL
REMARK 922        TOTAL FREE ENERGY PREDICTED BY IDOCK:   -3.06 KCAL/MOL
REMARK 923 INTER-LIGAND FREE ENERGY PREDICTED BY IDOCK:   -3.12 KCAL/MOL
REMARK 924 INTRA-LIGAND FREE ENERGY PREDICTED BY IDOCK:    0.06 KCAL/MOL
REMARK 927      BINDING AFFINITY PREDICTED BY RF-SCORE:    0.00 PKD
ROOT
HETATM    1  C   UNL     1     -12.092   6.954  70.864  1.00  0.00    -0.373 C  
HETATM    2  N   UNL     1     -10.738   7.159  71.388  1.00  0.00    -0.224 N  
HETATM    3  C   UNL     1     -10.618   7.563  72.718  1.00  0.00    -0.313 C  
HETATM    4  C   UNL     1      -9.249   7.761  73.334  1.00  0.00    -0.344 C  
HETATM    5  O   UNL     1     -11.607   7.738  73.442  1.00  0.00    -0.165 OA 
ENDROOT
BRANCH   2   6
HETATM    6  C   UNL     1      -9.658   7.029  70.448  1.00  0.00    -0.169 A  
HETATM    7  C   UNL     1      -9.139   8.146  69.750  1.00  0.00    -0.148 A  
HETATM    8  C   UNL     1      -7.965   8.039  68.956  1.00  0.00    -0.114 A  
HETATM    9  I   UNL     1     -10.316   9.960  69.626  1.00  0.00    -0.328 I  
HETATM   10  C   UNL     1      -7.226   9.282  68.625  1.00  0.00    -0.075 C  
HETATM   11  C   UNL     1      -7.450   6.760  68.671  1.00  0.00    -0.099 A  
HETATM   12  C   UNL     1      -8.075   5.606  69.191  1.00  0.00    -0.096 A  
HETATM   13  I   UNL     1      -5.705   6.480  67.450  1.00  0.00    -0.014 I  
HETATM   14  O   UNL     1      -6.856   9.425  67.339  1.00  0.00    -0.077 OA 
HETATM   15  O   UNL     1      -6.997  10.133  69.474  1.00  0.00    -0.063 OA 
HETATM   16  C   UNL     1      -9.082   5.760  70.172  1.00  0.00    -0.140 A  
HETATM   17  I   UNL     1      -9.311   4.134  71.590  1.00  0.00    -0.240 I  
BRANCH  12  18
HETATM   18  N   UNL     1      -7.571   4.337  68.823  1.00  0.00    -0.059 N  
HETATM   19  C   UNL     1      -6.550   3.628  69.400  1.00  0.00    -0.034 C  
HETATM   20  H   UNL     1      -8.025   3.893  68.024  1.00  0.00     0.000 HD 
HETATM   21  C   UNL     1      -5.684   4.223  70.481  1.00  0.00    -0.013 C  
HETATM   22  O   UNL     1      -6.391   2.456  69.053  1.00  0.00    -0.028 OA 
ENDBRANCH  12  18
ENDBRANCH   2   6
TORSDOF 2
ENDMDL
MODEL      142
REMARK 921   NORMALIZED FREE ENERGY PREDICTED BY IDOCK:   -2.30 KCAL/MOL
REMARK 922        TOTAL FREE ENERGY PREDICTED BY IDOCK:   -3.06 KCAL/MOL
REMARK 923 INTER-LIGAND FREE ENERGY PREDICTED BY IDOCK:   -2.51 KCAL/MOL
REMARK 924 INTRA-LIGAND FREE ENERGY PREDICTED BY IDOCK:   -0.55 KCAL/MOL
REMARK 927      BINDING AFFINITY PREDICTED BY RF-SCORE:    0.00 PKD
ROOT
HETATM    1  C   UNL     1      -9.737   4.733  66.271  1.00  0.00    -0.196 C  
HETATM    2  N   UNL     1      -8.447   4.557  66.945  1.00  0.00    -0.105 N  
HETATM    3  C   UNL     1      -7.381   4.086  66.179  1.00  0.00    -0.072 C  
HETATM    4  C   UNL     1      -6.012   3.914  66.802  1.00  0.00    -0.024 C  
HETATM    5  O   UNL     1      -7.502   3.831  64.974  1.00  0.00    -0.071 OA 
ENDROOT
BRANCH   2   6
HETATM    6  C   UNL     1      -8.427   4.785  68.364  1.00  0.00    -0.094 A  
HETATM    7  C   UNL     1      -8.447   3.714  69.291  1.00  0.00    -0.065 A  
HETATM    8  C   UNL     1      -8.254   3.937  70.681  1.00  0.00    -0.077 A  
HETATM    9  I   UNL     1      -9.098   1.755  68.635  1.00  0.00    -0.227 I  
HETATM   10  C   UNL     1      -7.844   2.790  71.527  1.00  0.00    -0.051 C  
HETATM   11  C   UNL     1      -8.279   5.259  71.169  1.00  0.00    -0.118 A  
HETATM   12  C   UNL     1      -8.464   6.342  70.284  1.00  0.00    -0.135 A  
HETATM   13  I   UNL     1      -8.037   5.709  73.255  1.00  0.00    -0.112 I  
HETATM   14  O   UNL     1      -8.517   2.634  72.681  1.00  0.00    -0.068 OA 
HETATM   15  O   UNL     1      -6.962   2.019  71.170  1.00  0.00    -0.031 OA 
HETATM   16  C   UNL     1      -8.403   6.104  68.891  1.00  0.00    -0.115 A  
HETATM   17  I   UNL     1      -7.726   7.752  67.654  1.00  0.00    -0.126 I  
BRANCH  12  18
HETATM   18  N   UNL     1      -8.556   7.648  70.820  1.00  0.00    -0.132 N  
HETATM   19  C   UNL     1      -9.684   8.361  71.134  1.00  0.00    -0.186 C  
HETATM   20  H   UNL     1      -7.668   8.119  70.996  1.00  0.00     0.000 HD 
HETATM   21  C   UNL     1     -11.061   7.861  70.782  1.00  0.00    -0.264 C  
HETATM   22  O   UNL     1      -9.548   9.407  71.771  1.00  0.00    -0.239 OA 
ENDBRANCH  12  18
ENDBRANCH   2   6
TORSDOF 2
ENDMDL
MODEL      143
REMARK 921   NORMALIZED FREE ENERGY PREDICTED BY IDOCK:   -2.29 KCAL/MOL
REMARK 922        TOTAL FREE ENERGY PREDICTED BY IDOCK:   -3.05 KCAL/MOL
REMARK 923 INTER-LIGAND FREE ENERGY PREDICTED BY IDOCK:   -2.48 KCAL/MOL
REMARK 924 INTRA-LIGAND FREE ENERGY PREDICTED BY IDOCK:   -0.57 KCAL/MOL
REMARK 927      BINDING AFFINITY PREDICTED BY RF-SCORE:    0.00 PKD
ROOT
HETATM    1  C   UNL     1      -7.960   6.214  70.328  1.00  0.00    -0.107 C  
HETATM    2  N   UNL     1      -8.896   6.295  69.203  1.00  0.00    -0.128 N  
HETATM    3  C   UNL     1     -10.249   6.454  69.503  1.00  0.00    -0.189 C  
HETATM    4  C   UNL     1     -11.267   6.580  68.389  1.00  0.00    -0.274 C  
HETATM    5  O   UNL     1     -10.658   6.533  70.668  1.00  0.00    -0.217 OA 
ENDROOT
BRANCH   2   6
HETATM    6  C   UNL     1      -8.343   6.095  67.891  1.00  0.00    -0.117 A  
HETATM    7  C   UNL     1      -7.747   7.154  67.164  1.00  0.00    -0.108 A  
HETATM    8  C   UNL     1      -7.053   6.915  65.947  1.00  0.00    -0.072 A  
HETATM    9  I   UNL     1      -8.166   9.201  67.735  1.00  0.00    -0.107 I  
HETATM   10  C   UNL     1      -6.091   7.940  65.473  1.00  0.00    -0.038 C  
HETATM   11  C   UNL     1      -7.162   5.649  65.338  1.00  0.00    -0.067 A  
HETATM   12  C   UNL     1      -7.927   4.629  65.944  1.00  0.00    -0.099 A  
HETATM   13  I   UNL     1      -6.188   5.190  63.480  1.00  0.00    -0.022 I  
HETATM   14  O   UNL     1      -6.178   8.278  64.174  1.00  0.00    -0.065 OA 
HETATM   15  O   UNL     1      -5.289   8.463  66.237  1.00  0.00    -0.027 OA 
HETATM   16  C   UNL     1      -8.394   4.821  67.265  1.00  0.00    -0.105 A  
HETATM   17  I   UNL     1      -8.662   3.035  68.467  1.00  0.00    -0.201 I  
BRANCH  12  18
HETATM   18  N   UNL     1      -8.072   3.397  65.266  1.00  0.00    -0.093 N  
HETATM   19  C   UNL     1      -9.133   2.958  64.518  1.00  0.00    -0.127 C  
HETATM   20  H   UNL     1      -7.285   2.751  65.345  1.00  0.00     0.000 HD 
HETATM   21  C   UNL     1     -10.425   3.730  64.445  1.00  0.00    -0.227 C  
HETATM   22  O   UNL     1      -8.985   1.932  63.850  1.00  0.00    -0.089 OA 
ENDBRANCH  12  18
ENDBRANCH   2   6
TORSDOF 2
ENDMDL
MODEL      144
REMARK 921   NORMALIZED FREE ENERGY PREDICTED BY IDOCK:   -2.23 KCAL/MOL
REMARK 922        TOTAL FREE ENERGY PREDICTED BY IDOCK:   -2.98 KCAL/MOL
REMARK 923 INTER-LIGAND FREE ENERGY PREDICTED BY IDOCK:   -2.41 KCAL/MOL
REMARK 924 INTRA-LIGAND FREE ENERGY PREDICTED BY IDOCK:   -0.57 KCAL/MOL
REMARK 927      BINDING AFFINITY PREDICTED BY RF-SCORE:    0.00 PKD
ROOT
HETATM    1  C   UNL     1      -9.239   8.068  72.590  1.00  0.00    -0.239 C  
HETATM    2  N   UNL     1      -8.202   7.579  71.677  1.00  0.00    -0.101 N  
HETATM    3  C   UNL     1      -7.266   8.503  71.212  1.00  0.00    -0.081 C  
HETATM    4  C   UNL     1      -6.147   8.059  70.293  1.00  0.00    -0.032 C  
HETATM    5  O   UNL     1      -7.293   9.692  71.554  1.00  0.00    -0.266 OA 
ENDROOT
BRANCH   2   6
HETATM    6  C   UNL     1      -8.309   6.208  71.258  1.00  0.00    -0.124 A  
HETATM    7  C   UNL     1      -7.838   5.143  72.064  1.00  0.00    -0.111 A  
HETATM    8  C   UNL     1      -8.100   3.789  71.725  1.00  0.00    -0.067 A  
HETATM    9  I   UNL     1      -6.430   5.560  73.657  1.00  0.00    -0.076 I  
HETATM   10  C   UNL     1      -7.989   2.763  72.791  1.00  0.00    -0.058 C  
HETATM   11  C   UNL     1      -8.629   3.495  70.452  1.00  0.00    -0.062 A  
HETATM   12  C   UNL     1      -8.918   4.535  69.542  1.00  0.00    -0.094 A  
HETATM   13  I   UNL     1      -9.028   1.482  69.819  1.00  0.00    -0.155 I  
HETATM   14  O   UNL     1      -7.307   1.648  72.471  1.00  0.00    -0.029 OA 
HETATM   15  O   UNL     1      -8.470   2.944  73.902  1.00  0.00    -0.072 OA 
HETATM   16  C   UNL     1      -8.880   5.872  70.001  1.00  0.00    -0.137 A  
HETATM   17  I   UNL     1     -10.190   7.279  68.997  1.00  0.00    -0.219 I  
BRANCH  12  18
HETATM   18  N   UNL     1      -9.379   4.196  68.249  1.00  0.00    -0.148 N  
HETATM   19  C   UNL     1      -8.671   4.165  67.075  1.00  0.00    -0.110 C  
HETATM   20  H   UNL     1     -10.364   3.942  68.181  1.00  0.00     0.000 HD 
HETATM   21  C   UNL     1      -7.253   4.668  66.992  1.00  0.00    -0.076 C  
HETATM   22  O   UNL     1      -9.208   3.657  66.090  1.00  0.00    -0.150 OA 
ENDBRANCH  12  18
ENDBRANCH   2   6
TORSDOF 2
ENDMDL
MODEL      145
REMARK 921   NORMALIZED FREE ENERGY PREDICTED BY IDOCK:   -2.21 KCAL/MOL
REMARK 922        TOTAL FREE ENERGY PREDICTED BY IDOCK:   -2.96 KCAL/MOL
REMARK 923 INTER-LIGAND FREE ENERGY PREDICTED BY IDOCK:   -2.99 KCAL/MOL
REMARK 924 INTRA-LIGAND FREE ENERGY PREDICTED BY IDOCK:    0.03 KCAL/MOL
REMARK 927      BINDING AFFINITY PREDICTED BY RF-SCORE:    0.00 PKD
ROOT
HETATM    1  C   UNL     1     -11.678   7.908  71.082  1.00  0.00    -0.285 C  
HETATM    2  N   UNL     1     -10.407   7.353  70.605  1.00  0.00    -0.210 N  
HETATM    3  C   UNL     1     -10.325   5.969  70.460  1.00  0.00    -0.221 C  
HETATM    4  C   UNL     1      -9.053   5.331  69.939  1.00  0.00    -0.165 C  
HETATM    5  O   UNL     1     -11.282   5.224  70.711  1.00  0.00     0.047 OA 
ENDROOT
BRANCH   2   6
HETATM    6  C   UNL     1      -9.324   8.283  70.435  1.00  0.00    -0.159 A  
HETATM    7  C   UNL     1      -8.325   8.453  71.424  1.00  0.00    -0.145 A  
HETATM    8  C   UNL     1      -7.170   9.242  71.177  1.00  0.00    -0.055 A  
HETATM    9  I   UNL     1      -8.706   7.773  73.445  1.00  0.00    -0.344 I  
HETATM   10  C   UNL     1      -5.979   9.032  72.037  1.00  0.00    -0.068 C  
HETATM   11  C   UNL     1      -7.131  10.054  70.026  1.00  0.00    -0.146 A  
HETATM   12  C   UNL     1      -8.213  10.058  69.120  1.00  0.00    -0.137 A  
HETATM   13  I   UNL     1      -5.453  11.315  69.575  1.00  0.00    -0.064 I  
HETATM   14  O   UNL     1      -5.390  10.143  72.515  1.00  0.00    -0.296 OA 
HETATM   15  O   UNL     1      -5.582   7.907  72.312  1.00  0.00    -0.036 OA 
HETATM   16  C   UNL     1      -9.228   9.083  69.265  1.00  0.00    -0.145 A  
HETATM   17  I   UNL     1     -10.260   8.482  67.454  1.00  0.00    -0.339 I  
BRANCH  12  18
HETATM   18  N   UNL     1      -8.169  10.939  68.015  1.00  0.00    -0.117 N  
HETATM   19  C   UNL     1      -7.593  10.736  66.788  1.00  0.00    -0.129 C  
HETATM   20  H   UNL     1      -8.625  11.842  68.148  1.00  0.00     0.000 HD 
HETATM   21  C   UNL     1      -6.749   9.521  66.501  1.00  0.00    -0.075 C  
HETATM   22  O   UNL     1      -7.830  11.552  65.895  1.00  0.00     0.102 OA 
ENDBRANCH  12  18
ENDBRANCH   2   6
TORSDOF 2
ENDMDL
MODEL      146
REMARK 921   NORMALIZED FREE ENERGY PREDICTED BY IDOCK:   -2.20 KCAL/MOL
REMARK 922        TOTAL FREE ENERGY PREDICTED BY IDOCK:   -2.95 KCAL/MOL
REMARK 923 INTER-LIGAND FREE ENERGY PREDICTED BY IDOCK:   -2.62 KCAL/MOL
REMARK 924 INTRA-LIGAND FREE ENERGY PREDICTED BY IDOCK:   -0.33 KCAL/MOL
REMARK 927      BINDING AFFINITY PREDICTED BY RF-SCORE:    0.00 PKD
ROOT
HETATM    1  C   UNL     1      -8.432   8.493  72.248  1.00  0.00    -0.148 C  
HETATM    2  N   UNL     1      -7.750   8.247  70.974  1.00  0.00    -0.082 N  
HETATM    3  C   UNL     1      -6.871   9.229  70.515  1.00  0.00    -0.087 C  
HETATM    4  C   UNL     1      -6.107   9.026  69.224  1.00  0.00    -0.041 C  
HETATM    5  O   UNL     1      -6.659  10.269  71.153  1.00  0.00    -0.332 OA 
ENDROOT
BRANCH   2   6
HETATM    6  C   UNL     1      -8.133   7.061  70.258  1.00  0.00    -0.119 A  
HETATM    7  C   UNL     1      -8.980   7.116  69.125  1.00  0.00    -0.138 A  
HETATM    8  C   UNL     1      -9.215   5.966  68.323  1.00  0.00    -0.117 A  
HETATM    9  I   UNL     1     -10.188   8.881  68.787  1.00  0.00    -0.205 I  
HETATM   10  C   UNL     1      -9.721   6.163  66.943  1.00  0.00    -0.149 C  
HETATM   11  C   UNL     1      -8.791   4.708  68.795  1.00  0.00    -0.100 A  
HETATM   12  C   UNL     1      -8.119   4.599  70.031  1.00  0.00    -0.068 A  
HETATM   13  I   UNL     1      -9.128   2.901  67.685  1.00  0.00    -0.195 I  
HETATM   14  O   UNL     1     -10.749   5.380  66.572  1.00  0.00    -0.301 OA 
HETATM   15  O   UNL     1      -9.240   7.013  66.203  1.00  0.00    -0.152 OA 
HETATM   16  C   UNL     1      -7.685   5.780  70.678  1.00  0.00    -0.093 A  
HETATM   17  I   UNL     1      -5.925   5.607  71.935  1.00  0.00    -0.033 I  
BRANCH  12  18
HETATM   18  N   UNL     1      -7.774   3.312  70.505  1.00  0.00    -0.043 N  
HETATM   19  C   UNL     1      -8.239   2.663  71.619  1.00  0.00    -0.056 C  
HETATM   20  H   UNL     1      -7.090   2.802  69.946  1.00  0.00     0.000 HD 
HETATM   21  C   UNL     1      -9.126   3.351  72.624  1.00  0.00    -0.119 C  
HETATM   22  O   UNL     1      -7.960   1.470  71.752  1.00  0.00    -0.040 OA 
ENDBRANCH  12  18
ENDBRANCH   2   6
TORSDOF 2
ENDMDL
MODEL      147
REMARK 921   NORMALIZED FREE ENERGY PREDICTED BY IDOCK:   -2.17 KCAL/MOL
REMARK 922        TOTAL FREE ENERGY PREDICTED BY IDOCK:   -2.91 KCAL/MOL
REMARK 923 INTER-LIGAND FREE ENERGY PREDICTED BY IDOCK:   -3.01 KCAL/MOL
REMARK 924 INTRA-LIGAND FREE ENERGY PREDICTED BY IDOCK:    0.10 KCAL/MOL
REMARK 927      BINDING AFFINITY PREDICTED BY RF-SCORE:    0.00 PKD
ROOT
HETATM    1  C   UNL     1     -11.689   6.533  69.615  1.00  0.00    -0.164 C  
HETATM    2  N   UNL     1     -10.596   7.107  70.407  1.00  0.00    -0.219 N  
HETATM    3  C   UNL     1     -10.861   7.411  71.742  1.00  0.00    -0.223 C  
HETATM    4  C   UNL     1      -9.768   7.974  72.627  1.00  0.00    -0.332 C  
HETATM    5  O   UNL     1     -11.968   7.203  72.255  1.00  0.00    -0.280 OA 
ENDROOT
BRANCH   2   6
HETATM    6  C   UNL     1      -9.379   7.404  69.702  1.00  0.00    -0.149 A  
HETATM    7  C   UNL     1      -8.405   6.409  69.444  1.00  0.00    -0.122 A  
HETATM    8  C   UNL     1      -7.290   6.669  68.602  1.00  0.00    -0.087 A  
HETATM    9  I   UNL     1      -8.432   4.574  70.594  1.00  0.00    -0.128 I  
HETATM   10  C   UNL     1      -6.568   5.514  68.015  1.00  0.00    -0.049 C  
HETATM   11  C   UNL     1      -7.025   7.997  68.212  1.00  0.00    -0.073 A  
HETATM   12  C   UNL     1      -7.873   9.045  68.629  1.00  0.00    -0.101 A  
HETATM   13  I   UNL     1      -5.347   8.509  66.973  1.00  0.00    -0.038 I  
HETATM   14  O   UNL     1      -5.226   5.551  68.094  1.00  0.00    -0.003 OA 
HETATM   15  O   UNL     1      -7.172   4.572  67.516  1.00  0.00    -0.067 OA 
HETATM   16  C   UNL     1      -9.101   8.723  69.252  1.00  0.00    -0.145 A  
HETATM   17  I   UNL     1     -10.721  10.143  68.996  1.00  0.00    -0.289 I  
BRANCH  12  18
HETATM   18  N   UNL     1      -7.534  10.372  68.277  1.00  0.00    -0.088 N  
HETATM   19  C   UNL     1      -7.913  11.081  67.166  1.00  0.00    -0.135 C  
HETATM   20  H   UNL     1      -6.929  10.866  68.934  1.00  0.00     0.000 HD 
HETATM   21  C   UNL     1      -8.668  10.434  66.034  1.00  0.00    -0.163 C  
HETATM   22  O   UNL     1      -7.669  12.288  67.139  1.00  0.00    -0.160 OA 
ENDBRANCH  12  18
ENDBRANCH   2   6
TORSDOF 2
ENDMDL
MODEL      148
REMARK 921   NORMALIZED FREE ENERGY PREDICTED BY IDOCK:   -2.13 KCAL/MOL
REMARK 922        TOTAL FREE ENERGY PREDICTED BY IDOCK:   -2.87 KCAL/MOL
REMARK 923 INTER-LIGAND FREE ENERGY PREDICTED BY IDOCK:   -2.29 KCAL/MOL
REMARK 924 INTRA-LIGAND FREE ENERGY PREDICTED BY IDOCK:   -0.58 KCAL/MOL
REMARK 927      BINDING AFFINITY PREDICTED BY RF-SCORE:    0.00 PKD
ROOT
HETATM    1  C   UNL     1      -6.523   5.160  72.642  1.00  0.00    -0.048 C  
HETATM    2  N   UNL     1      -7.830   5.105  71.979  1.00  0.00    -0.108 N  
HETATM    3  C   UNL     1      -8.872   4.481  72.666  1.00  0.00    -0.113 C  
HETATM    4  C   UNL     1     -10.257   4.418  72.056  1.00  0.00    -0.233 C  
HETATM    5  O   UNL     1      -8.717   3.996  73.794  1.00  0.00    -0.094 OA 
ENDROOT
BRANCH   2   6
HETATM    6  C   UNL     1      -7.891   5.605  70.633  1.00  0.00    -0.100 A  
HETATM    7  C   UNL     1      -7.842   4.739  69.514  1.00  0.00    -0.066 A  
HETATM    8  C   UNL     1      -8.074   5.222  68.197  1.00  0.00    -0.095 A  
HETATM    9  I   UNL     1      -7.091   2.723  69.763  1.00  0.00    -0.040 I  
HETATM   10  C   UNL     1      -8.451   4.244  67.147  1.00  0.00    -0.100 C  
HETATM   11  C   UNL     1      -8.119   6.613  67.979  1.00  0.00    -0.110 A  
HETATM   12  C   UNL     1      -7.963   7.509  69.058  1.00  0.00    -0.122 A  
HETATM   13  I   UNL     1      -8.425   7.452  66.026  1.00  0.00    -0.150 I  
HETATM   14  O   UNL     1      -7.796   4.351  65.977  1.00  0.00    -0.093 OA 
HETATM   15  O   UNL     1      -9.290   3.377  67.355  1.00  0.00    -0.183 OA 
HETATM   16  C   UNL     1      -7.984   6.999  70.377  1.00  0.00    -0.113 A  
HETATM   17  I   UNL     1      -8.709   8.338  71.923  1.00  0.00    -0.265 I  
BRANCH  12  18
HETATM   18  N   UNL     1      -7.941   8.897  68.789  1.00  0.00    -0.101 N  
HETATM   19  C   UNL     1      -6.854   9.725  68.676  1.00  0.00    -0.051 C  
HETATM   20  H   UNL     1      -8.852   9.340  68.662  1.00  0.00     0.000 HD 
HETATM   21  C   UNL     1      -5.460   9.249  68.996  1.00  0.00    -0.036 C  
HETATM   22  O   UNL     1      -7.037  10.865  68.247  1.00  0.00    -0.071 OA 
ENDBRANCH  12  18
ENDBRANCH   2   6
TORSDOF 2
ENDMDL
MODEL      149
REMARK 921   NORMALIZED FREE ENERGY PREDICTED BY IDOCK:   -2.08 KCAL/MOL
REMARK 922        TOTAL FREE ENERGY PREDICTED BY IDOCK:   -2.82 KCAL/MOL
REMARK 923 INTER-LIGAND FREE ENERGY PREDICTED BY IDOCK:   -2.97 KCAL/MOL
REMARK 924 INTRA-LIGAND FREE ENERGY PREDICTED BY IDOCK:    0.15 KCAL/MOL
REMARK 927      BINDING AFFINITY PREDICTED BY RF-SCORE:    0.00 PKD
ROOT
HETATM    1  C   UNL     1     -10.286  16.323  65.723  1.00  0.00    -0.374 C  
HETATM    2  N   UNL     1     -10.336  15.454  66.904  1.00  0.00    -0.272 N  
HETATM    3  C   UNL     1     -11.168  15.843  67.953  1.00  0.00    -0.297 C  
HETATM    4  C   UNL     1     -11.294  14.976  69.188  1.00  0.00    -0.311 C  
HETATM    5  O   UNL     1     -11.851  16.874  67.901  1.00  0.00     0.447 OA 
ENDROOT
BRANCH   2   6
HETATM    6  C   UNL     1      -9.436  14.333  66.915  1.00  0.00    -0.263 A  
HETATM    7  C   UNL     1      -8.233  14.351  67.663  1.00  0.00    -0.176 A  
HETATM    8  C   UNL     1      -7.437  13.182  67.807  1.00  0.00    -0.150 A  
HETATM    9  I   UNL     1      -7.425  16.247  68.329  1.00  0.00    -0.195 I  
HETATM   10  C   UNL     1      -6.467  13.127  68.928  1.00  0.00    -0.097 C  
HETATM   11  C   UNL     1      -7.723  12.060  67.005  1.00  0.00    -0.129 A  
HETATM   12  C   UNL     1      -8.800  12.090  66.094  1.00  0.00    -0.018 A  
HETATM   13  I   UNL     1      -6.561  10.257  67.112  1.00  0.00    -0.080 I  
HETATM   14  O   UNL     1      -5.230  12.700  68.619  1.00  0.00    -0.055 OA 
HETATM   15  O   UNL     1      -6.778  13.480  70.058  1.00  0.00     0.037 OA 
HETATM   16  C   UNL     1      -9.715  13.166  66.155  1.00  0.00    -0.248 A  
HETATM   17  I   UNL     1     -11.748  12.749  65.521  1.00  0.00    -0.508 I  
BRANCH  12  18
HETATM   18  N   UNL     1      -9.010  10.971  65.255  1.00  0.00    -0.273 N  
HETATM   19  C   UNL     1      -9.641   9.791  65.553  1.00  0.00    -0.282 C  
HETATM   20  H   UNL     1      -8.644  11.052  64.306  1.00  0.00     0.000 HD 
HETATM   21  C   UNL     1     -10.088   9.464  66.954  1.00  0.00    -0.314 C  
HETATM   22  O   UNL     1      -9.890   9.018  64.626  1.00  0.00     0.585 OA 
ENDBRANCH  12  18
ENDBRANCH   2   6
TORSDOF 2
ENDMDL
MODEL      150
REMARK 921   NORMALIZED FREE ENERGY PREDICTED BY IDOCK:   -2.08 KCAL/MOL
REMARK 922        TOTAL FREE ENERGY PREDICTED BY IDOCK:   -2.82 KCAL/MOL
REMARK 923 INTER-LIGAND FREE ENERGY PREDICTED BY IDOCK:   -2.49 KCAL/MOL
REMARK 924 INTRA-LIGAND FREE ENERGY PREDICTED BY IDOCK:   -0.32 KCAL/MOL
REMARK 927      BINDING AFFINITY PREDICTED BY RF-SCORE:    0.00 PKD
ROOT
HETATM    1  C   UNL     1     -10.975   7.541  67.082  1.00  0.00    -0.093 C  
HETATM    2  N   UNL     1      -9.551   7.851  67.246  1.00  0.00    -0.149 N  
HETATM    3  C   UNL     1      -9.048   8.950  66.550  1.00  0.00    -0.166 C  
HETATM    4  C   UNL     1      -7.595   9.347  66.700  1.00  0.00    -0.094 C  
HETATM    5  O   UNL     1      -9.765   9.650  65.824  1.00  0.00    -0.244 OA 
ENDROOT
BRANCH   2   6
HETATM    6  C   UNL     1      -8.778   6.925  68.028  1.00  0.00    -0.125 A  
HETATM    7  C   UNL     1      -8.115   5.822  67.437  1.00  0.00    -0.102 A  
HETATM    8  C   UNL     1      -7.216   5.014  68.186  1.00  0.00    -0.063 A  
HETATM    9  I   UNL     1      -8.713   5.157  65.465  1.00  0.00    -0.135 I  
HETATM   10  C   UNL     1      -6.235   4.184  67.445  1.00  0.00    -0.036 C  
HETATM   11  C   UNL     1      -7.166   5.168  69.585  1.00  0.00    -0.056 A  
HETATM   12  C   UNL     1      -7.976   6.128  70.227  1.00  0.00    -0.107 A  
HETATM   13  I   UNL     1      -5.874   3.974  70.818  1.00  0.00    -0.015 I  
HETATM   14  O   UNL     1      -6.117   2.906  67.848  1.00  0.00    -0.026 OA 
HETATM   15  O   UNL     1      -5.596   4.640  66.505  1.00  0.00    -0.013 OA 
HETATM   16  C   UNL     1      -8.666   7.076  69.436  1.00  0.00    -0.133 A  
HETATM   17  I   UNL     1      -9.055   9.005  70.352  1.00  0.00    -0.314 I  
BRANCH  12  18
HETATM   18  N   UNL     1      -7.951   6.202  71.639  1.00  0.00    -0.102 N  
HETATM   19  C   UNL     1      -8.965   5.936  72.523  1.00  0.00    -0.132 C  
HETATM   20  H   UNL     1      -7.064   6.491  72.054  1.00  0.00     0.000 HD 
HETATM   21  C   UNL     1     -10.370   5.657  72.055  1.00  0.00    -0.261 C  
HETATM   22  O   UNL     1      -8.686   5.873  73.721  1.00  0.00    -0.124 OA 
ENDBRANCH  12  18
ENDBRANCH   2   6
TORSDOF 2
ENDMDL
MODEL      151
REMARK 921   NORMALIZED FREE ENERGY PREDICTED BY IDOCK:   -2.01 KCAL/MOL
REMARK 922        TOTAL FREE ENERGY PREDICTED BY IDOCK:   -2.74 KCAL/MOL
REMARK 923 INTER-LIGAND FREE ENERGY PREDICTED BY IDOCK:   -2.16 KCAL/MOL
REMARK 924 INTRA-LIGAND FREE ENERGY PREDICTED BY IDOCK:   -0.58 KCAL/MOL
REMARK 927      BINDING AFFINITY PREDICTED BY RF-SCORE:    0.00 PKD
ROOT
HETATM    1  C   UNL     1      -8.383   4.494  69.598  1.00  0.00    -0.069 C  
HETATM    2  N   UNL     1      -7.732   5.806  69.656  1.00  0.00    -0.090 N  
HETATM    3  C   UNL     1      -7.090   6.153  70.846  1.00  0.00    -0.069 C  
HETATM    4  C   UNL     1      -6.367   7.479  70.964  1.00  0.00    -0.035 C  
HETATM    5  O   UNL     1      -7.057   5.390  71.820  1.00  0.00    -0.071 OA 
ENDROOT
BRANCH   2   6
HETATM    6  C   UNL     1      -7.907   6.663  68.515  1.00  0.00    -0.110 A  
HETATM    7  C   UNL     1      -8.907   7.665  68.483  1.00  0.00    -0.130 A  
HETATM    8  C   UNL     1      -8.963   8.616  67.428  1.00  0.00    -0.144 A  
HETATM    9  I   UNL     1     -10.562   7.560  69.876  1.00  0.00    -0.220 I  
HETATM   10  C   UNL     1      -9.712   9.876  67.658  1.00  0.00    -0.155 C  
HETATM   11  C   UNL     1      -8.165   8.415  66.285  1.00  0.00    -0.111 A  
HETATM   12  C   UNL     1      -7.303   7.300  66.204  1.00  0.00    -0.075 A  
HETATM   13  I   UNL     1      -8.200   9.767  64.617  1.00  0.00    -0.200 I  
HETATM   14  O   UNL     1     -10.552  10.253  66.678  1.00  0.00    -0.223 OA 
HETATM   15  O   UNL     1      -9.585  10.513  68.696  1.00  0.00    -0.156 OA 
HETATM   16  C   UNL     1      -7.088   6.519  67.363  1.00  0.00    -0.080 A  
HETATM   17  I   UNL     1      -5.169   5.520  67.518  1.00  0.00    -0.005 I  
BRANCH  12  18
HETATM   18  N   UNL     1      -6.572   7.093  65.011  1.00  0.00    -0.046 N  
HETATM   19  C   UNL     1      -6.842   6.219  63.990  1.00  0.00    -0.038 C  
HETATM   20  H   UNL     1      -5.737   7.667  64.896  1.00  0.00     0.000 HD 
HETATM   21  C   UNL     1      -7.945   5.198  64.092  1.00  0.00    -0.109 C  
HETATM   22  O   UNL     1      -6.191   6.327  62.949  1.00  0.00    -0.026 OA 
ENDBRANCH  12  18
ENDBRANCH   2   6
TORSDOF 2
ENDMDL
MODEL      152
REMARK 921   NORMALIZED FREE ENERGY PREDICTED BY IDOCK:   -1.89 KCAL/MOL
REMARK 922        TOTAL FREE ENERGY PREDICTED BY IDOCK:   -2.61 KCAL/MOL
REMARK 923 INTER-LIGAND FREE ENERGY PREDICTED BY IDOCK:   -2.88 KCAL/MOL
REMARK 924 INTRA-LIGAND FREE ENERGY PREDICTED BY IDOCK:    0.27 KCAL/MOL
REMARK 927      BINDING AFFINITY PREDICTED BY RF-SCORE:    0.00 PKD
ROOT
HETATM    1  C   UNL     1     -10.116  14.652  66.353  1.00  0.00    -0.278 C  
HETATM    2  N   UNL     1      -9.392  14.338  67.589  1.00  0.00    -0.196 N  
HETATM    3  C   UNL     1      -8.145  14.935  67.772  1.00  0.00    -0.152 C  
HETATM    4  C   UNL     1      -7.358  14.683  69.041  1.00  0.00    -0.134 C  
HETATM    5  O   UNL     1      -7.659  15.709  66.937  1.00  0.00    -0.216 OA 
ENDROOT
BRANCH   2   6
HETATM    6  C   UNL     1      -9.989  13.356  68.452  1.00  0.00    -0.231 A  
HETATM    7  C   UNL     1     -10.938  13.712  69.442  1.00  0.00    -0.069 A  
HETATM    8  C   UNL     1     -11.648  12.721  70.172  1.00  0.00    -0.130 A  
HETATM    9  I   UNL     1     -11.081  15.776  70.082  1.00  0.00    -0.416 I  
HETATM   10  C   UNL     1     -12.909  13.115  70.847  1.00  0.00    -0.159 C  
HETATM   11  C   UNL     1     -11.235  11.377  70.078  1.00  0.00    -0.078 A  
HETATM   12  C   UNL     1     -10.150  11.021  69.249  1.00  0.00    -0.095 A  
HETATM   13  I   UNL     1     -12.211   9.805  71.168  1.00  0.00    -0.489 I  
HETATM   14  O   UNL     1     -13.053  12.704  72.120  1.00  0.00    -0.408 OA 
HETATM   15  O   UNL     1     -13.749  13.800  70.278  1.00  0.00     0.737 OA 
HETATM   16  C   UNL     1      -9.631  11.985  68.353  1.00  0.00    -0.190 A  
HETATM   17  I   UNL     1      -8.735  11.229  66.528  1.00  0.00    -0.163 I  
BRANCH  12  18
HETATM   18  N   UNL     1      -9.719   9.674  69.237  1.00  0.00    -0.175 N  
HETATM   19  C   UNL     1     -10.075   8.675  68.369  1.00  0.00    -0.191 C  
HETATM   20  H   UNL     1      -9.059   9.413  69.970  1.00  0.00     0.000 HD 
HETATM   21  C   UNL     1     -11.159   8.869  67.340  1.00  0.00     0.303 C  
HETATM   22  O   UNL     1      -9.441   7.619  68.411  1.00  0.00    -0.148 OA 
ENDBRANCH  12  18
ENDBRANCH   2   6
TORSDOF 2
ENDMDL
MODEL      153
REMARK 921   NORMALIZED FREE ENERGY PREDICTED BY IDOCK:   -1.84 KCAL/MOL
REMARK 922        TOTAL FREE ENERGY PREDICTED BY IDOCK:   -2.54 KCAL/MOL
REMARK 923 INTER-LIGAND FREE ENERGY PREDICTED BY IDOCK:   -2.29 KCAL/MOL
REMARK 924 INTRA-LIGAND FREE ENERGY PREDICTED BY IDOCK:   -0.26 KCAL/MOL
REMARK 927      BINDING AFFINITY PREDICTED BY RF-SCORE:    0.00 PKD
ROOT
HETATM    1  C   UNL     1      -6.837  15.955  70.048  1.00  0.00     0.105 C  
HETATM    2  N   UNL     1      -7.271  15.584  68.697  1.00  0.00    -0.118 N  
HETATM    3  C   UNL     1      -7.074  16.519  67.680  1.00  0.00    -0.133 C  
HETATM    4  C   UNL     1      -7.467  16.189  66.255  1.00  0.00     0.257 C  
HETATM    5  O   UNL     1      -6.549  17.619  67.893  1.00  0.00    -0.180 OA 
ENDROOT
BRANCH   2   6
HETATM    6  C   UNL     1      -7.959  14.330  68.564  1.00  0.00    -0.145 A  
HETATM    7  C   UNL     1      -7.270  13.093  68.612  1.00  0.00    -0.106 A  
HETATM    8  C   UNL     1      -7.973  11.859  68.653  1.00  0.00    -0.101 A  
HETATM    9  I   UNL     1      -5.128  13.058  68.298  1.00  0.00    -0.100 I  
HETATM   10  C   UNL     1      -7.255  10.657  69.144  1.00  0.00    -0.102 C  
HETATM   11  C   UNL     1      -9.360  11.855  68.404  1.00  0.00    -0.184 A  
HETATM   12  C   UNL     1     -10.042  13.064  68.147  1.00  0.00    -0.237 A  
HETATM   13  I   UNL     1     -10.514  10.044  68.402  1.00  0.00    -0.279 I  
HETATM   14  O   UNL     1      -7.389   9.543  68.402  1.00  0.00    -0.075 OA 
HETATM   15  O   UNL     1      -6.560  10.697  70.152  1.00  0.00    -0.138 OA 
HETATM   16  C   UNL     1      -9.364  14.287  68.360  1.00  0.00    -0.208 A  
HETATM   17  I   UNL     1     -10.590  15.992  68.906  1.00  0.00    -0.330 I  
BRANCH  12  18
HETATM   18  N   UNL     1     -11.419  13.012  67.830  1.00  0.00    -0.290 N  
HETATM   19  C   UNL     1     -12.039  13.387  66.667  1.00  0.00    -0.373 C  
HETATM   20  H   UNL     1     -12.030  12.648  68.562  1.00  0.00     0.000 HD 
HETATM   21  C   UNL     1     -11.291  14.089  65.562  1.00  0.00    -0.313 C  
HETATM   22  O   UNL     1     -13.223  13.083  66.518  1.00  0.00     0.759 OA 
ENDBRANCH  12  18
ENDBRANCH   2   6
TORSDOF 2
ENDMDL
MODEL      154
REMARK 921   NORMALIZED FREE ENERGY PREDICTED BY IDOCK:   -1.84 KCAL/MOL
REMARK 922        TOTAL FREE ENERGY PREDICTED BY IDOCK:   -2.54 KCAL/MOL
REMARK 923 INTER-LIGAND FREE ENERGY PREDICTED BY IDOCK:   -2.80 KCAL/MOL
REMARK 924 INTRA-LIGAND FREE ENERGY PREDICTED BY IDOCK:    0.26 KCAL/MOL
REMARK 927      BINDING AFFINITY PREDICTED BY RF-SCORE:    0.00 PKD
ROOT
HETATM    1  C   UNL     1      -7.077   9.190  68.734  1.00  0.00    -0.073 C  
HETATM    2  N   UNL     1      -8.178   8.394  68.182  1.00  0.00    -0.123 N  
HETATM    3  C   UNL     1      -8.895   8.941  67.118  1.00  0.00    -0.123 C  
HETATM    4  C   UNL     1     -10.023   8.160  66.477  1.00  0.00    -0.302 C  
HETATM    5  O   UNL     1      -8.620  10.051  66.642  1.00  0.00    -0.125 OA 
ENDROOT
BRANCH   2   6
HETATM    6  C   UNL     1      -8.487   7.166  68.861  1.00  0.00    -0.126 A  
HETATM    7  C   UNL     1      -7.657   6.023  68.747  1.00  0.00    -0.091 A  
HETATM    8  C   UNL     1      -7.874   4.872  69.553  1.00  0.00    -0.067 A  
HETATM    9  I   UNL     1      -6.245   5.895  67.110  1.00  0.00    -0.037 I  
HETATM   10  C   UNL     1      -6.754   3.913  69.722  1.00  0.00    -0.034 C  
HETATM   11  C   UNL     1      -9.064   4.777  70.300  1.00  0.00    -0.115 A  
HETATM   12  C   UNL     1     -10.011   5.822  70.269  1.00  0.00    -0.198 A  
HETATM   13  I   UNL     1      -9.511   3.067  71.520  1.00  0.00    -0.211 I  
HETATM   14  O   UNL     1      -7.061   2.613  69.569  1.00  0.00    -0.040 OA 
HETATM   15  O   UNL     1      -5.616   4.298  69.960  1.00  0.00    -0.011 OA 
HETATM   16  C   UNL     1      -9.654   7.049  69.661  1.00  0.00    -0.150 A  
HETATM   17  I   UNL     1     -10.621   8.831  70.433  1.00  0.00    -0.301 I  
BRANCH  12  18
HETATM   18  N   UNL     1     -11.226   5.658  70.975  1.00  0.00    -0.141 N  
HETATM   19  C   UNL     1     -11.466   5.852  72.310  1.00  0.00    -0.297 C  
HETATM   20  H   UNL     1     -12.026   5.356  70.418  1.00  0.00     0.000 HD 
HETATM   21  C   UNL     1     -10.351   6.141  73.282  1.00  0.00    -0.242 C  
HETATM   22  O   UNL     1     -12.637   5.842  72.694  1.00  0.00     0.005 OA 
ENDBRANCH  12  18
ENDBRANCH   2   6
TORSDOF 2
ENDMDL
MODEL      155
REMARK 921   NORMALIZED FREE ENERGY PREDICTED BY IDOCK:   -1.79 KCAL/MOL
REMARK 922        TOTAL FREE ENERGY PREDICTED BY IDOCK:   -2.49 KCAL/MOL
REMARK 923 INTER-LIGAND FREE ENERGY PREDICTED BY IDOCK:   -2.66 KCAL/MOL
REMARK 924 INTRA-LIGAND FREE ENERGY PREDICTED BY IDOCK:    0.17 KCAL/MOL
REMARK 927      BINDING AFFINITY PREDICTED BY RF-SCORE:    0.00 PKD
ROOT
HETATM    1  C   UNL     1      -6.807  17.638  69.668  1.00  0.00     0.063 C  
HETATM    2  N   UNL     1      -7.046  17.679  68.222  1.00  0.00    -0.215 N  
HETATM    3  C   UNL     1      -6.631  18.819  67.534  1.00  0.00    -0.198 C  
HETATM    4  C   UNL     1      -6.816  18.914  66.034  1.00  0.00    -0.284 C  
HETATM    5  O   UNL     1      -6.073  19.764  68.107  1.00  0.00    -0.220 OA 
ENDROOT
BRANCH   2   6
HETATM    6  C   UNL     1      -7.787  16.582  67.661  1.00  0.00    -0.159 A  
HETATM    7  C   UNL     1      -9.058  16.769  67.065  1.00  0.00    -0.224 A  
HETATM    8  C   UNL     1      -9.705  15.715  66.364  1.00  0.00    -0.302 A  
HETATM    9  I   UNL     1     -10.177  18.572  67.495  1.00  0.00    -0.494 I  
HETATM   10  C   UNL     1     -10.780  16.068  65.404  1.00  0.00    -0.383 C  
HETATM   11  C   UNL     1      -9.187  14.410  66.465  1.00  0.00    -0.244 A  
HETATM   12  C   UNL     1      -8.027  14.160  67.229  1.00  0.00    -0.150 A  
HETATM   13  I   UNL     1     -10.106  12.738  65.479  1.00  0.00    -0.161 I  
HETATM   14  O   UNL     1     -11.908  15.340  65.485  1.00  0.00    -0.084 OA 
HETATM   15  O   UNL     1     -10.647  16.988  64.608  1.00  0.00    -0.523 OA 
HETATM   16  C   UNL     1      -7.273  15.258  67.703  1.00  0.00    -0.180 A  
HETATM   17  I   UNL     1      -5.145  14.931  67.972  1.00  0.00     0.019 I  
BRANCH  12  18
HETATM   18  N   UNL     1      -7.579  12.825  67.365  1.00  0.00    -0.208 N  
HETATM   19  C   UNL     1      -7.946  11.897  68.305  1.00  0.00    -0.148 C  
HETATM   20  H   UNL     1      -6.895  12.513  66.676  1.00  0.00     0.000 HD 
HETATM   21  C   UNL     1      -8.821  12.260  69.477  1.00  0.00     1.520 C  
HETATM   22  O   UNL     1      -7.586  10.731  68.137  1.00  0.00    -0.088 OA 
ENDBRANCH  12  18
ENDBRANCH   2   6
TORSDOF 2
ENDMDL
MODEL      156
REMARK 921   NORMALIZED FREE ENERGY PREDICTED BY IDOCK:   -1.69 KCAL/MOL
REMARK 922        TOTAL FREE ENERGY PREDICTED BY IDOCK:   -2.38 KCAL/MOL
REMARK 923 INTER-LIGAND FREE ENERGY PREDICTED BY IDOCK:   -1.89 KCAL/MOL
REMARK 924 INTRA-LIGAND FREE ENERGY PREDICTED BY IDOCK:   -0.49 KCAL/MOL
REMARK 927      BINDING AFFINITY PREDICTED BY RF-SCORE:    0.00 PKD
ROOT
HETATM    1  C   UNL     1      -8.173  13.269  66.489  1.00  0.00     0.524 C  
HETATM    2  N   UNL     1      -8.924  12.240  67.215  1.00  0.00    -0.180 N  
HETATM    3  C   UNL     1      -9.954  12.667  68.053  1.00  0.00    -0.220 C  
HETATM    4  C   UNL     1     -10.793  11.655  68.806  1.00  0.00    -0.262 C  
HETATM    5  O   UNL     1     -10.241  13.864  68.182  1.00  0.00    -0.235 OA 
ENDROOT
BRANCH   2   6
HETATM    6  C   UNL     1      -8.456  10.888  67.080  1.00  0.00    -0.134 A  
HETATM    7  C   UNL     1      -7.705  10.253  68.100  1.00  0.00    -0.092 A  
HETATM    8  C   UNL     1      -7.395   8.868  68.033  1.00  0.00    -0.084 A  
HETATM    9  I   UNL     1      -6.743  11.461  69.617  1.00  0.00     0.101 I  
HETATM   10  C   UNL     1      -7.018   8.171  69.288  1.00  0.00    -0.055 C  
HETATM   11  C   UNL     1      -7.631   8.173  66.830  1.00  0.00    -0.095 A  
HETATM   12  C   UNL     1      -8.194   8.839  65.721  1.00  0.00    -0.121 A  
HETATM   13  I   UNL     1      -7.165   6.089  66.607  1.00  0.00    -0.076 I  
HETATM   14  O   UNL     1      -5.934   7.378  69.222  1.00  0.00    -0.028 OA 
HETATM   15  O   UNL     1      -7.649   8.339  70.324  1.00  0.00    -0.068 OA 
HETATM   16  C   UNL     1      -8.717  10.141  65.900  1.00  0.00    -0.146 A  
HETATM   17  I   UNL     1     -10.347  10.720  64.591  1.00  0.00    -0.076 I  
BRANCH  12  18
HETATM   18  N   UNL     1      -8.349   8.126  64.509  1.00  0.00    -0.326 N  
HETATM   19  C   UNL     1      -7.469   8.027  63.463  1.00  0.00    -0.122 C  
HETATM   20  H   UNL     1      -9.228   7.622  64.400  1.00  0.00     0.000 HD 
HETATM   21  C   UNL     1      -6.204   8.844  63.411  1.00  0.00    -0.089 C  
HETATM   22  O   UNL     1      -7.710   7.201  62.580  1.00  0.00    -0.110 OA 
ENDBRANCH  12  18
ENDBRANCH   2   6
TORSDOF 2
ENDMDL
MODEL      157
REMARK 921   NORMALIZED FREE ENERGY PREDICTED BY IDOCK:   -1.66 KCAL/MOL
REMARK 922        TOTAL FREE ENERGY PREDICTED BY IDOCK:   -2.35 KCAL/MOL
REMARK 923 INTER-LIGAND FREE ENERGY PREDICTED BY IDOCK:   -2.40 KCAL/MOL
REMARK 924 INTRA-LIGAND FREE ENERGY PREDICTED BY IDOCK:    0.05 KCAL/MOL
REMARK 927      BINDING AFFINITY PREDICTED BY RF-SCORE:    0.00 PKD
ROOT
HETATM    1  C   UNL     1     -10.637   7.805  67.015  1.00  0.00    -0.326 C  
HETATM    2  N   UNL     1      -9.182   7.983  66.965  1.00  0.00    -0.141 N  
HETATM    3  C   UNL     1      -8.674   8.842  65.990  1.00  0.00    -0.167 C  
HETATM    4  C   UNL     1      -7.184   9.099  65.903  1.00  0.00    -0.093 C  
HETATM    5  O   UNL     1      -9.409   9.443  65.196  1.00  0.00    -0.252 OA 
ENDROOT
BRANCH   2   6
HETATM    6  C   UNL     1      -8.404   7.170  67.858  1.00  0.00    -0.118 A  
HETATM    7  C   UNL     1      -8.200   7.536  69.212  1.00  0.00    -0.130 A  
HETATM    8  C   UNL     1      -7.578   6.647  70.130  1.00  0.00    -0.096 A  
HETATM    9  I   UNL     1      -8.546   9.585  69.821  1.00  0.00    -0.255 I  
HETATM   10  C   UNL     1      -7.787   6.876  71.580  1.00  0.00    -0.100 C  
HETATM   11  C   UNL     1      -6.946   5.489  69.635  1.00  0.00    -0.062 A  
HETATM   12  C   UNL     1      -6.957   5.205  68.253  1.00  0.00    -0.061 A  
HETATM   13  I   UNL     1      -5.942   4.098  70.928  1.00  0.00    -0.015 I  
HETATM   14  O   UNL     1      -6.687   6.824  72.352  1.00  0.00    -0.061 OA 
HETATM   15  O   UNL     1      -8.898   7.125  72.033  1.00  0.00    -0.126 OA 
HETATM   16  C   UNL     1      -7.791   5.971  67.406  1.00  0.00    -0.102 A  
HETATM   17  I   UNL     1      -8.531   4.984  65.622  1.00  0.00    -0.141 I  
BRANCH  12  18
HETATM   18  N   UNL     1      -6.249   4.072  67.788  1.00  0.00    -0.035 N  
HETATM   19  C   UNL     1      -6.693   2.780  67.674  1.00  0.00    -0.040 C  
HETATM   20  H   UNL     1      -5.285   4.238  67.500  1.00  0.00     0.000 HD 
HETATM   21  C   UNL     1      -8.036   2.354  68.209  1.00  0.00    -0.064 C  
HETATM   22  O   UNL     1      -5.984   1.977  67.066  1.00  0.00    -0.019 OA 
ENDBRANCH  12  18
ENDBRANCH   2   6
TORSDOF 2
ENDMDL
MODEL      158
REMARK 921   NORMALIZED FREE ENERGY PREDICTED BY IDOCK:   -1.50 KCAL/MOL
REMARK 922        TOTAL FREE ENERGY PREDICTED BY IDOCK:   -2.17 KCAL/MOL
REMARK 923 INTER-LIGAND FREE ENERGY PREDICTED BY IDOCK:   -2.23 KCAL/MOL
REMARK 924 INTRA-LIGAND FREE ENERGY PREDICTED BY IDOCK:    0.06 KCAL/MOL
REMARK 927      BINDING AFFINITY PREDICTED BY RF-SCORE:    0.00 PKD
ROOT
HETATM    1  C   UNL     1     -10.462  10.046  68.261  1.00  0.00    -0.213 C  
HETATM    2  N   UNL     1      -9.279   9.371  67.718  1.00  0.00    -0.129 N  
HETATM    3  C   UNL     1      -9.010   9.538  66.360  1.00  0.00    -0.154 C  
HETATM    4  C   UNL     1      -7.786   8.898  65.740  1.00  0.00    -0.094 C  
HETATM    5  O   UNL     1      -9.729  10.233  65.630  1.00  0.00    -0.211 OA 
ENDROOT
BRANCH   2   6
HETATM    6  C   UNL     1      -8.562   8.508  68.617  1.00  0.00    -0.135 A  
HETATM    7  C   UNL     1      -7.618   9.015  69.543  1.00  0.00    -0.077 A  
HETATM    8  C   UNL     1      -7.043   8.182  70.541  1.00  0.00    -0.041 A  
HETATM    9  I   UNL     1      -6.797  10.996  69.245  1.00  0.00    -0.110 I  
HETATM   10  C   UNL     1      -6.433   8.827  71.729  1.00  0.00    -0.073 C  
HETATM   11  C   UNL     1      -7.233   6.788  70.457  1.00  0.00    -0.073 A  
HETATM   12  C   UNL     1      -8.006   6.235  69.415  1.00  0.00    -0.109 A  
HETATM   13  I   UNL     1      -6.377   5.434  71.888  1.00  0.00    -0.043 I  
HETATM   14  O   UNL     1      -5.220   8.372  72.092  1.00  0.00    -0.035 OA 
HETATM   15  O   UNL     1      -6.997   9.740  72.318  1.00  0.00     0.350 OA 
HETATM   16  C   UNL     1      -8.763   7.102  68.593  1.00  0.00    -0.127 A  
HETATM   17  I   UNL     1     -10.578   6.283  67.732  1.00  0.00    -0.436 I  
BRANCH  12  18
HETATM   18  N   UNL     1      -8.114   4.827  69.324  1.00  0.00    -0.074 N  
HETATM   19  C   UNL     1      -8.993   3.998  69.971  1.00  0.00    -0.097 C  
HETATM   20  H   UNL     1      -7.451   4.371  68.696  1.00  0.00     0.000 HD 
HETATM   21  C   UNL     1      -9.918   4.508  71.046  1.00  0.00    -0.257 C  
HETATM   22  O   UNL     1      -9.051   2.822  69.609  1.00  0.00    -0.099 OA 
ENDBRANCH  12  18
ENDBRANCH   2   6
TORSDOF 2
ENDMDL
MODEL      159
REMARK 921   NORMALIZED FREE ENERGY PREDICTED BY IDOCK:   -1.46 KCAL/MOL
REMARK 922        TOTAL FREE ENERGY PREDICTED BY IDOCK:   -2.12 KCAL/MOL
REMARK 923 INTER-LIGAND FREE ENERGY PREDICTED BY IDOCK:   -2.75 KCAL/MOL
REMARK 924 INTRA-LIGAND FREE ENERGY PREDICTED BY IDOCK:    0.63 KCAL/MOL
REMARK 927      BINDING AFFINITY PREDICTED BY RF-SCORE:    0.00 PKD
ROOT
HETATM    1  C   UNL     1      -5.284  12.446  68.268  1.00  0.00    -0.059 C  
HETATM    2  N   UNL     1      -6.065  13.418  69.039  1.00  0.00    -0.082 N  
HETATM    3  C   UNL     1      -5.907  13.414  70.425  1.00  0.00    -0.162 C  
HETATM    4  C   UNL     1      -6.657  14.414  71.281  1.00  0.00     0.627 C  
HETATM    5  O   UNL     1      -5.136  12.631  70.995  1.00  0.00    -0.126 OA 
ENDROOT
BRANCH   2   6
HETATM    6  C   UNL     1      -7.006  14.217  68.302  1.00  0.00    -0.106 A  
HETATM    7  C   UNL     1      -6.764  15.584  68.022  1.00  0.00    -0.140 A  
HETATM    8  C   UNL     1      -7.612  16.320  67.151  1.00  0.00    -0.230 A  
HETATM    9  I   UNL     1      -5.280  16.658  69.178  1.00  0.00    -0.138 I  
HETATM   10  C   UNL     1      -7.086  17.569  66.549  1.00  0.00    -0.254 C  
HETATM   11  C   UNL     1      -8.836  15.750  66.750  1.00  0.00    -0.267 A  
HETATM   12  C   UNL     1      -9.199  14.457  67.186  1.00  0.00    -0.222 A  
HETATM   13  I   UNL     1     -10.211  16.788  65.467  1.00  0.00     0.247 I  
HETATM   14  O   UNL     1      -7.903  18.637  66.593  1.00  0.00    -0.237 OA 
HETATM   15  O   UNL     1      -5.961  17.621  66.068  1.00  0.00    -0.200 OA 
HETATM   16  C   UNL     1      -8.230  13.662  67.841  1.00  0.00    -0.171 A  
HETATM   17  I   UNL     1      -8.430  11.513  67.623  1.00  0.00    -0.160 I  
BRANCH  12  18
HETATM   18  N   UNL     1     -10.467  13.949  66.821  1.00  0.00    -0.269 N  
HETATM   19  C   UNL     1     -11.654  14.062  67.497  1.00  0.00    -0.367 C  
HETATM   20  H   UNL     1     -10.503  13.432  65.943  1.00  0.00     0.000 HD 
HETATM   21  C   UNL     1     -11.725  14.655  68.881  1.00  0.00    -0.343 C  
HETATM   22  O   UNL     1     -12.685  13.715  66.917  1.00  0.00    -0.096 OA 
ENDBRANCH  12  18
ENDBRANCH   2   6
TORSDOF 2
ENDMDL
MODEL      160
REMARK 921   NORMALIZED FREE ENERGY PREDICTED BY IDOCK:   -1.45 KCAL/MOL
REMARK 922        TOTAL FREE ENERGY PREDICTED BY IDOCK:   -2.12 KCAL/MOL
REMARK 923 INTER-LIGAND FREE ENERGY PREDICTED BY IDOCK:   -1.67 KCAL/MOL
REMARK 924 INTRA-LIGAND FREE ENERGY PREDICTED BY IDOCK:   -0.45 KCAL/MOL
REMARK 927      BINDING AFFINITY PREDICTED BY RF-SCORE:    0.00 PKD
ROOT
HETATM    1  C   UNL     1      -5.338   5.744  71.004  1.00  0.00    -0.013 C  
HETATM    2  N   UNL     1      -6.747   6.101  70.807  1.00  0.00    -0.059 N  
HETATM    3  C   UNL     1      -7.629   5.833  71.854  1.00  0.00    -0.097 C  
HETATM    4  C   UNL     1      -9.092   6.207  71.732  1.00  0.00    -0.145 C  
HETATM    5  O   UNL     1      -7.251   5.322  72.916  1.00  0.00    -0.086 OA 
ENDROOT
BRANCH   2   6
HETATM    6  C   UNL     1      -7.109   6.596  69.507  1.00  0.00    -0.076 A  
HETATM    7  C   UNL     1      -6.838   7.930  69.116  1.00  0.00    -0.052 A  
HETATM    8  C   UNL     1      -7.043   8.362  67.778  1.00  0.00    -0.083 A  
HETATM    9  I   UNL     1      -6.416   9.416  70.634  1.00  0.00    -0.088 I  
HETATM   10  C   UNL     1      -6.344   9.589  67.322  1.00  0.00    -0.069 C  
HETATM   11  C   UNL     1      -7.743   7.522  66.890  1.00  0.00    -0.110 A  
HETATM   12  C   UNL     1      -8.208   6.260  67.318  1.00  0.00    -0.109 A  
HETATM   13  I   UNL     1      -8.141   8.091  64.858  1.00  0.00    -0.067 I  
HETATM   14  O   UNL     1      -7.093  10.480  66.649  1.00  0.00    -0.104 OA 
HETATM   15  O   UNL     1      -5.162   9.781  67.575  1.00  0.00    -0.036 OA 
HETATM   16  C   UNL     1      -7.774   5.762  68.569  1.00  0.00    -0.093 A  
HETATM   17  I   UNL     1      -7.662   3.605  68.767  1.00  0.00    -0.056 I  
BRANCH  12  18
HETATM   18  N   UNL     1      -8.969   5.477  66.420  1.00  0.00    -0.127 N  
HETATM   19  C   UNL     1     -10.300   5.158  66.487  1.00  0.00    -0.291 C  
HETATM   20  H   UNL     1      -8.461   5.102  65.618  1.00  0.00     0.000 HD 
HETATM   21  C   UNL     1     -11.137   5.504  67.691  1.00  0.00     0.371 C  
HETATM   22  O   UNL     1     -10.818   4.625  65.504  1.00  0.00    -0.278 OA 
ENDBRANCH  12  18
ENDBRANCH   2   6
TORSDOF 2
ENDMDL
MODEL      161
REMARK 921   NORMALIZED FREE ENERGY PREDICTED BY IDOCK:   -1.39 KCAL/MOL
REMARK 922        TOTAL FREE ENERGY PREDICTED BY IDOCK:   -2.05 KCAL/MOL
REMARK 923 INTER-LIGAND FREE ENERGY PREDICTED BY IDOCK:   -2.70 KCAL/MOL
REMARK 924 INTRA-LIGAND FREE ENERGY PREDICTED BY IDOCK:    0.65 KCAL/MOL
REMARK 927      BINDING AFFINITY PREDICTED BY RF-SCORE:    0.00 PKD
ROOT
HETATM    1  C   UNL     1      -7.725  15.058  68.370  1.00  0.00    -0.113 C  
HETATM    2  N   UNL     1      -9.157  14.841  68.599  1.00  0.00    -0.183 N  
HETATM    3  C   UNL     1      -9.653  15.118  69.873  1.00  0.00     0.026 C  
HETATM    4  C   UNL     1     -11.128  14.949  70.169  1.00  0.00    -0.247 C  
HETATM    5  O   UNL     1      -8.926  15.537  70.783  1.00  0.00     1.264 OA 
ENDROOT
BRANCH   2   6
HETATM    6  C   UNL     1      -9.900  14.259  67.515  1.00  0.00    -0.231 A  
HETATM    7  C   UNL     1     -10.678  15.051  66.635  1.00  0.00    -0.312 A  
HETATM    8  C   UNL     1     -11.269  14.494  65.469  1.00  0.00    -0.335 A  
HETATM    9  I   UNL     1     -11.246  17.054  67.231  1.00  0.00     0.874 I  
HETATM   10  C   UNL     1     -11.676  15.414  64.379  1.00  0.00    -0.258 C  
HETATM   11  C   UNL     1     -11.279  13.094  65.312  1.00  0.00    -0.291 A  
HETATM   12  C   UNL     1     -10.685  12.262  66.286  1.00  0.00    -0.259 A  
HETATM   13  I   UNL     1     -12.178  12.143  63.610  1.00  0.00    -0.442 I  
HETATM   14  O   UNL     1     -12.901  15.214  63.862  1.00  0.00    -0.671 OA 
HETATM   15  O   UNL     1     -10.942  16.319  64.002  1.00  0.00    -0.533 OA 
HETATM   16  C   UNL     1      -9.895  12.855  67.298  1.00  0.00    -0.218 A  
HETATM   17  I   UNL     1      -8.293  11.640  68.114  1.00  0.00    -0.158 I  
BRANCH  12  18
HETATM   18  N   UNL     1     -10.779  10.860  66.130  1.00  0.00    -0.204 N  
HETATM   19  C   UNL     1      -9.917  10.018  65.477  1.00  0.00    -0.296 C  
HETATM   20  H   UNL     1     -11.594  10.419  66.557  1.00  0.00     0.000 HD 
HETATM   21  C   UNL     1      -8.761  10.542  64.664  1.00  0.00    -0.193 C  
HETATM   22  O   UNL     1     -10.076   8.804  65.619  1.00  0.00     0.079 OA 
ENDBRANCH  12  18
ENDBRANCH   2   6
TORSDOF 2
ENDMDL
MODEL      162
REMARK 921   NORMALIZED FREE ENERGY PREDICTED BY IDOCK:   -1.39 KCAL/MOL
REMARK 922        TOTAL FREE ENERGY PREDICTED BY IDOCK:   -2.05 KCAL/MOL
REMARK 923 INTER-LIGAND FREE ENERGY PREDICTED BY IDOCK:   -1.91 KCAL/MOL
REMARK 924 INTRA-LIGAND FREE ENERGY PREDICTED BY IDOCK:   -0.14 KCAL/MOL
REMARK 927      BINDING AFFINITY PREDICTED BY RF-SCORE:    0.00 PKD
ROOT
HETATM    1  C   UNL     1     -12.968  15.335  69.264  1.00  0.00     0.728 C  
HETATM    2  N   UNL     1     -11.569  14.978  69.517  1.00  0.00    -0.292 N  
HETATM    3  C   UNL     1     -10.646  16.021  69.603  1.00  0.00    -0.311 C  
HETATM    4  C   UNL     1      -9.189  15.727  69.896  1.00  0.00     0.140 C  
HETATM    5  O   UNL     1     -10.982  17.206  69.480  1.00  0.00    -0.096 OA 
ENDROOT
BRANCH   2   6
HETATM    6  C   UNL     1     -11.257  13.575  69.546  1.00  0.00    -0.132 A  
HETATM    7  C   UNL     1     -11.734  12.728  70.576  1.00  0.00     0.116 A  
HETATM    8  C   UNL     1     -11.567  11.318  70.506  1.00  0.00    -0.233 A  
HETATM    9  I   UNL     1     -12.438  13.601  72.428  1.00  0.00     0.676 I  
HETATM   10  C   UNL     1     -12.446  10.465  71.344  1.00  0.00    -0.415 C  
HETATM   11  C   UNL     1     -10.714  10.780  69.523  1.00  0.00    -0.226 A  
HETATM   12  C   UNL     1     -10.059  11.628  68.605  1.00  0.00    -0.198 A  
HETATM   13  I   UNL     1     -10.359   8.669  69.352  1.00  0.00    -0.188 I  
HETATM   14  O   UNL     1     -11.836   9.482  72.031  1.00  0.00    -0.341 OA 
HETATM   15  O   UNL     1     -13.650  10.672  71.420  1.00  0.00    -0.143 OA 
HETATM   16  C   UNL     1     -10.439  12.990  68.544  1.00  0.00    -0.249 A  
HETATM   17  I   UNL     1     -10.198  13.978  66.628  1.00  0.00    -0.299 I  
BRANCH  12  18
HETATM   18  N   UNL     1      -9.154  11.057  67.680  1.00  0.00    -0.144 N  
HETATM   19  C   UNL     1      -7.785  11.107  67.689  1.00  0.00    -0.113 C  
HETATM   20  H   UNL     1      -9.576  10.543  66.906  1.00  0.00     0.000 HD 
HETATM   21  C   UNL     1      -7.029  11.962  68.673  1.00  0.00    -0.095 C  
HETATM   22  O   UNL     1      -7.175  10.383  66.900  1.00  0.00    -0.092 OA 
ENDBRANCH  12  18
ENDBRANCH   2   6
TORSDOF 2
ENDMDL
MODEL      163
REMARK 921   NORMALIZED FREE ENERGY PREDICTED BY IDOCK:   -1.37 KCAL/MOL
REMARK 922        TOTAL FREE ENERGY PREDICTED BY IDOCK:   -2.02 KCAL/MOL
REMARK 923 INTER-LIGAND FREE ENERGY PREDICTED BY IDOCK:   -1.67 KCAL/MOL
REMARK 924 INTRA-LIGAND FREE ENERGY PREDICTED BY IDOCK:   -0.36 KCAL/MOL
REMARK 927      BINDING AFFINITY PREDICTED BY RF-SCORE:    0.00 PKD
ROOT
HETATM    1  C   UNL     1     -10.604   9.636  68.472  1.00  0.00    -0.220 C  
HETATM    2  N   UNL     1      -9.499   8.760  68.071  1.00  0.00    -0.142 N  
HETATM    3  C   UNL     1      -8.760   9.131  66.948  1.00  0.00    -0.123 C  
HETATM    4  C   UNL     1      -7.583   8.290  66.497  1.00  0.00    -0.092 C  
HETATM    5  O   UNL     1      -9.010  10.161  66.309  1.00  0.00    -0.145 OA 
ENDROOT
BRANCH   2   6
HETATM    6  C   UNL     1      -9.347   7.537  68.811  1.00  0.00    -0.147 A  
HETATM    7  C   UNL     1      -8.866   7.527  70.143  1.00  0.00    -0.147 A  
HETATM    8  C   UNL     1      -8.880   6.340  70.924  1.00  0.00    -0.136 A  
HETATM    9  I   UNL     1      -7.800   9.255  70.899  1.00  0.00     0.146 I  
HETATM   10  C   UNL     1      -8.798   6.469  72.400  1.00  0.00    -0.133 C  
HETATM   11  C   UNL     1      -9.155   5.112  70.291  1.00  0.00    -0.126 A  
HETATM   12  C   UNL     1      -9.438   5.068  68.910  1.00  0.00    -0.140 A  
HETATM   13  I   UNL     1      -9.165   3.252  71.367  1.00  0.00    -0.225 I  
HETATM   14  O   UNL     1      -7.926   5.652  73.017  1.00  0.00    -0.104 OA 
HETATM   15  O   UNL     1      -9.468   7.294  73.006  1.00  0.00    -0.146 OA 
HETATM   16  C   UNL     1      -9.659   6.283  68.221  1.00  0.00    -0.119 A  
HETATM   17  I   UNL     1     -10.977   6.196  66.500  1.00  0.00     0.792 I  
BRANCH  12  18
HETATM   18  N   UNL     1      -9.636   3.809  68.297  1.00  0.00    -0.144 N  
HETATM   19  C   UNL     1      -8.718   3.024  67.650  1.00  0.00    -0.117 C  
HETATM   20  H   UNL     1     -10.585   3.438  68.342  1.00  0.00     0.000 HD 
HETATM   21  C   UNL     1      -7.321   3.511  67.364  1.00  0.00    -0.063 C  
HETATM   22  O   UNL     1      -9.046   1.874  67.354  1.00  0.00    -0.136 OA 
ENDBRANCH  12  18
ENDBRANCH   2   6
TORSDOF 2
ENDMDL
MODEL      164
REMARK 921   NORMALIZED FREE ENERGY PREDICTED BY IDOCK:   -1.29 KCAL/MOL
REMARK 922        TOTAL FREE ENERGY PREDICTED BY IDOCK:   -1.93 KCAL/MOL
REMARK 923 INTER-LIGAND FREE ENERGY PREDICTED BY IDOCK:   -2.92 KCAL/MOL
REMARK 924 INTRA-LIGAND FREE ENERGY PREDICTED BY IDOCK:    0.99 KCAL/MOL
REMARK 927      BINDING AFFINITY PREDICTED BY RF-SCORE:    0.00 PKD
ROOT
HETATM    1  C   UNL     1      -6.948  17.973  65.828  1.00  0.00    -0.231 C  
HETATM    2  N   UNL     1      -7.844  17.580  66.921  1.00  0.00    -0.215 N  
HETATM    3  C   UNL     1      -8.488  18.600  67.621  1.00  0.00    -0.267 C  
HETATM    4  C   UNL     1      -9.453  18.265  68.739  1.00  0.00    -0.298 C  
HETATM    5  O   UNL     1      -8.327  19.794  67.337  1.00  0.00    -0.289 OA 
ENDROOT
BRANCH   2   6
HETATM    6  C   UNL     1      -7.892  16.180  67.241  1.00  0.00    -0.177 A  
HETATM    7  C   UNL     1      -6.979  15.591  68.151  1.00  0.00    -0.122 A  
HETATM    8  C   UNL     1      -7.139  14.250  68.592  1.00  0.00    -0.111 A  
HETATM    9  I   UNL     1      -5.141  16.631  68.631  1.00  0.00    -0.127 I  
HETATM   10  C   UNL     1      -6.456  13.836  69.842  1.00  0.00    -0.059 C  
HETATM   11  C   UNL     1      -8.075  13.425  67.938  1.00  0.00    -0.162 A  
HETATM   12  C   UNL     1      -8.860  13.933  66.881  1.00  0.00    -0.193 A  
HETATM   13  I   UNL     1      -8.371  11.372  68.497  1.00  0.00    -0.054 I  
HETATM   14  O   UNL     1      -5.791  12.667  69.793  1.00  0.00    -0.099 OA 
HETATM   15  O   UNL     1      -6.479  14.539  70.844  1.00  0.00    -0.082 OA 
HETATM   16  C   UNL     1      -8.853  15.326  66.637  1.00  0.00    -0.293 A  
HETATM   17  I   UNL     1     -10.657  16.168  65.774  1.00  0.00    -0.186 I  
BRANCH  12  18
HETATM   18  N   UNL     1      -9.735  13.054  66.203  1.00  0.00    -0.338 N  
HETATM   19  C   UNL     1      -9.424  11.923  65.495  1.00  0.00    -0.138 C  
HETATM   20  H   UNL     1     -10.726  13.294  66.245  1.00  0.00     0.000 HD 
HETATM   21  C   UNL     1      -7.996  11.534  65.210  1.00  0.00     0.789 C  
HETATM   22  O   UNL     1     -10.349  11.189  65.141  1.00  0.00    -0.269 OA 
ENDBRANCH  12  18
ENDBRANCH   2   6
TORSDOF 2
ENDMDL
MODEL      165
REMARK 921   NORMALIZED FREE ENERGY PREDICTED BY IDOCK:   -1.18 KCAL/MOL
REMARK 922        TOTAL FREE ENERGY PREDICTED BY IDOCK:   -1.81 KCAL/MOL
REMARK 923 INTER-LIGAND FREE ENERGY PREDICTED BY IDOCK:   -1.72 KCAL/MOL
REMARK 924 INTRA-LIGAND FREE ENERGY PREDICTED BY IDOCK:   -0.10 KCAL/MOL
REMARK 927      BINDING AFFINITY PREDICTED BY RF-SCORE:    0.00 PKD
ROOT
HETATM    1  C   UNL     1      -7.167  12.555  66.886  1.00  0.00     0.152 C  
HETATM    2  N   UNL     1      -8.205  12.082  67.807  1.00  0.00    -0.141 N  
HETATM    3  C   UNL     1      -9.114  13.024  68.290  1.00  0.00    -0.179 C  
HETATM    4  C   UNL     1     -10.233  12.598  69.218  1.00  0.00     0.380 C  
HETATM    5  O   UNL     1      -9.064  14.215  67.956  1.00  0.00    -0.177 OA 
ENDROOT
BRANCH   2   6
HETATM    6  C   UNL     1      -8.125  10.706  68.215  1.00  0.00    -0.118 A  
HETATM    7  C   UNL     1      -7.278  10.290  69.271  1.00  0.00    -0.093 A  
HETATM    8  C   UNL     1      -7.330   8.964  69.780  1.00  0.00    -0.056 A  
HETATM    9  I   UNL     1      -5.661  11.583  69.907  1.00  0.00    -0.148 I  
HETATM   10  C   UNL     1      -6.776   8.708  71.132  1.00  0.00    -0.068 C  
HETATM   11  C   UNL     1      -8.062   7.991  69.071  1.00  0.00    -0.123 A  
HETATM   12  C   UNL     1      -8.754   8.337  67.891  1.00  0.00    -0.135 A  
HETATM   13  I   UNL     1      -8.178   5.949  69.728  1.00  0.00    -0.115 I  
HETATM   14  O   UNL     1      -5.973   7.635  71.248  1.00  0.00    -0.035 OA 
HETATM   15  O   UNL     1      -7.019   9.454  72.072  1.00  0.00    -0.296 OA 
HETATM   16  C   UNL     1      -8.885   9.705  67.554  1.00  0.00    -0.125 A  
HETATM   17  I   UNL     1     -10.646  10.258  66.414  1.00  0.00     0.050 I  
BRANCH  12  18
HETATM   18  N   UNL     1      -9.417   7.318  67.169  1.00  0.00    -0.138 N  
HETATM   19  C   UNL     1      -8.931   6.549  66.144  1.00  0.00    -0.146 C  
HETATM   20  H   UNL     1     -10.380   7.131  67.448  1.00  0.00     0.000 HD 
HETATM   21  C   UNL     1      -7.587   6.818  65.519  1.00  0.00    -0.088 C  
HETATM   22  O   UNL     1      -9.603   5.583  65.777  1.00  0.00    -0.121 OA 
ENDBRANCH  12  18
ENDBRANCH   2   6
TORSDOF 2
ENDMDL
MODEL      166
REMARK 921   NORMALIZED FREE ENERGY PREDICTED BY IDOCK:   -1.14 KCAL/MOL
REMARK 922        TOTAL FREE ENERGY PREDICTED BY IDOCK:   -1.77 KCAL/MOL
REMARK 923 INTER-LIGAND FREE ENERGY PREDICTED BY IDOCK:   -1.85 KCAL/MOL
REMARK 924 INTRA-LIGAND FREE ENERGY PREDICTED BY IDOCK:    0.08 KCAL/MOL
REMARK 927      BINDING AFFINITY PREDICTED BY RF-SCORE:    0.00 PKD
ROOT
HETATM    1  C   UNL     1     -12.123  11.769  65.829  1.00  0.00     0.477 C  
HETATM    2  N   UNL     1     -10.904  12.574  65.699  1.00  0.00    -0.270 N  
HETATM    3  C   UNL     1     -11.040  13.871  65.204  1.00  0.00    -0.334 C  
HETATM    4  C   UNL     1      -9.827  14.769  65.077  1.00  0.00    -0.071 C  
HETATM    5  O   UNL     1     -12.141  14.341  64.890  1.00  0.00    -0.395 OA 
ENDROOT
BRANCH   2   6
HETATM    6  C   UNL     1      -9.663  11.912  65.994  1.00  0.00    -0.237 A  
HETATM    7  C   UNL     1      -9.201  11.751  67.323  1.00  0.00    -0.173 A  
HETATM    8  C   UNL     1      -8.065  10.949  67.617  1.00  0.00    -0.115 A  
HETATM    9  I   UNL     1     -10.032  12.991  68.892  1.00  0.00     0.453 I  
HETATM   10  C   UNL     1      -7.894  10.456  69.006  1.00  0.00    -0.120 C  
HETATM   11  C   UNL     1      -7.252  10.504  66.557  1.00  0.00    -0.124 A  
HETATM   12  C   UNL     1      -7.579  10.827  65.222  1.00  0.00     0.079 A  
HETATM   13  I   UNL     1      -5.491   9.320  66.889  1.00  0.00    -0.040 I  
HETATM   14  O   UNL     1      -6.666  10.596  69.536  1.00  0.00    -0.073 OA 
HETATM   15  O   UNL     1      -8.831   9.979  69.633  1.00  0.00    -0.194 OA 
HETATM   16  C   UNL     1      -8.840  11.408  64.951  1.00  0.00     0.196 A  
HETATM   17  I   UNL     1      -9.694  11.004  62.998  1.00  0.00    -0.276 I  
BRANCH  12  18
HETATM   18  N   UNL     1      -6.700  10.423  64.191  1.00  0.00    -0.323 N  
HETATM   19  C   UNL     1      -6.707   9.253  63.477  1.00  0.00    -0.092 C  
HETATM   20  H   UNL     1      -5.966  11.088  63.948  1.00  0.00     0.000 HD 
HETATM   21  C   UNL     1      -7.627   8.114  63.832  1.00  0.00    -0.127 C  
HETATM   22  O   UNL     1      -5.974   9.174  62.489  1.00  0.00    -0.093 OA 
ENDBRANCH  12  18
ENDBRANCH   2   6
TORSDOF 2
ENDMDL
MODEL      167
REMARK 921   NORMALIZED FREE ENERGY PREDICTED BY IDOCK:   -0.83 KCAL/MOL
REMARK 922        TOTAL FREE ENERGY PREDICTED BY IDOCK:   -1.42 KCAL/MOL
REMARK 923 INTER-LIGAND FREE ENERGY PREDICTED BY IDOCK:   -2.00 KCAL/MOL
REMARK 924 INTRA-LIGAND FREE ENERGY PREDICTED BY IDOCK:    0.58 KCAL/MOL
REMARK 927      BINDING AFFINITY PREDICTED BY RF-SCORE:    0.00 PKD
ROOT
HETATM    1  C   UNL     1     -12.354  12.108  68.375  1.00  0.00     0.487 C  
HETATM    2  N   UNL     1     -11.409  12.957  69.108  1.00  0.00    -0.273 N  
HETATM    3  C   UNL     1     -11.928  13.783  70.105  1.00  0.00    -0.334 C  
HETATM    4  C   UNL     1     -11.005  14.660  70.925  1.00  0.00     0.173 C  
HETATM    5  O   UNL     1     -13.135  13.804  70.377  1.00  0.00    -0.096 OA 
ENDROOT
BRANCH   2   6
HETATM    6  C   UNL     1     -10.044  12.938  68.657  1.00  0.00    -0.128 A  
HETATM    7  C   UNL     1      -9.388  14.115  68.221  1.00  0.00    -0.203 A  
HETATM    8  C   UNL     1      -7.995  14.121  67.940  1.00  0.00    -0.157 A  
HETATM    9  I   UNL     1     -10.567  15.844  67.663  1.00  0.00    -0.288 I  
HETATM   10  C   UNL     1      -7.287  15.425  67.928  1.00  0.00    -0.141 C  
HETATM   11  C   UNL     1      -7.308  12.893  67.868  1.00  0.00    -0.127 A  
HETATM   12  C   UNL     1      -7.991  11.680  68.098  1.00  0.00    -0.141 A  
HETATM   13  I   UNL     1      -5.212  12.783  67.413  1.00  0.00     0.268 I  
HETATM   14  O   UNL     1      -6.464  15.642  66.886  1.00  0.00    -0.254 OA 
HETATM   15  O   UNL     1      -7.471  16.259  68.805  1.00  0.00    -0.170 OA 
HETATM   16  C   UNL     1      -9.307  11.725  68.615  1.00  0.00    -0.090 A  
HETATM   17  I   UNL     1      -9.932  10.036  69.825  1.00  0.00    -0.166 I  
BRANCH  12  18
HETATM   18  N   UNL     1      -7.284  10.464  67.945  1.00  0.00    -0.084 N  
HETATM   19  C   UNL     1      -7.129   9.708  66.812  1.00  0.00    -0.086 C  
HETATM   20  H   UNL     1      -6.833  10.104  68.786  1.00  0.00     0.000 HD 
HETATM   21  C   UNL     1      -7.869  10.028  65.539  1.00  0.00    -0.134 C  
HETATM   22  O   UNL     1      -6.316   8.783  66.842  1.00  0.00    -0.058 OA 
ENDBRANCH  12  18
ENDBRANCH   2   6
TORSDOF 2
ENDMDL
MODEL      168
REMARK 921   NORMALIZED FREE ENERGY PREDICTED BY IDOCK:   -0.52 KCAL/MOL
REMARK 922        TOTAL FREE ENERGY PREDICTED BY IDOCK:   -1.08 KCAL/MOL
REMARK 923 INTER-LIGAND FREE ENERGY PREDICTED BY IDOCK:   -0.55 KCAL/MOL
REMARK 924 INTRA-LIGAND FREE ENERGY PREDICTED BY IDOCK:   -0.53 KCAL/MOL
REMARK 927      BINDING AFFINITY PREDICTED BY RF-SCORE:    0.00 PKD
ROOT
HETATM    1  C   UNL     1      -9.013   9.020  65.878  1.00  0.00    -0.190 C  
HETATM    2  N   UNL     1      -8.118   7.876  66.080  1.00  0.00    -0.104 N  
HETATM    3  C   UNL     1      -7.276   7.525  65.025  1.00  0.00    -0.066 C  
HETATM    4  C   UNL     1      -6.302   6.375  65.177  1.00  0.00    -0.034 C  
HETATM    5  O   UNL     1      -7.268   8.150  63.956  1.00  0.00    -0.083 OA 
ENDROOT
BRANCH   2   6
HETATM    6  C   UNL     1      -8.268   7.152  67.313  1.00  0.00    -0.119 A  
HETATM    7  C   UNL     1      -7.601   7.552  68.497  1.00  0.00    -0.114 A  
HETATM    8  C   UNL     1      -7.886   6.938  69.747  1.00  0.00    -0.115 A  
HETATM    9  I   UNL     1      -5.901   8.886  68.360  1.00  0.00    -0.041 I  
HETATM   10  C   UNL     1      -7.518   7.664  70.987  1.00  0.00    -0.075 C  
HETATM   11  C   UNL     1      -8.664   5.764  69.768  1.00  0.00    -0.127 A  
HETATM   12  C   UNL     1      -9.174   5.224  68.567  1.00  0.00    -0.113 A  
HETATM   13  I   UNL     1      -9.124   4.732  71.595  1.00  0.00    -0.201 I  
HETATM   14  O   UNL     1      -6.884   6.943  71.929  1.00  0.00    -0.060 OA 
HETATM   15  O   UNL     1      -7.756   8.858  71.121  1.00  0.00    -0.119 OA 
HETATM   16  C   UNL     1      -9.082   5.991  67.382  1.00  0.00    -0.106 A  
HETATM   17  I   UNL     1     -10.621   5.657  65.890  1.00  0.00     0.887 I  
BRANCH  12  18
HETATM   18  N   UNL     1      -9.888   4.005  68.621  1.00  0.00    -0.059 N  
HETATM   19  C   UNL     1      -9.484   2.763  68.204  1.00  0.00    -0.157 C  
HETATM   20  H   UNL     1     -10.825   4.056  69.022  1.00  0.00     0.000 HD 
HETATM   21  C   UNL     1      -8.196   2.562  67.449  1.00  0.00    -0.080 C  
HETATM   22  O   UNL     1     -10.179   1.794  68.515  1.00  0.00     0.523 OA 
ENDBRANCH  12  18
ENDBRANCH   2   6
TORSDOF 2
ENDMDL
MODEL      169
REMARK 921   NORMALIZED FREE ENERGY PREDICTED BY IDOCK:   -0.35 KCAL/MOL
REMARK 922        TOTAL FREE ENERGY PREDICTED BY IDOCK:   -0.88 KCAL/MOL
REMARK 923 INTER-LIGAND FREE ENERGY PREDICTED BY IDOCK:   -3.63 KCAL/MOL
REMARK 924 INTRA-LIGAND FREE ENERGY PREDICTED BY IDOCK:    2.75 KCAL/MOL
REMARK 927      BINDING AFFINITY PREDICTED BY RF-SCORE:    0.00 PKD
ROOT
HETATM    1  C   UNL     1     -11.230  12.687  70.015  1.00  0.00     0.302 C  
HETATM    2  N   UNL     1     -10.851  11.800  68.911  1.00  0.00    -0.223 N  
HETATM    3  C   UNL     1     -11.223  12.184  67.622  1.00  0.00    -0.286 C  
HETATM    4  C   UNL     1     -10.835  11.333  66.431  1.00  0.00    -0.306 C  
HETATM    5  O   UNL     1     -11.842  13.233  67.403  1.00  0.00    -0.352 OA 
ENDROOT
BRANCH   2   6
HETATM    6  C   UNL     1     -10.223  10.558  69.270  1.00  0.00    -0.225 A  
HETATM    7  C   UNL     1     -10.885   9.590  70.064  1.00  0.00    -0.252 A  
HETATM    8  C   UNL     1     -10.328   8.300  70.271  1.00  0.00    -0.211 A  
HETATM    9  I   UNL     1     -12.604  10.180  71.242  1.00  0.00    -0.579 I  
HETATM   10  C   UNL     1     -11.230   7.207  70.712  1.00  0.00    -0.279 C  
HETATM   11  C   UNL     1      -8.996   8.061  69.879  1.00  0.00    -0.145 A  
HETATM   12  C   UNL     1      -8.240   9.082  69.265  1.00  0.00    -0.117 A  
HETATM   13  I   UNL     1      -8.042   6.160  70.178  1.00  0.00    -0.119 I  
HETATM   14  O   UNL     1     -10.786   6.447  71.729  1.00  0.00    -0.227 OA 
HETATM   15  O   UNL     1     -12.326   7.037  70.192  1.00  0.00    -0.058 OA 
HETATM   16  C   UNL     1      -8.898  10.264  68.851  1.00  0.00    -0.157 A  
HETATM   17  I   UNL     1      -8.043  11.306  67.152  1.00  0.00    -0.167 I  
BRANCH  12  18
HETATM   18  N   UNL     1      -6.885   8.827  68.951  1.00  0.00    -0.060 N  
HETATM   19  C   UNL     1      -6.365   8.278  67.808  1.00  0.00    -0.053 C  
HETATM   20  H   UNL     1      -6.207   9.084  69.669  1.00  0.00     0.000 HD 
HETATM   21  C   UNL     1      -7.250   7.704  66.731  1.00  0.00    -0.088 C  
HETATM   22  O   UNL     1      -5.144   8.317  67.650  1.00  0.00    -0.031 OA 
ENDBRANCH  12  18
ENDBRANCH   2   6
TORSDOF 2
ENDMDL
MODEL      170
REMARK 921   NORMALIZED FREE ENERGY PREDICTED BY IDOCK:   -0.14 KCAL/MOL
REMARK 922        TOTAL FREE ENERGY PREDICTED BY IDOCK:   -0.65 KCAL/MOL
REMARK 923 INTER-LIGAND FREE ENERGY PREDICTED BY IDOCK:   -0.36 KCAL/MOL
REMARK 924 INTRA-LIGAND FREE ENERGY PREDICTED BY IDOCK:   -0.29 KCAL/MOL
REMARK 927      BINDING AFFINITY PREDICTED BY RF-SCORE:    0.00 PKD
ROOT
HETATM    1  C   UNL     1      -6.818  18.672  69.643  1.00  0.00    -0.005 C  
HETATM    2  N   UNL     1      -7.561  18.096  68.518  1.00  0.00    -0.282 N  
HETATM    3  C   UNL     1      -7.822  18.927  67.428  1.00  0.00    -0.238 C  
HETATM    4  C   UNL     1      -8.554  18.389  66.217  1.00  0.00    -0.215 C  
HETATM    5  O   UNL     1      -7.441  20.105  67.395  1.00  0.00    -0.264 OA 
ENDROOT
BRANCH   2   6
HETATM    6  C   UNL     1      -8.047  16.754  68.687  1.00  0.00    -0.251 A  
HETATM    7  C   UNL     1      -9.428  16.475  68.835  1.00  0.00    -0.260 A  
HETATM    8  C   UNL     1      -9.914  15.140  68.830  1.00  0.00    -0.229 A  
HETATM    9  I   UNL     1     -10.779  18.071  69.397  1.00  0.00     1.734 I  
HETATM   10  C   UNL     1     -11.352  14.918  68.539  1.00  0.00    -0.298 C  
HETATM   11  C   UNL     1      -8.993  14.078  68.916  1.00  0.00     0.060 A  
HETATM   12  C   UNL     1      -7.607  14.339  68.978  1.00  0.00    -0.084 A  
HETATM   13  I   UNL     1      -9.620  12.024  68.954  1.00  0.00     0.487 I  
HETATM   14  O   UNL     1     -11.998  14.072  69.362  1.00  0.00    -0.305 OA 
HETATM   15  O   UNL     1     -11.914  15.499  67.619  1.00  0.00    -0.058 OA 
HETATM   16  C   UNL     1      -7.150  15.654  68.731  1.00  0.00    -0.127 A  
HETATM   17  I   UNL     1      -5.159  15.846  67.889  1.00  0.00    -0.096 I  
BRANCH  12  18
HETATM   18  N   UNL     1      -6.719  13.250  69.137  1.00  0.00    -0.134 N  
HETATM   19  C   UNL     1      -6.073  12.839  70.274  1.00  0.00    -0.067 C  
HETATM   20  H   UNL     1      -6.535  12.701  68.297  1.00  0.00     0.000 HD 
HETATM   21  C   UNL     1      -6.121  13.644  71.547  1.00  0.00     0.369 C  
HETATM   22  O   UNL     1      -5.492  11.752  70.248  1.00  0.00    -0.098 OA 
ENDBRANCH  12  18
ENDBRANCH   2   6
TORSDOF 2
ENDMDL
MODEL      171
REMARK 921   NORMALIZED FREE ENERGY PREDICTED BY IDOCK:   -0.03 KCAL/MOL
REMARK 922        TOTAL FREE ENERGY PREDICTED BY IDOCK:   -0.53 KCAL/MOL
REMARK 923 INTER-LIGAND FREE ENERGY PREDICTED BY IDOCK:   -1.72 KCAL/MOL
REMARK 924 INTRA-LIGAND FREE ENERGY PREDICTED BY IDOCK:    1.19 KCAL/MOL
REMARK 927      BINDING AFFINITY PREDICTED BY RF-SCORE:    0.00 PKD
ROOT
HETATM    1  C   UNL     1      -8.331  13.603  66.856  1.00  0.00     0.004 C  
HETATM    2  N   UNL     1      -9.188  14.354  67.780  1.00  0.00    -0.187 N  
HETATM    3  C   UNL     1     -10.262  13.674  68.355  1.00  0.00    -0.245 C  
HETATM    4  C   UNL     1     -11.167  14.378  69.345  1.00  0.00    -0.317 C  
HETATM    5  O   UNL     1     -10.491  12.483  68.112  1.00  0.00    -0.215 OA 
ENDROOT
BRANCH   2   6
HETATM    6  C   UNL     1      -8.905  15.755  67.925  1.00  0.00    -0.175 A  
HETATM    7  C   UNL     1      -7.852  16.221  68.750  1.00  0.00    -0.216 A  
HETATM    8  C   UNL     1      -7.469  17.590  68.755  1.00  0.00    -0.258 A  
HETATM    9  I   UNL     1      -7.024  14.906  70.258  1.00  0.00     0.622 I  
HETATM   10  C   UNL     1      -6.121  17.940  69.266  1.00  0.00    -0.239 C  
HETATM   11  C   UNL     1      -8.297  18.531  68.113  1.00  0.00    -0.296 A  
HETATM   12  C   UNL     1      -9.473  18.115  67.452  1.00  0.00    -0.255 A  
HETATM   13  I   UNL     1      -7.836  20.629  68.091  1.00  0.00     0.497 I  
HETATM   14  O   UNL     1      -6.065  18.973  70.126  1.00  0.00    -0.238 OA 
HETATM   15  O   UNL     1      -5.129  17.301  68.939  1.00  0.00    -0.145 OA 
HETATM   16  C   UNL     1      -9.690  16.731  67.255  1.00  0.00    -0.250 A  
HETATM   17  I   UNL     1     -10.857  16.171  65.514  1.00  0.00    -0.033 I  
BRANCH  12  18
HETATM   18  N   UNL     1     -10.315  19.097  66.882  1.00  0.00    -0.386 N  
HETATM   19  C   UNL     1     -10.052  19.937  65.831  1.00  0.00    -0.421 C  
HETATM   20  H   UNL     1     -11.237  19.193  67.309  1.00  0.00     0.000 HD 
HETATM   21  C   UNL     1      -8.683  20.021  65.208  1.00  0.00     0.917 C  
HETATM   22  O   UNL     1     -10.988  20.588  65.363  1.00  0.00     0.114 OA 
ENDBRANCH  12  18
ENDBRANCH   2   6
TORSDOF 2
ENDMDL
MODEL      172
REMARK 921   NORMALIZED FREE ENERGY PREDICTED BY IDOCK:    0.47 KCAL/MOL
REMARK 922        TOTAL FREE ENERGY PREDICTED BY IDOCK:    0.03 KCAL/MOL
REMARK 923 INTER-LIGAND FREE ENERGY PREDICTED BY IDOCK:    0.28 KCAL/MOL
REMARK 924 INTRA-LIGAND FREE ENERGY PREDICTED BY IDOCK:   -0.25 KCAL/MOL
REMARK 927      BINDING AFFINITY PREDICTED BY RF-SCORE:    0.00 PKD
ROOT
HETATM    1  C   UNL     1     -10.911   5.900  69.632  1.00  0.00    -0.377 C  
HETATM    2  N   UNL     1      -9.542   6.128  69.158  1.00  0.00    -0.134 N  
HETATM    3  C   UNL     1      -8.510   5.993  70.087  1.00  0.00    -0.127 C  
HETATM    4  C   UNL     1      -7.070   6.181  69.658  1.00  0.00    -0.073 C  
HETATM    5  O   UNL     1      -8.725   5.687  71.266  1.00  0.00    -0.129 OA 
ENDROOT
BRANCH   2   6
HETATM    6  C   UNL     1      -9.399   6.576  67.800  1.00  0.00    -0.118 A  
HETATM    7  C   UNL     1      -9.299   7.951  67.475  1.00  0.00    -0.143 A  
HETATM    8  C   UNL     1      -8.986   8.376  66.156  1.00  0.00    -0.218 A  
HETATM    9  I   UNL     1      -9.943   9.431  68.919  1.00  0.00    -0.223 I  
HETATM   10  C   UNL     1      -8.463   9.751  65.967  1.00  0.00    -0.124 C  
HETATM   11  C   UNL     1      -9.009   7.431  65.112  1.00  0.00     0.378 A  
HETATM   12  C   UNL     1      -9.310   6.079  65.379  1.00  0.00     0.287 A  
HETATM   13  I   UNL     1      -8.590   7.971  63.075  1.00  0.00     0.733 I  
HETATM   14  O   UNL     1      -9.021  10.466  64.974  1.00  0.00    -0.173 OA 
HETATM   15  O   UNL     1      -7.592  10.208  66.698  1.00  0.00    -0.102 OA 
HETATM   16  C   UNL     1      -9.370   5.647  66.725  1.00  0.00    -0.134 A  
HETATM   17  I   UNL     1      -8.863   3.571  67.101  1.00  0.00    -0.196 I  
BRANCH  12  18
HETATM   18  N   UNL     1      -9.394   5.175  64.295  1.00  0.00    -0.344 N  
HETATM   19  C   UNL     1     -10.472   4.432  63.889  1.00  0.00     0.192 C  
HETATM   20  H   UNL     1      -8.543   5.061  63.745  1.00  0.00     0.000 HD 
HETATM   21  C   UNL     1     -11.743   4.373  64.697  1.00  0.00     1.483 C  
HETATM   22  O   UNL     1     -10.399   3.850  62.805  1.00  0.00    -0.181 OA 
ENDBRANCH  12  18
ENDBRANCH   2   6
TORSDOF 2
ENDMDL
MODEL      173
REMARK 921   NORMALIZED FREE ENERGY PREDICTED BY IDOCK:    1.42 KCAL/MOL
REMARK 922        TOTAL FREE ENERGY PREDICTED BY IDOCK:    1.09 KCAL/MOL
REMARK 923 INTER-LIGAND FREE ENERGY PREDICTED BY IDOCK:    0.93 KCAL/MOL
REMARK 924 INTRA-LIGAND FREE ENERGY PREDICTED BY IDOCK:    0.16 KCAL/MOL
REMARK 927      BINDING AFFINITY PREDICTED BY RF-SCORE:    0.00 PKD
ROOT
HETATM    1  C   UNL     1      -6.819  18.456  70.367  1.00  0.00     1.124 C  
HETATM    2  N   UNL     1      -6.861  18.963  68.992  1.00  0.00    -0.299 N  
HETATM    3  C   UNL     1      -5.993  20.004  68.664  1.00  0.00    -0.265 C  
HETATM    4  C   UNL     1      -5.959  20.553  67.253  1.00  0.00    -0.240 C  
HETATM    5  O   UNL     1      -5.206  20.487  69.489  1.00  0.00    -0.237 OA 
ENDROOT
BRANCH   2   6
HETATM    6  C   UNL     1      -7.873  18.410  68.133  1.00  0.00    -0.289 A  
HETATM    7  C   UNL     1      -8.908  19.211  67.591  1.00  0.00    -0.295 A  
HETATM    8  C   UNL     1      -9.800  18.697  66.611  1.00  0.00    -0.377 A  
HETATM    9  I   UNL     1      -9.345  21.132  68.488  1.00  0.00     1.895 I  
HETATM   10  C   UNL     1     -10.549  19.662  65.769  1.00  0.00    -0.438 C  
HETATM   11  C   UNL     1      -9.805  17.313  66.351  1.00  0.00    -0.299 A  
HETATM   12  C   UNL     1      -8.916  16.456  67.035  1.00  0.00    -0.212 A  
HETATM   13  I   UNL     1     -11.137  16.425  64.920  1.00  0.00     0.435 I  
HETATM   14  O   UNL     1     -11.865  19.423  65.623  1.00  0.00     1.436 OA 
HETATM   15  O   UNL     1      -9.997  20.632  65.265  1.00  0.00     0.204 OA 
HETATM   16  C   UNL     1      -7.881  17.027  67.812  1.00  0.00    -0.180 A  
HETATM   17  I   UNL     1      -6.064  15.858  68.016  1.00  0.00    -0.188 I  
BRANCH  12  18
HETATM   18  N   UNL     1      -9.000  15.064  66.800  1.00  0.00    -0.249 N  
HETATM   19  C   UNL     1      -9.557  14.099  67.599  1.00  0.00    -0.216 C  
HETATM   20  H   UNL     1      -8.593  14.736  65.924  1.00  0.00     0.000 HD 
HETATM   21  C   UNL     1     -10.050  14.409  68.989  1.00  0.00    -0.161 C  
HETATM   22  O   UNL     1      -9.701  12.970  67.127  1.00  0.00    -0.219 OA 
ENDBRANCH  12  18
ENDBRANCH   2   6
TORSDOF 2
ENDMDL
MODEL      174
REMARK 921   NORMALIZED FREE ENERGY PREDICTED BY IDOCK:    1.49 KCAL/MOL
REMARK 922        TOTAL FREE ENERGY PREDICTED BY IDOCK:    1.16 KCAL/MOL
REMARK 923 INTER-LIGAND FREE ENERGY PREDICTED BY IDOCK:    1.70 KCAL/MOL
REMARK 924 INTRA-LIGAND FREE ENERGY PREDICTED BY IDOCK:   -0.54 KCAL/MOL
REMARK 927      BINDING AFFINITY PREDICTED BY RF-SCORE:    0.00 PKD
ROOT
HETATM    1  C   UNL     1      -9.208  14.907  71.122  1.00  0.00     2.981 C  
HETATM    2  N   UNL     1     -10.537  15.168  70.559  1.00  0.00    -0.170 N  
HETATM    3  C   UNL     1     -11.622  15.143  71.435  1.00  0.00    -0.373 C  
HETATM    4  C   UNL     1     -13.018  15.437  70.928  1.00  0.00    -0.539 C  
HETATM    5  O   UNL     1     -11.484  14.918  72.645  1.00  0.00    -0.243 OA 
ENDROOT
BRANCH   2   6
HETATM    6  C   UNL     1     -10.612  15.320  69.132  1.00  0.00    -0.250 A  
HETATM    7  C   UNL     1     -11.013  14.255  68.289  1.00  0.00    -0.247 A  
HETATM    8  C   UNL     1     -11.250  14.461  66.903  1.00  0.00    -0.340 A  
HETATM    9  I   UNL     1     -10.959  12.226  69.043  1.00  0.00    -0.113 I  
HETATM   10  C   UNL     1     -12.076  13.466  66.176  1.00  0.00    -0.429 C  
HETATM   11  C   UNL     1     -10.853  15.679  66.317  1.00  0.00    -0.262 A  
HETATM   12  C   UNL     1     -10.256  16.688  67.103  1.00  0.00    -0.290 A  
HETATM   13  I   UNL     1     -11.127  16.081  64.225  1.00  0.00     1.467 I  
HETATM   14  O   UNL     1     -11.592  13.046  64.993  1.00  0.00    -0.307 OA 
HETATM   15  O   UNL     1     -13.121  13.037  66.649  1.00  0.00     0.604 OA 
HETATM   16  C   UNL     1     -10.264  16.549  68.511  1.00  0.00    -0.266 A  
HETATM   17  I   UNL     1     -10.273  18.386  69.665  1.00  0.00     1.519 I  
BRANCH  12  18
HETATM   18  N   UNL     1      -9.806  17.867  66.466  1.00  0.00    -0.327 N  
HETATM   19  C   UNL     1      -8.516  18.254  66.206  1.00  0.00    -0.191 C  
HETATM   20  H   UNL     1     -10.534  18.513  66.159  1.00  0.00     0.000 HD 
HETATM   21  C   UNL     1      -7.336  17.485  66.741  1.00  0.00    -0.251 C  
HETATM   22  O   UNL     1      -8.341  19.226  65.469  1.00  0.00    -0.273 OA 
ENDBRANCH  12  18
ENDBRANCH   2   6
TORSDOF 2
ENDMDL
MODEL      175
REMARK 921   NORMALIZED FREE ENERGY PREDICTED BY IDOCK:    1.58 KCAL/MOL
REMARK 922        TOTAL FREE ENERGY PREDICTED BY IDOCK:    1.27 KCAL/MOL
REMARK 923 INTER-LIGAND FREE ENERGY PREDICTED BY IDOCK:    0.04 KCAL/MOL
REMARK 924 INTRA-LIGAND FREE ENERGY PREDICTED BY IDOCK:    1.23 KCAL/MOL
REMARK 927      BINDING AFFINITY PREDICTED BY RF-SCORE:    0.00 PKD
ROOT
HETATM    1  C   UNL     1      -9.975  12.001  68.901  1.00  0.00     0.023 C  
HETATM    2  N   UNL     1     -10.942  13.100  68.972  1.00  0.00    -0.228 N  
HETATM    3  C   UNL     1     -12.083  12.904  69.751  1.00  0.00    -0.245 C  
HETATM    4  C   UNL     1     -13.107  14.010  69.896  1.00  0.00     0.550 C  
HETATM    5  O   UNL     1     -12.280  11.850  70.370  1.00  0.00    -0.342 OA 
ENDROOT
BRANCH   2   6
HETATM    6  C   UNL     1     -10.678  14.244  68.142  1.00  0.00    -0.244 A  
HETATM    7  C   UNL     1     -11.092  14.294  66.789  1.00  0.00    -0.314 A  
HETATM    8  C   UNL     1     -10.980  15.489  66.028  1.00  0.00    -0.251 A  
HETATM    9  I   UNL     1     -11.604  12.455  65.766  1.00  0.00    -0.376 I  
HETATM   10  C   UNL     1     -11.812  15.624  64.806  1.00  0.00    -0.047 C  
HETATM   11  C   UNL     1     -10.234  16.563  66.550  1.00  0.00    -0.300 A  
HETATM   12  C   UNL     1      -9.631  16.461  67.823  1.00  0.00    -0.231 A  
HETATM   13  I   UNL     1      -9.967  18.400  65.470  1.00  0.00     1.398 I  
HETATM   14  O   UNL     1     -11.179  16.068  63.706  1.00  0.00    -0.381 OA 
HETATM   15  O   UNL     1     -12.998  15.319  64.806  1.00  0.00     0.070 OA 
HETATM   16  C   UNL     1      -9.969  15.365  68.650  1.00  0.00    -0.210 A  
HETATM   17  I   UNL     1      -9.860  15.697  70.792  1.00  0.00     2.271 I  
BRANCH  12  18
HETATM   18  N   UNL     1      -8.830  17.532  68.282  1.00  0.00    -0.266 N  
HETATM   19  C   UNL     1      -9.222  18.796  68.637  1.00  0.00    -0.347 C  
HETATM   20  H   UNL     1      -7.831  17.338  68.358  1.00  0.00     0.000 HD 
HETATM   21  C   UNL     1     -10.635  19.277  68.423  1.00  0.00    -0.193 C  
HETATM   22  O   UNL     1      -8.398  19.523  69.194  1.00  0.00    -0.298 OA 
ENDBRANCH  12  18
ENDBRANCH   2   6
TORSDOF 2
ENDMDL
MODEL      176
REMARK 921   NORMALIZED FREE ENERGY PREDICTED BY IDOCK:    1.61 KCAL/MOL
REMARK 922        TOTAL FREE ENERGY PREDICTED BY IDOCK:    1.31 KCAL/MOL
REMARK 923 INTER-LIGAND FREE ENERGY PREDICTED BY IDOCK:    1.03 KCAL/MOL
REMARK 924 INTRA-LIGAND FREE ENERGY PREDICTED BY IDOCK:    0.28 KCAL/MOL
REMARK 927      BINDING AFFINITY PREDICTED BY RF-SCORE:    0.00 PKD
ROOT
HETATM    1  C   UNL     1      -7.114  17.413  71.060  1.00  0.00     4.083 C  
HETATM    2  N   UNL     1      -6.832  17.697  69.649  1.00  0.00    -0.049 N  
HETATM    3  C   UNL     1      -5.796  18.587  69.368  1.00  0.00    -0.245 C  
HETATM    4  C   UNL     1      -5.428  18.899  67.933  1.00  0.00    -0.177 C  
HETATM    5  O   UNL     1      -5.126  19.118  70.263  1.00  0.00    -0.184 OA 
ENDROOT
BRANCH   2   6
HETATM    6  C   UNL     1      -7.724  17.112  68.685  1.00  0.00    -0.260 A  
HETATM    7  C   UNL     1      -7.575  15.773  68.248  1.00  0.00    -0.127 A  
HETATM    8  C   UNL     1      -8.556  15.151  67.430  1.00  0.00    -0.201 A  
HETATM    9  I   UNL     1      -5.686  14.760  68.558  1.00  0.00    -0.125 I  
HETATM   10  C   UNL     1      -8.588  13.669  67.374  1.00  0.00    -0.209 C  
HETATM   11  C   UNL     1      -9.567  15.946  66.854  1.00  0.00    -0.229 A  
HETATM   12  C   UNL     1      -9.617  17.333  67.110  1.00  0.00    -0.257 A  
HETATM   13  I   UNL     1     -11.076  15.118  65.570  1.00  0.00    -0.271 I  
HETATM   14  O   UNL     1      -8.687  13.125  66.148  1.00  0.00     0.198 OA 
HETATM   15  O   UNL     1      -8.499  12.991  68.390  1.00  0.00    -0.164 OA 
HETATM   16  C   UNL     1      -8.783  17.870  68.119  1.00  0.00    -0.268 A  
HETATM   17  I   UNL     1      -9.512  19.642  69.137  1.00  0.00     0.198 I  
BRANCH  12  18
HETATM   18  N   UNL     1     -10.602  18.109  66.456  1.00  0.00    -0.323 N  
HETATM   19  C   UNL     1     -10.437  19.266  65.741  1.00  0.00    -0.359 C  
HETATM   20  H   UNL     1     -11.559  17.762  66.526  1.00  0.00     0.000 HD 
HETATM   21  C   UNL     1      -9.111  19.982  65.688  1.00  0.00     0.157 C  
HETATM   22  O   UNL     1     -11.394  19.684  65.087  1.00  0.00    -0.159 OA 
ENDBRANCH  12  18
ENDBRANCH   2   6
TORSDOF 2
ENDMDL
MODEL      177
REMARK 921   NORMALIZED FREE ENERGY PREDICTED BY IDOCK:    1.99 KCAL/MOL
REMARK 922        TOTAL FREE ENERGY PREDICTED BY IDOCK:    1.73 KCAL/MOL
REMARK 923 INTER-LIGAND FREE ENERGY PREDICTED BY IDOCK:   -1.21 KCAL/MOL
REMARK 924 INTRA-LIGAND FREE ENERGY PREDICTED BY IDOCK:    2.95 KCAL/MOL
REMARK 927      BINDING AFFINITY PREDICTED BY RF-SCORE:    0.00 PKD
ROOT
HETATM    1  C   UNL     1     -11.137   7.168  67.762  1.00  0.00    -0.025 C  
HETATM    2  N   UNL     1     -10.438   8.104  68.649  1.00  0.00    -0.195 N  
HETATM    3  C   UNL     1     -10.931   8.251  69.945  1.00  0.00    -0.166 C  
HETATM    4  C   UNL     1     -10.238   9.174  70.925  1.00  0.00    -0.351 C  
HETATM    5  O   UNL     1     -11.915   7.616  70.349  1.00  0.00    -0.092 OA 
ENDROOT
BRANCH   2   6
HETATM    6  C   UNL     1      -9.370   8.868  68.064  1.00  0.00    -0.142 A  
HETATM    7  C   UNL     1      -8.374   8.261  67.259  1.00  0.00    -0.124 A  
HETATM    8  C   UNL     1      -7.425   9.043  66.548  1.00  0.00    -0.089 A  
HETATM    9  I   UNL     1      -8.087   6.117  67.363  1.00  0.00    -0.108 I  
HETATM   10  C   UNL     1      -6.717   8.418  65.403  1.00  0.00    -0.056 C  
HETATM   11  C   UNL     1      -7.324  10.419  66.832  1.00  0.00    -0.106 A  
HETATM   12  C   UNL     1      -8.174  11.014  67.788  1.00  0.00    -0.117 A  
HETATM   13  I   UNL     1      -5.899  11.687  65.844  1.00  0.00     1.702 I  
HETATM   14  O   UNL     1      -5.385   8.602  65.360  1.00  0.00    -0.034 OA 
HETATM   15  O   UNL     1      -7.317   7.752  64.570  1.00  0.00    -0.078 OA 
HETATM   16  C   UNL     1      -9.264  10.266  68.291  1.00  0.00    -0.139 A  
HETATM   17  I   UNL     1     -11.007  11.395  68.921  1.00  0.00    -0.334 I  
BRANCH  12  18
HETATM   18  N   UNL     1      -7.994  12.382  68.098  1.00  0.00    -0.144 N  
HETATM   19  C   UNL     1      -8.708  13.459  67.640  1.00  0.00    -0.198 C  
HETATM   20  H   UNL     1      -7.235  12.595  68.746  1.00  0.00     0.000 HD 
HETATM   21  C   UNL     1      -9.749  13.318  66.559  1.00  0.00    -0.273 C  
HETATM   22  O   UNL     1      -8.518  14.550  68.179  1.00  0.00    -0.143 OA 
ENDBRANCH  12  18
ENDBRANCH   2   6
TORSDOF 2
ENDMDL
MODEL      178
REMARK 921   NORMALIZED FREE ENERGY PREDICTED BY IDOCK:    2.11 KCAL/MOL
REMARK 922        TOTAL FREE ENERGY PREDICTED BY IDOCK:    1.86 KCAL/MOL
REMARK 923 INTER-LIGAND FREE ENERGY PREDICTED BY IDOCK:   -2.08 KCAL/MOL
REMARK 924 INTRA-LIGAND FREE ENERGY PREDICTED BY IDOCK:    3.94 KCAL/MOL
REMARK 927      BINDING AFFINITY PREDICTED BY RF-SCORE:    0.00 PKD
ROOT
HETATM    1  C   UNL     1      -7.205   4.050  67.633  1.00  0.00    -0.067 C  
HETATM    2  N   UNL     1      -7.998   5.176  68.136  1.00  0.00    -0.087 N  
HETATM    3  C   UNL     1      -8.126   6.292  67.309  1.00  0.00    -0.109 C  
HETATM    4  C   UNL     1      -8.960   7.476  67.751  1.00  0.00    -0.131 C  
HETATM    5  O   UNL     1      -7.603   6.341  66.188  1.00  0.00    -0.087 OA 
ENDROOT
BRANCH   2   6
HETATM    6  C   UNL     1      -8.483   5.069  69.485  1.00  0.00    -0.088 A  
HETATM    7  C   UNL     1      -8.962   3.843  70.009  1.00  0.00    -0.100 A  
HETATM    8  C   UNL     1      -9.278   3.705  71.388  1.00  0.00    -0.196 A  
HETATM    9  I   UNL     1      -9.529   2.256  68.649  1.00  0.00     0.176 I  
HETATM   10  C   UNL     1      -9.338   2.337  71.960  1.00  0.00    -0.097 C  
HETATM   11  C   UNL     1      -9.340   4.859  72.193  1.00  0.00    -0.136 A  
HETATM   12  C   UNL     1      -9.064   6.129  71.641  1.00  0.00    -0.145 A  
HETATM   13  I   UNL     1      -9.844   4.770  74.278  1.00  0.00    -0.276 I  
HETATM   14  O   UNL     1     -10.405   2.066  72.733  1.00  0.00    -0.126 OA 
HETATM   15  O   UNL     1      -8.475   1.504  71.713  1.00  0.00    -0.047 OA 
HETATM   16  C   UNL     1      -8.515   6.202  70.340  1.00  0.00    -0.133 A  
HETATM   17  I   UNL     1      -7.252   7.915  69.916  1.00  0.00    -0.069 I  
BRANCH  12  18
HETATM   18  N   UNL     1      -9.208   7.271  72.463  1.00  0.00    -0.137 N  
HETATM   19  C   UNL     1      -8.235   7.958  73.141  1.00  0.00    -0.168 C  
HETATM   20  H   UNL     1     -10.158   7.628  72.565  1.00  0.00     0.000 HD 
HETATM   21  C   UNL     1      -6.816   7.455  73.216  1.00  0.00    -0.068 C  
HETATM   22  O   UNL     1      -8.536   9.041  73.646  1.00  0.00     0.009 OA 
ENDBRANCH  12  18
ENDBRANCH   2   6
TORSDOF 2
ENDMDL
MODEL      179
REMARK 921   NORMALIZED FREE ENERGY PREDICTED BY IDOCK:    2.76 KCAL/MOL
REMARK 922        TOTAL FREE ENERGY PREDICTED BY IDOCK:    2.59 KCAL/MOL
REMARK 923 INTER-LIGAND FREE ENERGY PREDICTED BY IDOCK:   -1.94 KCAL/MOL
REMARK 924 INTRA-LIGAND FREE ENERGY PREDICTED BY IDOCK:    4.53 KCAL/MOL
REMARK 927      BINDING AFFINITY PREDICTED BY RF-SCORE:    0.00 PKD
ROOT
HETATM    1  C   UNL     1     -11.111   7.206  67.715  1.00  0.00    -0.025 C  
HETATM    2  N   UNL     1     -10.280   8.229  68.357  1.00  0.00    -0.205 N  
HETATM    3  C   UNL     1     -10.683   8.690  69.611  1.00  0.00    -0.200 C  
HETATM    4  C   UNL     1      -9.853   9.722  70.346  1.00  0.00    -0.269 C  
HETATM    5  O   UNL     1     -11.696   8.256  70.175  1.00  0.00    -0.008 OA 
ENDROOT
BRANCH   2   6
HETATM    6  C   UNL     1      -9.182   8.743  67.586  1.00  0.00    -0.134 A  
HETATM    7  C   UNL     1      -8.771  10.095  67.682  1.00  0.00    -0.121 A  
HETATM    8  C   UNL     1      -7.584  10.552  67.049  1.00  0.00    -0.107 A  
HETATM    9  I   UNL     1     -10.126  11.557  68.529  1.00  0.00    -0.166 I  
HETATM   10  C   UNL     1      -6.972  11.814  67.532  1.00  0.00    -0.113 C  
HETATM   11  C   UNL     1      -6.937   9.709  66.124  1.00  0.00    -0.093 A  
HETATM   12  C   UNL     1      -7.447   8.422  65.854  1.00  0.00    -0.081 A  
HETATM   13  I   UNL     1      -5.158  10.313  65.082  1.00  0.00    -0.127 I  
HETATM   14  O   UNL     1      -6.604  12.694  66.584  1.00  0.00     0.145 OA 
HETATM   15  O   UNL     1      -6.841  12.042  68.728  1.00  0.00    -0.082 OA 
HETATM   16  C   UNL     1      -8.476   7.909  66.678  1.00  0.00    -0.131 A  
HETATM   17  I   UNL     1      -8.554   5.753  66.904  1.00  0.00    -0.113 I  
BRANCH  12  18
HETATM   18  N   UNL     1      -6.811   7.634  64.866  1.00  0.00    -0.050 N  
HETATM   19  C   UNL     1      -5.867   6.655  65.036  1.00  0.00    -0.031 C  
HETATM   20  H   UNL     1      -7.092   7.818  63.903  1.00  0.00     0.000 HD 
HETATM   21  C   UNL     1      -5.239   6.386  66.380  1.00  0.00    -0.013 C  
HETATM   22  O   UNL     1      -5.580   5.953  64.066  1.00  0.00    -0.017 OA 
ENDBRANCH  12  18
ENDBRANCH   2   6
TORSDOF 2
ENDMDL
MODEL      180
REMARK 921   NORMALIZED FREE ENERGY PREDICTED BY IDOCK:    5.75 KCAL/MOL
REMARK 922        TOTAL FREE ENERGY PREDICTED BY IDOCK:    5.92 KCAL/MOL
REMARK 923 INTER-LIGAND FREE ENERGY PREDICTED BY IDOCK:    5.92 KCAL/MOL
REMARK 924 INTRA-LIGAND FREE ENERGY PREDICTED BY IDOCK:    0.01 KCAL/MOL
REMARK 927      BINDING AFFINITY PREDICTED BY RF-SCORE:    0.00 PKD
ROOT
HETATM    1  C   UNL     1      -5.436   6.297  70.360  1.00  0.00    -0.014 C  
HETATM    2  N   UNL     1      -6.524   6.570  71.304  1.00  0.00    -0.048 N  
HETATM    3  C   UNL     1      -6.255   6.396  72.662  1.00  0.00    -0.054 C  
HETATM    4  C   UNL     1      -7.323   6.692  73.695  1.00  0.00    -0.083 C  
HETATM    5  O   UNL     1      -5.143   6.035  73.070  1.00  0.00    -0.024 OA 
ENDROOT
BRANCH   2   6
HETATM    6  C   UNL     1      -7.805   6.888  70.735  1.00  0.00    -0.097 A  
HETATM    7  C   UNL     1      -8.899   5.992  70.814  1.00  0.00    -0.139 A  
HETATM    8  C   UNL     1     -10.202   6.381  70.403  1.00  0.00    -0.233 A  
HETATM    9  I   UNL     1      -8.531   3.905  71.263  1.00  0.00    -0.118 I  
HETATM   10  C   UNL     1     -11.360   5.602  70.907  1.00  0.00     0.089 C  
HETATM   11  C   UNL     1     -10.361   7.586  69.691  1.00  0.00    -0.225 A  
HETATM   12  C   UNL     1      -9.245   8.405  69.417  1.00  0.00    -0.154 A  
HETATM   13  I   UNL     1     -12.278   8.251  68.988  1.00  0.00     4.343 I  
HETATM   14  O   UNL     1     -12.280   5.250  69.992  1.00  0.00     3.513 OA 
HETATM   15  O   UNL     1     -11.446   5.279  72.085  1.00  0.00    -0.098 OA 
HETATM   16  C   UNL     1      -8.014   8.115  70.051  1.00  0.00    -0.105 A  
HETATM   17  I   UNL     1      -6.690   9.795  70.411  1.00  0.00    -0.093 I  
BRANCH  12  18
HETATM   18  N   UNL     1      -9.433   9.569  68.637  1.00  0.00    -0.141 N  
HETATM   19  C   UNL     1      -8.877   9.879  67.423  1.00  0.00    -0.132 C  
HETATM   20  H   UNL     1     -10.064  10.269  69.028  1.00  0.00     0.000 HD 
HETATM   21  C   UNL     1      -7.806   9.021  66.800  1.00  0.00    -0.104 C  
HETATM   22  O   UNL     1      -9.318  10.858  66.818  1.00  0.00    -0.162 OA 
ENDBRANCH  12  18
ENDBRANCH   2   6
TORSDOF 2
ENDMDL
MODEL      181
REMARK 921   NORMALIZED FREE ENERGY PREDICTED BY IDOCK:    5.92 KCAL/MOL
REMARK 922        TOTAL FREE ENERGY PREDICTED BY IDOCK:    6.12 KCAL/MOL
REMARK 923 INTER-LIGAND FREE ENERGY PREDICTED BY IDOCK:   -1.33 KCAL/MOL
REMARK 924 INTRA-LIGAND FREE ENERGY PREDICTED BY IDOCK:    7.45 KCAL/MOL
REMARK 927      BINDING AFFINITY PREDICTED BY RF-SCORE:    0.00 PKD
ROOT
HETATM    1  C   UNL     1      -6.844  13.046  69.861  1.00  0.00     0.362 C  
HETATM    2  N   UNL     1      -7.592  13.575  68.716  1.00  0.00    -0.103 N  
HETATM    3  C   UNL     1      -8.099  14.870  68.824  1.00  0.00    -0.162 C  
HETATM    4  C   UNL     1      -8.853  15.492  67.666  1.00  0.00    -0.185 C  
HETATM    5  O   UNL     1      -7.926  15.561  69.836  1.00  0.00    -0.115 OA 
ENDROOT
BRANCH   2   6
HETATM    6  C   UNL     1      -7.828  12.667  67.627  1.00  0.00    -0.162 A  
HETATM    7  C   UNL     1      -7.097  11.461  67.490  1.00  0.00    -0.106 A  
HETATM    8  C   UNL     1      -7.451  10.491  66.514  1.00  0.00    -0.128 A  
HETATM    9  I   UNL     1      -5.227  11.227  68.557  1.00  0.00    -0.041 I  
HETATM   10  C   UNL     1      -6.969   9.101  66.698  1.00  0.00    -0.081 C  
HETATM   11  C   UNL     1      -8.387  10.836  65.518  1.00  0.00    -0.129 A  
HETATM   12  C   UNL     1      -8.982  12.115  65.511  1.00  0.00     0.330 A  
HETATM   13  I   UNL     1      -8.965   9.462  63.972  1.00  0.00     0.177 I  
HETATM   14  O   UNL     1      -6.432   8.512  65.614  1.00  0.00    -0.055 OA 
HETATM   15  O   UNL     1      -7.034   8.542  67.786  1.00  0.00    -0.072 OA 
HETATM   16  C   UNL     1      -8.797  12.960  66.631  1.00  0.00    -0.091 A  
HETATM   17  I   UNL     1     -10.386  14.376  67.050  1.00  0.00    -0.272 I  
BRANCH  12  18
HETATM   18  N   UNL     1      -9.861  12.448  64.455  1.00  0.00    -0.526 N  
HETATM   19  C   UNL     1     -11.180  12.107  64.306  1.00  0.00    -0.347 C  
HETATM   20  H   UNL     1      -9.462  13.016  63.707  1.00  0.00     0.000 HD 
HETATM   21  C   UNL     1     -11.859  11.142  65.244  1.00  0.00     0.878 C  
HETATM   22  O   UNL     1     -11.823  12.657  63.411  1.00  0.00    -0.502 OA 
ENDBRANCH  12  18
ENDBRANCH   2   6
TORSDOF 2
ENDMDL
MODEL      182
REMARK 921   NORMALIZED FREE ENERGY PREDICTED BY IDOCK:    6.44 KCAL/MOL
REMARK 922        TOTAL FREE ENERGY PREDICTED BY IDOCK:    6.69 KCAL/MOL
REMARK 923 INTER-LIGAND FREE ENERGY PREDICTED BY IDOCK:    3.66 KCAL/MOL
REMARK 924 INTRA-LIGAND FREE ENERGY PREDICTED BY IDOCK:    3.04 KCAL/MOL
REMARK 927      BINDING AFFINITY PREDICTED BY RF-SCORE:    0.00 PKD
ROOT
HETATM    1  C   UNL     1      -6.344  10.993  63.783  1.00  0.00     0.729 C  
HETATM    2  N   UNL     1      -7.339  10.767  64.836  1.00  0.00     0.136 N  
HETATM    3  C   UNL     1      -7.191   9.628  65.626  1.00  0.00    -0.097 C  
HETATM    4  C   UNL     1      -8.162   9.350  66.754  1.00  0.00    -0.112 C  
HETATM    5  O   UNL     1      -6.256   8.833  65.462  1.00  0.00    -0.051 OA 
ENDROOT
BRANCH   2   6
HETATM    6  C   UNL     1      -8.442  11.688  64.887  1.00  0.00     0.792 A  
HETATM    7  C   UNL     1      -9.607  11.499  64.104  1.00  0.00    -0.157 A  
HETATM    8  C   UNL     1     -10.757  12.314  64.286  1.00  0.00    -0.389 A  
HETATM    9  I   UNL     1      -9.534  10.173  62.394  1.00  0.00     0.229 I  
HETATM   10  C   UNL     1     -12.061  11.810  63.787  1.00  0.00    -0.358 C  
HETATM   11  C   UNL     1     -10.655  13.470  65.085  1.00  0.00    -0.355 A  
HETATM   12  C   UNL     1      -9.436  13.795  65.717  1.00  0.00     0.030 A  
HETATM   13  I   UNL     1     -12.318  14.792  65.396  1.00  0.00     0.230 I  
HETATM   14  O   UNL     1     -12.803  12.685  63.085  1.00  0.00    -0.576 OA 
HETATM   15  O   UNL     1     -12.415  10.655  63.984  1.00  0.00     2.528 OA 
HETATM   16  C   UNL     1      -8.393  12.839  65.718  1.00  0.00     1.493 A  
HETATM   17  I   UNL     1      -7.020  12.905  67.396  1.00  0.00     0.150 I  
BRANCH  12  18
HETATM   18  N   UNL     1      -9.352  15.000  66.451  1.00  0.00    -0.286 N  
HETATM   19  C   UNL     1      -9.832  16.238  66.110  1.00  0.00    -0.334 C  
HETATM   20  H   UNL     1      -8.873  14.941  67.350  1.00  0.00     0.000 HD 
HETATM   21  C   UNL     1     -10.416  16.514  64.748  1.00  0.00     0.315 C  
HETATM   22  O   UNL     1      -9.827  17.118  66.973  1.00  0.00    -0.258 OA 
ENDBRANCH  12  18
ENDBRANCH   2   6
TORSDOF 2
ENDMDL
MODEL      183
REMARK 921   NORMALIZED FREE ENERGY PREDICTED BY IDOCK:    7.49 KCAL/MOL
REMARK 922        TOTAL FREE ENERGY PREDICTED BY IDOCK:    7.88 KCAL/MOL
REMARK 923 INTER-LIGAND FREE ENERGY PREDICTED BY IDOCK:    7.72 KCAL/MOL
REMARK 924 INTRA-LIGAND FREE ENERGY PREDICTED BY IDOCK:    0.16 KCAL/MOL
REMARK 927      BINDING AFFINITY PREDICTED BY RF-SCORE:    0.00 PKD
ROOT
HETATM    1  C   UNL     1      -8.000  19.037  67.639  1.00  0.00    -0.259 C  
HETATM    2  N   UNL     1      -9.423  18.795  67.894  1.00  0.00    -0.297 N  
HETATM    3  C   UNL     1     -10.280  19.895  67.845  1.00  0.00    -0.434 C  
HETATM    4  C   UNL     1     -11.768  19.712  68.064  1.00  0.00     1.857 C  
HETATM    5  O   UNL     1      -9.871  21.035  67.590  1.00  0.00    -0.313 OA 
ENDROOT
BRANCH   2   6
HETATM    6  C   UNL     1      -9.790  17.459  68.278  1.00  0.00    -0.310 A  
HETATM    7  C   UNL     1      -9.983  17.101  69.635  1.00  0.00     0.176 A  
HETATM    8  C   UNL     1     -10.509  15.831  69.994  1.00  0.00    -0.313 A  
HETATM    9  I   UNL     1      -9.170  18.366  71.193  1.00  0.00     8.100 I  
HETATM   10  C   UNL     1     -11.100  15.672  71.345  1.00  0.00    -0.226 C  
HETATM   11  C   UNL     1     -10.619  14.834  69.005  1.00  0.00    -0.248 A  
HETATM   12  C   UNL     1     -10.237  15.104  67.673  1.00  0.00    -0.241 A  
HETATM   13  I   UNL     1     -11.365  12.868  69.444  1.00  0.00    -0.083 I  
HETATM   14  O   UNL     1     -10.725  14.577  72.030  1.00  0.00     1.280 OA 
HETATM   15  O   UNL     1     -11.861  16.511  71.811  1.00  0.00    -0.423 OA 
HETATM   16  C   UNL     1      -9.955  16.440  67.303  1.00  0.00    -0.258 A  
HETATM   17  I   UNL     1     -10.331  16.972  65.233  1.00  0.00     0.840 I  
BRANCH  12  18
HETATM   18  N   UNL     1     -10.293  14.056  66.725  1.00  0.00    -0.269 N  
HETATM   19  C   UNL     1     -11.316  13.737  65.871  1.00  0.00    -0.307 C  
HETATM   20  H   UNL     1      -9.466  13.462  66.671  1.00  0.00     0.000 HD 
HETATM   21  C   UNL     1     -12.656  14.421  65.949  1.00  0.00    -0.275 C  
HETATM   22  O   UNL     1     -11.094  12.906  64.988  1.00  0.00    -0.282 OA 
ENDBRANCH  12  18
ENDBRANCH   2   6
TORSDOF 2
ENDMDL
MODEL      184
REMARK 921   NORMALIZED FREE ENERGY PREDICTED BY IDOCK:    9.33 KCAL/MOL
REMARK 922        TOTAL FREE ENERGY PREDICTED BY IDOCK:    9.92 KCAL/MOL
REMARK 923 INTER-LIGAND FREE ENERGY PREDICTED BY IDOCK:   -0.70 KCAL/MOL
REMARK 924 INTRA-LIGAND FREE ENERGY PREDICTED BY IDOCK:   10.63 KCAL/MOL
REMARK 927      BINDING AFFINITY PREDICTED BY RF-SCORE:    0.00 PKD
ROOT
HETATM    1  C   UNL     1      -9.964   4.228  67.428  1.00  0.00    -0.066 C  
HETATM    2  N   UNL     1      -9.929   5.678  67.646  1.00  0.00    -0.139 N  
HETATM    3  C   UNL     1     -10.894   6.224  68.492  1.00  0.00    -0.323 C  
HETATM    4  C   UNL     1     -10.896   7.709  68.788  1.00  0.00    -0.025 C  
HETATM    5  O   UNL     1     -11.749   5.524  69.050  1.00  0.00     1.187 OA 
ENDROOT
BRANCH   2   6
HETATM    6  C   UNL     1      -8.965   6.419  66.880  1.00  0.00    -0.124 A  
HETATM    7  C   UNL     1      -8.646   7.765  67.186  1.00  0.00    -0.128 A  
HETATM    8  C   UNL     1      -7.574   8.435  66.537  1.00  0.00    -0.088 A  
HETATM    9  I   UNL     1      -9.999   8.922  68.419  1.00  0.00    -0.234 I  
HETATM   10  C   UNL     1      -7.005   9.642  67.185  1.00  0.00    -0.085 C  
HETATM   11  C   UNL     1      -6.976   7.833  65.412  1.00  0.00    -0.055 A  
HETATM   12  C   UNL     1      -7.418   6.573  64.957  1.00  0.00    -0.085 A  
HETATM   13  I   UNL     1      -5.375   8.774  64.332  1.00  0.00    -0.052 I  
HETATM   14  O   UNL     1      -6.811  10.706  66.386  1.00  0.00    -0.112 OA 
HETATM   15  O   UNL     1      -6.757   9.665  68.384  1.00  0.00    -0.056 OA 
HETATM   16  C   UNL     1      -8.307   5.829  65.768  1.00  0.00    -0.134 A  
HETATM   17  I   UNL     1      -8.202   3.669  65.594  1.00  0.00    -0.100 I  
BRANCH  12  18
HETATM   18  N   UNL     1      -6.843   6.035  63.783  1.00  0.00    -0.037 N  
HETATM   19  C   UNL     1      -5.962   4.991  63.668  1.00  0.00    -0.021 C  
HETATM   20  H   UNL     1      -7.118   6.482  62.908  1.00  0.00     0.000 HD 
HETATM   21  C   UNL     1      -5.343   4.341  64.879  1.00  0.00    -0.013 C  
HETATM   22  O   UNL     1      -5.728   4.552  62.541  1.00  0.00    -0.012 OA 
ENDBRANCH  12  18
ENDBRANCH   2   6
TORSDOF 2
ENDMDL
MODEL      185
REMARK 921   NORMALIZED FREE ENERGY PREDICTED BY IDOCK:    9.80 KCAL/MOL
REMARK 922        TOTAL FREE ENERGY PREDICTED BY IDOCK:   10.45 KCAL/MOL
REMARK 923 INTER-LIGAND FREE ENERGY PREDICTED BY IDOCK:    1.93 KCAL/MOL
REMARK 924 INTRA-LIGAND FREE ENERGY PREDICTED BY IDOCK:    8.52 KCAL/MOL
REMARK 927      BINDING AFFINITY PREDICTED BY RF-SCORE:    0.00 PKD
ROOT
HETATM    1  C   UNL     1     -12.038  14.341  67.933  1.00  0.00    -0.261 C  
HETATM    2  N   UNL     1     -11.224  13.398  67.160  1.00  0.00    -0.293 N  
HETATM    3  C   UNL     1     -11.817  12.801  66.047  1.00  0.00    -0.439 C  
HETATM    4  C   UNL     1     -11.023  11.843  65.183  1.00  0.00    -0.365 C  
HETATM    5  O   UNL     1     -12.980  13.054  65.708  1.00  0.00    -0.315 OA 
ENDROOT
BRANCH   2   6
HETATM    6  C   UNL     1      -9.922  13.092  67.685  1.00  0.00    -0.219 A  
HETATM    7  C   UNL     1      -9.245  11.894  67.349  1.00  0.00    -0.177 A  
HETATM    8  C   UNL     1      -7.894  11.678  67.732  1.00  0.00    -0.129 A  
HETATM    9  I   UNL     1     -10.369  10.237  66.524  1.00  0.00    -0.163 I  
HETATM   10  C   UNL     1      -7.112  10.653  66.999  1.00  0.00    -0.100 C  
HETATM   11  C   UNL     1      -7.298  12.560  68.655  1.00  0.00    -0.099 A  
HETATM   12  C   UNL     1      -8.025  13.655  69.168  1.00  0.00     0.288 A  
HETATM   13  I   UNL     1      -5.275  12.305  69.332  1.00  0.00    -0.076 I  
HETATM   14  O   UNL     1      -6.397   9.801  67.755  1.00  0.00    -0.052 OA 
HETATM   15  O   UNL     1      -7.146  10.578  65.777  1.00  0.00    -0.131 OA 
HETATM   16  C   UNL     1      -9.270  13.981  68.581  1.00  0.00    -0.119 A  
HETATM   17  I   UNL     1      -9.862  16.067  68.660  1.00  0.00    -0.253 I  
BRANCH  12  18
HETATM   18  N   UNL     1      -7.417  14.474  70.147  1.00  0.00    -0.329 N  
HETATM   19  C   UNL     1      -6.722  14.091  71.265  1.00  0.00     1.210 C  
HETATM   20  H   UNL     1      -7.506  15.480  70.002  1.00  0.00     0.000 HD 
HETATM   21  C   UNL     1      -6.647  12.648  71.694  1.00  0.00     3.589 C  
HETATM   22  O   UNL     1      -6.106  14.957  71.888  1.00  0.00     0.362 OA 
ENDBRANCH  12  18
ENDBRANCH   2   6
TORSDOF 2
ENDMDL
MODEL      186
REMARK 921   NORMALIZED FREE ENERGY PREDICTED BY IDOCK:   10.75 KCAL/MOL
REMARK 922        TOTAL FREE ENERGY PREDICTED BY IDOCK:   11.51 KCAL/MOL
REMARK 923 INTER-LIGAND FREE ENERGY PREDICTED BY IDOCK:    1.90 KCAL/MOL
REMARK 924 INTRA-LIGAND FREE ENERGY PREDICTED BY IDOCK:    9.62 KCAL/MOL
REMARK 927      BINDING AFFINITY PREDICTED BY RF-SCORE:    0.00 PKD
ROOT
HETATM    1  C   UNL     1      -5.436   6.297  70.360  1.00  0.00    -0.014 C  
HETATM    2  N   UNL     1      -6.537   6.553  71.294  1.00  0.00    -0.050 N  
HETATM    3  C   UNL     1      -6.278   6.383  72.654  1.00  0.00    -0.054 C  
HETATM    4  C   UNL     1      -7.360   6.663  73.677  1.00  0.00    -0.083 C  
HETATM    5  O   UNL     1      -5.166   6.038  73.072  1.00  0.00    -0.025 OA 
ENDROOT
BRANCH   2   6
HETATM    6  C   UNL     1      -7.817   6.852  70.712  1.00  0.00    -0.097 A  
HETATM    7  C   UNL     1      -8.126   6.508  69.374  1.00  0.00    -0.119 A  
HETATM    8  C   UNL     1      -9.443   6.651  68.861  1.00  0.00    -0.130 A  
HETATM    9  I   UNL     1      -6.517   6.064  67.994  1.00  0.00    -0.055 I  
HETATM   10  C   UNL     1      -9.811   5.883  67.646  1.00  0.00    -0.121 C  
HETATM   11  C   UNL     1     -10.396   7.362  69.617  1.00  0.00    -0.223 A  
HETATM   12  C   UNL     1     -10.052   7.897  70.877  1.00  0.00    -0.190 A  
HETATM   13  I   UNL     1     -12.404   7.671  68.922  1.00  0.00     5.241 I  
HETATM   14  O   UNL     1     -10.455   6.570  66.685  1.00  0.00    -0.212 OA 
HETATM   15  O   UNL     1      -9.514   4.702  67.524  1.00  0.00    -0.136 OA 
HETATM   16  C   UNL     1      -8.819   7.526  71.462  1.00  0.00    -0.124 A  
HETATM   17  I   UNL     1      -8.737   7.519  73.630  1.00  0.00    -0.334 I  
BRANCH  12  18
HETATM   18  N   UNL     1     -11.013   8.666  71.573  1.00  0.00    -0.267 N  
HETATM   19  C   UNL     1     -11.568   9.865  71.209  1.00  0.00    -0.379 C  
HETATM   20  H   UNL     1     -11.335   8.278  72.460  1.00  0.00     0.000 HD 
HETATM   21  C   UNL     1     -11.076  10.635  70.011  1.00  0.00    -0.359 C  
HETATM   22  O   UNL     1     -12.531  10.278  71.859  1.00  0.00    -0.374 OA 
ENDBRANCH  12  18
ENDBRANCH   2   6
TORSDOF 2
ENDMDL
MODEL      187
REMARK 921   NORMALIZED FREE ENERGY PREDICTED BY IDOCK:   12.72 KCAL/MOL
REMARK 922        TOTAL FREE ENERGY PREDICTED BY IDOCK:   13.71 KCAL/MOL
REMARK 923 INTER-LIGAND FREE ENERGY PREDICTED BY IDOCK:   10.70 KCAL/MOL
REMARK 924 INTRA-LIGAND FREE ENERGY PREDICTED BY IDOCK:    3.01 KCAL/MOL
REMARK 927      BINDING AFFINITY PREDICTED BY RF-SCORE:    0.00 PKD
ROOT
HETATM    1  C   UNL     1      -7.519  13.795  69.248  1.00  0.00     0.142 C  
HETATM    2  N   UNL     1      -7.799  14.682  68.114  1.00  0.00    -0.119 N  
HETATM    3  C   UNL     1      -7.551  14.185  66.834  1.00  0.00     0.459 C  
HETATM    4  C   UNL     1      -7.850  15.034  65.616  1.00  0.00     4.021 C  
HETATM    5  O   UNL     1      -7.120  13.040  66.647  1.00  0.00     0.396 OA 
ENDROOT
BRANCH   2   6
HETATM    6  C   UNL     1      -8.202  16.024  68.432  1.00  0.00    -0.165 A  
HETATM    7  C   UNL     1      -7.331  16.929  69.086  1.00  0.00    -0.197 A  
HETATM    8  C   UNL     1      -7.673  18.299  69.242  1.00  0.00     0.074 A  
HETATM    9  I   UNL     1      -5.604  16.162  70.145  1.00  0.00    -0.078 I  
HETATM   10  C   UNL     1      -6.583  19.269  69.514  1.00  0.00    -0.288 C  
HETATM   11  C   UNL     1      -8.989  18.710  68.955  1.00  0.00    -0.081 A  
HETATM   12  C   UNL     1      -9.943  17.779  68.493  1.00  0.00    -0.370 A  
HETATM   13  I   UNL     1      -9.625  20.748  69.193  1.00  0.00     1.709 I  
HETATM   14  O   UNL     1      -6.808  20.150  70.505  1.00  0.00    -0.185 OA 
HETATM   15  O   UNL     1      -5.533  19.239  68.885  1.00  0.00    -0.193 OA 
HETATM   16  C   UNL     1      -9.507  16.488  68.114  1.00  0.00    -0.222 A  
HETATM   17  I   UNL     1     -10.671  15.481  66.585  1.00  0.00    -0.194 I  
BRANCH  12  18
HETATM   18  N   UNL     1     -11.272  18.215  68.285  1.00  0.00     0.078 N  
HETATM   19  C   UNL     1     -11.750  19.051  67.310  1.00  0.00     1.521 C  
HETATM   20  H   UNL     1     -11.964  17.861  68.947  1.00  0.00     0.000 HD 
HETATM   21  C   UNL     1     -10.826  19.775  66.365  1.00  0.00    -0.395 C  
HETATM   22  O   UNL     1     -12.971  19.154  67.185  1.00  0.00     4.791 OA 
ENDBRANCH  12  18
ENDBRANCH   2   6
TORSDOF 2
ENDMDL
MODEL      188
REMARK 921   NORMALIZED FREE ENERGY PREDICTED BY IDOCK:   14.69 KCAL/MOL
REMARK 922        TOTAL FREE ENERGY PREDICTED BY IDOCK:   15.91 KCAL/MOL
REMARK 923 INTER-LIGAND FREE ENERGY PREDICTED BY IDOCK:   15.34 KCAL/MOL
REMARK 924 INTRA-LIGAND FREE ENERGY PREDICTED BY IDOCK:    0.57 KCAL/MOL
REMARK 927      BINDING AFFINITY PREDICTED BY RF-SCORE:    0.00 PKD
ROOT
HETATM    1  C   UNL     1     -14.037  16.244  68.367  1.00  0.00     8.196 C  
HETATM    2  N   UNL     1     -12.611  15.905  68.411  1.00  0.00     0.918 N  
HETATM    3  C   UNL     1     -11.698  16.957  68.347  1.00  0.00     0.561 C  
HETATM    4  C   UNL     1     -10.211  16.681  68.423  1.00  0.00    -0.284 C  
HETATM    5  O   UNL     1     -12.062  18.137  68.265  1.00  0.00     2.158 OA 
ENDROOT
BRANCH   2   6
HETATM    6  C   UNL     1     -12.283  14.505  68.408  1.00  0.00    -0.119 A  
HETATM    7  C   UNL     1     -11.886  13.830  69.588  1.00  0.00    -0.333 A  
HETATM    8  C   UNL     1     -11.730  12.418  69.612  1.00  0.00    -0.377 A  
HETATM    9  I   UNL     1     -11.197  14.980  71.288  1.00  0.00     0.208 I  
HETATM   10  C   UNL     1     -11.758  11.730  70.927  1.00  0.00     0.448 C  
HETATM   11  C   UNL     1     -11.740  11.710  68.394  1.00  0.00    -0.307 A  
HETATM   12  C   UNL     1     -11.930  12.392  67.174  1.00  0.00    -0.177 A  
HETATM   13  I   UNL     1     -11.475   9.580  68.311  1.00  0.00     1.514 I  
HETATM   14  O   UNL     1     -10.790  10.822  71.140  1.00  0.00     0.727 OA 
HETATM   15  O   UNL     1     -12.602  12.004  71.771  1.00  0.00    -0.185 OA 
HETATM   16  C   UNL     1     -12.328  13.749  67.206  1.00  0.00    -0.164 A  
HETATM   17  I   UNL     1     -13.506  14.454  65.526  1.00  0.00     3.134 I  
BRANCH  12  18
HETATM   18  N   UNL     1     -11.861  11.657  65.968  1.00  0.00     0.091 N  
HETATM   19  C   UNL     1     -10.969  11.797  64.936  1.00  0.00    -0.300 C  
HETATM   20  H   UNL     1     -12.566  10.928  65.850  1.00  0.00     0.000 HD 
HETATM   21  C   UNL     1      -9.977  12.931  64.896  1.00  0.00    -0.151 C  
HETATM   22  O   UNL     1     -10.958  10.931  64.060  1.00  0.00    -0.215 OA 
ENDBRANCH  12  18
ENDBRANCH   2   6
TORSDOF 2
ENDMDL
MODEL      189
REMARK 921   NORMALIZED FREE ENERGY PREDICTED BY IDOCK:   18.56 KCAL/MOL
REMARK 922        TOTAL FREE ENERGY PREDICTED BY IDOCK:   20.24 KCAL/MOL
REMARK 923 INTER-LIGAND FREE ENERGY PREDICTED BY IDOCK:   17.47 KCAL/MOL
REMARK 924 INTRA-LIGAND FREE ENERGY PREDICTED BY IDOCK:    2.77 KCAL/MOL
REMARK 927      BINDING AFFINITY PREDICTED BY RF-SCORE:    0.00 PKD
ROOT
HETATM    1  C   UNL     1     -11.369  16.206  66.927  1.00  0.00     0.262 C  
HETATM    2  N   UNL     1     -11.112  16.467  68.346  1.00  0.00    -0.359 N  
HETATM    3  C   UNL     1     -12.048  17.235  69.038  1.00  0.00     2.678 C  
HETATM    4  C   UNL     1     -11.863  17.515  70.515  1.00  0.00     3.958 C  
HETATM    5  O   UNL     1     -13.066  17.679  68.491  1.00  0.00     4.969 OA 
ENDROOT
BRANCH   2   6
HETATM    6  C   UNL     1      -9.858  15.997  68.870  1.00  0.00    -0.232 A  
HETATM    7  C   UNL     1      -8.705  16.818  68.891  1.00  0.00    -0.224 A  
HETATM    8  C   UNL     1      -7.521  16.409  69.563  1.00  0.00     0.001 A  
HETATM    9  I   UNL     1      -8.626  18.571  67.621  1.00  0.00    -0.299 I  
HETATM   10  C   UNL     1      -6.531  17.449  69.936  1.00  0.00     0.053 C  
HETATM   11  C   UNL     1      -7.415  15.077  70.008  1.00  0.00     0.096 A  
HETATM   12  C   UNL     1      -8.482  14.173  69.814  1.00  0.00     1.001 A  
HETATM   13  I   UNL     1      -5.658  14.341  70.999  1.00  0.00    -0.163 I  
HETATM   14  O   UNL     1      -5.246  17.173  69.647  1.00  0.00    -0.149 OA 
HETATM   15  O   UNL     1      -6.878  18.504  70.450  1.00  0.00     0.564 OA 
HETATM   16  C   UNL     1      -9.728  14.674  69.371  1.00  0.00     0.032 A  
HETATM   17  I   UNL     1     -11.492  13.573  69.991  1.00  0.00     0.194 I  
BRANCH  12  18
HETATM   18  N   UNL     1      -8.310  12.826  70.209  1.00  0.00     3.303 N  
HETATM   19  C   UNL     1      -8.938  11.710  69.721  1.00  0.00     1.720 C  
HETATM   20  H   UNL     1      -7.632  12.665  70.953  1.00  0.00     0.000 HD 
HETATM   21  C   UNL     1     -10.076  11.808  68.738  1.00  0.00    -0.153 C  
HETATM   22  O   UNL     1      -8.509  10.608  70.065  1.00  0.00     0.220 OA 
ENDBRANCH  12  18
ENDBRANCH   2   6
TORSDOF 2
ENDMDL
MODEL      190
REMARK 921   NORMALIZED FREE ENERGY PREDICTED BY IDOCK:   19.21 KCAL/MOL
REMARK 922        TOTAL FREE ENERGY PREDICTED BY IDOCK:   20.97 KCAL/MOL
REMARK 923 INTER-LIGAND FREE ENERGY PREDICTED BY IDOCK:   18.84 KCAL/MOL
REMARK 924 INTRA-LIGAND FREE ENERGY PREDICTED BY IDOCK:    2.13 KCAL/MOL
REMARK 927      BINDING AFFINITY PREDICTED BY RF-SCORE:    0.00 PKD
ROOT
HETATM    1  C   UNL     1     -10.145  19.208  65.678  1.00  0.00     0.078 C  
HETATM    2  N   UNL     1      -9.180  18.249  66.226  1.00  0.00    -0.252 N  
HETATM    3  C   UNL     1      -7.931  18.173  65.611  1.00  0.00     0.371 C  
HETATM    4  C   UNL     1      -6.874  17.229  66.147  1.00  0.00    -0.227 C  
HETATM    5  O   UNL     1      -7.630  18.885  64.644  1.00  0.00     1.198 OA 
ENDROOT
BRANCH   2   6
HETATM    6  C   UNL     1      -9.651  17.398  67.284  1.00  0.00    -0.258 A  
HETATM    7  C   UNL     1      -9.147  17.500  68.604  1.00  0.00    -0.263 A  
HETATM    8  C   UNL     1      -9.735  16.777  69.676  1.00  0.00     0.190 A  
HETATM    9  I   UNL     1      -7.264  18.515  68.944  1.00  0.00    -0.170 I  
HETATM   10  C   UNL     1      -9.480  17.243  71.061  1.00  0.00     5.239 C  
HETATM   11  C   UNL     1     -10.675  15.769  69.384  1.00  0.00    -0.266 A  
HETATM   12  C   UNL     1     -11.046  15.505  68.048  1.00  0.00    -0.322 A  
HETATM   13  I   UNL     1     -11.597  14.589  70.924  1.00  0.00     0.072 I  
HETATM   14  O   UNL     1      -9.137  16.295  71.951  1.00  0.00     6.621 OA 
HETATM   15  O   UNL     1      -9.551  18.429  71.358  1.00  0.00     4.864 OA 
HETATM   16  C   UNL     1     -10.633  16.402  67.036  1.00  0.00    -0.260 A  
HETATM   17  I   UNL     1     -11.923  16.563  65.299  1.00  0.00     2.795 I  
BRANCH  12  18
HETATM   18  N   UNL     1     -11.937  14.438  67.791  1.00  0.00    -0.532 N  
HETATM   19  C   UNL     1     -11.713  13.092  67.922  1.00  0.00    -0.357 C  
HETATM   20  H   UNL     1     -12.866  14.704  67.464  1.00  0.00     0.000 HD 
HETATM   21  C   UNL     1     -10.345  12.543  68.239  1.00  0.00    -0.241 C  
HETATM   22  O   UNL     1     -12.680  12.333  67.832  1.00  0.00     0.559 OA 
ENDBRANCH  12  18
ENDBRANCH   2   6
TORSDOF 2
ENDMDL
MODEL      191
REMARK 921   NORMALIZED FREE ENERGY PREDICTED BY IDOCK:   19.30 KCAL/MOL
REMARK 922        TOTAL FREE ENERGY PREDICTED BY IDOCK:   21.06 KCAL/MOL
REMARK 923 INTER-LIGAND FREE ENERGY PREDICTED BY IDOCK:   10.91 KCAL/MOL
REMARK 924 INTRA-LIGAND FREE ENERGY PREDICTED BY IDOCK:   10.14 KCAL/MOL
REMARK 927      BINDING AFFINITY PREDICTED BY RF-SCORE:    0.00 PKD
ROOT
HETATM    1  C   UNL     1      -6.696  14.965  69.275  1.00  0.00    -0.141 C  
HETATM    2  N   UNL     1      -7.617  14.092  68.540  1.00  0.00    -0.124 N  
HETATM    3  C   UNL     1      -7.153  12.826  68.180  1.00  0.00    -0.105 C  
HETATM    4  C   UNL     1      -8.063  11.860  67.450  1.00  0.00    -0.165 C  
HETATM    5  O   UNL     1      -6.014  12.439  68.469  1.00  0.00    -0.053 OA 
ENDROOT
BRANCH   2   6
HETATM    6  C   UNL     1      -8.881  14.662  68.164  1.00  0.00    -0.173 A  
HETATM    7  C   UNL     1     -10.100  13.969  68.361  1.00  0.00    -0.236 A  
HETATM    8  C   UNL     1     -11.353  14.604  68.147  1.00  0.00    -0.321 A  
HETATM    9  I   UNL     1     -10.063  11.827  68.681  1.00  0.00    -0.049 I  
HETATM   10  C   UNL     1     -12.558  14.012  68.778  1.00  0.00     0.466 C  
HETATM   11  C   UNL     1     -11.380  15.859  67.506  1.00  0.00    -0.098 A  
HETATM   12  C   UNL     1     -10.179  16.484  67.111  1.00  0.00    -0.284 A  
HETATM   13  I   UNL     1     -13.219  16.891  67.098  1.00  0.00    10.298 I  
HETATM   14  O   UNL     1     -13.637  13.882  67.985  1.00  0.00     3.859 OA 
HETATM   15  O   UNL     1     -12.549  13.640  69.944  1.00  0.00    -0.221 OA 
HETATM   16  C   UNL     1      -8.950  15.946  67.559  1.00  0.00    -0.194 A  
HETATM   17  I   UNL     1      -7.307  17.343  67.793  1.00  0.00    -0.207 I  
BRANCH  12  18
HETATM   18  N   UNL     1     -10.251  17.708  66.406  1.00  0.00    -0.356 N  
HETATM   19  C   UNL     1      -9.454  18.815  66.540  1.00  0.00    -0.338 C  
HETATM   20  H   UNL     1     -10.992  17.776  65.708  1.00  0.00     0.000 HD 
HETATM   21  C   UNL     1      -8.426  18.923  67.637  1.00  0.00    -0.304 C  
HETATM   22  O   UNL     1      -9.559  19.709  65.698  1.00  0.00    -0.341 OA 
ENDBRANCH  12  18
ENDBRANCH   2   6
TORSDOF 2
ENDMDL
MODEL      192
REMARK 921   NORMALIZED FREE ENERGY PREDICTED BY IDOCK:   19.69 KCAL/MOL
REMARK 922        TOTAL FREE ENERGY PREDICTED BY IDOCK:   21.50 KCAL/MOL
REMARK 923 INTER-LIGAND FREE ENERGY PREDICTED BY IDOCK:   17.19 KCAL/MOL
REMARK 924 INTRA-LIGAND FREE ENERGY PREDICTED BY IDOCK:    4.31 KCAL/MOL
REMARK 927      BINDING AFFINITY PREDICTED BY RF-SCORE:    0.00 PKD
ROOT
HETATM    1  C   UNL     1      -6.826  14.969  69.325  1.00  0.00    -0.149 C  
HETATM    2  N   UNL     1      -7.683  13.826  68.990  1.00  0.00    -0.012 N  
HETATM    3  C   UNL     1      -7.060  12.595  68.784  1.00  0.00    -0.087 C  
HETATM    4  C   UNL     1      -7.887  11.366  68.469  1.00  0.00    -0.140 C  
HETATM    5  O   UNL     1      -5.834  12.455  68.884  1.00  0.00    -0.061 OA 
ENDROOT
BRANCH   2   6
HETATM    6  C   UNL     1      -9.080  14.105  68.799  1.00  0.00    -0.071 A  
HETATM    7  C   UNL     1     -10.087  13.313  69.403  1.00  0.00     0.621 A  
HETATM    8  C   UNL     1     -11.455  13.694  69.350  1.00  0.00    -0.343 A  
HETATM    9  I   UNL     1      -9.586  11.338  70.138  1.00  0.00     3.358 I  
HETATM   10  C   UNL     1     -12.387  13.105  70.343  1.00  0.00    -0.279 C  
HETATM   11  C   UNL     1     -11.839  14.740  68.489  1.00  0.00    -0.306 A  
HETATM   12  C   UNL     1     -10.873  15.417  67.713  1.00  0.00    -0.302 A  
HETATM   13  I   UNL     1     -13.883  15.372  68.301  1.00  0.00    11.092 I  
HETATM   14  O   UNL     1     -13.550  12.637  69.858  1.00  0.00     2.001 OA 
HETATM   15  O   UNL     1     -12.090  13.030  71.529  1.00  0.00     0.122 OA 
HETATM   16  C   UNL     1      -9.503  15.182  67.974  1.00  0.00    -0.199 A  
HETATM   17  I   UNL     1      -8.139  16.813  67.542  1.00  0.00    -0.217 I  
BRANCH  12  18
HETATM   18  N   UNL     1     -11.306  16.412  66.807  1.00  0.00     0.297 N  
HETATM   19  C   UNL     1     -11.556  16.290  65.465  1.00  0.00     0.621 C  
HETATM   20  H   UNL     1     -11.450  17.341  67.203  1.00  0.00     0.000 HD 
HETATM   21  C   UNL     1     -11.235  15.025  64.711  1.00  0.00    -0.393 C  
HETATM   22  O   UNL     1     -12.111  17.229  64.892  1.00  0.00     1.633 OA 
ENDBRANCH  12  18
ENDBRANCH   2   6
TORSDOF 2
ENDMDL
MODEL      193
REMARK 921   NORMALIZED FREE ENERGY PREDICTED BY IDOCK:   20.37 KCAL/MOL
REMARK 922        TOTAL FREE ENERGY PREDICTED BY IDOCK:   22.26 KCAL/MOL
REMARK 923 INTER-LIGAND FREE ENERGY PREDICTED BY IDOCK:   18.07 KCAL/MOL
REMARK 924 INTRA-LIGAND FREE ENERGY PREDICTED BY IDOCK:    4.19 KCAL/MOL
REMARK 927      BINDING AFFINITY PREDICTED BY RF-SCORE:    0.00 PKD
ROOT
HETATM    1  C   UNL     1      -8.052   8.613  72.379  1.00  0.00     0.005 C  
HETATM    2  N   UNL     1      -7.797   7.833  71.164  1.00  0.00    -0.087 N  
HETATM    3  C   UNL     1      -6.466   7.623  70.803  1.00  0.00    -0.038 C  
HETATM    4  C   UNL     1      -6.129   6.797  69.579  1.00  0.00    -0.029 C  
HETATM    5  O   UNL     1      -5.526   8.065  71.476  1.00  0.00    -0.034 OA 
ENDROOT
BRANCH   2   6
HETATM    6  C   UNL     1      -8.948   7.445  70.395  1.00  0.00    -0.150 A  
HETATM    7  C   UNL     1     -10.152   7.031  71.014  1.00  0.00    -0.195 A  
HETATM    8  C   UNL     1     -11.334   6.815  70.255  1.00  0.00    -0.404 A  
HETATM    9  I   UNL     1     -10.119   6.405  73.087  1.00  0.00    -0.281 I  
HETATM   10  C   UNL     1     -12.636   6.825  70.967  1.00  0.00    -0.201 C  
HETATM   11  C   UNL     1     -11.247   6.785  68.850  1.00  0.00    -0.127 A  
HETATM   12  C   UNL     1     -10.008   6.993  68.207  1.00  0.00    -0.153 A  
HETATM   13  I   UNL     1     -12.962   6.429  67.608  1.00  0.00    17.082 I  
HETATM   14  O   UNL     1     -13.480   5.821  70.670  1.00  0.00     3.454 OA 
HETATM   15  O   UNL     1     -12.904   7.686  71.795  1.00  0.00    -0.325 OA 
HETATM   16  C   UNL     1      -8.910   7.448  68.975  1.00  0.00    -0.132 A  
HETATM   17  I   UNL     1      -7.427   8.641  67.933  1.00  0.00    -0.099 I  
BRANCH  12  18
HETATM   18  N   UNL     1      -9.947   6.883  66.799  1.00  0.00    -0.248 N  
HETATM   19  C   UNL     1      -9.019   6.221  66.037  1.00  0.00    -0.137 C  
HETATM   20  H   UNL     1     -10.688   7.357  66.284  1.00  0.00     0.000 HD 
HETATM   21  C   UNL     1      -7.782   5.612  66.647  1.00  0.00    -0.100 C  
HETATM   22  O   UNL     1      -9.251   6.082  64.835  1.00  0.00     0.270 OA 
ENDBRANCH  12  18
ENDBRANCH   2   6
TORSDOF 2
ENDMDL
MODEL      194
REMARK 921   NORMALIZED FREE ENERGY PREDICTED BY IDOCK:   21.80 KCAL/MOL
REMARK 922        TOTAL FREE ENERGY PREDICTED BY IDOCK:   23.85 KCAL/MOL
REMARK 923 INTER-LIGAND FREE ENERGY PREDICTED BY IDOCK:   20.74 KCAL/MOL
REMARK 924 INTRA-LIGAND FREE ENERGY PREDICTED BY IDOCK:    3.11 KCAL/MOL
REMARK 927      BINDING AFFINITY PREDICTED BY RF-SCORE:    0.00 PKD
ROOT
HETATM    1  C   UNL     1      -6.462  18.466  69.933  1.00  0.00     0.013 C  
HETATM    2  N   UNL     1      -7.670  18.504  69.103  1.00  0.00    -0.139 N  
HETATM    3  C   UNL     1      -7.842  19.610  68.270  1.00  0.00    -0.320 C  
HETATM    4  C   UNL     1      -9.050  19.698  67.360  1.00  0.00    -0.392 C  
HETATM    5  O   UNL     1      -7.012  20.526  68.216  1.00  0.00    -0.265 OA 
ENDROOT
BRANCH   2   6
HETATM    6  C   UNL     1      -8.623  17.447  69.305  1.00  0.00     0.219 A  
HETATM    7  C   UNL     1      -9.363  17.330  70.507  1.00  0.00     3.353 A  
HETATM    8  C   UNL     1     -10.421  16.390  70.633  1.00  0.00     0.567 A  
HETATM    9  I   UNL     1      -8.674  18.363  72.281  1.00  0.00    16.777 I  
HETATM   10  C   UNL     1     -11.427  16.605  71.702  1.00  0.00     0.126 C  
HETATM   11  C   UNL     1     -10.580  15.406  69.639  1.00  0.00    -0.279 A  
HETATM   12  C   UNL     1      -9.719  15.374  68.522  1.00  0.00    -0.204 A  
HETATM   13  I   UNL     1     -12.121  13.913  69.748  1.00  0.00    -0.287 I  
HETATM   14  O   UNL     1     -11.742  15.527  72.443  1.00  0.00    -0.412 OA 
HETATM   15  O   UNL     1     -11.914  17.710  71.907  1.00  0.00     2.369 OA 
HETATM   16  C   UNL     1      -8.844  16.464  68.304  1.00  0.00    -0.202 A  
HETATM   17  I   UNL     1      -8.302  16.875  66.244  1.00  0.00    -0.082 I  
BRANCH  12  18
HETATM   18  N   UNL     1      -9.864  14.327  67.582  1.00  0.00    -0.222 N  
HETATM   19  C   UNL     1      -9.828  12.975  67.803  1.00  0.00    -0.224 C  
HETATM   20  H   UNL     1     -10.016  14.616  66.615  1.00  0.00     0.000 HD 
HETATM   21  C   UNL     1      -9.453  12.401  69.145  1.00  0.00     0.558 C  
HETATM   22  O   UNL     1     -10.168  12.229  66.883  1.00  0.00    -0.212 OA 
ENDBRANCH  12  18
ENDBRANCH   2   6
TORSDOF 2
ENDMDL
MODEL      195
REMARK 921   NORMALIZED FREE ENERGY PREDICTED BY IDOCK:   27.81 KCAL/MOL
REMARK 922        TOTAL FREE ENERGY PREDICTED BY IDOCK:   30.57 KCAL/MOL
REMARK 923 INTER-LIGAND FREE ENERGY PREDICTED BY IDOCK:   28.87 KCAL/MOL
REMARK 924 INTRA-LIGAND FREE ENERGY PREDICTED BY IDOCK:    1.70 KCAL/MOL
REMARK 927      BINDING AFFINITY PREDICTED BY RF-SCORE:    0.00 PKD
ROOT
HETATM    1  C   UNL     1     -11.521  12.041  69.398  1.00  0.00    -0.296 C  
HETATM    2  N   UNL     1     -10.136  12.392  69.727  1.00  0.00     1.233 N  
HETATM    3  C   UNL     1      -9.896  12.951  70.983  1.00  0.00     8.593 C  
HETATM    4  C   UNL     1      -8.484  13.306  71.402  1.00  0.00    11.280 C  
HETATM    5  O   UNL     1     -10.805  13.141  71.801  1.00  0.00     4.731 OA 
ENDROOT
BRANCH   2   6
HETATM    6  C   UNL     1      -9.165  12.228  68.680  1.00  0.00     0.001 A  
HETATM    7  C   UNL     1      -8.237  13.248  68.358  1.00  0.00    -0.134 A  
HETATM    8  C   UNL     1      -7.174  13.016  67.444  1.00  0.00    -0.123 A  
HETATM    9  I   UNL     1      -8.621  15.277  69.011  1.00  0.00    -0.212 I  
HETATM   10  C   UNL     1      -6.005  13.929  67.480  1.00  0.00     0.067 C  
HETATM   11  C   UNL     1      -7.183  11.837  66.673  1.00  0.00     0.025 A  
HETATM   12  C   UNL     1      -8.217  10.890  66.830  1.00  0.00    -0.140 A  
HETATM   13  I   UNL     1      -5.648  11.403  65.234  1.00  0.00     1.887 I  
HETATM   14  O   UNL     1      -5.574  14.386  66.290  1.00  0.00     3.058 OA 
HETATM   15  O   UNL     1      -5.489  14.262  68.539  1.00  0.00    -0.086 OA 
HETATM   16  C   UNL     1      -9.114  11.033  67.914  1.00  0.00    -0.147 A  
HETATM   17  I   UNL     1      -9.988   9.208  68.696  1.00  0.00    -0.210 I  
BRANCH  12  18
HETATM   18  N   UNL     1      -8.231   9.755  65.987  1.00  0.00    -0.115 N  
HETATM   19  C   UNL     1      -9.032   9.510  64.902  1.00  0.00    -0.219 C  
HETATM   20  H   UNL     1      -7.558   9.023  66.217  1.00  0.00     0.000 HD 
HETATM   21  C   UNL     1     -10.176  10.422  64.540  1.00  0.00    -0.281 C  
HETATM   22  O   UNL     1      -8.756   8.547  64.185  1.00  0.00    -0.036 OA 
ENDBRANCH  12  18
ENDBRANCH   2   6
TORSDOF 2
ENDMDL
MODEL      196
REMARK 921   NORMALIZED FREE ENERGY PREDICTED BY IDOCK:   29.80 KCAL/MOL
REMARK 922        TOTAL FREE ENERGY PREDICTED BY IDOCK:   32.79 KCAL/MOL
REMARK 923 INTER-LIGAND FREE ENERGY PREDICTED BY IDOCK:   23.04 KCAL/MOL
REMARK 924 INTRA-LIGAND FREE ENERGY PREDICTED BY IDOCK:    9.76 KCAL/MOL
REMARK 927      BINDING AFFINITY PREDICTED BY RF-SCORE:    0.00 PKD
ROOT
HETATM    1  C   UNL     1      -8.052   8.613  72.379  1.00  0.00     0.005 C  
HETATM    2  N   UNL     1      -7.797   7.833  71.164  1.00  0.00    -0.087 N  
HETATM    3  C   UNL     1      -6.466   7.623  70.803  1.00  0.00    -0.038 C  
HETATM    4  C   UNL     1      -6.129   6.797  69.579  1.00  0.00    -0.029 C  
HETATM    5  O   UNL     1      -5.526   8.065  71.476  1.00  0.00    -0.034 OA 
ENDROOT
BRANCH   2   6
HETATM    6  C   UNL     1      -8.948   7.445  70.395  1.00  0.00    -0.150 A  
HETATM    7  C   UNL     1      -8.894   6.389  69.453  1.00  0.00    -0.132 A  
HETATM    8  C   UNL     1     -10.071   5.901  68.825  1.00  0.00    -0.220 A  
HETATM    9  I   UNL     1      -6.970   5.720  68.718  1.00  0.00    -0.072 I  
HETATM   10  C   UNL     1     -10.033   4.548  68.216  1.00  0.00    -0.028 C  
HETATM   11  C   UNL     1     -11.269   6.630  68.961  1.00  0.00    -0.220 A  
HETATM   12  C   UNL     1     -11.302   7.810  69.733  1.00  0.00     0.093 A  
HETATM   13  I   UNL     1     -13.097   6.005  68.022  1.00  0.00    19.402 I  
HETATM   14  O   UNL     1     -10.551   4.441  66.979  1.00  0.00     0.118 OA 
HETATM   15  O   UNL     1      -9.531   3.599  68.804  1.00  0.00    -0.161 OA 
HETATM   16  C   UNL     1     -10.185   8.128  70.541  1.00  0.00    -0.198 A  
HETATM   17  I   UNL     1     -10.584   9.274  72.339  1.00  0.00     2.182 I  
BRANCH  12  18
HETATM   18  N   UNL     1     -12.504   8.553  69.786  1.00  0.00     0.940 N  
HETATM   19  C   UNL     1     -12.674   9.906  69.653  1.00  0.00     0.895 C  
HETATM   20  H   UNL     1     -13.354   8.011  69.944  1.00  0.00     0.000 HD 
HETATM   21  C   UNL     1     -11.500  10.848  69.576  1.00  0.00    -0.372 C  
HETATM   22  O   UNL     1     -13.823  10.336  69.537  1.00  0.00     1.144 OA 
ENDBRANCH  12  18
ENDBRANCH   2   6
TORSDOF 2
ENDMDL
MODEL      197
REMARK 921   NORMALIZED FREE ENERGY PREDICTED BY IDOCK:   34.12 KCAL/MOL
REMARK 922        TOTAL FREE ENERGY PREDICTED BY IDOCK:   37.62 KCAL/MOL
REMARK 923 INTER-LIGAND FREE ENERGY PREDICTED BY IDOCK:   35.10 KCAL/MOL
REMARK 924 INTRA-LIGAND FREE ENERGY PREDICTED BY IDOCK:    2.51 KCAL/MOL
REMARK 927      BINDING AFFINITY PREDICTED BY RF-SCORE:    0.00 PKD
ROOT
HETATM    1  C   UNL     1      -6.759  14.988  72.493  1.00  0.00     2.429 C  
HETATM    2  N   UNL     1      -7.934  14.992  71.615  1.00  0.00     3.512 N  
HETATM    3  C   UNL     1      -9.162  14.654  72.184  1.00  0.00     6.399 C  
HETATM    4  C   UNL     1     -10.422  14.671  71.344  1.00  0.00     1.574 C  
HETATM    5  O   UNL     1      -9.273  14.367  73.383  1.00  0.00     6.372 OA 
ENDROOT
BRANCH   2   6
HETATM    6  C   UNL     1      -7.693  15.239  70.220  1.00  0.00     0.567 A  
HETATM    7  C   UNL     1      -6.914  14.359  69.431  1.00  0.00    -0.129 A  
HETATM    8  C   UNL     1      -6.823  14.517  68.021  1.00  0.00    -0.153 A  
HETATM    9  I   UNL     1      -5.588  12.951  70.405  1.00  0.00    -0.119 I  
HETATM   10  C   UNL     1      -6.386  13.354  67.211  1.00  0.00     0.223 C  
HETATM   11  C   UNL     1      -7.319  15.698  67.435  1.00  0.00    -0.204 A  
HETATM   12  C   UNL     1      -7.922  16.693  68.233  1.00  0.00    -0.192 A  
HETATM   13  I   UNL     1      -7.198  16.059  65.321  1.00  0.00     9.396 I  
HETATM   14  O   UNL     1      -5.450  13.601  66.278  1.00  0.00     2.581 OA 
HETATM   15  O   UNL     1      -6.839  12.234  67.408  1.00  0.00    -0.121 OA 
HETATM   16  C   UNL     1      -8.218  16.396  69.584  1.00  0.00     0.397 A  
HETATM   17  I   UNL     1      -9.907  17.440  70.458  1.00  0.00     3.775 I  
BRANCH  12  18
HETATM   18  N   UNL     1      -8.342  17.895  67.618  1.00  0.00    -0.231 N  
HETATM   19  C   UNL     1      -8.007  19.182  67.949  1.00  0.00    -0.284 C  
HETATM   20  H   UNL     1      -8.976  17.790  66.826  1.00  0.00     0.000 HD 
HETATM   21  C   UNL     1      -7.212  19.500  69.189  1.00  0.00    -0.382 C  
HETATM   22  O   UNL     1      -8.325  20.081  67.169  1.00  0.00    -0.307 OA 
ENDBRANCH  12  18
ENDBRANCH   2   6
TORSDOF 2
ENDMDL
MODEL      198
REMARK 921   NORMALIZED FREE ENERGY PREDICTED BY IDOCK:   47.89 KCAL/MOL
REMARK 922        TOTAL FREE ENERGY PREDICTED BY IDOCK:   53.00 KCAL/MOL
REMARK 923 INTER-LIGAND FREE ENERGY PREDICTED BY IDOCK:   41.91 KCAL/MOL
REMARK 924 INTRA-LIGAND FREE ENERGY PREDICTED BY IDOCK:   11.09 KCAL/MOL
REMARK 927      BINDING AFFINITY PREDICTED BY RF-SCORE:    0.00 PKD
ROOT
HETATM    1  C   UNL     1      -6.475  17.383  72.659  1.00  0.00     5.237 C  
HETATM    2  N   UNL     1      -7.685  17.759  71.920  1.00  0.00     9.599 N  
HETATM    3  C   UNL     1      -8.351  18.916  72.325  1.00  0.00     8.913 C  
HETATM    4  C   UNL     1      -9.588  19.382  71.584  1.00  0.00     3.690 C  
HETATM    5  O   UNL     1      -7.945  19.613  73.264  1.00  0.00     2.696 OA 
ENDROOT
BRANCH   2   6
HETATM    6  C   UNL     1      -8.134  16.839  70.912  1.00  0.00     5.191 A  
HETATM    7  C   UNL     1      -9.437  16.916  70.360  1.00  0.00     2.315 A  
HETATM    8  C   UNL     1      -9.814  16.116  69.248  1.00  0.00    -0.250 A  
HETATM    9  I   UNL     1     -10.972  18.021  71.414  1.00  0.00     5.311 I  
HETATM   10  C   UNL     1     -10.989  16.538  68.446  1.00  0.00    -0.348 C  
HETATM   11  C   UNL     1      -8.964  15.069  68.840  1.00  0.00    -0.202 A  
HETATM   12  C   UNL     1      -7.744  14.839  69.511  1.00  0.00    -0.068 A  
HETATM   13  I   UNL     1      -9.454  13.776  67.197  1.00  0.00    -0.275 I  
HETATM   14  O   UNL     1     -11.879  15.575  68.147  1.00  0.00    -0.301 OA 
HETATM   15  O   UNL     1     -11.143  17.705  68.107  1.00  0.00    -0.201 OA 
HETATM   16  C   UNL     1      -7.287  15.800  70.443  1.00  0.00     0.957 A  
HETATM   17  I   UNL     1      -5.138  15.959  70.696  1.00  0.00    -0.132 I  
BRANCH  12  18
HETATM   18  N   UNL     1      -6.953  13.735  69.120  1.00  0.00    -0.177 N  
HETATM   19  C   UNL     1      -7.367  12.494  68.711  1.00  0.00    -0.070 C  
HETATM   20  H   UNL     1      -5.943  13.880  69.145  1.00  0.00     0.000 HD 
HETATM   21  C   UNL     1      -8.815  12.081  68.777  1.00  0.00     0.079 C  
HETATM   22  O   UNL     1      -6.527  11.733  68.229  1.00  0.00    -0.049 OA 
ENDBRANCH  12  18
ENDBRANCH   2   6
TORSDOF 2
ENDMDL
MODEL      199
REMARK 921   NORMALIZED FREE ENERGY PREDICTED BY IDOCK:   49.93 KCAL/MOL
REMARK 922        TOTAL FREE ENERGY PREDICTED BY IDOCK:   55.27 KCAL/MOL
REMARK 923 INTER-LIGAND FREE ENERGY PREDICTED BY IDOCK:   48.65 KCAL/MOL
REMARK 924 INTRA-LIGAND FREE ENERGY PREDICTED BY IDOCK:    6.62 KCAL/MOL
REMARK 927      BINDING AFFINITY PREDICTED BY RF-SCORE:    0.00 PKD
ROOT
HETATM    1  C   UNL     1      -7.525  15.564  64.228  1.00  0.00    16.011 C  
HETATM    2  N   UNL     1      -7.681  14.530  65.255  1.00  0.00     6.734 N  
HETATM    3  C   UNL     1      -7.127  14.782  66.510  1.00  0.00     1.922 C  
HETATM    4  C   UNL     1      -7.281  13.772  67.628  1.00  0.00    -0.183 C  
HETATM    5  O   UNL     1      -6.531  15.836  66.764  1.00  0.00    -0.218 OA 
ENDROOT
BRANCH   2   6
HETATM    6  C   UNL     1      -8.301  13.300  64.841  1.00  0.00     4.601 A  
HETATM    7  C   UNL     1      -7.558  12.103  64.698  1.00  0.00     4.027 A  
HETATM    8  C   UNL     1      -8.202  10.860  64.456  1.00  0.00     0.197 A  
HETATM    9  I   UNL     1      -5.401  12.206  64.524  1.00  0.00     6.873 I  
HETATM   10  C   UNL     1      -7.457   9.613  64.755  1.00  0.00    -0.122 C  
HETATM   11  C   UNL     1      -9.570  10.855  64.120  1.00  0.00    -0.277 A  
HETATM   12  C   UNL     1     -10.293  12.066  64.054  1.00  0.00    -0.373 A  
HETATM   13  I   UNL     1     -10.635   9.039  63.697  1.00  0.00     9.755 I  
HETATM   14  O   UNL     1      -7.495   8.659  63.808  1.00  0.00    -0.106 OA 
HETATM   15  O   UNL     1      -6.825   9.482  65.796  1.00  0.00    -0.082 OA 
HETATM   16  C   UNL     1      -9.688  13.248  64.540  1.00  0.00     0.294 A  
HETATM   17  I   UNL     1     -11.023  14.771  65.319  1.00  0.00    -0.460 I  
BRANCH  12  18
HETATM   18  N   UNL     1     -11.645  12.027  63.643  1.00  0.00    -0.492 N  
HETATM   19  C   UNL     1     -12.656  12.898  63.959  1.00  0.00    -0.246 C  
HETATM   20  H   UNL     1     -11.902  11.251  63.033  1.00  0.00     0.000 HD 
HETATM   21  C   UNL     1     -12.466  13.995  64.975  1.00  0.00    -0.446 C  
HETATM   22  O   UNL     1     -13.719  12.798  63.345  1.00  0.00     1.238 OA 
ENDBRANCH  12  18
ENDBRANCH   2   6
TORSDOF 2
ENDMDL
