MODEL        1
REMARK 921   NORMALIZED FREE ENERGY PREDICTED BY IDOCK:   -5.98 KCAL/MOL
REMARK 922        TOTAL FREE ENERGY PREDICTED BY IDOCK:   -6.40 KCAL/MOL
REMARK 923 INTER-LIGAND FREE ENERGY PREDICTED BY IDOCK:   -6.33 KCAL/MOL
REMARK 924 INTRA-LIGAND FREE ENERGY PREDICTED BY IDOCK:   -0.07 KCAL/MOL
REMARK 927      BINDING AFFINITY PREDICTED BY RF-SCORE:    0.00 PKD
ROOT
HETATM    1  C   UNL     1     -11.724  12.471  69.326  1.00  0.00    -0.379 C  
HETATM    2  C   UNL     1     -11.279  13.800  68.704  1.00  0.00    -0.278 C  
HETATM    3  C   UNL     1     -11.272  13.610  67.164  1.00  0.00    -0.309 C  
HETATM    4  C   UNL     1     -12.275  14.957  69.005  1.00  0.00    -0.171 C  
HETATM    5  N   UNL     1      -9.913  14.099  69.188  1.00  0.00    -0.429 NA 
HETATM    6  H2  UNL     1      -9.256  13.340  69.007  1.00  0.00     0.000 HD 
HETATM    7  O   UNL     1     -10.041  13.751  66.613  1.00  0.00    -0.265 OA 
HETATM    8  H1  UNL     1      -9.617  14.982  68.774  1.00  0.00     0.000 HD 
HETATM    9  O   UNL     1     -12.256  13.354  66.486  1.00  0.00    -0.399 OA 
ENDROOT
BRANCH   4  10
HETATM   10  C   UNL     1     -12.530  15.288  70.464  1.00  0.00    -0.454 A  
HETATM   11  C   UNL     1     -13.714  14.893  71.103  1.00  0.00    -0.452 A  
HETATM   12  C   UNL     1     -13.960  15.228  72.435  1.00  0.00    -0.642 A  
HETATM   13  C   UNL     1     -13.001  15.936  73.147  1.00  0.00    -0.549 A  
HETATM   14  C   UNL     1     -11.797  16.293  72.553  1.00  0.00    -0.608 A  
HETATM   15  O   UNL     1     -13.209  16.299  74.444  1.00  0.00    -0.892 OA 
HETATM   16  C   UNL     1     -11.562  15.973  71.214  1.00  0.00    -0.506 A  
HETATM   17  H   UNL     1     -12.553  16.784  74.931  1.00  0.00     0.000 HD 
ENDBRANCH   4  10
TORSDOF 1
ENDMDL
MODEL        2
REMARK 921   NORMALIZED FREE ENERGY PREDICTED BY IDOCK:   -5.66 KCAL/MOL
REMARK 922        TOTAL FREE ENERGY PREDICTED BY IDOCK:   -6.05 KCAL/MOL
REMARK 923 INTER-LIGAND FREE ENERGY PREDICTED BY IDOCK:   -5.94 KCAL/MOL
REMARK 924 INTRA-LIGAND FREE ENERGY PREDICTED BY IDOCK:   -0.11 KCAL/MOL
REMARK 927      BINDING AFFINITY PREDICTED BY RF-SCORE:    0.00 PKD
ROOT
HETATM    1  C   UNL     1      -9.422  15.270  65.541  1.00  0.00    -0.141 C  
HETATM    2  C   UNL     1     -10.854  15.802  65.685  1.00  0.00    -0.307 C  
HETATM    3  C   UNL     1     -11.782  14.578  65.900  1.00  0.00    -0.345 C  
HETATM    4  C   UNL     1     -11.022  16.712  66.936  1.00  0.00     0.050 C  
HETATM    5  N   UNL     1     -11.212  16.502  64.431  1.00  0.00    -1.229 NA 
HETATM    6  H2  UNL     1     -11.091  15.917  63.605  1.00  0.00     0.000 HD 
HETATM    7  O   UNL     1     -12.695  14.419  64.909  1.00  0.00    -0.614 OA 
HETATM    8  H1  UNL     1     -12.164  16.855  64.528  1.00  0.00     0.000 HD 
HETATM    9  O   UNL     1     -11.721  13.811  66.849  1.00  0.00    -0.351 OA 
ENDROOT
BRANCH   4  10
HETATM   10  C   UNL     1     -10.148  17.951  67.013  1.00  0.00    -0.340 A  
HETATM   11  C   UNL     1     -10.546  19.159  66.424  1.00  0.00    -0.522 A  
HETATM   12  C   UNL     1      -9.725  20.287  66.469  1.00  0.00    -0.519 A  
HETATM   13  C   UNL     1      -8.509  20.218  67.136  1.00  0.00    -0.339 A  
HETATM   14  C   UNL     1      -8.116  19.048  67.773  1.00  0.00    -0.297 A  
HETATM   15  O   UNL     1      -7.670  21.290  67.187  1.00  0.00    -0.732 OA 
HETATM   16  C   UNL     1      -8.931  17.915  67.711  1.00  0.00    -0.254 A  
HETATM   17  H   UNL     1      -6.837  21.242  67.644  1.00  0.00     0.000 HD 
ENDBRANCH   4  10
TORSDOF 1
ENDMDL
MODEL        3
REMARK 921   NORMALIZED FREE ENERGY PREDICTED BY IDOCK:   -5.59 KCAL/MOL
REMARK 922        TOTAL FREE ENERGY PREDICTED BY IDOCK:   -5.99 KCAL/MOL
REMARK 923 INTER-LIGAND FREE ENERGY PREDICTED BY IDOCK:   -5.87 KCAL/MOL
REMARK 924 INTRA-LIGAND FREE ENERGY PREDICTED BY IDOCK:   -0.11 KCAL/MOL
REMARK 927      BINDING AFFINITY PREDICTED BY RF-SCORE:    0.00 PKD
ROOT
HETATM    1  C   UNL     1     -10.635   9.470  67.336  1.00  0.00    -0.337 C  
HETATM    2  C   UNL     1     -10.801  10.579  68.382  1.00  0.00    -0.240 C  
HETATM    3  C   UNL     1      -9.969  10.168  69.626  1.00  0.00    -0.232 C  
HETATM    4  C   UNL     1     -10.229  11.942  67.896  1.00  0.00    -0.203 C  
HETATM    5  N   UNL     1     -12.236  10.668  68.734  1.00  0.00    -0.808 NA 
HETATM    6  H2  UNL     1     -12.622   9.775  69.041  1.00  0.00     0.000 HD 
HETATM    7  O   UNL     1     -10.725   9.980  70.737  1.00  0.00    -0.303 OA 
HETATM    8  H1  UNL     1     -12.346  11.405  69.430  1.00  0.00     0.000 HD 
HETATM    9  O   UNL     1      -8.757  10.016  69.638  1.00  0.00    -0.186 OA 
ENDROOT
BRANCH   4  10
HETATM   10  C   UNL     1     -10.822  12.527  66.627  1.00  0.00    -0.277 A  
HETATM   11  C   UNL     1     -12.035  13.229  66.648  1.00  0.00    -0.446 A  
HETATM   12  C   UNL     1     -12.593  13.737  65.474  1.00  0.00    -0.551 A  
HETATM   13  C   UNL     1     -11.918  13.573  64.272  1.00  0.00    -0.432 A  
HETATM   14  C   UNL     1     -10.688  12.929  64.232  1.00  0.00    -0.430 A  
HETATM   15  O   UNL     1     -12.437  14.037  63.101  1.00  0.00    -1.137 OA 
HETATM   16  C   UNL     1     -10.141  12.404  65.406  1.00  0.00    -0.289 A  
HETATM   17  H   UNL     1     -11.975  13.924  62.278  1.00  0.00     0.000 HD 
ENDBRANCH   4  10
TORSDOF 1
ENDMDL
MODEL        4
REMARK 921   NORMALIZED FREE ENERGY PREDICTED BY IDOCK:   -5.50 KCAL/MOL
REMARK 922        TOTAL FREE ENERGY PREDICTED BY IDOCK:   -5.89 KCAL/MOL
REMARK 923 INTER-LIGAND FREE ENERGY PREDICTED BY IDOCK:   -5.83 KCAL/MOL
REMARK 924 INTRA-LIGAND FREE ENERGY PREDICTED BY IDOCK:   -0.06 KCAL/MOL
REMARK 927      BINDING AFFINITY PREDICTED BY RF-SCORE:    0.00 PKD
ROOT
HETATM    1  C   UNL     1      -9.563  15.123  65.513  1.00  0.00    -0.223 C  
HETATM    2  C   UNL     1     -10.993  15.671  65.606  1.00  0.00    -0.272 C  
HETATM    3  C   UNL     1     -11.938  14.459  65.821  1.00  0.00    -0.357 C  
HETATM    4  C   UNL     1     -11.188  16.609  66.832  1.00  0.00     0.337 C  
HETATM    5  N   UNL     1     -11.311  16.346  64.328  1.00  0.00    -1.293 NA 
HETATM    6  H2  UNL     1     -11.172  15.742  63.518  1.00  0.00     0.000 HD 
HETATM    7  O   UNL     1     -12.825  14.286  64.809  1.00  0.00    -0.671 OA 
HETATM    8  H1  UNL     1     -12.262  16.709  64.390  1.00  0.00     0.000 HD 
HETATM    9  O   UNL     1     -11.911  13.713  66.789  1.00  0.00    -0.367 OA 
ENDROOT
BRANCH   4  10
HETATM   10  C   UNL     1     -10.306  17.842  66.907  1.00  0.00    -0.344 A  
HETATM   11  C   UNL     1      -9.230  17.912  67.803  1.00  0.00    -0.258 A  
HETATM   12  C   UNL     1      -8.441  19.060  67.892  1.00  0.00    -0.329 A  
HETATM   13  C   UNL     1      -8.706  20.136  67.055  1.00  0.00    -0.337 A  
HETATM   14  C   UNL     1      -9.732  20.071  66.122  1.00  0.00    -0.517 A  
HETATM   15  O   UNL     1      -7.972  21.281  67.124  1.00  0.00    -0.693 OA 
HETATM   16  C   UNL     1     -10.533  18.928  66.047  1.00  0.00    -0.507 A  
HETATM   17  H   UNL     1      -8.154  22.018  66.551  1.00  0.00     0.000 HD 
ENDBRANCH   4  10
TORSDOF 1
ENDMDL
MODEL        5
REMARK 921   NORMALIZED FREE ENERGY PREDICTED BY IDOCK:   -5.48 KCAL/MOL
REMARK 922        TOTAL FREE ENERGY PREDICTED BY IDOCK:   -5.87 KCAL/MOL
REMARK 923 INTER-LIGAND FREE ENERGY PREDICTED BY IDOCK:   -5.84 KCAL/MOL
REMARK 924 INTRA-LIGAND FREE ENERGY PREDICTED BY IDOCK:   -0.03 KCAL/MOL
REMARK 927      BINDING AFFINITY PREDICTED BY RF-SCORE:    0.00 PKD
ROOT
HETATM    1  C   UNL     1     -12.496  14.170  66.109  1.00  0.00    -0.426 C  
HETATM    2  C   UNL     1     -11.559  14.388  64.914  1.00  0.00    -0.395 C  
HETATM    3  C   UNL     1     -11.322  15.916  64.786  1.00  0.00    -0.309 C  
HETATM    4  C   UNL     1     -10.162  13.739  65.133  1.00  0.00    -0.367 C  
HETATM    5  N   UNL     1     -12.232  13.871  63.702  1.00  0.00    -0.971 NA 
HETATM    6  H2  UNL     1     -13.155  14.282  63.558  1.00  0.00     0.000 HD 
HETATM    7  O   UNL     1     -11.780  16.432  63.617  1.00  0.00    -0.933 OA 
HETATM    8  H1  UNL     1     -11.609  14.017  62.908  1.00  0.00     0.000 HD 
HETATM    9  O   UNL     1     -10.786  16.615  65.633  1.00  0.00    -0.262 OA 
ENDROOT
BRANCH   4  10
HETATM   10  C   UNL     1     -10.125  12.241  65.374  1.00  0.00    -0.292 A  
HETATM   11  C   UNL     1     -10.421  11.700  66.634  1.00  0.00    -0.268 A  
HETATM   12  C   UNL     1     -10.355  10.325  66.861  1.00  0.00    -0.298 A  
HETATM   13  C   UNL     1     -10.021   9.477  65.813  1.00  0.00    -0.245 A  
HETATM   14  C   UNL     1      -9.775   9.983  64.543  1.00  0.00    -0.310 A  
HETATM   15  O   UNL     1      -9.926   8.130  65.997  1.00  0.00    -0.459 OA 
HETATM   16  C   UNL     1      -9.824  11.362  64.323  1.00  0.00    -0.301 A  
HETATM   17  H   UNL     1      -9.697   7.550  65.279  1.00  0.00     0.000 HD 
ENDBRANCH   4  10
TORSDOF 1
ENDMDL
MODEL        6
REMARK 921   NORMALIZED FREE ENERGY PREDICTED BY IDOCK:   -5.48 KCAL/MOL
REMARK 922        TOTAL FREE ENERGY PREDICTED BY IDOCK:   -5.87 KCAL/MOL
REMARK 923 INTER-LIGAND FREE ENERGY PREDICTED BY IDOCK:   -5.86 KCAL/MOL
REMARK 924 INTRA-LIGAND FREE ENERGY PREDICTED BY IDOCK:   -0.00 KCAL/MOL
REMARK 927      BINDING AFFINITY PREDICTED BY RF-SCORE:    0.00 PKD
ROOT
HETATM    1  C   UNL     1     -12.155  14.466  66.374  1.00  0.00    -0.390 C  
HETATM    2  C   UNL     1     -11.435  14.615  65.028  1.00  0.00    -0.386 C  
HETATM    3  C   UNL     1     -11.152  16.126  64.821  1.00  0.00    -0.333 C  
HETATM    4  C   UNL     1     -10.055  13.898  65.012  1.00  0.00    -0.319 C  
HETATM    5  N   UNL     1     -12.338  14.115  63.967  1.00  0.00    -0.804 NA 
HETATM    6  H2  UNL     1     -13.251  14.570  63.978  1.00  0.00     0.000 HD 
HETATM    7  O   UNL     1     -11.784  16.646  63.739  1.00  0.00    -1.015 OA 
HETATM    8  H1  UNL     1     -11.859  14.214  63.072  1.00  0.00     0.000 HD 
HETATM    9  O   UNL     1     -10.441  16.811  65.542  1.00  0.00    -0.538 OA 
ENDROOT
BRANCH   4  10
HETATM   10  C   UNL     1     -10.048  12.405  65.281  1.00  0.00    -0.285 A  
HETATM   11  C   UNL     1      -9.846  11.480  64.247  1.00  0.00    -0.279 A  
HETATM   12  C   UNL     1      -9.873  10.106  64.493  1.00  0.00    -0.334 A  
HETATM   13  C   UNL     1     -10.071   9.650  65.789  1.00  0.00    -0.204 A  
HETATM   14  C   UNL     1     -10.220  10.546  66.840  1.00  0.00    -0.280 A  
HETATM   15  O   UNL     1     -10.124   8.318  66.069  1.00  0.00    -0.458 OA 
HETATM   16  C   UNL     1     -10.212  11.920  66.589  1.00  0.00    -0.236 A  
HETATM   17  H   UNL     1     -10.259   8.006  66.956  1.00  0.00     0.000 HD 
ENDBRANCH   4  10
TORSDOF 1
ENDMDL
MODEL        7
REMARK 921   NORMALIZED FREE ENERGY PREDICTED BY IDOCK:   -5.43 KCAL/MOL
REMARK 922        TOTAL FREE ENERGY PREDICTED BY IDOCK:   -5.82 KCAL/MOL
REMARK 923 INTER-LIGAND FREE ENERGY PREDICTED BY IDOCK:   -5.96 KCAL/MOL
REMARK 924 INTRA-LIGAND FREE ENERGY PREDICTED BY IDOCK:    0.14 KCAL/MOL
REMARK 927      BINDING AFFINITY PREDICTED BY RF-SCORE:    0.00 PKD
ROOT
HETATM    1  C   UNL     1     -11.347  15.193  64.843  1.00  0.00    -0.402 C  
HETATM    2  C   UNL     1     -11.935  13.832  65.237  1.00  0.00    -0.374 C  
HETATM    3  C   UNL     1     -11.586  12.834  64.102  1.00  0.00    -0.396 C  
HETATM    4  C   UNL     1     -11.296  13.267  66.539  1.00  0.00    -0.353 C  
HETATM    5  N   UNL     1     -13.403  13.982  65.353  1.00  0.00    -0.624 NA 
HETATM    6  H2  UNL     1     -13.828  14.365  64.509  1.00  0.00     0.000 HD 
HETATM    7  O   UNL     1     -12.680  12.331  63.476  1.00  0.00    -0.729 OA 
HETATM    8  H1  UNL     1     -13.793  13.076  65.615  1.00  0.00     0.000 HD 
HETATM    9  O   UNL     1     -10.453  12.513  63.776  1.00  0.00    -0.416 OA 
ENDROOT
BRANCH   4  10
HETATM   10  C   UNL     1     -11.422  14.111  67.794  1.00  0.00    -0.352 A  
HETATM   11  C   UNL     1     -12.114  13.642  68.919  1.00  0.00    -0.335 A  
HETATM   12  C   UNL     1     -12.256  14.434  70.060  1.00  0.00    -0.408 A  
HETATM   13  C   UNL     1     -11.673  15.694  70.090  1.00  0.00    -0.360 A  
HETATM   14  C   UNL     1     -10.937  16.161  69.009  1.00  0.00    -0.312 A  
HETATM   15  O   UNL     1     -11.804  16.506  71.176  1.00  0.00    -0.602 OA 
HETATM   16  C   UNL     1     -10.813  15.374  67.861  1.00  0.00    -0.300 A  
HETATM   17  H   UNL     1     -11.405  17.368  71.197  1.00  0.00     0.000 HD 
ENDBRANCH   4  10
TORSDOF 1
ENDMDL
MODEL        8
REMARK 921   NORMALIZED FREE ENERGY PREDICTED BY IDOCK:   -5.43 KCAL/MOL
REMARK 922        TOTAL FREE ENERGY PREDICTED BY IDOCK:   -5.81 KCAL/MOL
REMARK 923 INTER-LIGAND FREE ENERGY PREDICTED BY IDOCK:   -5.85 KCAL/MOL
REMARK 924 INTRA-LIGAND FREE ENERGY PREDICTED BY IDOCK:    0.04 KCAL/MOL
REMARK 927      BINDING AFFINITY PREDICTED BY RF-SCORE:    0.00 PKD
ROOT
HETATM    1  C   UNL     1     -10.362  13.396  64.786  1.00  0.00    -0.397 C  
HETATM    2  C   UNL     1     -11.182  14.522  65.427  1.00  0.00    -0.342 C  
HETATM    3  C   UNL     1     -11.843  15.325  64.276  1.00  0.00    -0.225 C  
HETATM    4  C   UNL     1     -12.341  13.979  66.313  1.00  0.00    -0.482 C  
HETATM    5  N   UNL     1     -10.255  15.389  66.188  1.00  0.00    -0.289 NA 
HETATM    6  H2  UNL     1      -9.485  15.739  65.618  1.00  0.00     0.000 HD 
HETATM    7  O   UNL     1     -11.431  16.616  64.218  1.00  0.00    -1.075 OA 
HETATM    8  H1  UNL     1     -10.801  16.138  66.614  1.00  0.00     0.000 HD 
HETATM    9  O   UNL     1     -12.652  14.871  63.481  1.00  0.00    -0.567 OA 
ENDROOT
BRANCH   4  10
HETATM   10  C   UNL     1     -11.960  13.079  67.474  1.00  0.00    -0.360 A  
HETATM   11  C   UNL     1     -11.503  11.771  67.260  1.00  0.00    -0.373 A  
HETATM   12  C   UNL     1     -11.185  10.935  68.332  1.00  0.00    -0.347 A  
HETATM   13  C   UNL     1     -11.293  11.420  69.629  1.00  0.00    -0.275 A  
HETATM   14  C   UNL     1     -11.692  12.729  69.865  1.00  0.00    -0.321 A  
HETATM   15  O   UNL     1     -11.011  10.631  70.703  1.00  0.00    -0.423 OA 
HETATM   16  C   UNL     1     -12.028  13.558  68.792  1.00  0.00    -0.374 A  
HETATM   17  H   UNL     1     -11.086  10.963  71.591  1.00  0.00     0.000 HD 
ENDBRANCH   4  10
TORSDOF 1
ENDMDL
MODEL        9
REMARK 921   NORMALIZED FREE ENERGY PREDICTED BY IDOCK:   -5.40 KCAL/MOL
REMARK 922        TOTAL FREE ENERGY PREDICTED BY IDOCK:   -5.78 KCAL/MOL
REMARK 923 INTER-LIGAND FREE ENERGY PREDICTED BY IDOCK:   -5.91 KCAL/MOL
REMARK 924 INTRA-LIGAND FREE ENERGY PREDICTED BY IDOCK:    0.13 KCAL/MOL
REMARK 927      BINDING AFFINITY PREDICTED BY RF-SCORE:    0.00 PKD
ROOT
HETATM    1  C   UNL     1     -11.886  13.458  69.573  1.00  0.00    -0.391 C  
HETATM    2  C   UNL     1     -11.171  12.289  68.883  1.00  0.00    -0.273 C  
HETATM    3  C   UNL     1     -11.472  11.012  69.710  1.00  0.00    -0.311 C  
HETATM    4  C   UNL     1     -11.713  12.029  67.448  1.00  0.00    -0.352 C  
HETATM    5  N   UNL     1      -9.718  12.571  68.889  1.00  0.00    -0.408 NA 
HETATM    6  H2  UNL     1      -9.357  12.757  69.825  1.00  0.00     0.000 HD 
HETATM    7  O   UNL     1     -10.362  10.449  70.249  1.00  0.00    -0.184 OA 
HETATM    8  H1  UNL     1      -9.243  11.794  68.431  1.00  0.00     0.000 HD 
HETATM    9  O   UNL     1     -12.585  10.535  69.882  1.00  0.00    -0.244 OA 
ENDROOT
BRANCH   4  10
HETATM   10  C   UNL     1     -11.616  13.171  66.454  1.00  0.00    -0.394 A  
HETATM   11  C   UNL     1     -10.420  13.880  66.276  1.00  0.00    -0.287 A  
HETATM   12  C   UNL     1     -10.344  14.952  65.384  1.00  0.00    -0.413 A  
HETATM   13  C   UNL     1     -11.463  15.298  64.639  1.00  0.00    -0.354 A  
HETATM   14  C   UNL     1     -12.645  14.578  64.758  1.00  0.00    -0.232 A  
HETATM   15  O   UNL     1     -11.437  16.350  63.772  1.00  0.00    -1.590 OA 
HETATM   16  C   UNL     1     -12.724  13.518  65.665  1.00  0.00    -0.478 A  
HETATM   17  H   UNL     1     -12.203  16.587  63.263  1.00  0.00     0.000 HD 
ENDBRANCH   4  10
TORSDOF 1
ENDMDL
MODEL       10
REMARK 921   NORMALIZED FREE ENERGY PREDICTED BY IDOCK:   -5.37 KCAL/MOL
REMARK 922        TOTAL FREE ENERGY PREDICTED BY IDOCK:   -5.76 KCAL/MOL
REMARK 923 INTER-LIGAND FREE ENERGY PREDICTED BY IDOCK:   -5.74 KCAL/MOL
REMARK 924 INTRA-LIGAND FREE ENERGY PREDICTED BY IDOCK:   -0.02 KCAL/MOL
REMARK 927      BINDING AFFINITY PREDICTED BY RF-SCORE:    0.00 PKD
ROOT
HETATM    1  C   UNL     1      -8.850  11.348  66.920  1.00  0.00    -0.173 C  
HETATM    2  C   UNL     1     -10.240  10.744  66.686  1.00  0.00    -0.233 C  
HETATM    3  C   UNL     1     -10.422   9.594  67.711  1.00  0.00    -0.256 C  
HETATM    4  C   UNL     1     -11.382  11.765  66.956  1.00  0.00    -0.387 C  
HETATM    5  N   UNL     1     -10.282  10.210  65.306  1.00  0.00    -0.267 NA 
HETATM    6  H2  UNL     1      -9.528   9.549  65.116  1.00  0.00     0.000 HD 
HETATM    7  O   UNL     1     -10.572   8.377  67.130  1.00  0.00    -0.311 OA 
HETATM    8  H1  UNL     1     -11.206   9.808  65.151  1.00  0.00     0.000 HD 
HETATM    9  O   UNL     1     -10.430   9.733  68.925  1.00  0.00    -0.199 OA 
ENDROOT
BRANCH   4  10
HETATM   10  C   UNL     1     -11.379  13.040  66.133  1.00  0.00    -0.349 A  
HETATM   11  C   UNL     1     -10.512  14.099  66.435  1.00  0.00    -0.283 A  
HETATM   12  C   UNL     1     -10.535  15.283  65.695  1.00  0.00    -0.377 A  
HETATM   13  C   UNL     1     -11.409  15.398  64.623  1.00  0.00    -0.355 A  
HETATM   14  C   UNL     1     -12.241  14.344  64.270  1.00  0.00    -0.450 A  
HETATM   15  O   UNL     1     -11.477  16.543  63.887  1.00  0.00    -1.608 OA 
HETATM   16  C   UNL     1     -12.230  13.167  65.023  1.00  0.00    -0.488 A  
HETATM   17  H   UNL     1     -12.076  16.622  63.154  1.00  0.00     0.000 HD 
ENDBRANCH   4  10
TORSDOF 1
ENDMDL
MODEL       11
REMARK 921   NORMALIZED FREE ENERGY PREDICTED BY IDOCK:   -5.34 KCAL/MOL
REMARK 922        TOTAL FREE ENERGY PREDICTED BY IDOCK:   -5.72 KCAL/MOL
REMARK 923 INTER-LIGAND FREE ENERGY PREDICTED BY IDOCK:   -5.66 KCAL/MOL
REMARK 924 INTRA-LIGAND FREE ENERGY PREDICTED BY IDOCK:   -0.06 KCAL/MOL
REMARK 927      BINDING AFFINITY PREDICTED BY RF-SCORE:    0.00 PKD
ROOT
HETATM    1  C   UNL     1     -10.659  17.686  67.989  1.00  0.00    -0.379 C  
HETATM    2  C   UNL     1      -9.772  17.826  66.746  1.00  0.00    -0.309 C  
HETATM    3  C   UNL     1      -8.513  18.630  67.165  1.00  0.00    -0.265 C  
HETATM    4  C   UNL     1      -9.268  16.451  66.221  1.00  0.00    -0.350 C  
HETATM    5  N   UNL     1     -10.535  18.570  65.719  1.00  0.00    -0.628 NA 
HETATM    6  H2  UNL     1     -10.882  19.468  66.058  1.00  0.00     0.000 HD 
HETATM    7  O   UNL     1      -8.394  19.815  66.515  1.00  0.00    -0.311 OA 
HETATM    8  H1  UNL     1      -9.945  18.663  64.892  1.00  0.00     0.000 HD 
HETATM    9  O   UNL     1      -7.694  18.265  67.995  1.00  0.00    -0.246 OA 
ENDROOT
BRANCH   4  10
HETATM   10  C   UNL     1     -10.321  15.434  65.823  1.00  0.00    -0.381 A  
HETATM   11  C   UNL     1     -11.124  15.625  64.690  1.00  0.00    -0.387 A  
HETATM   12  C   UNL     1     -12.114  14.703  64.344  1.00  0.00    -0.481 A  
HETATM   13  C   UNL     1     -12.283  13.563  65.118  1.00  0.00    -0.428 A  
HETATM   14  C   UNL     1     -11.465  13.324  66.215  1.00  0.00    -0.358 A  
HETATM   15  O   UNL     1     -13.250  12.649  64.827  1.00  0.00    -0.846 OA 
HETATM   16  C   UNL     1     -10.487  14.257  66.569  1.00  0.00    -0.287 A  
HETATM   17  H   UNL     1     -13.365  11.868  65.358  1.00  0.00     0.000 HD 
ENDBRANCH   4  10
TORSDOF 1
ENDMDL
MODEL       12
REMARK 921   NORMALIZED FREE ENERGY PREDICTED BY IDOCK:   -5.31 KCAL/MOL
REMARK 922        TOTAL FREE ENERGY PREDICTED BY IDOCK:   -5.69 KCAL/MOL
REMARK 923 INTER-LIGAND FREE ENERGY PREDICTED BY IDOCK:   -5.60 KCAL/MOL
REMARK 924 INTRA-LIGAND FREE ENERGY PREDICTED BY IDOCK:   -0.09 KCAL/MOL
REMARK 927      BINDING AFFINITY PREDICTED BY RF-SCORE:    0.00 PKD
ROOT
HETATM    1  C   UNL     1      -8.917  11.615  67.047  1.00  0.00    -0.182 C  
HETATM    2  C   UNL     1     -10.246  10.931  66.706  1.00  0.00    -0.231 C  
HETATM    3  C   UNL     1     -10.422   9.746  67.692  1.00  0.00    -0.251 C  
HETATM    4  C   UNL     1     -11.467  11.871  66.920  1.00  0.00    -0.390 C  
HETATM    5  N   UNL     1     -10.162  10.431  65.316  1.00  0.00    -0.291 NA 
HETATM    6  H2  UNL     1      -9.356   9.824  65.163  1.00  0.00     0.000 HD 
HETATM    7  O   UNL     1     -10.454   8.537  67.076  1.00  0.00    -0.300 OA 
HETATM    8  H1  UNL     1     -11.046   9.975  65.089  1.00  0.00     0.000 HD 
HETATM    9  O   UNL     1     -10.519   9.853  68.905  1.00  0.00    -0.193 OA 
ENDROOT
BRANCH   4  10
HETATM   10  C   UNL     1     -11.492  13.164  66.125  1.00  0.00    -0.366 A  
HETATM   11  C   UNL     1     -12.154  13.247  64.892  1.00  0.00    -0.440 A  
HETATM   12  C   UNL     1     -12.147  14.428  64.148  1.00  0.00    -0.405 A  
HETATM   13  C   UNL     1     -11.501  15.548  64.655  1.00  0.00    -0.324 A  
HETATM   14  C   UNL     1     -10.884  15.507  65.898  1.00  0.00    -0.317 A  
HETATM   15  O   UNL     1     -11.455  16.714  63.953  1.00  0.00    -1.604 OA 
HETATM   16  C   UNL     1     -10.876  14.318  66.632  1.00  0.00    -0.301 A  
HETATM   17  H   UNL     1     -11.012  17.481  64.300  1.00  0.00     0.000 HD 
ENDBRANCH   4  10
TORSDOF 1
ENDMDL
MODEL       13
REMARK 921   NORMALIZED FREE ENERGY PREDICTED BY IDOCK:   -5.29 KCAL/MOL
REMARK 922        TOTAL FREE ENERGY PREDICTED BY IDOCK:   -5.67 KCAL/MOL
REMARK 923 INTER-LIGAND FREE ENERGY PREDICTED BY IDOCK:   -5.60 KCAL/MOL
REMARK 924 INTRA-LIGAND FREE ENERGY PREDICTED BY IDOCK:   -0.07 KCAL/MOL
REMARK 927      BINDING AFFINITY PREDICTED BY RF-SCORE:    0.00 PKD
ROOT
HETATM    1  C   UNL     1     -10.817  16.399  67.748  1.00  0.00    -0.306 C  
HETATM    2  C   UNL     1     -11.008  14.877  67.733  1.00  0.00    -0.293 C  
HETATM    3  C   UNL     1      -9.970  14.292  66.741  1.00  0.00    -0.265 C  
HETATM    4  C   UNL     1     -10.713  14.231  69.118  1.00  0.00    -0.239 C  
HETATM    5  N   UNL     1     -12.382  14.591  67.264  1.00  0.00    -0.562 NA 
HETATM    6  H2  UNL     1     -12.588  15.023  66.363  1.00  0.00     0.000 HD 
HETATM    7  O   UNL     1     -10.538  13.664  65.680  1.00  0.00    -0.280 OA 
HETATM    8  H1  UNL     1     -12.509  13.580  67.254  1.00  0.00     0.000 HD 
HETATM    9  O   UNL     1      -8.757  14.373  66.867  1.00  0.00    -0.221 OA 
ENDROOT
BRANCH   4  10
HETATM   10  C   UNL     1     -11.546  14.706  70.294  1.00  0.00    -0.335 A  
HETATM   11  C   UNL     1     -12.672  13.989  70.725  1.00  0.00    -0.396 A  
HETATM   12  C   UNL     1     -13.454  14.446  71.786  1.00  0.00    -0.456 A  
HETATM   13  C   UNL     1     -13.092  15.613  72.446  1.00  0.00    -0.460 A  
HETATM   14  C   UNL     1     -11.952  16.313  72.074  1.00  0.00    -0.544 A  
HETATM   15  O   UNL     1     -13.840  16.103  73.474  1.00  0.00    -0.868 OA 
HETATM   16  C   UNL     1     -11.181  15.863  70.999  1.00  0.00    -0.371 A  
HETATM   17  H   UNL     1     -13.592  16.902  73.926  1.00  0.00     0.000 HD 
ENDBRANCH   4  10
TORSDOF 1
ENDMDL
MODEL       14
REMARK 921   NORMALIZED FREE ENERGY PREDICTED BY IDOCK:   -5.27 KCAL/MOL
REMARK 922        TOTAL FREE ENERGY PREDICTED BY IDOCK:   -5.65 KCAL/MOL
REMARK 923 INTER-LIGAND FREE ENERGY PREDICTED BY IDOCK:   -5.62 KCAL/MOL
REMARK 924 INTRA-LIGAND FREE ENERGY PREDICTED BY IDOCK:   -0.03 KCAL/MOL
REMARK 927      BINDING AFFINITY PREDICTED BY RF-SCORE:    0.00 PKD
ROOT
HETATM    1  C   UNL     1     -11.659  12.129  68.808  1.00  0.00    -0.380 C  
HETATM    2  C   UNL     1     -10.308  11.710  68.213  1.00  0.00    -0.200 C  
HETATM    3  C   UNL     1     -10.004  10.278  68.724  1.00  0.00    -0.179 C  
HETATM    4  C   UNL     1     -10.346  11.630  66.660  1.00  0.00    -0.257 C  
HETATM    5  N   UNL     1      -9.279  12.656  68.700  1.00  0.00    -0.401 NA 
HETATM    6  H2  UNL     1      -9.257  12.725  69.718  1.00  0.00     0.000 HD 
HETATM    7  O   UNL     1      -8.887  10.209  69.492  1.00  0.00    -0.185 OA 
HETATM    8  H1  UNL     1      -8.382  12.377  68.305  1.00  0.00     0.000 HD 
HETATM    9  O   UNL     1     -10.681   9.289  68.482  1.00  0.00    -0.209 OA 
ENDROOT
BRANCH   4  10
HETATM   10  C   UNL     1     -10.713  12.898  65.911  1.00  0.00    -0.291 A  
HETATM   11  C   UNL     1     -11.926  13.006  65.215  1.00  0.00    -0.446 A  
HETATM   12  C   UNL     1     -12.245  14.161  64.500  1.00  0.00    -0.468 A  
HETATM   13  C   UNL     1     -11.361  15.232  64.506  1.00  0.00    -0.300 A  
HETATM   14  C   UNL     1     -10.178  15.170  65.230  1.00  0.00    -0.400 A  
HETATM   15  O   UNL     1     -11.626  16.370  63.805  1.00  0.00    -1.605 OA 
HETATM   16  C   UNL     1      -9.852  14.006  65.930  1.00  0.00    -0.302 A  
HETATM   17  H   UNL     1     -11.021  17.103  63.808  1.00  0.00     0.000 HD 
ENDBRANCH   4  10
TORSDOF 1
ENDMDL
MODEL       15
REMARK 921   NORMALIZED FREE ENERGY PREDICTED BY IDOCK:   -5.25 KCAL/MOL
REMARK 922        TOTAL FREE ENERGY PREDICTED BY IDOCK:   -5.62 KCAL/MOL
REMARK 923 INTER-LIGAND FREE ENERGY PREDICTED BY IDOCK:   -5.51 KCAL/MOL
REMARK 924 INTRA-LIGAND FREE ENERGY PREDICTED BY IDOCK:   -0.11 KCAL/MOL
REMARK 927      BINDING AFFINITY PREDICTED BY RF-SCORE:    0.00 PKD
ROOT
HETATM    1  C   UNL     1      -9.866  14.041  68.551  1.00  0.00    -0.225 C  
HETATM    2  C   UNL     1     -11.235  14.718  68.410  1.00  0.00    -0.284 C  
HETATM    3  C   UNL     1     -11.213  15.992  69.294  1.00  0.00    -0.346 C  
HETATM    4  C   UNL     1     -11.514  15.191  66.955  1.00  0.00    -0.215 C  
HETATM    5  N   UNL     1     -12.266  13.775  68.899  1.00  0.00    -0.412 NA 
HETATM    6  H2  UNL     1     -12.084  13.448  69.848  1.00  0.00     0.000 HD 
HETATM    7  O   UNL     1     -12.121  15.960  70.302  1.00  0.00    -0.353 OA 
HETATM    8  H1  UNL     1     -13.176  14.225  68.805  1.00  0.00     0.000 HD 
HETATM    9  O   UNL     1     -10.465  16.944  69.132  1.00  0.00    -0.311 OA 
ENDROOT
BRANCH   4  10
HETATM   10  C   UNL     1     -11.502  14.131  65.868  1.00  0.00    -0.338 A  
HETATM   11  C   UNL     1     -12.654  13.396  65.557  1.00  0.00    -0.520 A  
HETATM   12  C   UNL     1     -12.631  12.399  64.580  1.00  0.00    -0.477 A  
HETATM   13  C   UNL     1     -11.454  12.157  63.883  1.00  0.00    -0.440 A  
HETATM   14  C   UNL     1     -10.314  12.907  64.135  1.00  0.00    -0.385 A  
HETATM   15  O   UNL     1     -11.384  11.180  62.935  1.00  0.00    -0.798 OA 
HETATM   16  C   UNL     1     -10.334  13.892  65.127  1.00  0.00    -0.403 A  
HETATM   17  H   UNL     1     -10.579  11.014  62.459  1.00  0.00     0.000 HD 
ENDBRANCH   4  10
TORSDOF 1
ENDMDL
MODEL       16
REMARK 921   NORMALIZED FREE ENERGY PREDICTED BY IDOCK:   -5.21 KCAL/MOL
REMARK 922        TOTAL FREE ENERGY PREDICTED BY IDOCK:   -5.59 KCAL/MOL
REMARK 923 INTER-LIGAND FREE ENERGY PREDICTED BY IDOCK:   -5.58 KCAL/MOL
REMARK 924 INTRA-LIGAND FREE ENERGY PREDICTED BY IDOCK:   -0.01 KCAL/MOL
REMARK 927      BINDING AFFINITY PREDICTED BY RF-SCORE:    0.00 PKD
ROOT
HETATM    1  C   UNL     1     -11.502  11.155  67.836  1.00  0.00    -0.359 C  
HETATM    2  C   UNL     1     -10.417  10.126  68.179  1.00  0.00    -0.206 C  
HETATM    3  C   UNL     1      -9.121  10.560  67.445  1.00  0.00    -0.139 C  
HETATM    4  C   UNL     1     -10.082  10.105  69.698  1.00  0.00    -0.265 C  
HETATM    5  N   UNL     1     -10.866   8.804  67.686  1.00  0.00    -0.489 NA 
HETATM    6  H2  UNL     1     -11.101   8.813  66.694  1.00  0.00     0.000 HD 
HETATM    7  O   UNL     1      -8.696   9.654  66.529  1.00  0.00    -0.132 OA 
HETATM    8  H1  UNL     1     -10.144   8.121  67.914  1.00  0.00     0.000 HD 
HETATM    9  O   UNL     1      -8.521  11.606  67.643  1.00  0.00    -0.132 OA 
ENDROOT
BRANCH   4  10
HETATM   10  C   UNL     1     -11.219   9.789  70.653  1.00  0.00    -0.402 A  
HETATM   11  C   UNL     1     -12.198  10.745  70.958  1.00  0.00    -0.485 A  
HETATM   12  C   UNL     1     -13.224  10.462  71.862  1.00  0.00    -0.535 A  
HETATM   13  C   UNL     1     -13.292   9.203  72.442  1.00  0.00    -0.463 A  
HETATM   14  C   UNL     1     -12.365   8.221  72.116  1.00  0.00    -0.410 A  
HETATM   15  O   UNL     1     -14.265   8.892  73.344  1.00  0.00    -1.241 OA 
HETATM   16  C   UNL     1     -11.328   8.513  71.226  1.00  0.00    -0.325 A  
HETATM   17  H   UNL     1     -14.311   8.030  73.741  1.00  0.00     0.000 HD 
ENDBRANCH   4  10
TORSDOF 1
ENDMDL
MODEL       17
REMARK 921   NORMALIZED FREE ENERGY PREDICTED BY IDOCK:   -5.18 KCAL/MOL
REMARK 922        TOTAL FREE ENERGY PREDICTED BY IDOCK:   -5.56 KCAL/MOL
REMARK 923 INTER-LIGAND FREE ENERGY PREDICTED BY IDOCK:   -5.46 KCAL/MOL
REMARK 924 INTRA-LIGAND FREE ENERGY PREDICTED BY IDOCK:   -0.09 KCAL/MOL
REMARK 927      BINDING AFFINITY PREDICTED BY RF-SCORE:    0.00 PKD
ROOT
HETATM    1  C   UNL     1     -11.284  16.578  68.920  1.00  0.00    -0.257 C  
HETATM    2  C   UNL     1     -11.319  15.231  69.653  1.00  0.00    -0.290 C  
HETATM    3  C   UNL     1     -12.116  15.440  70.967  1.00  0.00    -0.365 C  
HETATM    4  C   UNL     1     -12.074  14.137  68.844  1.00  0.00    -0.339 C  
HETATM    5  N   UNL     1      -9.925  14.838  69.958  1.00  0.00    -0.402 NA 
HETATM    6  H2  UNL     1      -9.418  15.556  70.477  1.00  0.00     0.000 HD 
HETATM    7  O   UNL     1     -11.375  15.227  72.083  1.00  0.00    -0.442 OA 
HETATM    8  H1  UNL     1      -9.948  13.943  70.445  1.00  0.00     0.000 HD 
HETATM    9  O   UNL     1     -13.292  15.768  71.027  1.00  0.00    -0.580 OA 
ENDROOT
BRANCH   4  10
HETATM   10  C   UNL     1     -11.538  13.804  67.463  1.00  0.00    -0.387 A  
HETATM   11  C   UNL     1     -10.361  13.059  67.301  1.00  0.00    -0.238 A  
HETATM   12  C   UNL     1      -9.854  12.782  66.030  1.00  0.00    -0.258 A  
HETATM   13  C   UNL     1     -10.544  13.226  64.910  1.00  0.00    -0.366 A  
HETATM   14  C   UNL     1     -11.739  13.920  65.043  1.00  0.00    -0.365 A  
HETATM   15  O   UNL     1     -10.072  12.994  63.652  1.00  0.00    -0.699 OA 
HETATM   16  C   UNL     1     -12.235  14.212  66.316  1.00  0.00    -0.474 A  
HETATM   17  H   UNL     1     -10.544  13.298  62.886  1.00  0.00     0.000 HD 
ENDBRANCH   4  10
TORSDOF 1
ENDMDL
MODEL       18
REMARK 921   NORMALIZED FREE ENERGY PREDICTED BY IDOCK:   -5.15 KCAL/MOL
REMARK 922        TOTAL FREE ENERGY PREDICTED BY IDOCK:   -5.52 KCAL/MOL
REMARK 923 INTER-LIGAND FREE ENERGY PREDICTED BY IDOCK:   -5.45 KCAL/MOL
REMARK 924 INTRA-LIGAND FREE ENERGY PREDICTED BY IDOCK:   -0.07 KCAL/MOL
REMARK 927      BINDING AFFINITY PREDICTED BY RF-SCORE:    0.00 PKD
ROOT
HETATM    1  C   UNL     1     -11.616  14.705  66.988  1.00  0.00    -0.385 C  
HETATM    2  C   UNL     1     -10.826  14.930  65.694  1.00  0.00    -0.341 C  
HETATM    3  C   UNL     1     -11.671  14.350  64.530  1.00  0.00    -0.419 C  
HETATM    4  C   UNL     1     -10.618  16.440  65.383  1.00  0.00    -0.338 C  
HETATM    5  N   UNL     1      -9.543  14.200  65.806  1.00  0.00    -0.520 NA 
HETATM    6  H2  UNL     1      -9.669  13.212  66.023  1.00  0.00     0.000 HD 
HETATM    7  O   UNL     1     -11.064  13.321  63.888  1.00  0.00    -0.365 OA 
HETATM    8  H1  UNL     1      -9.018  14.350  64.945  1.00  0.00     0.000 HD 
HETATM    9  O   UNL     1     -12.777  14.752  64.200  1.00  0.00    -0.758 OA 
ENDROOT
BRANCH   4  10
HETATM   10  C   UNL     1      -9.884  17.266  66.423  1.00  0.00    -0.310 A  
HETATM   11  C   UNL     1     -10.574  18.129  67.287  1.00  0.00    -0.384 A  
HETATM   12  C   UNL     1      -9.892  18.911  68.220  1.00  0.00    -0.427 A  
HETATM   13  C   UNL     1      -8.511  18.807  68.316  1.00  0.00    -0.327 A  
HETATM   14  C   UNL     1      -7.809  17.921  67.510  1.00  0.00    -0.217 A  
HETATM   15  O   UNL     1      -7.806  19.567  69.201  1.00  0.00    -0.348 OA 
HETATM   16  C   UNL     1      -8.492  17.153  66.563  1.00  0.00    -0.309 A  
HETATM   17  H   UNL     1      -6.861  19.496  69.266  1.00  0.00     0.000 HD 
ENDBRANCH   4  10
TORSDOF 1
ENDMDL
MODEL       19
REMARK 921   NORMALIZED FREE ENERGY PREDICTED BY IDOCK:   -5.14 KCAL/MOL
REMARK 922        TOTAL FREE ENERGY PREDICTED BY IDOCK:   -5.51 KCAL/MOL
REMARK 923 INTER-LIGAND FREE ENERGY PREDICTED BY IDOCK:   -5.43 KCAL/MOL
REMARK 924 INTRA-LIGAND FREE ENERGY PREDICTED BY IDOCK:   -0.08 KCAL/MOL
REMARK 927      BINDING AFFINITY PREDICTED BY RF-SCORE:    0.00 PKD
ROOT
HETATM    1  C   UNL     1     -10.932  15.971  67.819  1.00  0.00    -0.307 C  
HETATM    2  C   UNL     1     -11.111  14.772  68.759  1.00  0.00    -0.265 C  
HETATM    3  C   UNL     1     -11.685  15.315  70.094  1.00  0.00    -0.312 C  
HETATM    4  C   UNL     1     -12.145  13.744  68.216  1.00  0.00    -0.314 C  
HETATM    5  N   UNL     1      -9.782  14.163  68.986  1.00  0.00    -0.411 NA 
HETATM    6  H2  UNL     1      -9.094  14.833  69.329  1.00  0.00     0.000 HD 
HETATM    7  O   UNL     1     -10.858  15.120  71.152  1.00  0.00    -0.233 OA 
HETATM    8  H1  UNL     1      -9.901  13.366  69.611  1.00  0.00     0.000 HD 
HETATM    9  O   UNL     1     -12.767  15.871  70.217  1.00  0.00    -0.343 OA 
ENDROOT
BRANCH   4  10
HETATM   10  C   UNL     1     -11.856  13.123  66.862  1.00  0.00    -0.444 A  
HETATM   11  C   UNL     1     -12.483  13.591  65.699  1.00  0.00    -0.528 A  
HETATM   12  C   UNL     1     -12.240  12.996  64.460  1.00  0.00    -0.476 A  
HETATM   13  C   UNL     1     -11.337  11.944  64.375  1.00  0.00    -0.326 A  
HETATM   14  C   UNL     1     -10.663  11.497  65.503  1.00  0.00    -0.328 A  
HETATM   15  O   UNL     1     -11.086  11.323  63.188  1.00  0.00    -0.811 OA 
HETATM   16  C   UNL     1     -10.922  12.082  66.745  1.00  0.00    -0.329 A  
HETATM   17  H   UNL     1     -10.468  10.603  63.131  1.00  0.00     0.000 HD 
ENDBRANCH   4  10
TORSDOF 1
ENDMDL
MODEL       20
REMARK 921   NORMALIZED FREE ENERGY PREDICTED BY IDOCK:   -5.06 KCAL/MOL
REMARK 922        TOTAL FREE ENERGY PREDICTED BY IDOCK:   -5.42 KCAL/MOL
REMARK 923 INTER-LIGAND FREE ENERGY PREDICTED BY IDOCK:   -5.77 KCAL/MOL
REMARK 924 INTRA-LIGAND FREE ENERGY PREDICTED BY IDOCK:    0.34 KCAL/MOL
REMARK 927      BINDING AFFINITY PREDICTED BY RF-SCORE:    0.00 PKD
ROOT
HETATM    1  C   UNL     1     -11.790  14.819  66.908  1.00  0.00    -0.279 C  
HETATM    2  C   UNL     1     -11.560  14.491  65.428  1.00  0.00    -0.355 C  
HETATM    3  C   UNL     1     -11.179  15.815  64.715  1.00  0.00    -0.366 C  
HETATM    4  C   UNL     1     -10.368  13.514  65.217  1.00  0.00    -0.344 C  
HETATM    5  N   UNL     1     -12.825  13.958  64.873  1.00  0.00    -0.715 NA 
HETATM    6  H2  UNL     1     -13.615  14.586  65.019  1.00  0.00     0.000 HD 
HETATM    7  O   UNL     1     -12.073  16.188  63.765  1.00  0.00    -0.946 OA 
HETATM    8  H1  UNL     1     -12.671  13.740  63.889  1.00  0.00     0.000 HD 
HETATM    9  O   UNL     1     -10.186  16.483  64.963  1.00  0.00    -0.564 OA 
ENDROOT
BRANCH   4  10
HETATM   10  C   UNL     1     -10.455  12.159  65.896  1.00  0.00    -0.288 A  
HETATM   11  C   UNL     1     -10.122  10.981  65.213  1.00  0.00    -0.332 A  
HETATM   12  C   UNL     1     -10.234   9.734  65.830  1.00  0.00    -0.245 A  
HETATM   13  C   UNL     1     -10.652   9.664  67.153  1.00  0.00    -0.228 A  
HETATM   14  C   UNL     1     -10.937  10.820  67.868  1.00  0.00    -0.344 A  
HETATM   15  O   UNL     1     -10.794   8.466  67.786  1.00  0.00    -0.473 OA 
HETATM   16  C   UNL     1     -10.842  12.066  67.242  1.00  0.00    -0.290 A  
HETATM   17  H   UNL     1     -11.081   8.419  68.691  1.00  0.00     0.000 HD 
ENDBRANCH   4  10
TORSDOF 1
ENDMDL
MODEL       21
REMARK 921   NORMALIZED FREE ENERGY PREDICTED BY IDOCK:   -5.05 KCAL/MOL
REMARK 922        TOTAL FREE ENERGY PREDICTED BY IDOCK:   -5.42 KCAL/MOL
REMARK 923 INTER-LIGAND FREE ENERGY PREDICTED BY IDOCK:   -5.35 KCAL/MOL
REMARK 924 INTRA-LIGAND FREE ENERGY PREDICTED BY IDOCK:   -0.07 KCAL/MOL
REMARK 927      BINDING AFFINITY PREDICTED BY RF-SCORE:    0.00 PKD
ROOT
HETATM    1  C   UNL     1     -12.622  13.966  66.303  1.00  0.00    -0.376 C  
HETATM    2  C   UNL     1     -11.387  13.157  66.720  1.00  0.00    -0.316 C  
HETATM    3  C   UNL     1     -10.326  13.327  65.602  1.00  0.00    -0.287 C  
HETATM    4  C   UNL     1     -10.743  13.693  68.031  1.00  0.00    -0.258 C  
HETATM    5  N   UNL     1     -11.787  11.736  66.834  1.00  0.00    -0.585 NA 
HETATM    6  H2  UNL     1     -12.223  11.380  65.983  1.00  0.00     0.000 HD 
HETATM    7  O   UNL     1     -10.007  12.161  64.985  1.00  0.00    -0.260 OA 
HETATM    8  H1  UNL     1     -10.966  11.198  67.110  1.00  0.00     0.000 HD 
HETATM    9  O   UNL     1      -9.811  14.388  65.281  1.00  0.00    -0.319 OA 
ENDROOT
BRANCH   4  10
HETATM   10  C   UNL     1     -11.617  13.717  69.272  1.00  0.00    -0.363 A  
HETATM   11  C   UNL     1     -12.158  14.916  69.757  1.00  0.00    -0.357 A  
HETATM   12  C   UNL     1     -12.934  14.938  70.917  1.00  0.00    -0.436 A  
HETATM   13  C   UNL     1     -13.201  13.748  71.581  1.00  0.00    -0.371 A  
HETATM   14  C   UNL     1     -12.721  12.541  71.092  1.00  0.00    -0.340 A  
HETATM   15  O   UNL     1     -13.937  13.729  72.727  1.00  0.00    -0.714 OA 
HETATM   16  C   UNL     1     -11.928  12.523  69.941  1.00  0.00    -0.371 A  
HETATM   17  H   UNL     1     -14.119  12.914  73.182  1.00  0.00     0.000 HD 
ENDBRANCH   4  10
TORSDOF 1
ENDMDL
MODEL       22
REMARK 921   NORMALIZED FREE ENERGY PREDICTED BY IDOCK:   -5.04 KCAL/MOL
REMARK 922        TOTAL FREE ENERGY PREDICTED BY IDOCK:   -5.40 KCAL/MOL
REMARK 923 INTER-LIGAND FREE ENERGY PREDICTED BY IDOCK:   -5.37 KCAL/MOL
REMARK 924 INTRA-LIGAND FREE ENERGY PREDICTED BY IDOCK:   -0.03 KCAL/MOL
REMARK 927      BINDING AFFINITY PREDICTED BY RF-SCORE:    0.00 PKD
ROOT
HETATM    1  C   UNL     1     -12.204  15.289  63.851  1.00  0.00     0.134 C  
HETATM    2  C   UNL     1     -12.227  14.115  64.837  1.00  0.00    -0.438 C  
HETATM    3  C   UNL     1     -12.127  12.810  64.004  1.00  0.00    -0.457 C  
HETATM    4  C   UNL     1     -11.002  14.124  65.796  1.00  0.00    -0.301 C  
HETATM    5  N   UNL     1     -13.512  14.156  65.571  1.00  0.00    -0.616 NA 
HETATM    6  H2  UNL     1     -14.321  14.164  64.949  1.00  0.00     0.000 HD 
HETATM    7  O   UNL     1     -13.219  12.013  64.125  1.00  0.00    -0.712 OA 
HETATM    8  H1  UNL     1     -13.527  13.375  66.227  1.00  0.00     0.000 HD 
HETATM    9  O   UNL     1     -11.180  12.501  63.297  1.00  0.00    -0.452 OA 
ENDROOT
BRANCH   4  10
HETATM   10  C   UNL     1     -10.818  15.351  66.671  1.00  0.00    -0.302 A  
HETATM   11  C   UNL     1     -10.267  16.534  66.158  1.00  0.00    -0.360 A  
HETATM   12  C   UNL     1     -10.069  17.649  66.974  1.00  0.00    -0.330 A  
HETATM   13  C   UNL     1     -10.455  17.595  68.307  1.00  0.00    -0.375 A  
HETATM   14  C   UNL     1     -11.052  16.454  68.826  1.00  0.00    -0.337 A  
HETATM   15  O   UNL     1     -10.262  18.654  69.142  1.00  0.00    -0.495 OA 
HETATM   16  C   UNL     1     -11.232  15.332  68.012  1.00  0.00    -0.330 A  
HETATM   17  H   UNL     1     -10.526  18.617  70.054  1.00  0.00     0.000 HD 
ENDBRANCH   4  10
TORSDOF 1
ENDMDL
MODEL       23
REMARK 921   NORMALIZED FREE ENERGY PREDICTED BY IDOCK:   -4.97 KCAL/MOL
REMARK 922        TOTAL FREE ENERGY PREDICTED BY IDOCK:   -5.33 KCAL/MOL
REMARK 923 INTER-LIGAND FREE ENERGY PREDICTED BY IDOCK:   -5.72 KCAL/MOL
REMARK 924 INTRA-LIGAND FREE ENERGY PREDICTED BY IDOCK:    0.39 KCAL/MOL
REMARK 927      BINDING AFFINITY PREDICTED BY RF-SCORE:    0.00 PKD
ROOT
HETATM    1  C   UNL     1     -11.711  12.784  68.767  1.00  0.00    -0.363 C  
HETATM    2  C   UNL     1     -10.906  11.547  68.350  1.00  0.00    -0.211 C  
HETATM    3  C   UNL     1      -9.689  12.044  67.527  1.00  0.00    -0.187 C  
HETATM    4  C   UNL     1     -10.331  10.776  69.573  1.00  0.00    -0.178 C  
HETATM    5  N   UNL     1     -11.777  10.694  67.510  1.00  0.00    -0.535 NA 
HETATM    6  H2  UNL     1     -12.170  11.195  66.713  1.00  0.00     0.000 HD 
HETATM    7  O   UNL     1      -9.693  11.601  66.245  1.00  0.00    -0.206 OA 
HETATM    8  H1  UNL     1     -11.241   9.872  67.233  1.00  0.00     0.000 HD 
HETATM    9  O   UNL     1      -8.801  12.766  67.957  1.00  0.00    -0.181 OA 
ENDROOT
BRANCH   4  10
HETATM   10  C   UNL     1     -11.327  10.254  70.592  1.00  0.00    -0.431 A  
HETATM   11  C   UNL     1     -11.170   8.991  71.181  1.00  0.00    -0.375 A  
HETATM   12  C   UNL     1     -12.106   8.500  72.094  1.00  0.00    -0.449 A  
HETATM   13  C   UNL     1     -13.191   9.291  72.448  1.00  0.00    -0.426 A  
HETATM   14  C   UNL     1     -13.341  10.566  71.919  1.00  0.00    -0.461 A  
HETATM   15  O   UNL     1     -14.137   8.842  73.320  1.00  0.00    -1.211 OA 
HETATM   16  C   UNL     1     -12.413  11.048  70.992  1.00  0.00    -0.512 A  
HETATM   17  H   UNL     1     -14.880   9.383  73.561  1.00  0.00     0.000 HD 
ENDBRANCH   4  10
TORSDOF 1
ENDMDL
MODEL       24
REMARK 921   NORMALIZED FREE ENERGY PREDICTED BY IDOCK:   -4.96 KCAL/MOL
REMARK 922        TOTAL FREE ENERGY PREDICTED BY IDOCK:   -5.31 KCAL/MOL
REMARK 923 INTER-LIGAND FREE ENERGY PREDICTED BY IDOCK:   -5.20 KCAL/MOL
REMARK 924 INTRA-LIGAND FREE ENERGY PREDICTED BY IDOCK:   -0.12 KCAL/MOL
REMARK 927      BINDING AFFINITY PREDICTED BY RF-SCORE:    0.00 PKD
ROOT
HETATM    1  C   UNL     1     -12.600  14.025  65.589  1.00  0.00    -0.542 C  
HETATM    2  C   UNL     1     -11.672  13.534  66.708  1.00  0.00    -0.391 C  
HETATM    3  C   UNL     1     -11.344  12.047  66.416  1.00  0.00    -0.354 C  
HETATM    4  C   UNL     1     -10.314  14.294  66.726  1.00  0.00    -0.274 C  
HETATM    5  N   UNL     1     -12.398  13.655  67.992  1.00  0.00    -0.334 NA 
HETATM    6  H2  UNL     1     -13.296  13.171  67.984  1.00  0.00     0.000 HD 
HETATM    7  O   UNL     1     -11.789  11.201  67.379  1.00  0.00    -0.570 OA 
HETATM    8  H1  UNL     1     -11.781  13.328  68.736  1.00  0.00     0.000 HD 
HETATM    9  O   UNL     1     -10.751  11.641  65.427  1.00  0.00    -0.276 OA 
ENDROOT
BRANCH   4  10
HETATM   10  C   UNL     1     -10.366  15.799  66.910  1.00  0.00    -0.295 A  
HETATM   11  C   UNL     1     -10.424  16.374  68.188  1.00  0.00    -0.302 A  
HETATM   12  C   UNL     1     -10.504  17.758  68.353  1.00  0.00    -0.351 A  
HETATM   13  C   UNL     1     -10.494  18.578  67.233  1.00  0.00    -0.419 A  
HETATM   14  C   UNL     1     -10.384  18.037  65.959  1.00  0.00    -0.333 A  
HETATM   15  O   UNL     1     -10.591  19.932  67.349  1.00  0.00    -0.419 OA 
HETATM   16  C   UNL     1     -10.323  16.651  65.795  1.00  0.00    -0.338 A  
HETATM   17  H   UNL     1     -10.584  20.494  66.583  1.00  0.00     0.000 HD 
ENDBRANCH   4  10
TORSDOF 1
ENDMDL
MODEL       25
REMARK 921   NORMALIZED FREE ENERGY PREDICTED BY IDOCK:   -4.93 KCAL/MOL
REMARK 922        TOTAL FREE ENERGY PREDICTED BY IDOCK:   -5.28 KCAL/MOL
REMARK 923 INTER-LIGAND FREE ENERGY PREDICTED BY IDOCK:   -5.21 KCAL/MOL
REMARK 924 INTRA-LIGAND FREE ENERGY PREDICTED BY IDOCK:   -0.08 KCAL/MOL
REMARK 927      BINDING AFFINITY PREDICTED BY RF-SCORE:    0.00 PKD
ROOT
HETATM    1  C   UNL     1      -9.486  16.387  66.644  1.00  0.00    -0.277 C  
HETATM    2  C   UNL     1      -9.988  16.803  68.033  1.00  0.00    -0.272 C  
HETATM    3  C   UNL     1     -10.104  18.349  68.038  1.00  0.00    -0.368 C  
HETATM    4  C   UNL     1     -11.411  16.250  68.337  1.00  0.00    -0.312 C  
HETATM    5  N   UNL     1      -8.991  16.361  69.033  1.00  0.00    -0.254 NA 
HETATM    6  H2  UNL     1      -8.052  16.708  68.834  1.00  0.00     0.000 HD 
HETATM    7  O   UNL     1      -9.279  18.945  68.936  1.00  0.00    -0.330 OA 
HETATM    8  H1  UNL     1      -9.325  16.638  69.956  1.00  0.00     0.000 HD 
HETATM    9  O   UNL     1     -10.847  18.999  67.318  1.00  0.00    -0.472 OA 
ENDROOT
BRANCH   4  10
HETATM   10  C   UNL     1     -11.588  14.743  68.306  1.00  0.00    -0.348 A  
HETATM   11  C   UNL     1     -11.539  13.980  69.481  1.00  0.00    -0.350 A  
HETATM   12  C   UNL     1     -11.670  12.591  69.445  1.00  0.00    -0.383 A  
HETATM   13  C   UNL     1     -11.886  11.959  68.227  1.00  0.00    -0.277 A  
HETATM   14  C   UNL     1     -11.993  12.697  67.055  1.00  0.00    -0.330 A  
HETATM   15  O   UNL     1     -12.000  10.604  68.145  1.00  0.00    -0.791 OA 
HETATM   16  C   UNL     1     -11.842  14.085  67.092  1.00  0.00    -0.444 A  
HETATM   17  H   UNL     1     -12.148  10.172  67.312  1.00  0.00     0.000 HD 
ENDBRANCH   4  10
TORSDOF 1
ENDMDL
MODEL       26
REMARK 921   NORMALIZED FREE ENERGY PREDICTED BY IDOCK:   -4.92 KCAL/MOL
REMARK 922        TOTAL FREE ENERGY PREDICTED BY IDOCK:   -5.28 KCAL/MOL
REMARK 923 INTER-LIGAND FREE ENERGY PREDICTED BY IDOCK:   -5.20 KCAL/MOL
REMARK 924 INTRA-LIGAND FREE ENERGY PREDICTED BY IDOCK:   -0.08 KCAL/MOL
REMARK 927      BINDING AFFINITY PREDICTED BY RF-SCORE:    0.00 PKD
ROOT
HETATM    1  C   UNL     1     -10.362  16.806  65.893  1.00  0.00    -0.341 C  
HETATM    2  C   UNL     1      -9.736  15.885  66.947  1.00  0.00    -0.230 C  
HETATM    3  C   UNL     1      -9.547  16.723  68.238  1.00  0.00    -0.244 C  
HETATM    4  C   UNL     1     -10.667  14.695  67.321  1.00  0.00    -0.290 C  
HETATM    5  N   UNL     1      -8.423  15.429  66.437  1.00  0.00    -0.406 NA 
HETATM    6  H2  UNL     1      -7.812  16.203  66.176  1.00  0.00     0.000 HD 
HETATM    7  O   UNL     1      -8.247  16.855  68.606  1.00  0.00    -0.235 OA 
HETATM    8  H1  UNL     1      -8.007  14.817  67.138  1.00  0.00     0.000 HD 
HETATM    9  O   UNL     1     -10.453  17.231  68.882  1.00  0.00    -0.336 OA 
ENDROOT
BRANCH   4  10
HETATM   10  C   UNL     1     -11.080  13.761  66.198  1.00  0.00    -0.296 A  
HETATM   11  C   UNL     1     -10.168  12.862  65.628  1.00  0.00    -0.295 A  
HETATM   12  C   UNL     1     -10.542  12.027  64.574  1.00  0.00    -0.356 A  
HETATM   13  C   UNL     1     -11.849  12.066  64.106  1.00  0.00    -0.373 A  
HETATM   14  C   UNL     1     -12.786  12.909  64.689  1.00  0.00    -0.403 A  
HETATM   15  O   UNL     1     -12.251  11.282  63.066  1.00  0.00    -0.868 OA 
HETATM   16  C   UNL     1     -12.403  13.757  65.732  1.00  0.00    -0.523 A  
HETATM   17  H   UNL     1     -13.145  11.309  62.746  1.00  0.00     0.000 HD 
ENDBRANCH   4  10
TORSDOF 1
ENDMDL
MODEL       27
REMARK 921   NORMALIZED FREE ENERGY PREDICTED BY IDOCK:   -4.92 KCAL/MOL
REMARK 922        TOTAL FREE ENERGY PREDICTED BY IDOCK:   -5.27 KCAL/MOL
REMARK 923 INTER-LIGAND FREE ENERGY PREDICTED BY IDOCK:   -5.19 KCAL/MOL
REMARK 924 INTRA-LIGAND FREE ENERGY PREDICTED BY IDOCK:   -0.08 KCAL/MOL
REMARK 927      BINDING AFFINITY PREDICTED BY RF-SCORE:    0.00 PKD
ROOT
HETATM    1  C   UNL     1     -11.203  12.497  66.831  1.00  0.00    -0.354 C  
HETATM    2  C   UNL     1     -11.099  13.140  65.442  1.00  0.00    -0.278 C  
HETATM    3  C   UNL     1     -12.146  12.446  64.532  1.00  0.00    -0.417 C  
HETATM    4  C   UNL     1     -11.461  14.653  65.462  1.00  0.00    -0.341 C  
HETATM    5  N   UNL     1      -9.733  12.898  64.925  1.00  0.00    -0.517 NA 
HETATM    6  H2  UNL     1      -9.482  11.910  64.921  1.00  0.00     0.000 HD 
HETATM    7  O   UNL     1     -11.591  11.780  63.488  1.00  0.00    -0.434 OA 
HETATM    8  H1  UNL     1      -9.664  13.326  64.002  1.00  0.00     0.000 HD 
HETATM    9  O   UNL     1     -13.355  12.472  64.711  1.00  0.00    -0.773 OA 
ENDROOT
BRANCH   4  10
HETATM   10  C   UNL     1     -10.628  15.552  66.359  1.00  0.00    -0.312 A  
HETATM   11  C   UNL     1     -11.100  15.966  67.613  1.00  0.00    -0.266 A  
HETATM   12  C   UNL     1     -10.346  16.819  68.420  1.00  0.00    -0.319 A  
HETATM   13  C   UNL     1      -9.094  17.236  67.988  1.00  0.00    -0.249 A  
HETATM   14  C   UNL     1      -8.582  16.797  66.774  1.00  0.00    -0.264 A  
HETATM   15  O   UNL     1      -8.335  18.083  68.737  1.00  0.00    -0.288 OA 
HETATM   16  C   UNL     1      -9.346  15.959  65.959  1.00  0.00    -0.385 A  
HETATM   17  H   UNL     1      -7.478  18.369  68.440  1.00  0.00     0.000 HD 
ENDBRANCH   4  10
TORSDOF 1
ENDMDL
MODEL       28
REMARK 921   NORMALIZED FREE ENERGY PREDICTED BY IDOCK:   -4.91 KCAL/MOL
REMARK 922        TOTAL FREE ENERGY PREDICTED BY IDOCK:   -5.26 KCAL/MOL
REMARK 923 INTER-LIGAND FREE ENERGY PREDICTED BY IDOCK:   -5.14 KCAL/MOL
REMARK 924 INTRA-LIGAND FREE ENERGY PREDICTED BY IDOCK:   -0.12 KCAL/MOL
REMARK 927      BINDING AFFINITY PREDICTED BY RF-SCORE:    0.00 PKD
ROOT
HETATM    1  C   UNL     1     -10.640   8.904  67.455  1.00  0.00    -0.305 C  
HETATM    2  C   UNL     1     -10.287   7.479  67.901  1.00  0.00    -0.210 C  
HETATM    3  C   UNL     1      -8.967   7.086  67.188  1.00  0.00    -0.121 C  
HETATM    4  C   UNL     1     -10.010   7.390  69.429  1.00  0.00    -0.176 C  
HETATM    5  N   UNL     1     -11.384   6.580  67.478  1.00  0.00    -0.732 NA 
HETATM    6  H2  UNL     1     -11.581   6.643  66.479  1.00  0.00     0.000 HD 
HETATM    7  O   UNL     1      -9.106   6.030  66.347  1.00  0.00    -0.143 OA 
HETATM    8  H1  UNL     1     -11.149   5.633  67.774  1.00  0.00     0.000 HD 
HETATM    9  O   UNL     1      -7.894   7.650  67.340  1.00  0.00    -0.114 OA 
ENDROOT
BRANCH   4  10
HETATM   10  C   UNL     1     -11.132   7.811  70.361  1.00  0.00    -0.259 A  
HETATM   11  C   UNL     1     -12.157   6.923  70.713  1.00  0.00    -0.400 A  
HETATM   12  C   UNL     1     -13.205   7.324  71.545  1.00  0.00    -0.434 A  
HETATM   13  C   UNL     1     -13.211   8.615  72.056  1.00  0.00    -0.386 A  
HETATM   14  C   UNL     1     -12.179   9.498  71.766  1.00  0.00    -0.465 A  
HETATM   15  O   UNL     1     -14.225   9.053  72.855  1.00  0.00    -1.042 OA 
HETATM   16  C   UNL     1     -11.142   9.100  70.918  1.00  0.00    -0.356 A  
HETATM   17  H   UNL     1     -14.229   9.936  73.205  1.00  0.00     0.000 HD 
ENDBRANCH   4  10
TORSDOF 1
ENDMDL
MODEL       29
REMARK 921   NORMALIZED FREE ENERGY PREDICTED BY IDOCK:   -4.90 KCAL/MOL
REMARK 922        TOTAL FREE ENERGY PREDICTED BY IDOCK:   -5.25 KCAL/MOL
REMARK 923 INTER-LIGAND FREE ENERGY PREDICTED BY IDOCK:   -5.20 KCAL/MOL
REMARK 924 INTRA-LIGAND FREE ENERGY PREDICTED BY IDOCK:   -0.05 KCAL/MOL
REMARK 927      BINDING AFFINITY PREDICTED BY RF-SCORE:    0.00 PKD
ROOT
HETATM    1  C   UNL     1     -10.161  11.669  63.786  1.00  0.00    -0.430 C  
HETATM    2  C   UNL     1     -10.988  12.775  64.454  1.00  0.00    -0.361 C  
HETATM    3  C   UNL     1     -12.327  12.883  63.679  1.00  0.00    -0.434 C  
HETATM    4  C   UNL     1     -11.353  12.432  65.927  1.00  0.00    -0.399 C  
HETATM    5  N   UNL     1     -10.231  14.043  64.346  1.00  0.00    -0.711 NA 
HETATM    6  H2  UNL     1      -9.975  14.269  63.385  1.00  0.00     0.000 HD 
HETATM    7  O   UNL     1     -12.504  14.088  63.081  1.00  0.00    -0.733 OA 
HETATM    8  H1  UNL     1     -10.781  14.778  64.790  1.00  0.00     0.000 HD 
HETATM    9  O   UNL     1     -13.158  11.992  63.590  1.00  0.00    -0.756 OA 
ENDROOT
BRANCH   4  10
HETATM   10  C   UNL     1     -10.203  12.187  66.886  1.00  0.00    -0.228 A  
HETATM   11  C   UNL     1      -9.903  10.897  67.347  1.00  0.00    -0.199 A  
HETATM   12  C   UNL     1      -8.865  10.680  68.255  1.00  0.00    -0.139 A  
HETATM   13  C   UNL     1      -8.097  11.755  68.681  1.00  0.00    -0.104 A  
HETATM   14  C   UNL     1      -8.340  13.035  68.199  1.00  0.00    -0.164 A  
HETATM   15  O   UNL     1      -7.088  11.589  69.581  1.00  0.00    -0.316 OA 
HETATM   16  C   UNL     1      -9.391  13.253  67.305  1.00  0.00    -0.226 A  
HETATM   17  H   UNL     1      -6.563  12.326  69.873  1.00  0.00     0.000 HD 
ENDBRANCH   4  10
TORSDOF 1
ENDMDL
MODEL       30
REMARK 921   NORMALIZED FREE ENERGY PREDICTED BY IDOCK:   -4.89 KCAL/MOL
REMARK 922        TOTAL FREE ENERGY PREDICTED BY IDOCK:   -5.25 KCAL/MOL
REMARK 923 INTER-LIGAND FREE ENERGY PREDICTED BY IDOCK:   -5.42 KCAL/MOL
REMARK 924 INTRA-LIGAND FREE ENERGY PREDICTED BY IDOCK:    0.17 KCAL/MOL
REMARK 927      BINDING AFFINITY PREDICTED BY RF-SCORE:    0.00 PKD
ROOT
HETATM    1  C   UNL     1     -10.556   8.956  71.902  1.00  0.00    -0.419 C  
HETATM    2  C   UNL     1     -11.648   8.653  70.868  1.00  0.00    -0.269 C  
HETATM    3  C   UNL     1     -12.042   7.162  71.038  1.00  0.00    -0.350 C  
HETATM    4  C   UNL     1     -12.940   9.485  71.110  1.00  0.00    -0.349 C  
HETATM    5  N   UNL     1     -11.080   8.881  69.520  1.00  0.00    -0.432 NA 
HETATM    6  H2  UNL     1     -10.224   8.349  69.358  1.00  0.00     0.000 HD 
HETATM    7  O   UNL     1     -11.781   6.411  69.939  1.00  0.00    -0.426 OA 
HETATM    8  H1  UNL     1     -11.805   8.678  68.833  1.00  0.00     0.000 HD 
HETATM    9  O   UNL     1     -12.536   6.679  72.046  1.00  0.00    -0.325 OA 
ENDROOT
BRANCH   4  10
HETATM   10  C   UNL     1     -12.804  10.996  71.084  1.00  0.00    -0.491 A  
HETATM   11  C   UNL     1     -12.076  11.644  70.076  1.00  0.00    -0.395 A  
HETATM   12  C   UNL     1     -11.926  13.032  70.074  1.00  0.00    -0.383 A  
HETATM   13  C   UNL     1     -12.535  13.784  71.069  1.00  0.00    -0.380 A  
HETATM   14  C   UNL     1     -13.306  13.172  72.048  1.00  0.00    -0.587 A  
HETATM   15  O   UNL     1     -12.398  15.139  71.114  1.00  0.00    -0.291 OA 
HETATM   16  C   UNL     1     -13.439  11.781  72.059  1.00  0.00    -0.319 A  
HETATM   17  H   UNL     1     -12.814  15.653  71.796  1.00  0.00     0.000 HD 
ENDBRANCH   4  10
TORSDOF 1
ENDMDL
MODEL       31
REMARK 921   NORMALIZED FREE ENERGY PREDICTED BY IDOCK:   -4.88 KCAL/MOL
REMARK 922        TOTAL FREE ENERGY PREDICTED BY IDOCK:   -5.23 KCAL/MOL
REMARK 923 INTER-LIGAND FREE ENERGY PREDICTED BY IDOCK:   -5.15 KCAL/MOL
REMARK 924 INTRA-LIGAND FREE ENERGY PREDICTED BY IDOCK:   -0.08 KCAL/MOL
REMARK 927      BINDING AFFINITY PREDICTED BY RF-SCORE:    0.00 PKD
ROOT
HETATM    1  C   UNL     1      -9.070  14.973  66.455  1.00  0.00    -0.319 C  
HETATM    2  C   UNL     1     -10.287  15.768  66.945  1.00  0.00    -0.295 C  
HETATM    3  C   UNL     1     -10.441  16.998  66.012  1.00  0.00    -0.274 C  
HETATM    4  C   UNL     1     -11.609  14.956  66.832  1.00  0.00    -0.286 C  
HETATM    5  N   UNL     1     -10.019  16.209  68.332  1.00  0.00    -0.226 NA 
HETATM    6  H2  UNL     1      -9.146  16.731  68.418  1.00  0.00     0.000 HD 
HETATM    7  O   UNL     1     -10.294  18.182  66.659  1.00  0.00    -0.356 OA 
HETATM    8  H1  UNL     1     -10.827  16.738  68.658  1.00  0.00     0.000 HD 
HETATM    9  O   UNL     1     -10.667  16.942  64.813  1.00  0.00    -0.758 OA 
ENDROOT
BRANCH   4  10
HETATM   10  C   UNL     1     -11.683  13.644  67.592  1.00  0.00    -0.398 A  
HETATM   11  C   UNL     1     -11.471  12.417  66.947  1.00  0.00    -0.423 A  
HETATM   12  C   UNL     1     -11.572  11.211  67.643  1.00  0.00    -0.266 A  
HETATM   13  C   UNL     1     -11.854  11.231  69.002  1.00  0.00    -0.352 A  
HETATM   14  C   UNL     1     -12.015  12.434  69.675  1.00  0.00    -0.341 A  
HETATM   15  O   UNL     1     -11.980  10.076  69.714  1.00  0.00    -0.460 OA 
HETATM   16  C   UNL     1     -11.932  13.640  68.973  1.00  0.00    -0.392 A  
HETATM   17  H   UNL     1     -12.174  10.089  70.644  1.00  0.00     0.000 HD 
ENDBRANCH   4  10
TORSDOF 1
ENDMDL
MODEL       32
REMARK 921   NORMALIZED FREE ENERGY PREDICTED BY IDOCK:   -4.83 KCAL/MOL
REMARK 922        TOTAL FREE ENERGY PREDICTED BY IDOCK:   -5.18 KCAL/MOL
REMARK 923 INTER-LIGAND FREE ENERGY PREDICTED BY IDOCK:   -5.10 KCAL/MOL
REMARK 924 INTRA-LIGAND FREE ENERGY PREDICTED BY IDOCK:   -0.08 KCAL/MOL
REMARK 927      BINDING AFFINITY PREDICTED BY RF-SCORE:    0.00 PKD
ROOT
HETATM    1  C   UNL     1     -10.905   9.866  67.676  1.00  0.00    -0.318 C  
HETATM    2  C   UNL     1      -9.719   9.292  68.462  1.00  0.00    -0.150 C  
HETATM    3  C   UNL     1      -8.424   9.752  67.744  1.00  0.00    -0.121 C  
HETATM    4  C   UNL     1      -9.646   9.851  69.912  1.00  0.00    -0.265 C  
HETATM    5  N   UNL     1      -9.822   7.816  68.436  1.00  0.00    -0.164 NA 
HETATM    6  H2  UNL     1      -9.885   7.442  67.489  1.00  0.00     0.000 HD 
HETATM    7  O   UNL     1      -7.688   8.722  67.256  1.00  0.00    -0.095 OA 
HETATM    8  H1  UNL     1      -9.034   7.435  68.959  1.00  0.00     0.000 HD 
HETATM    9  O   UNL     1      -8.073  10.915  67.609  1.00  0.00    -0.113 OA 
ENDROOT
BRANCH   4  10
HETATM   10  C   UNL     1     -10.847   9.610  70.808  1.00  0.00    -0.400 A  
HETATM   11  C   UNL     1     -11.922  10.509  70.841  1.00  0.00    -0.481 A  
HETATM   12  C   UNL     1     -13.010  10.301  71.691  1.00  0.00    -0.570 A  
HETATM   13  C   UNL     1     -13.041   9.167  72.491  1.00  0.00    -0.377 A  
HETATM   14  C   UNL     1     -12.014   8.234  72.438  1.00  0.00    -0.447 A  
HETATM   15  O   UNL     1     -14.075   8.936  73.348  1.00  0.00    -1.256 OA 
HETATM   16  C   UNL     1     -10.917   8.454  71.601  1.00  0.00    -0.345 A  
HETATM   17  H   UNL     1     -14.096   8.160  73.897  1.00  0.00     0.000 HD 
ENDBRANCH   4  10
TORSDOF 1
ENDMDL
MODEL       33
REMARK 921   NORMALIZED FREE ENERGY PREDICTED BY IDOCK:   -4.82 KCAL/MOL
REMARK 922        TOTAL FREE ENERGY PREDICTED BY IDOCK:   -5.17 KCAL/MOL
REMARK 923 INTER-LIGAND FREE ENERGY PREDICTED BY IDOCK:   -5.60 KCAL/MOL
REMARK 924 INTRA-LIGAND FREE ENERGY PREDICTED BY IDOCK:    0.42 KCAL/MOL
REMARK 927      BINDING AFFINITY PREDICTED BY RF-SCORE:    0.00 PKD
ROOT
HETATM    1  C   UNL     1     -10.669  10.096  67.508  1.00  0.00    -0.347 C  
HETATM    2  C   UNL     1     -10.848  11.434  68.236  1.00  0.00    -0.209 C  
HETATM    3  C   UNL     1     -11.244  12.490  67.171  1.00  0.00    -0.300 C  
HETATM    4  C   UNL     1     -12.006  11.392  69.273  1.00  0.00    -0.400 C  
HETATM    5  N   UNL     1      -9.553  11.795  68.856  1.00  0.00    -0.412 NA 
HETATM    6  H2  UNL     1      -8.785  11.811  68.186  1.00  0.00     0.000 HD 
HETATM    7  O   UNL     1     -10.334  13.488  67.042  1.00  0.00    -0.249 OA 
HETATM    8  H1  UNL     1      -9.672  12.685  69.340  1.00  0.00     0.000 HD 
HETATM    9  O   UNL     1     -12.262  12.455  66.495  1.00  0.00    -0.586 OA 
ENDROOT
BRANCH   4  10
HETATM   10  C   UNL     1     -11.901  10.367  70.387  1.00  0.00    -0.418 A  
HETATM   11  C   UNL     1     -10.661   9.842  70.777  1.00  0.00    -0.393 A  
HETATM   12  C   UNL     1     -10.572   8.874  71.780  1.00  0.00    -0.432 A  
HETATM   13  C   UNL     1     -11.728   8.450  72.421  1.00  0.00    -0.382 A  
HETATM   14  C   UNL     1     -12.962   8.993  72.090  1.00  0.00    -0.490 A  
HETATM   15  O   UNL     1     -11.687   7.494  73.391  1.00  0.00    -0.574 OA 
HETATM   16  C   UNL     1     -13.051   9.947  71.073  1.00  0.00    -0.406 A  
HETATM   17  H   UNL     1     -12.478   7.203  73.830  1.00  0.00     0.000 HD 
ENDBRANCH   4  10
TORSDOF 1
ENDMDL
MODEL       34
REMARK 921   NORMALIZED FREE ENERGY PREDICTED BY IDOCK:   -4.78 KCAL/MOL
REMARK 922        TOTAL FREE ENERGY PREDICTED BY IDOCK:   -5.13 KCAL/MOL
REMARK 923 INTER-LIGAND FREE ENERGY PREDICTED BY IDOCK:   -5.05 KCAL/MOL
REMARK 924 INTRA-LIGAND FREE ENERGY PREDICTED BY IDOCK:   -0.08 KCAL/MOL
REMARK 927      BINDING AFFINITY PREDICTED BY RF-SCORE:    0.00 PKD
ROOT
HETATM    1  C   UNL     1      -9.911   9.696  70.092  1.00  0.00    -0.309 C  
HETATM    2  C   UNL     1     -10.128  10.580  68.857  1.00  0.00    -0.202 C  
HETATM    3  C   UNL     1      -9.883   9.695  67.607  1.00  0.00    -0.164 C  
HETATM    4  C   UNL     1     -11.590  11.102  68.753  1.00  0.00    -0.389 C  
HETATM    5  N   UNL     1      -9.143  11.684  68.904  1.00  0.00    -0.396 NA 
HETATM    6  H2  UNL     1      -8.182  11.351  68.986  1.00  0.00     0.000 HD 
HETATM    7  O   UNL     1      -8.838  10.116  66.850  1.00  0.00    -0.132 OA 
HETATM    8  H1  UNL     1      -9.287  12.271  68.083  1.00  0.00     0.000 HD 
HETATM    9  O   UNL     1     -10.541   8.710  67.306  1.00  0.00    -0.291 OA 
ENDROOT
BRANCH   4  10
HETATM   10  C   UNL     1     -12.113  11.933  69.910  1.00  0.00    -0.344 A  
HETATM   11  C   UNL     1     -12.774  11.337  70.994  1.00  0.00    -0.457 A  
HETATM   12  C   UNL     1     -13.282  12.108  72.040  1.00  0.00    -0.496 A  
HETATM   13  C   UNL     1     -13.100  13.484  72.023  1.00  0.00    -0.387 A  
HETATM   14  C   UNL     1     -12.403  14.093  70.988  1.00  0.00    -0.438 A  
HETATM   15  O   UNL     1     -13.597  14.275  73.015  1.00  0.00    -0.643 OA 
HETATM   16  C   UNL     1     -11.911  13.322  69.932  1.00  0.00    -0.400 A  
HETATM   17  H   UNL     1     -13.473  15.217  73.002  1.00  0.00     0.000 HD 
ENDBRANCH   4  10
TORSDOF 1
ENDMDL
MODEL       35
REMARK 921   NORMALIZED FREE ENERGY PREDICTED BY IDOCK:   -4.74 KCAL/MOL
REMARK 922        TOTAL FREE ENERGY PREDICTED BY IDOCK:   -5.09 KCAL/MOL
REMARK 923 INTER-LIGAND FREE ENERGY PREDICTED BY IDOCK:   -5.12 KCAL/MOL
REMARK 924 INTRA-LIGAND FREE ENERGY PREDICTED BY IDOCK:    0.03 KCAL/MOL
REMARK 927      BINDING AFFINITY PREDICTED BY RF-SCORE:    0.00 PKD
ROOT
HETATM    1  C   UNL     1      -9.902  15.346  68.420  1.00  0.00    -0.215 C  
HETATM    2  C   UNL     1      -9.949  15.227  66.892  1.00  0.00    -0.239 C  
HETATM    3  C   UNL     1     -10.945  14.088  66.549  1.00  0.00    -0.306 C  
HETATM    4  C   UNL     1     -10.497  16.516  66.215  1.00  0.00    -0.285 C  
HETATM    5  N   UNL     1      -8.592  14.879  66.416  1.00  0.00    -0.448 NA 
HETATM    6  H2  UNL     1      -8.219  14.042  66.865  1.00  0.00     0.000 HD 
HETATM    7  O   UNL     1     -10.364  13.044  65.906  1.00  0.00    -0.277 OA 
HETATM    8  H1  UNL     1      -8.623  14.799  65.400  1.00  0.00     0.000 HD 
HETATM    9  O   UNL     1     -12.137  14.095  66.818  1.00  0.00    -0.429 OA 
ENDROOT
BRANCH   4  10
HETATM   10  C   UNL     1      -9.741  17.807  66.470  1.00  0.00    -0.324 A  
HETATM   11  C   UNL     1     -10.352  18.891  67.116  1.00  0.00    -0.479 A  
HETATM   12  C   UNL     1      -9.664  20.088  67.320  1.00  0.00    -0.545 A  
HETATM   13  C   UNL     1      -8.343  20.193  66.906  1.00  0.00    -0.315 A  
HETATM   14  C   UNL     1      -7.698  19.116  66.312  1.00  0.00    -0.296 A  
HETATM   15  O   UNL     1      -7.641  21.350  67.069  1.00  0.00    -0.799 OA 
HETATM   16  C   UNL     1      -8.395  17.925  66.092  1.00  0.00    -0.163 A  
HETATM   17  H   UNL     1      -6.737  21.422  66.785  1.00  0.00     0.000 HD 
ENDBRANCH   4  10
TORSDOF 1
ENDMDL
MODEL       36
REMARK 921   NORMALIZED FREE ENERGY PREDICTED BY IDOCK:   -4.74 KCAL/MOL
REMARK 922        TOTAL FREE ENERGY PREDICTED BY IDOCK:   -5.08 KCAL/MOL
REMARK 923 INTER-LIGAND FREE ENERGY PREDICTED BY IDOCK:   -5.01 KCAL/MOL
REMARK 924 INTRA-LIGAND FREE ENERGY PREDICTED BY IDOCK:   -0.08 KCAL/MOL
REMARK 927      BINDING AFFINITY PREDICTED BY RF-SCORE:    0.00 PKD
ROOT
HETATM    1  C   UNL     1     -10.621  15.609  69.171  1.00  0.00    -0.237 C  
HETATM    2  C   UNL     1      -9.938  16.370  68.028  1.00  0.00    -0.242 C  
HETATM    3  C   UNL     1      -8.665  17.037  68.614  1.00  0.00    -0.261 C  
HETATM    4  C   UNL     1      -9.460  15.423  66.890  1.00  0.00    -0.246 C  
HETATM    5  N   UNL     1     -10.877  17.404  67.539  1.00  0.00    -0.269 NA 
HETATM    6  H2  UNL     1     -11.206  18.021  68.282  1.00  0.00     0.000 HD 
HETATM    7  O   UNL     1      -8.695  18.392  68.554  1.00  0.00    -0.313 OA 
HETATM    8  H1  UNL     1     -10.422  17.910  66.779  1.00  0.00     0.000 HD 
HETATM    9  O   UNL     1      -7.716  16.434  69.092  1.00  0.00    -0.234 OA 
ENDROOT
BRANCH   4  10
HETATM   10  C   UNL     1     -10.517  14.579  66.203  1.00  0.00    -0.303 A  
HETATM   11  C   UNL     1     -10.869  13.313  66.694  1.00  0.00    -0.289 A  
HETATM   12  C   UNL     1     -11.818  12.525  66.041  1.00  0.00    -0.478 A  
HETATM   13  C   UNL     1     -12.447  13.018  64.905  1.00  0.00    -0.455 A  
HETATM   14  C   UNL     1     -12.156  14.290  64.429  1.00  0.00    -0.490 A  
HETATM   15  O   UNL     1     -13.365  12.274  64.227  1.00  0.00    -0.777 OA 
HETATM   16  C   UNL     1     -11.191  15.069  65.074  1.00  0.00    -0.413 A  
HETATM   17  H   UNL     1     -13.795  12.611  63.450  1.00  0.00     0.000 HD 
ENDBRANCH   4  10
TORSDOF 1
ENDMDL
MODEL       37
REMARK 921   NORMALIZED FREE ENERGY PREDICTED BY IDOCK:   -4.72 KCAL/MOL
REMARK 922        TOTAL FREE ENERGY PREDICTED BY IDOCK:   -5.06 KCAL/MOL
REMARK 923 INTER-LIGAND FREE ENERGY PREDICTED BY IDOCK:   -4.98 KCAL/MOL
REMARK 924 INTRA-LIGAND FREE ENERGY PREDICTED BY IDOCK:   -0.09 KCAL/MOL
REMARK 927      BINDING AFFINITY PREDICTED BY RF-SCORE:    0.00 PKD
ROOT
HETATM    1  C   UNL     1     -10.088  11.853  63.347  1.00  0.00    -0.464 C  
HETATM    2  C   UNL     1     -10.926  12.719  64.296  1.00  0.00    -0.379 C  
HETATM    3  C   UNL     1     -12.322  12.899  63.644  1.00  0.00    -0.434 C  
HETATM    4  C   UNL     1     -11.163  12.030  65.671  1.00  0.00    -0.377 C  
HETATM    5  N   UNL     1     -10.254  14.030  64.436  1.00  0.00    -0.711 NA 
HETATM    6  H2  UNL     1     -10.083  14.482  63.538  1.00  0.00     0.000 HD 
HETATM    7  O   UNL     1     -12.612  14.191  63.347  1.00  0.00    -0.818 OA 
HETATM    8  H1  UNL     1     -10.812  14.605  65.066  1.00  0.00     0.000 HD 
HETATM    9  O   UNL     1     -13.105  11.992  63.404  1.00  0.00    -0.747 OA 
ENDROOT
BRANCH   4  10
HETATM   10  C   UNL     1      -9.934  11.662  66.481  1.00  0.00    -0.230 A  
HETATM   11  C   UNL     1      -9.439  12.513  67.479  1.00  0.00    -0.185 A  
HETATM   12  C   UNL     1      -8.289  12.186  68.200  1.00  0.00    -0.170 A  
HETATM   13  C   UNL     1      -7.646  10.982  67.945  1.00  0.00    -0.095 A  
HETATM   14  C   UNL     1      -8.146  10.097  67.000  1.00  0.00    -0.117 A  
HETATM   15  O   UNL     1      -6.510  10.634  68.613  1.00  0.00    -0.050 OA 
HETATM   16  C   UNL     1      -9.286  10.435  66.266  1.00  0.00    -0.202 A  
HETATM   17  H   UNL     1      -6.069   9.810  68.438  1.00  0.00     0.000 HD 
ENDBRANCH   4  10
TORSDOF 1
ENDMDL
MODEL       38
REMARK 921   NORMALIZED FREE ENERGY PREDICTED BY IDOCK:   -4.71 KCAL/MOL
REMARK 922        TOTAL FREE ENERGY PREDICTED BY IDOCK:   -5.05 KCAL/MOL
REMARK 923 INTER-LIGAND FREE ENERGY PREDICTED BY IDOCK:   -4.94 KCAL/MOL
REMARK 924 INTRA-LIGAND FREE ENERGY PREDICTED BY IDOCK:   -0.11 KCAL/MOL
REMARK 927      BINDING AFFINITY PREDICTED BY RF-SCORE:    0.00 PKD
ROOT
HETATM    1  C   UNL     1     -11.408   6.369  70.054  1.00  0.00    -0.496 C  
HETATM    2  C   UNL     1     -11.531   6.727  71.541  1.00  0.00    -0.287 C  
HETATM    3  C   UNL     1     -10.893   5.567  72.349  1.00  0.00    -0.248 C  
HETATM    4  C   UNL     1     -10.738   8.014  71.907  1.00  0.00    -0.311 C  
HETATM    5  N   UNL     1     -12.970   6.845  71.867  1.00  0.00    -0.524 NA 
HETATM    6  H2  UNL     1     -13.501   6.011  71.617  1.00  0.00     0.000 HD 
HETATM    7  O   UNL     1     -11.776   4.927  73.156  1.00  0.00    -0.315 OA 
HETATM    8  H1  UNL     1     -13.052   7.083  72.855  1.00  0.00     0.000 HD 
HETATM    9  O   UNL     1      -9.719   5.234  72.287  1.00  0.00    -0.154 OA 
ENDROOT
BRANCH   4  10
HETATM   10  C   UNL     1     -11.115   9.290  71.177  1.00  0.00    -0.411 A  
HETATM   11  C   UNL     1     -12.236  10.042  71.558  1.00  0.00    -0.496 A  
HETATM   12  C   UNL     1     -12.598  11.197  70.864  1.00  0.00    -0.483 A  
HETATM   13  C   UNL     1     -11.816  11.626  69.800  1.00  0.00    -0.357 A  
HETATM   14  C   UNL     1     -10.671  10.929  69.436  1.00  0.00    -0.265 A  
HETATM   15  O   UNL     1     -12.146  12.737  69.084  1.00  0.00    -0.261 OA 
HETATM   16  C   UNL     1     -10.321   9.762  70.121  1.00  0.00    -0.335 A  
HETATM   17  H   UNL     1     -11.610  13.030  68.356  1.00  0.00     0.000 HD 
ENDBRANCH   4  10
TORSDOF 1
ENDMDL
MODEL       39
REMARK 921   NORMALIZED FREE ENERGY PREDICTED BY IDOCK:   -4.67 KCAL/MOL
REMARK 922        TOTAL FREE ENERGY PREDICTED BY IDOCK:   -5.01 KCAL/MOL
REMARK 923 INTER-LIGAND FREE ENERGY PREDICTED BY IDOCK:   -5.03 KCAL/MOL
REMARK 924 INTRA-LIGAND FREE ENERGY PREDICTED BY IDOCK:    0.01 KCAL/MOL
REMARK 927      BINDING AFFINITY PREDICTED BY RF-SCORE:    0.00 PKD
ROOT
HETATM    1  C   UNL     1     -12.534  13.100  65.331  1.00  0.00    -0.535 C  
HETATM    2  C   UNL     1     -11.231  12.449  65.812  1.00  0.00    -0.333 C  
HETATM    3  C   UNL     1     -10.512  11.878  64.562  1.00  0.00    -0.296 C  
HETATM    4  C   UNL     1     -10.256  13.480  66.452  1.00  0.00    -0.291 C  
HETATM    5  N   UNL     1     -11.580  11.355  66.745  1.00  0.00    -0.444 NA 
HETATM    6  H2  UNL     1     -12.230  10.682  66.338  1.00  0.00     0.000 HD 
HETATM    7  O   UNL     1     -10.370  10.529  64.596  1.00  0.00    -0.344 OA 
HETATM    8  H1  UNL     1     -10.714  10.923  67.064  1.00  0.00     0.000 HD 
HETATM    9  O   UNL     1     -10.106  12.545  63.621  1.00  0.00    -0.380 OA 
ENDROOT
BRANCH   4  10
HETATM   10  C   UNL     1     -10.761  14.252  67.658  1.00  0.00    -0.259 A  
HETATM   11  C   UNL     1     -10.927  15.643  67.612  1.00  0.00    -0.315 A  
HETATM   12  C   UNL     1     -11.360  16.354  68.733  1.00  0.00    -0.277 A  
HETATM   13  C   UNL     1     -11.661  15.666  69.901  1.00  0.00    -0.362 A  
HETATM   14  C   UNL     1     -11.556  14.283  69.956  1.00  0.00    -0.325 A  
HETATM   15  O   UNL     1     -12.068  16.324  71.023  1.00  0.00    -0.560 OA 
HETATM   16  C   UNL     1     -11.104  13.575  68.838  1.00  0.00    -0.305 A  
HETATM   17  H   UNL     1     -12.274  15.853  71.822  1.00  0.00     0.000 HD 
ENDBRANCH   4  10
TORSDOF 1
ENDMDL
MODEL       40
REMARK 921   NORMALIZED FREE ENERGY PREDICTED BY IDOCK:   -4.67 KCAL/MOL
REMARK 922        TOTAL FREE ENERGY PREDICTED BY IDOCK:   -5.01 KCAL/MOL
REMARK 923 INTER-LIGAND FREE ENERGY PREDICTED BY IDOCK:   -4.89 KCAL/MOL
REMARK 924 INTRA-LIGAND FREE ENERGY PREDICTED BY IDOCK:   -0.11 KCAL/MOL
REMARK 927      BINDING AFFINITY PREDICTED BY RF-SCORE:    0.00 PKD
ROOT
HETATM    1  C   UNL     1     -10.766  18.563  67.145  1.00  0.00    -0.396 C  
HETATM    2  C   UNL     1      -9.857  17.398  66.735  1.00  0.00    -0.296 C  
HETATM    3  C   UNL     1     -10.605  16.591  65.642  1.00  0.00    -0.304 C  
HETATM    4  C   UNL     1      -8.525  17.885  66.094  1.00  0.00    -0.147 C  
HETATM    5  N   UNL     1      -9.627  16.552  67.928  1.00  0.00    -0.231 NA 
HETATM    6  H2  UNL     1     -10.496  16.240  68.362  1.00  0.00     0.000 HD 
HETATM    7  O   UNL     1     -10.883  15.316  66.014  1.00  0.00    -0.322 OA 
HETATM    8  H1  UNL     1      -9.023  15.778  67.654  1.00  0.00     0.000 HD 
HETATM    9  O   UNL     1     -10.931  17.028  64.548  1.00  0.00    -1.031 OA 
ENDROOT
BRANCH   4  10
HETATM   10  C   UNL     1      -7.637  18.779  66.940  1.00  0.00    -0.238 A  
HETATM   11  C   UNL     1      -6.786  18.243  67.918  1.00  0.00    -0.213 A  
HETATM   12  C   UNL     1      -5.995  19.071  68.716  1.00  0.00    -0.236 A  
HETATM   13  C   UNL     1      -6.028  20.445  68.515  1.00  0.00    -0.305 A  
HETATM   14  C   UNL     1      -6.821  20.996  67.517  1.00  0.00    -0.409 A  
HETATM   15  O   UNL     1      -5.286  21.289  69.285  1.00  0.00    -0.440 OA 
HETATM   16  C   UNL     1      -7.626  20.167  66.732  1.00  0.00    -0.328 A  
HETATM   17  H   UNL     1      -5.309  22.229  69.147  1.00  0.00     0.000 HD 
ENDBRANCH   4  10
TORSDOF 1
ENDMDL
MODEL       41
REMARK 921   NORMALIZED FREE ENERGY PREDICTED BY IDOCK:   -4.59 KCAL/MOL
REMARK 922        TOTAL FREE ENERGY PREDICTED BY IDOCK:   -4.93 KCAL/MOL
REMARK 923 INTER-LIGAND FREE ENERGY PREDICTED BY IDOCK:   -4.95 KCAL/MOL
REMARK 924 INTRA-LIGAND FREE ENERGY PREDICTED BY IDOCK:    0.02 KCAL/MOL
REMARK 927      BINDING AFFINITY PREDICTED BY RF-SCORE:    0.00 PKD
ROOT
HETATM    1  C   UNL     1      -9.670  13.922  67.355  1.00  0.00    -0.234 C  
HETATM    2  C   UNL     1      -9.739  15.451  67.459  1.00  0.00    -0.208 C  
HETATM    3  C   UNL     1      -9.553  16.020  66.028  1.00  0.00    -0.350 C  
HETATM    4  C   UNL     1     -11.127  15.947  67.958  1.00  0.00    -0.334 C  
HETATM    5  N   UNL     1      -8.636  15.902  68.336  1.00  0.00    -0.172 NA 
HETATM    6  H2  UNL     1      -7.723  15.569  68.024  1.00  0.00     0.000 HD 
HETATM    7  O   UNL     1      -8.441  16.786  65.897  1.00  0.00    -0.484 OA 
HETATM    8  H1  UNL     1      -8.682  16.918  68.405  1.00  0.00     0.000 HD 
HETATM    9  O   UNL     1     -10.309  15.816  65.090  1.00  0.00    -0.425 OA 
ENDROOT
BRANCH   4  10
HETATM   10  C   UNL     1     -11.591  15.453  69.316  1.00  0.00    -0.354 A  
HETATM   11  C   UNL     1     -12.016  14.130  69.502  1.00  0.00    -0.389 A  
HETATM   12  C   UNL     1     -12.473  13.689  70.745  1.00  0.00    -0.432 A  
HETATM   13  C   UNL     1     -12.476  14.567  71.821  1.00  0.00    -0.348 A  
HETATM   14  C   UNL     1     -12.010  15.867  71.675  1.00  0.00    -0.553 A  
HETATM   15  O   UNL     1     -12.932  14.182  73.046  1.00  0.00    -0.478 OA 
HETATM   16  C   UNL     1     -11.571  16.312  70.426  1.00  0.00    -0.193 A  
HETATM   17  H   UNL     1     -12.934  14.783  73.782  1.00  0.00     0.000 HD 
ENDBRANCH   4  10
TORSDOF 1
ENDMDL
MODEL       42
REMARK 921   NORMALIZED FREE ENERGY PREDICTED BY IDOCK:   -4.58 KCAL/MOL
REMARK 922        TOTAL FREE ENERGY PREDICTED BY IDOCK:   -4.92 KCAL/MOL
REMARK 923 INTER-LIGAND FREE ENERGY PREDICTED BY IDOCK:   -5.19 KCAL/MOL
REMARK 924 INTRA-LIGAND FREE ENERGY PREDICTED BY IDOCK:    0.27 KCAL/MOL
REMARK 927      BINDING AFFINITY PREDICTED BY RF-SCORE:    0.00 PKD
ROOT
HETATM    1  C   UNL     1      -9.536   9.463  70.700  1.00  0.00    -0.325 C  
HETATM    2  C   UNL     1     -10.972   8.949  70.539  1.00  0.00    -0.241 C  
HETATM    3  C   UNL     1     -11.167   7.797  71.559  1.00  0.00    -0.244 C  
HETATM    4  C   UNL     1     -12.032  10.034  70.885  1.00  0.00    -0.453 C  
HETATM    5  N   UNL     1     -11.124   8.439  69.158  1.00  0.00    -0.419 NA 
HETATM    6  H2  UNL     1     -10.424   7.736  68.917  1.00  0.00     0.000 HD 
HETATM    7  O   UNL     1     -11.424   6.600  70.974  1.00  0.00    -0.293 OA 
HETATM    8  H1  UNL     1     -12.078   8.096  69.050  1.00  0.00     0.000 HD 
HETATM    9  O   UNL     1     -11.099   7.919  72.773  1.00  0.00    -0.357 OA 
ENDROOT
BRANCH   4  10
HETATM   10  C   UNL     1     -11.996  11.318  70.076  1.00  0.00    -0.447 A  
HETATM   11  C   UNL     1     -12.174  12.567  70.688  1.00  0.00    -0.365 A  
HETATM   12  C   UNL     1     -12.174  13.744  69.936  1.00  0.00    -0.383 A  
HETATM   13  C   UNL     1     -11.961  13.676  68.566  1.00  0.00    -0.361 A  
HETATM   14  C   UNL     1     -11.729  12.456  67.944  1.00  0.00    -0.421 A  
HETATM   15  O   UNL     1     -11.972  14.798  67.793  1.00  0.00    -0.492 OA 
HETATM   16  C   UNL     1     -11.749  11.278  68.695  1.00  0.00    -0.391 A  
HETATM   17  H   UNL     1     -11.827  14.752  66.855  1.00  0.00     0.000 HD 
ENDBRANCH   4  10
TORSDOF 1
ENDMDL
MODEL       43
REMARK 921   NORMALIZED FREE ENERGY PREDICTED BY IDOCK:   -4.58 KCAL/MOL
REMARK 922        TOTAL FREE ENERGY PREDICTED BY IDOCK:   -4.91 KCAL/MOL
REMARK 923 INTER-LIGAND FREE ENERGY PREDICTED BY IDOCK:   -4.81 KCAL/MOL
REMARK 924 INTRA-LIGAND FREE ENERGY PREDICTED BY IDOCK:   -0.10 KCAL/MOL
REMARK 927      BINDING AFFINITY PREDICTED BY RF-SCORE:    0.00 PKD
ROOT
HETATM    1  C   UNL     1     -11.755  14.491  66.736  1.00  0.00    -0.393 C  
HETATM    2  C   UNL     1     -11.322  14.595  68.203  1.00  0.00    -0.302 C  
HETATM    3  C   UNL     1     -11.129  13.149  68.731  1.00  0.00    -0.269 C  
HETATM    4  C   UNL     1      -9.952  15.315  68.366  1.00  0.00    -0.220 C  
HETATM    5  N   UNL     1     -12.403  15.273  68.954  1.00  0.00    -0.604 NA 
HETATM    6  H2  UNL     1     -13.307  14.815  68.842  1.00  0.00     0.000 HD 
HETATM    7  O   UNL     1     -11.978  12.829  69.740  1.00  0.00    -0.314 OA 
HETATM    8  H1  UNL     1     -12.114  15.341  69.930  1.00  0.00     0.000 HD 
HETATM    9  O   UNL     1     -10.308  12.351  68.302  1.00  0.00    -0.215 OA 
ENDROOT
BRANCH   4  10
HETATM   10  C   UNL     1      -9.850  16.735  67.840  1.00  0.00    -0.257 A  
HETATM   11  C   UNL     1     -10.410  17.812  68.541  1.00  0.00    -0.366 A  
HETATM   12  C   UNL     1     -10.342  19.112  68.038  1.00  0.00    -0.483 A  
HETATM   13  C   UNL     1      -9.681  19.345  66.839  1.00  0.00    -0.343 A  
HETATM   14  C   UNL     1      -9.072  18.303  66.152  1.00  0.00    -0.122 A  
HETATM   15  O   UNL     1      -9.609  20.596  66.303  1.00  0.00    -0.642 OA 
HETATM   16  C   UNL     1      -9.157  16.999  66.648  1.00  0.00    -0.278 A  
HETATM   17  H   UNL     1      -9.157  20.754  65.483  1.00  0.00     0.000 HD 
ENDBRANCH   4  10
TORSDOF 1
ENDMDL
MODEL       44
REMARK 921   NORMALIZED FREE ENERGY PREDICTED BY IDOCK:   -4.56 KCAL/MOL
REMARK 922        TOTAL FREE ENERGY PREDICTED BY IDOCK:   -4.89 KCAL/MOL
REMARK 923 INTER-LIGAND FREE ENERGY PREDICTED BY IDOCK:   -4.84 KCAL/MOL
REMARK 924 INTRA-LIGAND FREE ENERGY PREDICTED BY IDOCK:   -0.06 KCAL/MOL
REMARK 927      BINDING AFFINITY PREDICTED BY RF-SCORE:    0.00 PKD
ROOT
HETATM    1  C   UNL     1     -12.636  14.039  66.251  1.00  0.00    -0.352 C  
HETATM    2  C   UNL     1     -11.727  13.212  65.333  1.00  0.00    -0.350 C  
HETATM    3  C   UNL     1     -12.372  13.214  63.922  1.00  0.00    -0.365 C  
HETATM    4  C   UNL     1     -10.314  13.843  65.176  1.00  0.00    -0.403 C  
HETATM    5  N   UNL     1     -11.668  11.833  65.865  1.00  0.00    -0.384 NA 
HETATM    6  H2  UNL     1     -12.592  11.416  65.984  1.00  0.00     0.000 HD 
HETATM    7  O   UNL     1     -12.737  11.978  63.498  1.00  0.00    -0.688 OA 
HETATM    8  H1  UNL     1     -11.064  11.283  65.254  1.00  0.00     0.000 HD 
HETATM    9  O   UNL     1     -12.553  14.210  63.236  1.00  0.00    -0.766 OA 
ENDROOT
BRANCH   4  10
HETATM   10  C   UNL     1      -9.498  14.036  66.441  1.00  0.00    -0.278 A  
HETATM   11  C   UNL     1      -9.307  15.310  66.996  1.00  0.00    -0.238 A  
HETATM   12  C   UNL     1      -8.529  15.487  68.142  1.00  0.00    -0.147 A  
HETATM   13  C   UNL     1      -7.963  14.379  68.759  1.00  0.00    -0.133 A  
HETATM   14  C   UNL     1      -8.182  13.102  68.260  1.00  0.00    -0.154 A  
HETATM   15  O   UNL     1      -7.182  14.511  69.867  1.00  0.00    -0.358 OA 
HETATM   16  C   UNL     1      -8.945  12.929  67.102  1.00  0.00    -0.219 A  
HETATM   17  H   UNL     1      -6.794  13.753  70.289  1.00  0.00     0.000 HD 
ENDBRANCH   4  10
TORSDOF 1
ENDMDL
MODEL       45
REMARK 921   NORMALIZED FREE ENERGY PREDICTED BY IDOCK:   -4.53 KCAL/MOL
REMARK 922        TOTAL FREE ENERGY PREDICTED BY IDOCK:   -4.87 KCAL/MOL
REMARK 923 INTER-LIGAND FREE ENERGY PREDICTED BY IDOCK:   -4.88 KCAL/MOL
REMARK 924 INTRA-LIGAND FREE ENERGY PREDICTED BY IDOCK:    0.01 KCAL/MOL
REMARK 927      BINDING AFFINITY PREDICTED BY RF-SCORE:    0.00 PKD
ROOT
HETATM    1  C   UNL     1      -9.499  15.305  69.382  1.00  0.00    -0.231 C  
HETATM    2  C   UNL     1     -10.464  15.235  68.191  1.00  0.00    -0.246 C  
HETATM    3  C   UNL     1     -11.508  14.132  68.508  1.00  0.00    -0.300 C  
HETATM    4  C   UNL     1     -11.259  16.558  67.996  1.00  0.00    -0.202 C  
HETATM    5  N   UNL     1      -9.683  14.869  66.988  1.00  0.00    -0.230 NA 
HETATM    6  H2  UNL     1      -9.147  14.010  67.112  1.00  0.00     0.000 HD 
HETATM    7  O   UNL     1     -11.473  13.095  67.634  1.00  0.00    -0.286 OA 
HETATM    8  H1  UNL     1     -10.325  14.822  66.197  1.00  0.00     0.000 HD 
HETATM    9  O   UNL     1     -12.294  14.160  69.443  1.00  0.00    -0.326 OA 
ENDROOT
BRANCH   4  10
HETATM   10  C   UNL     1     -10.453  17.821  67.756  1.00  0.00    -0.402 A  
HETATM   11  C   UNL     1     -10.400  18.420  66.490  1.00  0.00    -0.426 A  
HETATM   12  C   UNL     1      -9.631  19.563  66.265  1.00  0.00    -0.466 A  
HETATM   13  C   UNL     1      -8.934  20.133  67.322  1.00  0.00    -0.356 A  
HETATM   14  C   UNL     1      -9.013  19.590  68.598  1.00  0.00    -0.386 A  
HETATM   15  O   UNL     1      -8.157  21.238  67.141  1.00  0.00    -0.655 OA 
HETATM   16  C   UNL     1      -9.768  18.435  68.816  1.00  0.00    -0.369 A  
HETATM   17  H   UNL     1      -7.680  21.628  67.865  1.00  0.00     0.000 HD 
ENDBRANCH   4  10
TORSDOF 1
ENDMDL
MODEL       46
REMARK 921   NORMALIZED FREE ENERGY PREDICTED BY IDOCK:   -4.53 KCAL/MOL
REMARK 922        TOTAL FREE ENERGY PREDICTED BY IDOCK:   -4.87 KCAL/MOL
REMARK 923 INTER-LIGAND FREE ENERGY PREDICTED BY IDOCK:   -4.76 KCAL/MOL
REMARK 924 INTRA-LIGAND FREE ENERGY PREDICTED BY IDOCK:   -0.11 KCAL/MOL
REMARK 927      BINDING AFFINITY PREDICTED BY RF-SCORE:    0.00 PKD
ROOT
HETATM    1  C   UNL     1      -7.826  17.026  66.370  1.00  0.00    -0.343 C  
HETATM    2  C   UNL     1      -8.781  17.598  67.424  1.00  0.00    -0.234 C  
HETATM    3  C   UNL     1      -8.395  19.085  67.639  1.00  0.00    -0.287 C  
HETATM    4  C   UNL     1     -10.263  17.588  66.948  1.00  0.00    -0.329 C  
HETATM    5  N   UNL     1      -8.592  16.835  68.678  1.00  0.00    -0.254 NA 
HETATM    6  H2  UNL     1      -7.621  16.825  68.990  1.00  0.00     0.000 HD 
HETATM    7  O   UNL     1      -7.973  19.352  68.900  1.00  0.00    -0.358 OA 
HETATM    8  H1  UNL     1      -9.227  17.216  69.379  1.00  0.00     0.000 HD 
HETATM    9  O   UNL     1      -8.449  19.954  66.781  1.00  0.00    -0.302 OA 
ENDROOT
BRANCH   4  10
HETATM   10  C   UNL     1     -10.863  16.243  66.583  1.00  0.00    -0.115 A  
HETATM   11  C   UNL     1     -11.506  15.449  67.544  1.00  0.00    -0.228 A  
HETATM   12  C   UNL     1     -12.028  14.198  67.212  1.00  0.00    -0.449 A  
HETATM   13  C   UNL     1     -11.937  13.748  65.902  1.00  0.00    -0.406 A  
HETATM   14  C   UNL     1     -11.352  14.538  64.920  1.00  0.00    -0.394 A  
HETATM   15  O   UNL     1     -12.416  12.525  65.540  1.00  0.00    -0.646 OA 
HETATM   16  C   UNL     1     -10.814  15.782  65.259  1.00  0.00    -0.409 A  
HETATM   17  H   UNL     1     -12.353  12.217  64.643  1.00  0.00     0.000 HD 
ENDBRANCH   4  10
TORSDOF 1
ENDMDL
MODEL       47
REMARK 921   NORMALIZED FREE ENERGY PREDICTED BY IDOCK:   -4.49 KCAL/MOL
REMARK 922        TOTAL FREE ENERGY PREDICTED BY IDOCK:   -4.82 KCAL/MOL
REMARK 923 INTER-LIGAND FREE ENERGY PREDICTED BY IDOCK:   -4.80 KCAL/MOL
REMARK 924 INTRA-LIGAND FREE ENERGY PREDICTED BY IDOCK:   -0.02 KCAL/MOL
REMARK 927      BINDING AFFINITY PREDICTED BY RF-SCORE:    0.00 PKD
ROOT
HETATM    1  C   UNL     1     -11.772  15.141  67.111  1.00  0.00    -0.141 C  
HETATM    2  C   UNL     1     -11.255  14.828  65.701  1.00  0.00    -0.343 C  
HETATM    3  C   UNL     1     -10.979  16.183  64.998  1.00  0.00    -0.344 C  
HETATM    4  C   UNL     1      -9.904  14.056  65.724  1.00  0.00    -0.280 C  
HETATM    5  N   UNL     1     -12.312  14.084  64.979  1.00  0.00    -0.464 NA 
HETATM    6  H2  UNL     1     -13.205  14.576  64.971  1.00  0.00     0.000 HD 
HETATM    7  O   UNL     1     -11.754  16.386  63.903  1.00  0.00    -1.085 OA 
HETATM    8  H1  UNL     1     -11.968  13.876  64.042  1.00  0.00     0.000 HD 
HETATM    9  O   UNL     1     -10.159  17.009  65.368  1.00  0.00    -0.581 OA 
ENDROOT
BRANCH   4  10
HETATM   10  C   UNL     1      -9.884  12.719  66.441  1.00  0.00    -0.269 A  
HETATM   11  C   UNL     1      -9.829  12.644  67.840  1.00  0.00    -0.218 A  
HETATM   12  C   UNL     1      -9.777  11.412  68.495  1.00  0.00    -0.199 A  
HETATM   13  C   UNL     1      -9.814  10.243  67.748  1.00  0.00    -0.169 A  
HETATM   14  C   UNL     1      -9.922  10.288  66.364  1.00  0.00    -0.287 A  
HETATM   15  O   UNL     1      -9.746   9.020  68.346  1.00  0.00    -0.151 OA 
HETATM   16  C   UNL     1      -9.955  11.523  65.710  1.00  0.00    -0.271 A  
HETATM   17  H   UNL     1      -9.771   8.220  67.835  1.00  0.00     0.000 HD 
ENDBRANCH   4  10
TORSDOF 1
ENDMDL
MODEL       48
REMARK 921   NORMALIZED FREE ENERGY PREDICTED BY IDOCK:   -4.48 KCAL/MOL
REMARK 922        TOTAL FREE ENERGY PREDICTED BY IDOCK:   -4.81 KCAL/MOL
REMARK 923 INTER-LIGAND FREE ENERGY PREDICTED BY IDOCK:   -5.08 KCAL/MOL
REMARK 924 INTRA-LIGAND FREE ENERGY PREDICTED BY IDOCK:    0.26 KCAL/MOL
REMARK 927      BINDING AFFINITY PREDICTED BY RF-SCORE:    0.00 PKD
ROOT
HETATM    1  C   UNL     1     -10.183  12.444  63.884  1.00  0.00    -0.409 C  
HETATM    2  C   UNL     1     -10.797  13.255  65.031  1.00  0.00    -0.322 C  
HETATM    3  C   UNL     1     -11.668  14.370  64.393  1.00  0.00    -0.375 C  
HETATM    4  C   UNL     1     -11.749  12.400  65.917  1.00  0.00    -0.476 C  
HETATM    5  N   UNL     1      -9.693  13.854  65.813  1.00  0.00    -0.483 NA 
HETATM    6  H2  UNL     1      -9.056  14.406  65.238  1.00  0.00     0.000 HD 
HETATM    7  O   UNL     1     -11.231  15.621  64.683  1.00  0.00    -0.435 OA 
HETATM    8  H1  UNL     1     -10.102  14.394  66.576  1.00  0.00     0.000 HD 
HETATM    9  O   UNL     1     -12.650  14.176  63.693  1.00  0.00    -0.831 OA 
ENDROOT
BRANCH   4  10
HETATM   10  C   UNL     1     -11.153  11.179  66.593  1.00  0.00    -0.255 A  
HETATM   11  C   UNL     1     -10.428  10.225  65.865  1.00  0.00    -0.167 A  
HETATM   12  C   UNL     1      -9.910   9.087  66.485  1.00  0.00    -0.338 A  
HETATM   13  C   UNL     1     -10.087   8.915  67.851  1.00  0.00    -0.206 A  
HETATM   14  C   UNL     1     -10.755   9.872  68.605  1.00  0.00    -0.256 A  
HETATM   15  O   UNL     1      -9.614   7.809  68.491  1.00  0.00    -0.147 OA 
HETATM   16  C   UNL     1     -11.289  11.001  67.979  1.00  0.00    -0.374 A  
HETATM   17  H   UNL     1      -9.736   7.692  69.426  1.00  0.00     0.000 HD 
ENDBRANCH   4  10
TORSDOF 1
ENDMDL
MODEL       49
REMARK 921   NORMALIZED FREE ENERGY PREDICTED BY IDOCK:   -4.47 KCAL/MOL
REMARK 922        TOTAL FREE ENERGY PREDICTED BY IDOCK:   -4.80 KCAL/MOL
REMARK 923 INTER-LIGAND FREE ENERGY PREDICTED BY IDOCK:   -4.68 KCAL/MOL
REMARK 924 INTRA-LIGAND FREE ENERGY PREDICTED BY IDOCK:   -0.11 KCAL/MOL
REMARK 927      BINDING AFFINITY PREDICTED BY RF-SCORE:    0.00 PKD
ROOT
HETATM    1  C   UNL     1      -9.187  11.425  68.285  1.00  0.00    -0.183 C  
HETATM    2  C   UNL     1      -9.986  11.893  67.062  1.00  0.00    -0.202 C  
HETATM    3  C   UNL     1     -10.013  10.717  66.052  1.00  0.00    -0.239 C  
HETATM    4  C   UNL     1     -11.468  12.214  67.411  1.00  0.00    -0.415 C  
HETATM    5  N   UNL     1      -9.285  13.056  66.474  1.00  0.00    -0.379 NA 
HETATM    6  H2  UNL     1      -8.308  12.859  66.255  1.00  0.00     0.000 HD 
HETATM    7  O   UNL     1      -9.397  11.005  64.877  1.00  0.00    -0.211 OA 
HETATM    8  H1  UNL     1      -9.816  13.367  65.661  1.00  0.00     0.000 HD 
HETATM    9  O   UNL     1     -10.524   9.626  66.260  1.00  0.00    -0.191 OA 
ENDROOT
BRANCH   4  10
HETATM   10  C   UNL     1     -11.716  13.285  68.457  1.00  0.00    -0.388 A  
HETATM   11  C   UNL     1     -11.669  14.647  68.129  1.00  0.00    -0.360 A  
HETATM   12  C   UNL     1     -11.866  15.630  69.100  1.00  0.00    -0.378 A  
HETATM   13  C   UNL     1     -12.143  15.250  70.407  1.00  0.00    -0.348 A  
HETATM   14  C   UNL     1     -12.248  13.908  70.747  1.00  0.00    -0.441 A  
HETATM   15  O   UNL     1     -12.322  16.177  71.389  1.00  0.00    -0.581 OA 
HETATM   16  C   UNL     1     -12.032  12.926  69.777  1.00  0.00    -0.365 A  
HETATM   17  H   UNL     1     -12.512  15.917  72.283  1.00  0.00     0.000 HD 
ENDBRANCH   4  10
TORSDOF 1
ENDMDL
MODEL       50
REMARK 921   NORMALIZED FREE ENERGY PREDICTED BY IDOCK:   -4.46 KCAL/MOL
REMARK 922        TOTAL FREE ENERGY PREDICTED BY IDOCK:   -4.79 KCAL/MOL
REMARK 923 INTER-LIGAND FREE ENERGY PREDICTED BY IDOCK:   -4.81 KCAL/MOL
REMARK 924 INTRA-LIGAND FREE ENERGY PREDICTED BY IDOCK:    0.02 KCAL/MOL
REMARK 927      BINDING AFFINITY PREDICTED BY RF-SCORE:    0.00 PKD
ROOT
HETATM    1  C   UNL     1      -8.148  17.044  67.548  1.00  0.00    -0.189 C  
HETATM    2  C   UNL     1      -9.449  17.769  67.182  1.00  0.00    -0.265 C  
HETATM    3  C   UNL     1      -9.063  19.178  66.661  1.00  0.00    -0.335 C  
HETATM    4  C   UNL     1     -10.215  17.062  66.026  1.00  0.00    -0.337 C  
HETATM    5  N   UNL     1     -10.270  17.885  68.408  1.00  0.00    -0.378 NA 
HETATM    6  H2  UNL     1      -9.771  18.335  69.176  1.00  0.00     0.000 HD 
HETATM    7  O   UNL     1      -9.548  20.185  67.430  1.00  0.00    -0.368 OA 
HETATM    8  H1  UNL     1     -11.136  18.367  68.165  1.00  0.00     0.000 HD 
HETATM    9  O   UNL     1      -8.388  19.395  65.666  1.00  0.00    -0.373 OA 
ENDROOT
BRANCH   4  10
HETATM   10  C   UNL     1     -10.635  15.622  66.254  1.00  0.00    -0.310 A  
HETATM   11  C   UNL     1     -10.135  14.584  65.454  1.00  0.00    -0.394 A  
HETATM   12  C   UNL     1     -10.548  13.264  65.645  1.00  0.00    -0.291 A  
HETATM   13  C   UNL     1     -11.444  12.972  66.665  1.00  0.00    -0.336 A  
HETATM   14  C   UNL     1     -11.912  13.974  67.505  1.00  0.00    -0.430 A  
HETATM   15  O   UNL     1     -11.887  11.701  66.873  1.00  0.00    -0.577 OA 
HETATM   16  C   UNL     1     -11.512  15.297  67.300  1.00  0.00    -0.227 A  
HETATM   17  H   UNL     1     -12.500  11.501  67.571  1.00  0.00     0.000 HD 
ENDBRANCH   4  10
TORSDOF 1
ENDMDL
MODEL       51
REMARK 921   NORMALIZED FREE ENERGY PREDICTED BY IDOCK:   -4.45 KCAL/MOL
REMARK 922        TOTAL FREE ENERGY PREDICTED BY IDOCK:   -4.78 KCAL/MOL
REMARK 923 INTER-LIGAND FREE ENERGY PREDICTED BY IDOCK:   -4.72 KCAL/MOL
REMARK 924 INTRA-LIGAND FREE ENERGY PREDICTED BY IDOCK:   -0.06 KCAL/MOL
REMARK 927      BINDING AFFINITY PREDICTED BY RF-SCORE:    0.00 PKD
ROOT
HETATM    1  C   UNL     1      -9.856  13.478  66.170  1.00  0.00    -0.292 C  
HETATM    2  C   UNL     1     -11.294  13.011  65.911  1.00  0.00    -0.313 C  
HETATM    3  C   UNL     1     -11.594  13.251  64.409  1.00  0.00    -0.382 C  
HETATM    4  C   UNL     1     -11.474  11.486  66.163  1.00  0.00    -0.105 C  
HETATM    5  N   UNL     1     -12.200  13.827  66.750  1.00  0.00    -0.420 NA 
HETATM    6  H2  UNL     1     -12.079  14.829  66.602  1.00  0.00     0.000 HD 
HETATM    7  O   UNL     1     -12.597  14.141  64.198  1.00  0.00    -0.684 OA 
HETATM    8  H1  UNL     1     -13.156  13.516  66.578  1.00  0.00     0.000 HD 
HETATM    9  O   UNL     1     -11.005  12.714  63.482  1.00  0.00    -0.441 OA 
ENDROOT
BRANCH   4  10
HETATM   10  C   UNL     1     -11.153  10.971  67.554  1.00  0.00    -0.366 A  
HETATM   11  C   UNL     1      -9.977  10.252  67.809  1.00  0.00    -0.203 A  
HETATM   12  C   UNL     1      -9.701   9.752  69.083  1.00  0.00    -0.188 A  
HETATM   13  C   UNL     1     -10.591  10.000  70.120  1.00  0.00    -0.296 A  
HETATM   14  C   UNL     1     -11.736  10.755  69.905  1.00  0.00    -0.412 A  
HETATM   15  O   UNL     1     -10.369   9.514  71.373  1.00  0.00    -0.302 OA 
HETATM   16  C   UNL     1     -12.020  11.239  68.625  1.00  0.00    -0.314 A  
HETATM   17  H   UNL     1     -10.978   9.684  72.082  1.00  0.00     0.000 HD 
ENDBRANCH   4  10
TORSDOF 1
ENDMDL
MODEL       52
REMARK 921   NORMALIZED FREE ENERGY PREDICTED BY IDOCK:   -4.45 KCAL/MOL
REMARK 922        TOTAL FREE ENERGY PREDICTED BY IDOCK:   -4.78 KCAL/MOL
REMARK 923 INTER-LIGAND FREE ENERGY PREDICTED BY IDOCK:   -4.72 KCAL/MOL
REMARK 924 INTRA-LIGAND FREE ENERGY PREDICTED BY IDOCK:   -0.06 KCAL/MOL
REMARK 927      BINDING AFFINITY PREDICTED BY RF-SCORE:    0.00 PKD
ROOT
HETATM    1  C   UNL     1     -11.200   6.369  71.189  1.00  0.00    -0.357 C  
HETATM    2  C   UNL     1     -10.728   7.357  72.264  1.00  0.00    -0.235 C  
HETATM    3  C   UNL     1      -9.871   6.558  73.280  1.00  0.00    -0.174 C  
HETATM    4  C   UNL     1      -9.808   8.469  71.683  1.00  0.00    -0.317 C  
HETATM    5  N   UNL     1     -11.926   7.914  72.932  1.00  0.00    -0.619 NA 
HETATM    6  H2  UNL     1     -12.542   7.191  73.304  1.00  0.00     0.000 HD 
HETATM    7  O   UNL     1     -10.398   6.542  74.530  1.00  0.00    -0.341 OA 
HETATM    8  H1  UNL     1     -11.612   8.570  73.647  1.00  0.00     0.000 HD 
HETATM    9  O   UNL     1      -8.824   5.985  73.015  1.00  0.00    -0.123 OA 
ENDROOT
BRANCH   4  10
HETATM   10  C   UNL     1     -10.390   9.347  70.590  1.00  0.00    -0.349 A  
HETATM   11  C   UNL     1     -11.421  10.258  70.862  1.00  0.00    -0.425 A  
HETATM   12  C   UNL     1     -11.976  11.041  69.848  1.00  0.00    -0.427 A  
HETATM   13  C   UNL     1     -11.476  10.938  68.557  1.00  0.00    -0.310 A  
HETATM   14  C   UNL     1     -10.419  10.083  68.273  1.00  0.00    -0.246 A  
HETATM   15  O   UNL     1     -12.002  11.670  67.536  1.00  0.00    -0.622 OA 
HETATM   16  C   UNL     1      -9.878   9.287  69.285  1.00  0.00    -0.172 A  
HETATM   17  H   UNL     1     -11.660  11.600  66.652  1.00  0.00     0.000 HD 
ENDBRANCH   4  10
TORSDOF 1
ENDMDL
MODEL       53
REMARK 921   NORMALIZED FREE ENERGY PREDICTED BY IDOCK:   -4.43 KCAL/MOL
REMARK 922        TOTAL FREE ENERGY PREDICTED BY IDOCK:   -4.76 KCAL/MOL
REMARK 923 INTER-LIGAND FREE ENERGY PREDICTED BY IDOCK:   -4.76 KCAL/MOL
REMARK 924 INTRA-LIGAND FREE ENERGY PREDICTED BY IDOCK:    0.00 KCAL/MOL
REMARK 927      BINDING AFFINITY PREDICTED BY RF-SCORE:    0.00 PKD
ROOT
HETATM    1  C   UNL     1     -10.070  13.723  64.780  1.00  0.00    -0.259 C  
HETATM    2  C   UNL     1     -11.339  12.866  64.871  1.00  0.00    -0.307 C  
HETATM    3  C   UNL     1     -12.524  13.744  64.391  1.00  0.00    -0.270 C  
HETATM    4  C   UNL     1     -11.287  11.631  63.926  1.00  0.00    -0.457 C  
HETATM    5  N   UNL     1     -11.531  12.479  66.287  1.00  0.00    -0.348 NA 
HETATM    6  H2  UNL     1     -11.552  13.282  66.916  1.00  0.00     0.000 HD 
HETATM    7  O   UNL     1     -13.453  13.963  65.354  1.00  0.00    -0.672 OA 
HETATM    8  H1  UNL     1     -12.374  11.909  66.347  1.00  0.00     0.000 HD 
HETATM    9  O   UNL     1     -12.638  14.211  63.267  1.00  0.00    -0.766 OA 
ENDROOT
BRANCH   4  10
HETATM   10  C   UNL     1     -10.151  10.648  64.134  1.00  0.00    -0.402 A  
HETATM   11  C   UNL     1     -10.000   9.955  65.344  1.00  0.00    -0.349 A  
HETATM   12  C   UNL     1      -8.934   9.076  65.543  1.00  0.00    -0.252 A  
HETATM   13  C   UNL     1      -8.028   8.860  64.513  1.00  0.00    -0.135 A  
HETATM   14  C   UNL     1      -8.185   9.492  63.286  1.00  0.00    -0.162 A  
HETATM   15  O   UNL     1      -6.964   8.025  64.672  1.00  0.00    -0.068 OA 
HETATM   16  C   UNL     1      -9.242  10.387  63.096  1.00  0.00    -0.314 A  
HETATM   17  H   UNL     1      -6.344   7.877  63.967  1.00  0.00     0.000 HD 
ENDBRANCH   4  10
TORSDOF 1
ENDMDL
MODEL       54
REMARK 921   NORMALIZED FREE ENERGY PREDICTED BY IDOCK:   -4.39 KCAL/MOL
REMARK 922        TOTAL FREE ENERGY PREDICTED BY IDOCK:   -4.72 KCAL/MOL
REMARK 923 INTER-LIGAND FREE ENERGY PREDICTED BY IDOCK:   -4.68 KCAL/MOL
REMARK 924 INTRA-LIGAND FREE ENERGY PREDICTED BY IDOCK:   -0.03 KCAL/MOL
REMARK 927      BINDING AFFINITY PREDICTED BY RF-SCORE:    0.00 PKD
ROOT
HETATM    1  C   UNL     1      -8.590   7.501  70.354  1.00  0.00    -0.143 C  
HETATM    2  C   UNL     1      -8.756   8.856  69.654  1.00  0.00    -0.140 C  
HETATM    3  C   UNL     1      -7.895   8.819  68.365  1.00  0.00    -0.104 C  
HETATM    4  C   UNL     1     -10.223   9.111  69.202  1.00  0.00    -0.215 C  
HETATM    5  N   UNL     1      -8.262   9.909  70.569  1.00  0.00    -0.399 NA 
HETATM    6  H2  UNL     1      -7.306   9.742  70.882  1.00  0.00     0.000 HD 
HETATM    7  O   UNL     1      -6.896   9.737  68.362  1.00  0.00    -0.060 OA 
HETATM    8  H1  UNL     1      -8.373  10.809  70.104  1.00  0.00     0.000 HD 
HETATM    9  O   UNL     1      -8.067   8.051  67.430  1.00  0.00    -0.119 OA 
ENDROOT
BRANCH   4  10
HETATM   10  C   UNL     1     -11.290   9.108  70.280  1.00  0.00    -0.217 A  
HETATM   11  C   UNL     1     -11.830  10.305  70.773  1.00  0.00    -0.459 A  
HETATM   12  C   UNL     1     -12.788  10.299  71.788  1.00  0.00    -0.565 A  
HETATM   13  C   UNL     1     -13.236   9.086  72.294  1.00  0.00    -0.460 A  
HETATM   14  C   UNL     1     -12.757   7.886  71.787  1.00  0.00    -0.353 A  
HETATM   15  O   UNL     1     -14.156   9.037  73.299  1.00  0.00    -1.218 OA 
HETATM   16  C   UNL     1     -11.785   7.894  70.783  1.00  0.00    -0.230 A  
HETATM   17  H   UNL     1     -14.463   8.207  73.645  1.00  0.00     0.000 HD 
ENDBRANCH   4  10
TORSDOF 1
ENDMDL
MODEL       55
REMARK 921   NORMALIZED FREE ENERGY PREDICTED BY IDOCK:   -4.39 KCAL/MOL
REMARK 922        TOTAL FREE ENERGY PREDICTED BY IDOCK:   -4.71 KCAL/MOL
REMARK 923 INTER-LIGAND FREE ENERGY PREDICTED BY IDOCK:   -4.59 KCAL/MOL
REMARK 924 INTRA-LIGAND FREE ENERGY PREDICTED BY IDOCK:   -0.12 KCAL/MOL
REMARK 927      BINDING AFFINITY PREDICTED BY RF-SCORE:    0.00 PKD
ROOT
HETATM    1  C   UNL     1     -10.024  13.384  66.635  1.00  0.00    -0.277 C  
HETATM    2  C   UNL     1     -11.515  13.030  66.671  1.00  0.00    -0.336 C  
HETATM    3  C   UNL     1     -12.101  13.355  65.272  1.00  0.00    -0.413 C  
HETATM    4  C   UNL     1     -11.757  11.512  66.912  1.00  0.00    -0.038 C  
HETATM    5  N   UNL     1     -12.162  13.870  67.703  1.00  0.00    -0.485 NA 
HETATM    6  H2  UNL     1     -11.998  14.867  67.560  1.00  0.00     0.000 HD 
HETATM    7  O   UNL     1     -13.053  14.321  65.301  1.00  0.00    -0.707 OA 
HETATM    8  H1  UNL     1     -13.154  13.635  67.727  1.00  0.00     0.000 HD 
HETATM    9  O   UNL     1     -11.759  12.818  64.228  1.00  0.00    -0.335 OA 
ENDROOT
BRANCH   4  10
HETATM   10  C   UNL     1     -11.195  10.917  68.190  1.00  0.00    -0.363 A  
HETATM   11  C   UNL     1     -11.887  11.020  69.406  1.00  0.00    -0.407 A  
HETATM   12  C   UNL     1     -11.352  10.500  70.586  1.00  0.00    -0.363 A  
HETATM   13  C   UNL     1     -10.130   9.842  70.547  1.00  0.00    -0.224 A  
HETATM   14  C   UNL     1      -9.451   9.679  69.347  1.00  0.00    -0.201 A  
HETATM   15  O   UNL     1      -9.564   9.337  71.679  1.00  0.00    -0.277 OA 
HETATM   16  C   UNL     1      -9.979  10.217  68.171  1.00  0.00    -0.170 A  
HETATM   17  H   UNL     1      -8.728   8.887  71.652  1.00  0.00     0.000 HD 
ENDBRANCH   4  10
TORSDOF 1
ENDMDL
MODEL       56
REMARK 921   NORMALIZED FREE ENERGY PREDICTED BY IDOCK:   -4.28 KCAL/MOL
REMARK 922        TOTAL FREE ENERGY PREDICTED BY IDOCK:   -4.60 KCAL/MOL
REMARK 923 INTER-LIGAND FREE ENERGY PREDICTED BY IDOCK:   -4.51 KCAL/MOL
REMARK 924 INTRA-LIGAND FREE ENERGY PREDICTED BY IDOCK:   -0.08 KCAL/MOL
REMARK 927      BINDING AFFINITY PREDICTED BY RF-SCORE:    0.00 PKD
ROOT
HETATM    1  C   UNL     1      -8.368  11.199  67.196  1.00  0.00    -0.136 C  
HETATM    2  C   UNL     1      -8.621  10.208  66.053  1.00  0.00    -0.141 C  
HETATM    3  C   UNL     1      -8.207   8.802  66.561  1.00  0.00    -0.111 C  
HETATM    4  C   UNL     1     -10.127  10.118  65.671  1.00  0.00    -0.324 C  
HETATM    5  N   UNL     1      -7.775  10.606  64.905  1.00  0.00    -0.346 NA 
HETATM    6  H2  UNL     1      -6.788  10.681  65.150  1.00  0.00     0.000 HD 
HETATM    7  O   UNL     1      -7.180   8.260  65.860  1.00  0.00    -0.070 OA 
HETATM    8  H1  UNL     1      -7.943   9.947  64.146  1.00  0.00     0.000 HD 
HETATM    9  O   UNL     1      -8.728   8.215  67.498  1.00  0.00    -0.128 OA 
ENDROOT
BRANCH   4  10
HETATM   10  C   UNL     1     -10.804  11.398  65.218  1.00  0.00    -0.297 A  
HETATM   11  C   UNL     1     -11.474  12.227  66.129  1.00  0.00    -0.429 A  
HETATM   12  C   UNL     1     -12.124  13.387  65.704  1.00  0.00    -0.476 A  
HETATM   13  C   UNL     1     -12.076  13.742  64.363  1.00  0.00    -0.436 A  
HETATM   14  C   UNL     1     -11.373  12.966  63.449  1.00  0.00    -0.314 A  
HETATM   15  O   UNL     1     -12.712  14.855  63.903  1.00  0.00    -0.851 OA 
HETATM   16  C   UNL     1     -10.740  11.795  63.874  1.00  0.00    -0.457 A  
HETATM   17  H   UNL     1     -12.680  15.098  62.985  1.00  0.00     0.000 HD 
ENDBRANCH   4  10
TORSDOF 1
ENDMDL
MODEL       57
REMARK 921   NORMALIZED FREE ENERGY PREDICTED BY IDOCK:   -4.25 KCAL/MOL
REMARK 922        TOTAL FREE ENERGY PREDICTED BY IDOCK:   -4.57 KCAL/MOL
REMARK 923 INTER-LIGAND FREE ENERGY PREDICTED BY IDOCK:   -4.88 KCAL/MOL
REMARK 924 INTRA-LIGAND FREE ENERGY PREDICTED BY IDOCK:    0.31 KCAL/MOL
REMARK 927      BINDING AFFINITY PREDICTED BY RF-SCORE:    0.00 PKD
ROOT
HETATM    1  C   UNL     1     -10.596  19.105  65.927  1.00  0.00    -0.495 C  
HETATM    2  C   UNL     1      -9.449  18.501  66.746  1.00  0.00    -0.301 C  
HETATM    3  C   UNL     1      -9.208  19.434  67.962  1.00  0.00    -0.327 C  
HETATM    4  C   UNL     1      -9.808  17.102  67.324  1.00  0.00    -0.265 C  
HETATM    5  N   UNL     1      -8.244  18.459  65.887  1.00  0.00    -0.502 NA 
HETATM    6  H2  UNL     1      -8.009  19.370  65.493  1.00  0.00     0.000 HD 
HETATM    7  O   UNL     1      -7.974  19.998  67.968  1.00  0.00    -0.297 OA 
HETATM    8  H1  UNL     1      -7.481  18.058  66.432  1.00  0.00     0.000 HD 
HETATM    9  O   UNL     1     -10.026  19.664  68.840  1.00  0.00    -0.447 OA 
ENDROOT
BRANCH   4  10
HETATM   10  C   UNL     1     -10.175  16.016  66.329  1.00  0.00    -0.329 A  
HETATM   11  C   UNL     1      -9.606  14.737  66.405  1.00  0.00    -0.324 A  
HETATM   12  C   UNL     1      -9.922  13.751  65.468  1.00  0.00    -0.260 A  
HETATM   13  C   UNL     1     -10.840  14.034  64.466  1.00  0.00    -0.347 A  
HETATM   14  C   UNL     1     -11.458  15.275  64.400  1.00  0.00    -0.244 A  
HETATM   15  O   UNL     1     -11.161  13.106  63.521  1.00  0.00    -0.588 OA 
HETATM   16  C   UNL     1     -11.126  16.267  65.327  1.00  0.00    -0.156 A  
HETATM   17  H   UNL     1     -11.789  13.300  62.834  1.00  0.00     0.000 HD 
ENDBRANCH   4  10
TORSDOF 1
ENDMDL
MODEL       58
REMARK 921   NORMALIZED FREE ENERGY PREDICTED BY IDOCK:   -4.20 KCAL/MOL
REMARK 922        TOTAL FREE ENERGY PREDICTED BY IDOCK:   -4.52 KCAL/MOL
REMARK 923 INTER-LIGAND FREE ENERGY PREDICTED BY IDOCK:   -4.75 KCAL/MOL
REMARK 924 INTRA-LIGAND FREE ENERGY PREDICTED BY IDOCK:    0.23 KCAL/MOL
REMARK 927      BINDING AFFINITY PREDICTED BY RF-SCORE:    0.00 PKD
ROOT
HETATM    1  C   UNL     1     -11.644   8.411  72.154  1.00  0.00    -0.442 C  
HETATM    2  C   UNL     1     -10.803   8.755  70.918  1.00  0.00    -0.238 C  
HETATM    3  C   UNL     1     -10.520   7.426  70.170  1.00  0.00    -0.220 C  
HETATM    4  C   UNL     1     -11.566   9.673  69.921  1.00  0.00    -0.077 C  
HETATM    5  N   UNL     1      -9.535   9.361  71.380  1.00  0.00    -0.294 NA 
HETATM    6  H2  UNL     1      -9.035   8.771  72.045  1.00  0.00     0.000 HD 
HETATM    7  O   UNL     1      -9.200   7.117  70.108  1.00  0.00    -0.155 OA 
HETATM    8  H1  UNL     1      -8.976   9.589  70.558  1.00  0.00     0.000 HD 
HETATM    9  O   UNL     1     -11.374   6.704  69.677  1.00  0.00    -0.335 OA 
ENDROOT
BRANCH   4  10
HETATM   10  C   UNL     1     -12.039  11.018  70.442  1.00  0.00    -0.463 A  
HETATM   11  C   UNL     1     -11.677  12.213  69.804  1.00  0.00    -0.381 A  
HETATM   12  C   UNL     1     -12.087  13.450  70.305  1.00  0.00    -0.419 A  
HETATM   13  C   UNL     1     -12.893  13.493  71.434  1.00  0.00    -0.355 A  
HETATM   14  C   UNL     1     -13.310  12.322  72.053  1.00  0.00    -0.491 A  
HETATM   15  O   UNL     1     -13.300  14.680  71.967  1.00  0.00    -0.319 OA 
HETATM   16  C   UNL     1     -12.883  11.086  71.561  1.00  0.00    -0.555 A  
HETATM   17  H   UNL     1     -13.851  14.709  72.740  1.00  0.00     0.000 HD 
ENDBRANCH   4  10
TORSDOF 1
ENDMDL
MODEL       59
REMARK 921   NORMALIZED FREE ENERGY PREDICTED BY IDOCK:   -4.17 KCAL/MOL
REMARK 922        TOTAL FREE ENERGY PREDICTED BY IDOCK:   -4.48 KCAL/MOL
REMARK 923 INTER-LIGAND FREE ENERGY PREDICTED BY IDOCK:   -4.50 KCAL/MOL
REMARK 924 INTRA-LIGAND FREE ENERGY PREDICTED BY IDOCK:    0.01 KCAL/MOL
REMARK 927      BINDING AFFINITY PREDICTED BY RF-SCORE:    0.00 PKD
ROOT
HETATM    1  C   UNL     1     -11.809  12.370  70.376  1.00  0.00    -0.249 C  
HETATM    2  C   UNL     1     -11.456  10.985  69.820  1.00  0.00    -0.311 C  
HETATM    3  C   UNL     1     -12.157   9.934  70.720  1.00  0.00    -0.308 C  
HETATM    4  C   UNL     1     -12.001  10.770  68.379  1.00  0.00     0.002 C  
HETATM    5  N   UNL     1      -9.987  10.822  69.893  1.00  0.00    -0.377 NA 
HETATM    6  H2  UNL     1      -9.619  10.975  70.832  1.00  0.00     0.000 HD 
HETATM    7  O   UNL     1     -11.287   9.117  71.366  1.00  0.00    -0.288 OA 
HETATM    8  H1  UNL     1      -9.752   9.901  69.523  1.00  0.00     0.000 HD 
HETATM    9  O   UNL     1     -13.366   9.827  70.860  1.00  0.00    -0.318 OA 
ENDROOT
BRANCH   4  10
HETATM   10  C   UNL     1     -11.530  11.739  67.309  1.00  0.00    -0.373 A  
HETATM   11  C   UNL     1     -12.011  13.055  67.258  1.00  0.00    -0.379 A  
HETATM   12  C   UNL     1     -11.600  13.933  66.254  1.00  0.00    -0.378 A  
HETATM   13  C   UNL     1     -10.675  13.504  65.311  1.00  0.00    -0.323 A  
HETATM   14  C   UNL     1     -10.144  12.223  65.371  1.00  0.00    -0.292 A  
HETATM   15  O   UNL     1     -10.263  14.324  64.303  1.00  0.00    -0.587 OA 
HETATM   16  C   UNL     1     -10.570  11.340  66.366  1.00  0.00    -0.316 A  
HETATM   17  H   UNL     1      -9.631  14.030  63.657  1.00  0.00     0.000 HD 
ENDBRANCH   4  10
TORSDOF 1
ENDMDL
MODEL       60
REMARK 921   NORMALIZED FREE ENERGY PREDICTED BY IDOCK:   -4.14 KCAL/MOL
REMARK 922        TOTAL FREE ENERGY PREDICTED BY IDOCK:   -4.45 KCAL/MOL
REMARK 923 INTER-LIGAND FREE ENERGY PREDICTED BY IDOCK:   -4.41 KCAL/MOL
REMARK 924 INTRA-LIGAND FREE ENERGY PREDICTED BY IDOCK:   -0.04 KCAL/MOL
REMARK 927      BINDING AFFINITY PREDICTED BY RF-SCORE:    0.00 PKD
ROOT
HETATM    1  C   UNL     1     -10.411  11.028  64.435  1.00  0.00    -0.422 C  
HETATM    2  C   UNL     1     -10.758  12.101  65.475  1.00  0.00    -0.283 C  
HETATM    3  C   UNL     1     -11.848  13.012  64.852  1.00  0.00    -0.361 C  
HETATM    4  C   UNL     1     -11.372  11.494  66.769  1.00  0.00    -0.309 C  
HETATM    5  N   UNL     1      -9.533  12.885  65.751  1.00  0.00    -0.466 NA 
HETATM    6  H2  UNL     1      -9.116  13.276  64.906  1.00  0.00     0.000 HD 
HETATM    7  O   UNL     1     -11.446  14.299  64.696  1.00  0.00    -0.368 OA 
HETATM    8  H1  UNL     1      -9.764  13.599  66.442  1.00  0.00     0.000 HD 
HETATM    9  O   UNL     1     -12.964  12.642  64.520  1.00  0.00    -0.744 OA 
ENDROOT
BRANCH   4  10
HETATM   10  C   UNL     1     -10.527  10.489  67.530  1.00  0.00    -0.284 A  
HETATM   11  C   UNL     1     -10.443   9.151  67.119  1.00  0.00    -0.325 A  
HETATM   12  C   UNL     1      -9.692   8.222  67.840  1.00  0.00    -0.192 A  
HETATM   13  C   UNL     1      -8.990   8.638  68.964  1.00  0.00    -0.142 A  
HETATM   14  C   UNL     1      -9.013   9.969  69.361  1.00  0.00    -0.205 A  
HETATM   15  O   UNL     1      -8.260   7.759  69.706  1.00  0.00    -0.125 OA 
HETATM   16  C   UNL     1      -9.782  10.893  68.648  1.00  0.00    -0.188 A  
HETATM   17  H   UNL     1      -7.780   8.045  70.475  1.00  0.00     0.000 HD 
ENDBRANCH   4  10
TORSDOF 1
ENDMDL
MODEL       61
REMARK 921   NORMALIZED FREE ENERGY PREDICTED BY IDOCK:   -4.10 KCAL/MOL
REMARK 922        TOTAL FREE ENERGY PREDICTED BY IDOCK:   -4.41 KCAL/MOL
REMARK 923 INTER-LIGAND FREE ENERGY PREDICTED BY IDOCK:   -4.35 KCAL/MOL
REMARK 924 INTRA-LIGAND FREE ENERGY PREDICTED BY IDOCK:   -0.06 KCAL/MOL
REMARK 927      BINDING AFFINITY PREDICTED BY RF-SCORE:    0.00 PKD
ROOT
HETATM    1  C   UNL     1      -9.457  13.625  67.935  1.00  0.00    -0.213 C  
HETATM    2  C   UNL     1     -10.812  13.013  68.315  1.00  0.00    -0.246 C  
HETATM    3  C   UNL     1     -11.728  14.175  68.780  1.00  0.00    -0.345 C  
HETATM    4  C   UNL     1     -11.521  12.346  67.101  1.00  0.00    -0.423 C  
HETATM    5  N   UNL     1     -10.590  12.061  69.426  1.00  0.00    -0.439 NA 
HETATM    6  H2  UNL     1     -10.113  12.487  70.221  1.00  0.00     0.000 HD 
HETATM    7  O   UNL     1     -12.113  14.067  70.076  1.00  0.00    -0.307 OA 
HETATM    8  H1  UNL     1     -11.491  11.655  69.678  1.00  0.00     0.000 HD 
HETATM    9  O   UNL     1     -12.084  15.110  68.078  1.00  0.00    -0.192 OA 
ENDROOT
BRANCH   4  10
HETATM   10  C   UNL     1     -10.781  11.221  66.400  1.00  0.00    -0.320 A  
HETATM   11  C   UNL     1     -10.579   9.983  67.026  1.00  0.00    -0.279 A  
HETATM   12  C   UNL     1      -9.870   8.962  66.391  1.00  0.00    -0.353 A  
HETATM   13  C   UNL     1      -9.385   9.167  65.106  1.00  0.00    -0.110 A  
HETATM   14  C   UNL     1      -9.617  10.365  64.444  1.00  0.00    -0.375 A  
HETATM   15  O   UNL     1      -8.671   8.204  64.459  1.00  0.00    -0.400 OA 
HETATM   16  C   UNL     1     -10.311  11.393  65.089  1.00  0.00    -0.344 A  
HETATM   17  H   UNL     1      -8.338   8.345  63.580  1.00  0.00     0.000 HD 
ENDBRANCH   4  10
TORSDOF 1
ENDMDL
MODEL       62
REMARK 921   NORMALIZED FREE ENERGY PREDICTED BY IDOCK:   -4.10 KCAL/MOL
REMARK 922        TOTAL FREE ENERGY PREDICTED BY IDOCK:   -4.41 KCAL/MOL
REMARK 923 INTER-LIGAND FREE ENERGY PREDICTED BY IDOCK:   -4.33 KCAL/MOL
REMARK 924 INTRA-LIGAND FREE ENERGY PREDICTED BY IDOCK:   -0.08 KCAL/MOL
REMARK 927      BINDING AFFINITY PREDICTED BY RF-SCORE:    0.00 PKD
ROOT
HETATM    1  C   UNL     1     -12.160  14.460  68.196  1.00  0.00    -0.258 C  
HETATM    2  C   UNL     1     -11.076  13.479  67.732  1.00  0.00    -0.268 C  
HETATM    3  C   UNL     1     -11.778  12.377  66.897  1.00  0.00    -0.362 C  
HETATM    4  C   UNL     1     -10.032  14.150  66.794  1.00  0.00    -0.267 C  
HETATM    5  N   UNL     1     -10.448  12.886  68.934  1.00  0.00    -0.419 NA 
HETATM    6  H2  UNL     1     -11.127  12.455  69.562  1.00  0.00     0.000 HD 
HETATM    7  O   UNL     1     -11.669  11.139  67.442  1.00  0.00    -0.564 OA 
HETATM    8  H1  UNL     1      -9.728  12.233  68.626  1.00  0.00     0.000 HD 
HETATM    9  O   UNL     1     -12.382  12.569  65.851  1.00  0.00    -0.626 OA 
ENDROOT
BRANCH   4  10
HETATM   10  C   UNL     1      -9.259  15.331  67.353  1.00  0.00    -0.201 A  
HETATM   11  C   UNL     1      -9.608  16.649  67.024  1.00  0.00    -0.250 A  
HETATM   12  C   UNL     1      -8.875  17.732  67.513  1.00  0.00    -0.243 A  
HETATM   13  C   UNL     1      -7.803  17.499  68.365  1.00  0.00    -0.263 A  
HETATM   14  C   UNL     1      -7.471  16.206  68.749  1.00  0.00    -0.189 A  
HETATM   15  O   UNL     1      -7.050  18.526  68.849  1.00  0.00    -0.279 OA 
HETATM   16  C   UNL     1      -8.194  15.123  68.243  1.00  0.00    -0.144 A  
HETATM   17  H   UNL     1      -6.317  18.366  69.432  1.00  0.00     0.000 HD 
ENDBRANCH   4  10
TORSDOF 1
ENDMDL
MODEL       63
REMARK 921   NORMALIZED FREE ENERGY PREDICTED BY IDOCK:   -4.10 KCAL/MOL
REMARK 922        TOTAL FREE ENERGY PREDICTED BY IDOCK:   -4.41 KCAL/MOL
REMARK 923 INTER-LIGAND FREE ENERGY PREDICTED BY IDOCK:   -4.30 KCAL/MOL
REMARK 924 INTRA-LIGAND FREE ENERGY PREDICTED BY IDOCK:   -0.11 KCAL/MOL
REMARK 927      BINDING AFFINITY PREDICTED BY RF-SCORE:    0.00 PKD
ROOT
HETATM    1  C   UNL     1      -7.542  17.231  68.329  1.00  0.00    -0.227 C  
HETATM    2  C   UNL     1      -8.700  17.832  67.523  1.00  0.00    -0.239 C  
HETATM    3  C   UNL     1      -8.077  18.717  66.412  1.00  0.00    -0.280 C  
HETATM    4  C   UNL     1      -9.546  16.743  66.802  1.00  0.00    -0.261 C  
HETATM    5  N   UNL     1      -9.517  18.660  68.438  1.00  0.00    -0.328 NA 
HETATM    6  H2  UNL     1      -8.967  19.368  68.926  1.00  0.00     0.000 HD 
HETATM    7  O   UNL     1      -8.407  20.029  66.524  1.00  0.00    -0.316 OA 
HETATM    8  H1  UNL     1     -10.286  19.060  67.901  1.00  0.00     0.000 HD 
HETATM    9  O   UNL     1      -7.355  18.310  65.514  1.00  0.00    -0.539 OA 
ENDROOT
BRANCH   4  10
HETATM   10  C   UNL     1     -10.201  15.687  67.672  1.00  0.00    -0.261 A  
HETATM   11  C   UNL     1     -11.375  15.959  68.388  1.00  0.00    -0.361 A  
HETATM   12  C   UNL     1     -11.956  14.995  69.214  1.00  0.00    -0.322 A  
HETATM   13  C   UNL     1     -11.378  13.736  69.301  1.00  0.00    -0.273 A  
HETATM   14  C   UNL     1     -10.245  13.423  68.561  1.00  0.00    -0.224 A  
HETATM   15  O   UNL     1     -11.901  12.772  70.110  1.00  0.00    -0.452 OA 
HETATM   16  C   UNL     1      -9.654  14.396  67.750  1.00  0.00    -0.216 A  
HETATM   17  H   UNL     1     -11.505  11.911  70.169  1.00  0.00     0.000 HD 
ENDBRANCH   4  10
TORSDOF 1
ENDMDL
MODEL       64
REMARK 921   NORMALIZED FREE ENERGY PREDICTED BY IDOCK:   -4.10 KCAL/MOL
REMARK 922        TOTAL FREE ENERGY PREDICTED BY IDOCK:   -4.41 KCAL/MOL
REMARK 923 INTER-LIGAND FREE ENERGY PREDICTED BY IDOCK:   -4.37 KCAL/MOL
REMARK 924 INTRA-LIGAND FREE ENERGY PREDICTED BY IDOCK:   -0.04 KCAL/MOL
REMARK 927      BINDING AFFINITY PREDICTED BY RF-SCORE:    0.00 PKD
ROOT
HETATM    1  C   UNL     1     -12.387  14.325  66.515  1.00  0.00    -0.345 C  
HETATM    2  C   UNL     1     -11.540  14.017  65.274  1.00  0.00    -0.337 C  
HETATM    3  C   UNL     1     -12.246  14.673  64.059  1.00  0.00    -0.194 C  
HETATM    4  C   UNL     1     -10.120  14.647  65.357  1.00  0.00    -0.403 C  
HETATM    5  N   UNL     1     -11.491  12.548  65.105  1.00  0.00    -0.316 NA 
HETATM    6  H2  UNL     1     -12.418  12.124  65.063  1.00  0.00     0.000 HD 
HETATM    7  O   UNL     1     -12.659  13.775  63.130  1.00  0.00    -0.793 OA 
HETATM    8  H1  UNL     1     -10.927  12.344  64.279  1.00  0.00     0.000 HD 
HETATM    9  O   UNL     1     -12.433  15.873  63.922  1.00  0.00    -0.760 OA 
ENDROOT
BRANCH   4  10
HETATM   10  C   UNL     1      -9.245  14.231  66.525  1.00  0.00    -0.259 A  
HETATM   11  C   UNL     1      -8.947  15.124  67.565  1.00  0.00    -0.187 A  
HETATM   12  C   UNL     1      -8.116  14.748  68.621  1.00  0.00    -0.153 A  
HETATM   13  C   UNL     1      -7.603  13.458  68.658  1.00  0.00    -0.101 A  
HETATM   14  C   UNL     1      -7.925  12.539  67.669  1.00  0.00    -0.170 A  
HETATM   15  O   UNL     1      -6.772  13.057  69.661  1.00  0.00    -0.304 OA 
HETATM   16  C   UNL     1      -8.742  12.923  66.602  1.00  0.00    -0.046 A  
HETATM   17  H   UNL     1      -6.420  12.174  69.685  1.00  0.00     0.000 HD 
ENDBRANCH   4  10
TORSDOF 1
ENDMDL
MODEL       65
REMARK 921   NORMALIZED FREE ENERGY PREDICTED BY IDOCK:   -4.10 KCAL/MOL
REMARK 922        TOTAL FREE ENERGY PREDICTED BY IDOCK:   -4.41 KCAL/MOL
REMARK 923 INTER-LIGAND FREE ENERGY PREDICTED BY IDOCK:   -4.31 KCAL/MOL
REMARK 924 INTRA-LIGAND FREE ENERGY PREDICTED BY IDOCK:   -0.10 KCAL/MOL
REMARK 927      BINDING AFFINITY PREDICTED BY RF-SCORE:    0.00 PKD
ROOT
HETATM    1  C   UNL     1     -12.149  13.880  66.100  1.00  0.00    -0.478 C  
HETATM    2  C   UNL     1     -10.706  14.242  66.474  1.00  0.00    -0.297 C  
HETATM    3  C   UNL     1     -10.744  15.624  67.177  1.00  0.00    -0.314 C  
HETATM    4  C   UNL     1     -10.090  13.241  67.494  1.00  0.00    -0.223 C  
HETATM    5  N   UNL     1      -9.915  14.326  65.226  1.00  0.00    -0.550 NA 
HETATM    6  H2  UNL     1     -10.320  14.970  64.545  1.00  0.00     0.000 HD 
HETATM    7  O   UNL     1     -10.063  16.586  66.505  1.00  0.00    -0.274 OA 
HETATM    8  H1  UNL     1      -8.956  14.567  65.474  1.00  0.00     0.000 HD 
HETATM    9  O   UNL     1     -11.323  15.860  68.228  1.00  0.00    -0.350 OA 
ENDROOT
BRANCH   4  10
HETATM   10  C   UNL     1     -10.019  11.784  67.076  1.00  0.00    -0.224 A  
HETATM   11  C   UNL     1      -9.070  11.341  66.144  1.00  0.00    -0.216 A  
HETATM   12  C   UNL     1      -9.029  10.006  65.738  1.00  0.00    -0.187 A  
HETATM   13  C   UNL     1      -9.922   9.098  66.291  1.00  0.00    -0.282 A  
HETATM   14  C   UNL     1     -10.836   9.501  67.256  1.00  0.00    -0.188 A  
HETATM   15  O   UNL     1      -9.927   7.790  65.908  1.00  0.00    -0.396 OA 
HETATM   16  C   UNL     1     -10.888  10.841  67.647  1.00  0.00    -0.332 A  
HETATM   17  H   UNL     1     -10.539   7.169  66.287  1.00  0.00     0.000 HD 
ENDBRANCH   4  10
TORSDOF 1
ENDMDL
MODEL       66
REMARK 921   NORMALIZED FREE ENERGY PREDICTED BY IDOCK:   -4.09 KCAL/MOL
REMARK 922        TOTAL FREE ENERGY PREDICTED BY IDOCK:   -4.39 KCAL/MOL
REMARK 923 INTER-LIGAND FREE ENERGY PREDICTED BY IDOCK:   -4.78 KCAL/MOL
REMARK 924 INTRA-LIGAND FREE ENERGY PREDICTED BY IDOCK:    0.39 KCAL/MOL
REMARK 927      BINDING AFFINITY PREDICTED BY RF-SCORE:    0.00 PKD
ROOT
HETATM    1  C   UNL     1      -9.875  10.211  66.492  1.00  0.00    -0.268 C  
HETATM    2  C   UNL     1     -10.419  10.774  67.810  1.00  0.00    -0.208 C  
HETATM    3  C   UNL     1      -9.923   9.846  68.949  1.00  0.00    -0.181 C  
HETATM    4  C   UNL     1      -9.864  12.194  68.120  1.00  0.00    -0.207 C  
HETATM    5  N   UNL     1     -11.898  10.755  67.743  1.00  0.00    -0.683 NA 
HETATM    6  H2  UNL     1     -12.270   9.830  67.526  1.00  0.00     0.000 HD 
HETATM    7  O   UNL     1     -10.931   9.229  69.615  1.00  0.00    -0.234 OA 
HETATM    8  H1  UNL     1     -12.259  11.129  68.620  1.00  0.00     0.000 HD 
HETATM    9  O   UNL     1      -8.750   9.661  69.241  1.00  0.00    -0.138 OA 
ENDROOT
BRANCH   4  10
HETATM   10  C   UNL     1     -10.141  13.283  67.100  1.00  0.00    -0.239 A  
HETATM   11  C   UNL     1     -10.090  13.020  65.724  1.00  0.00    -0.294 A  
HETATM   12  C   UNL     1     -10.313  14.032  64.788  1.00  0.00    -0.407 A  
HETATM   13  C   UNL     1     -10.622  15.311  65.229  1.00  0.00    -0.417 A  
HETATM   14  C   UNL     1     -10.731  15.586  66.586  1.00  0.00    -0.306 A  
HETATM   15  O   UNL     1     -10.827  16.331  64.350  1.00  0.00    -0.947 OA 
HETATM   16  C   UNL     1     -10.489  14.576  67.521  1.00  0.00    -0.253 A  
HETATM   17  H   UNL     1     -11.038  17.207  64.652  1.00  0.00     0.000 HD 
ENDBRANCH   4  10
TORSDOF 1
ENDMDL
MODEL       67
REMARK 921   NORMALIZED FREE ENERGY PREDICTED BY IDOCK:   -4.09 KCAL/MOL
REMARK 922        TOTAL FREE ENERGY PREDICTED BY IDOCK:   -4.39 KCAL/MOL
REMARK 923 INTER-LIGAND FREE ENERGY PREDICTED BY IDOCK:   -4.28 KCAL/MOL
REMARK 924 INTRA-LIGAND FREE ENERGY PREDICTED BY IDOCK:   -0.11 KCAL/MOL
REMARK 927      BINDING AFFINITY PREDICTED BY RF-SCORE:    0.00 PKD
ROOT
HETATM    1  C   UNL     1      -8.973  12.365  67.331  1.00  0.00    -0.185 C  
HETATM    2  C   UNL     1     -10.031  11.979  66.291  1.00  0.00    -0.227 C  
HETATM    3  C   UNL     1     -10.504  10.540  66.625  1.00  0.00    -0.228 C  
HETATM    4  C   UNL     1     -11.291  12.890  66.363  1.00  0.00    -0.361 C  
HETATM    5  N   UNL     1      -9.394  12.010  64.955  1.00  0.00    -0.426 NA 
HETATM    6  H2  UNL     1      -8.559  11.427  64.903  1.00  0.00     0.000 HD 
HETATM    7  O   UNL     1     -10.231   9.645  65.643  1.00  0.00    -0.253 OA 
HETATM    8  H1  UNL     1     -10.098  11.753  64.263  1.00  0.00     0.000 HD 
HETATM    9  O   UNL     1     -11.064  10.210  67.660  1.00  0.00    -0.301 OA 
ENDROOT
BRANCH   4  10
HETATM   10  C   UNL     1     -11.082  14.378  66.155  1.00  0.00    -0.330 A  
HETATM   11  C   UNL     1     -11.138  14.949  64.876  1.00  0.00    -0.424 A  
HETATM   12  C   UNL     1     -10.913  16.314  64.686  1.00  0.00    -0.212 A  
HETATM   13  C   UNL     1     -10.661  17.122  65.786  1.00  0.00    -0.138 A  
HETATM   14  C   UNL     1     -10.653  16.591  67.069  1.00  0.00    -0.255 A  
HETATM   15  O   UNL     1     -10.417  18.455  65.642  1.00  0.00    -0.624 OA 
HETATM   16  C   UNL     1     -10.860  15.222  67.255  1.00  0.00    -0.318 A  
HETATM   17  H   UNL     1     -10.244  19.008  66.395  1.00  0.00     0.000 HD 
ENDBRANCH   4  10
TORSDOF 1
ENDMDL
MODEL       68
REMARK 921   NORMALIZED FREE ENERGY PREDICTED BY IDOCK:   -4.06 KCAL/MOL
REMARK 922        TOTAL FREE ENERGY PREDICTED BY IDOCK:   -4.37 KCAL/MOL
REMARK 923 INTER-LIGAND FREE ENERGY PREDICTED BY IDOCK:   -4.31 KCAL/MOL
REMARK 924 INTRA-LIGAND FREE ENERGY PREDICTED BY IDOCK:   -0.05 KCAL/MOL
REMARK 927      BINDING AFFINITY PREDICTED BY RF-SCORE:    0.00 PKD
ROOT
HETATM    1  C   UNL     1      -8.916  19.713  66.472  1.00  0.00    -0.422 C  
HETATM    2  C   UNL     1      -7.681  18.852  66.763  1.00  0.00    -0.240 C  
HETATM    3  C   UNL     1      -6.620  19.774  67.420  1.00  0.00    -0.204 C  
HETATM    4  C   UNL     1      -7.979  17.718  67.786  1.00  0.00    -0.225 C  
HETATM    5  N   UNL     1      -7.174  18.326  65.476  1.00  0.00    -0.546 NA 
HETATM    6  H2  UNL     1      -6.989  19.062  64.795  1.00  0.00     0.000 HD 
HETATM    7  O   UNL     1      -5.487  19.896  66.683  1.00  0.00    -0.169 OA 
HETATM    8  H1  UNL     1      -6.352  17.753  65.670  1.00  0.00     0.000 HD 
HETATM    9  O   UNL     1      -6.759  20.351  68.488  1.00  0.00    -0.291 OA 
ENDROOT
BRANCH   4  10
HETATM   10  C   UNL     1      -9.058  16.718  67.415  1.00  0.00    -0.221 A  
HETATM   11  C   UNL     1     -10.311  16.734  68.044  1.00  0.00    -0.317 A  
HETATM   12  C   UNL     1     -11.290  15.792  67.724  1.00  0.00    -0.240 A  
HETATM   13  C   UNL     1     -11.029  14.845  66.743  1.00  0.00    -0.326 A  
HETATM   14  C   UNL     1      -9.816  14.841  66.067  1.00  0.00    -0.350 A  
HETATM   15  O   UNL     1     -11.950  13.897  66.414  1.00  0.00    -0.390 OA 
HETATM   16  C   UNL     1      -8.830  15.773  66.403  1.00  0.00    -0.371 A  
HETATM   17  H   UNL     1     -11.771  13.248  65.743  1.00  0.00     0.000 HD 
ENDBRANCH   4  10
TORSDOF 1
ENDMDL
MODEL       69
REMARK 921   NORMALIZED FREE ENERGY PREDICTED BY IDOCK:   -3.98 KCAL/MOL
REMARK 922        TOTAL FREE ENERGY PREDICTED BY IDOCK:   -4.28 KCAL/MOL
REMARK 923 INTER-LIGAND FREE ENERGY PREDICTED BY IDOCK:   -4.40 KCAL/MOL
REMARK 924 INTRA-LIGAND FREE ENERGY PREDICTED BY IDOCK:    0.13 KCAL/MOL
REMARK 927      BINDING AFFINITY PREDICTED BY RF-SCORE:    0.00 PKD
ROOT
HETATM    1  C   UNL     1     -10.434   9.160  67.929  1.00  0.00    -0.293 C  
HETATM    2  C   UNL     1     -10.531  10.237  69.017  1.00  0.00    -0.217 C  
HETATM    3  C   UNL     1     -11.043  11.534  68.338  1.00  0.00    -0.235 C  
HETATM    4  C   UNL     1     -11.568   9.873  70.119  1.00  0.00    -0.281 C  
HETATM    5  N   UNL     1      -9.176  10.452  69.573  1.00  0.00    -0.373 NA 
HETATM    6  H2  UNL     1      -8.487  10.677  68.855  1.00  0.00     0.000 HD 
HETATM    7  O   UNL     1     -10.153  12.557  68.397  1.00  0.00    -0.220 OA 
HETATM    8  H1  UNL     1      -9.241  11.168  70.296  1.00  0.00     0.000 HD 
HETATM    9  O   UNL     1     -12.129  11.657  67.791  1.00  0.00    -0.613 OA 
ENDROOT
BRANCH   4  10
HETATM   10  C   UNL     1     -11.340   8.582  70.884  1.00  0.00    -0.304 A  
HETATM   11  C   UNL     1     -11.084   8.589  72.262  1.00  0.00    -0.430 A  
HETATM   12  C   UNL     1     -10.843   7.403  72.956  1.00  0.00    -0.423 A  
HETATM   13  C   UNL     1     -10.890   6.194  72.275  1.00  0.00    -0.244 A  
HETATM   14  C   UNL     1     -11.195   6.155  70.920  1.00  0.00    -0.365 A  
HETATM   15  O   UNL     1     -10.642   5.014  72.910  1.00  0.00    -0.200 OA 
HETATM   16  C   UNL     1     -11.417   7.346  70.224  1.00  0.00    -0.206 A  
HETATM   17  H   UNL     1     -10.674   4.187  72.444  1.00  0.00     0.000 HD 
ENDBRANCH   4  10
TORSDOF 1
ENDMDL
MODEL       70
REMARK 921   NORMALIZED FREE ENERGY PREDICTED BY IDOCK:   -3.97 KCAL/MOL
REMARK 922        TOTAL FREE ENERGY PREDICTED BY IDOCK:   -4.27 KCAL/MOL
REMARK 923 INTER-LIGAND FREE ENERGY PREDICTED BY IDOCK:   -4.20 KCAL/MOL
REMARK 924 INTRA-LIGAND FREE ENERGY PREDICTED BY IDOCK:   -0.08 KCAL/MOL
REMARK 927      BINDING AFFINITY PREDICTED BY RF-SCORE:    0.00 PKD
ROOT
HETATM    1  C   UNL     1     -10.648  18.161  65.766  1.00  0.00    -0.186 C  
HETATM    2  C   UNL     1      -9.423  18.362  66.667  1.00  0.00    -0.313 C  
HETATM    3  C   UNL     1      -9.193  19.890  66.798  1.00  0.00    -0.378 C  
HETATM    4  C   UNL     1      -9.654  17.822  68.108  1.00  0.00    -0.303 C  
HETATM    5  N   UNL     1      -8.260  17.725  66.010  1.00  0.00    -0.527 NA 
HETATM    6  H2  UNL     1      -8.110  18.063  65.060  1.00  0.00     0.000 HD 
HETATM    7  O   UNL     1      -8.004  20.299  66.289  1.00  0.00    -0.256 OA 
HETATM    8  H1  UNL     1      -7.446  17.859  66.609  1.00  0.00     0.000 HD 
HETATM    9  O   UNL     1      -9.983  20.677  67.300  1.00  0.00    -0.448 OA 
ENDROOT
BRANCH   4  10
HETATM   10  C   UNL     1      -9.989  16.348  68.249  1.00  0.00    -0.243 A  
HETATM   11  C   UNL     1      -9.026  15.357  68.010  1.00  0.00    -0.171 A  
HETATM   12  C   UNL     1      -9.347  14.002  68.109  1.00  0.00    -0.201 A  
HETATM   13  C   UNL     1     -10.632  13.633  68.482  1.00  0.00    -0.250 A  
HETATM   14  C   UNL     1     -11.589  14.595  68.776  1.00  0.00    -0.346 A  
HETATM   15  O   UNL     1     -10.992  12.322  68.571  1.00  0.00    -0.216 OA 
HETATM   16  C   UNL     1     -11.271  15.950  68.658  1.00  0.00    -0.360 A  
HETATM   17  H   UNL     1     -11.872  12.069  68.826  1.00  0.00     0.000 HD 
ENDBRANCH   4  10
TORSDOF 1
ENDMDL
MODEL       71
REMARK 921   NORMALIZED FREE ENERGY PREDICTED BY IDOCK:   -3.95 KCAL/MOL
REMARK 922        TOTAL FREE ENERGY PREDICTED BY IDOCK:   -4.25 KCAL/MOL
REMARK 923 INTER-LIGAND FREE ENERGY PREDICTED BY IDOCK:   -4.15 KCAL/MOL
REMARK 924 INTRA-LIGAND FREE ENERGY PREDICTED BY IDOCK:   -0.10 KCAL/MOL
REMARK 927      BINDING AFFINITY PREDICTED BY RF-SCORE:    0.00 PKD
ROOT
HETATM    1  C   UNL     1     -10.618   5.960  73.180  1.00  0.00    -0.270 C  
HETATM    2  C   UNL     1      -9.956   6.269  71.831  1.00  0.00    -0.172 C  
HETATM    3  C   UNL     1      -9.450   4.924  71.247  1.00  0.00    -0.156 C  
HETATM    4  C   UNL     1     -10.963   6.852  70.798  1.00  0.00    -0.297 C  
HETATM    5  N   UNL     1      -8.816   7.180  72.077  1.00  0.00    -0.126 NA 
HETATM    6  H2  UNL     1      -8.158   6.812  72.764  1.00  0.00     0.000 HD 
HETATM    7  O   UNL     1      -8.102   4.878  71.098  1.00  0.00    -0.096 OA 
HETATM    8  H1  UNL     1      -8.376   7.385  71.180  1.00  0.00     0.000 HD 
HETATM    9  O   UNL     1     -10.164   3.979  70.945  1.00  0.00    -0.076 OA 
ENDROOT
BRANCH   4  10
HETATM   10  C   UNL     1     -11.673   8.139  71.175  1.00  0.00    -0.309 A  
HETATM   11  C   UNL     1     -11.164   9.388  70.793  1.00  0.00    -0.367 A  
HETATM   12  C   UNL     1     -11.802  10.572  71.169  1.00  0.00    -0.391 A  
HETATM   13  C   UNL     1     -12.978  10.507  71.905  1.00  0.00    -0.447 A  
HETATM   14  C   UNL     1     -13.532   9.281  72.249  1.00  0.00    -0.548 A  
HETATM   15  O   UNL     1     -13.622  11.638  72.309  1.00  0.00    -0.539 OA 
HETATM   16  C   UNL     1     -12.881   8.098  71.888  1.00  0.00    -0.360 A  
HETATM   17  H   UNL     1     -14.426  11.593  72.812  1.00  0.00     0.000 HD 
ENDBRANCH   4  10
TORSDOF 1
ENDMDL
MODEL       72
REMARK 921   NORMALIZED FREE ENERGY PREDICTED BY IDOCK:   -3.95 KCAL/MOL
REMARK 922        TOTAL FREE ENERGY PREDICTED BY IDOCK:   -4.25 KCAL/MOL
REMARK 923 INTER-LIGAND FREE ENERGY PREDICTED BY IDOCK:   -4.21 KCAL/MOL
REMARK 924 INTRA-LIGAND FREE ENERGY PREDICTED BY IDOCK:   -0.04 KCAL/MOL
REMARK 927      BINDING AFFINITY PREDICTED BY RF-SCORE:    0.00 PKD
ROOT
HETATM    1  C   UNL     1     -10.583   8.644  68.582  1.00  0.00    -0.165 C  
HETATM    2  C   UNL     1      -9.724   9.816  69.072  1.00  0.00    -0.177 C  
HETATM    3  C   UNL     1      -8.501   9.214  69.812  1.00  0.00    -0.139 C  
HETATM    4  C   UNL     1      -9.160  10.667  67.899  1.00  0.00    -0.145 C  
HETATM    5  N   UNL     1     -10.539  10.624  70.007  1.00  0.00    -0.463 NA 
HETATM    6  H2  UNL     1     -10.925  10.071  70.773  1.00  0.00     0.000 HD 
HETATM    7  O   UNL     1      -8.451   9.549  71.126  1.00  0.00    -0.278 OA 
HETATM    8  H1  UNL     1      -9.968  11.403  70.333  1.00  0.00     0.000 HD 
HETATM    9  O   UNL     1      -7.651   8.503  69.296  1.00  0.00    -0.090 OA 
ENDROOT
BRANCH   4  10
HETATM   10  C   UNL     1     -10.167  11.303  66.959  1.00  0.00    -0.250 A  
HETATM   11  C   UNL     1     -11.044  12.304  67.401  1.00  0.00    -0.333 A  
HETATM   12  C   UNL     1     -11.991  12.864  66.542  1.00  0.00    -0.447 A  
HETATM   13  C   UNL     1     -12.042  12.445  65.220  1.00  0.00    -0.391 A  
HETATM   14  C   UNL     1     -11.150  11.494  64.742  1.00  0.00    -0.300 A  
HETATM   15  O   UNL     1     -12.964  12.951  64.354  1.00  0.00    -0.705 OA 
HETATM   16  C   UNL     1     -10.215  10.921  65.609  1.00  0.00    -0.323 A  
HETATM   17  H   UNL     1     -12.999  12.664  63.448  1.00  0.00     0.000 HD 
ENDBRANCH   4  10
TORSDOF 1
ENDMDL
MODEL       73
REMARK 921   NORMALIZED FREE ENERGY PREDICTED BY IDOCK:   -3.94 KCAL/MOL
REMARK 922        TOTAL FREE ENERGY PREDICTED BY IDOCK:   -4.23 KCAL/MOL
REMARK 923 INTER-LIGAND FREE ENERGY PREDICTED BY IDOCK:   -4.48 KCAL/MOL
REMARK 924 INTRA-LIGAND FREE ENERGY PREDICTED BY IDOCK:    0.24 KCAL/MOL
REMARK 927      BINDING AFFINITY PREDICTED BY RF-SCORE:    0.00 PKD
ROOT
HETATM    1  C   UNL     1      -7.530  10.231  64.587  1.00  0.00    -0.093 C  
HETATM    2  C   UNL     1      -8.378   9.890  65.819  1.00  0.00    -0.128 C  
HETATM    3  C   UNL     1      -7.413   9.359  66.911  1.00  0.00    -0.091 C  
HETATM    4  C   UNL     1      -9.082  11.142  66.418  1.00  0.00    -0.198 C  
HETATM    5  N   UNL     1      -9.344   8.836  65.434  1.00  0.00    -0.443 NA 
HETATM    6  H2  UNL     1      -8.892   8.017  65.028  1.00  0.00     0.000 HD 
HETATM    7  O   UNL     1      -7.658   8.071  67.262  1.00  0.00    -0.094 OA 
HETATM    8  H1  UNL     1      -9.907   8.609  66.253  1.00  0.00     0.000 HD 
HETATM    9  O   UNL     1      -6.510  10.005  67.422  1.00  0.00    -0.066 OA 
ENDROOT
BRANCH   4  10
HETATM   10  C   UNL     1     -10.026  11.906  65.508  1.00  0.00    -0.266 A  
HETATM   11  C   UNL     1     -10.886  11.237  64.626  1.00  0.00    -0.335 A  
HETATM   12  C   UNL     1     -11.730  11.944  63.767  1.00  0.00    -0.554 A  
HETATM   13  C   UNL     1     -11.739  13.332  63.812  1.00  0.00    -0.421 A  
HETATM   14  C   UNL     1     -10.935  14.017  64.714  1.00  0.00    -0.410 A  
HETATM   15  O   UNL     1     -12.532  14.060  62.978  1.00  0.00    -1.101 OA 
HETATM   16  C   UNL     1     -10.078  13.308  65.559  1.00  0.00    -0.274 A  
HETATM   17  H   UNL     1     -12.538  15.010  63.008  1.00  0.00     0.000 HD 
ENDBRANCH   4  10
TORSDOF 1
ENDMDL
MODEL       74
REMARK 921   NORMALIZED FREE ENERGY PREDICTED BY IDOCK:   -3.93 KCAL/MOL
REMARK 922        TOTAL FREE ENERGY PREDICTED BY IDOCK:   -4.23 KCAL/MOL
REMARK 923 INTER-LIGAND FREE ENERGY PREDICTED BY IDOCK:   -4.15 KCAL/MOL
REMARK 924 INTRA-LIGAND FREE ENERGY PREDICTED BY IDOCK:   -0.08 KCAL/MOL
REMARK 927      BINDING AFFINITY PREDICTED BY RF-SCORE:    0.00 PKD
ROOT
HETATM    1  C   UNL     1      -8.727   9.276  69.317  1.00  0.00    -0.141 C  
HETATM    2  C   UNL     1     -10.240   9.355  69.556  1.00  0.00    -0.209 C  
HETATM    3  C   UNL     1     -10.517   8.756  70.960  1.00  0.00    -0.230 C  
HETATM    4  C   UNL     1     -10.758  10.822  69.589  1.00  0.00    -0.261 C  
HETATM    5  N   UNL     1     -10.913   8.547  68.514  1.00  0.00    -0.436 NA 
HETATM    6  H2  UNL     1     -10.570   7.587  68.477  1.00  0.00     0.000 HD 
HETATM    7  O   UNL     1     -11.295   7.644  70.924  1.00  0.00    -0.268 OA 
HETATM    8  H1  UNL     1     -11.919   8.600  68.674  1.00  0.00     0.000 HD 
HETATM    9  O   UNL     1     -10.091   9.210  72.011  1.00  0.00    -0.279 OA 
ENDROOT
BRANCH   4  10
HETATM   10  C   UNL     1     -10.527  11.664  68.348  1.00  0.00    -0.230 A  
HETATM   11  C   UNL     1     -11.517  11.798  67.365  1.00  0.00    -0.375 A  
HETATM   12  C   UNL     1     -11.289  12.548  66.209  1.00  0.00    -0.386 A  
HETATM   13  C   UNL     1     -10.072  13.197  66.049  1.00  0.00    -0.286 A  
HETATM   14  C   UNL     1      -9.094  13.124  67.032  1.00  0.00    -0.231 A  
HETATM   15  O   UNL     1      -9.802  13.923  64.927  1.00  0.00    -0.606 OA 
HETATM   16  C   UNL     1      -9.318  12.358  68.179  1.00  0.00    -0.209 A  
HETATM   17  H   UNL     1      -8.969  14.367  64.817  1.00  0.00     0.000 HD 
ENDBRANCH   4  10
TORSDOF 1
ENDMDL
MODEL       75
REMARK 921   NORMALIZED FREE ENERGY PREDICTED BY IDOCK:   -3.91 KCAL/MOL
REMARK 922        TOTAL FREE ENERGY PREDICTED BY IDOCK:   -4.20 KCAL/MOL
REMARK 923 INTER-LIGAND FREE ENERGY PREDICTED BY IDOCK:   -4.14 KCAL/MOL
REMARK 924 INTRA-LIGAND FREE ENERGY PREDICTED BY IDOCK:   -0.07 KCAL/MOL
REMARK 927      BINDING AFFINITY PREDICTED BY RF-SCORE:    0.00 PKD
ROOT
HETATM    1  C   UNL     1     -10.208   9.298  71.381  1.00  0.00    -0.371 C  
HETATM    2  C   UNL     1     -11.528   9.141  70.614  1.00  0.00    -0.262 C  
HETATM    3  C   UNL     1     -12.678   9.248  71.649  1.00  0.00    -0.364 C  
HETATM    4  C   UNL     1     -11.751  10.283  69.581  1.00  0.00    -0.230 C  
HETATM    5  N   UNL     1     -11.534   7.804  69.980  1.00  0.00    -0.470 NA 
HETATM    6  H2  UNL     1     -11.374   7.050  70.648  1.00  0.00     0.000 HD 
HETATM    7  O   UNL     1     -13.418   8.115  71.746  1.00  0.00    -0.339 OA 
HETATM    8  H1  UNL     1     -12.411   7.700  69.471  1.00  0.00     0.000 HD 
HETATM    9  O   UNL     1     -12.920  10.235  72.328  1.00  0.00    -0.378 OA 
ENDROOT
BRANCH   4  10
HETATM   10  C   UNL     1     -10.701  10.451  68.498  1.00  0.00    -0.255 A  
HETATM   11  C   UNL     1      -9.758  11.487  68.554  1.00  0.00    -0.191 A  
HETATM   12  C   UNL     1      -8.815  11.658  67.539  1.00  0.00    -0.158 A  
HETATM   13  C   UNL     1      -8.790  10.766  66.475  1.00  0.00    -0.155 A  
HETATM   14  C   UNL     1      -9.678   9.700  66.423  1.00  0.00    -0.285 A  
HETATM   15  O   UNL     1      -7.899  10.909  65.455  1.00  0.00    -0.339 OA 
HETATM   16  C   UNL     1     -10.634   9.542  67.431  1.00  0.00    -0.337 A  
HETATM   17  H   UNL     1      -7.882  10.299  64.726  1.00  0.00     0.000 HD 
ENDBRANCH   4  10
TORSDOF 1
ENDMDL
MODEL       76
REMARK 921   NORMALIZED FREE ENERGY PREDICTED BY IDOCK:   -3.89 KCAL/MOL
REMARK 922        TOTAL FREE ENERGY PREDICTED BY IDOCK:   -4.19 KCAL/MOL
REMARK 923 INTER-LIGAND FREE ENERGY PREDICTED BY IDOCK:   -4.09 KCAL/MOL
REMARK 924 INTRA-LIGAND FREE ENERGY PREDICTED BY IDOCK:   -0.10 KCAL/MOL
REMARK 927      BINDING AFFINITY PREDICTED BY RF-SCORE:    0.00 PKD
ROOT
HETATM    1  C   UNL     1      -8.685   8.374  68.867  1.00  0.00    -0.136 C  
HETATM    2  C   UNL     1     -10.049   8.208  68.185  1.00  0.00    -0.198 C  
HETATM    3  C   UNL     1      -9.822   8.348  66.657  1.00  0.00    -0.273 C  
HETATM    4  C   UNL     1     -10.659   6.796  68.417  1.00  0.00    -0.270 C  
HETATM    5  N   UNL     1     -10.938   9.288  68.670  1.00  0.00    -0.450 NA 
HETATM    6  H2  UNL     1     -10.540  10.217  68.535  1.00  0.00     0.000 HD 
HETATM    7  O   UNL     1     -10.470   9.409  66.114  1.00  0.00    -0.162 OA 
HETATM    8  H1  UNL     1     -11.845   9.178  68.217  1.00  0.00     0.000 HD 
HETATM    9  O   UNL     1      -9.132   7.599  65.981  1.00  0.00    -0.166 OA 
ENDROOT
BRANCH   4  10
HETATM   10  C   UNL     1     -10.900   6.374  69.855  1.00  0.00    -0.370 A  
HETATM   11  C   UNL     1     -11.976   6.888  70.593  1.00  0.00    -0.400 A  
HETATM   12  C   UNL     1     -12.175   6.523  71.925  1.00  0.00    -0.373 A  
HETATM   13  C   UNL     1     -11.313   5.610  72.518  1.00  0.00    -0.294 A  
HETATM   14  C   UNL     1     -10.272   5.046  71.793  1.00  0.00    -0.272 A  
HETATM   15  O   UNL     1     -11.461   5.242  73.821  1.00  0.00    -0.419 OA 
HETATM   16  C   UNL     1     -10.062   5.427  70.465  1.00  0.00    -0.306 A  
HETATM   17  H   UNL     1     -10.870   4.618  74.227  1.00  0.00     0.000 HD 
ENDBRANCH   4  10
TORSDOF 1
ENDMDL
MODEL       77
REMARK 921   NORMALIZED FREE ENERGY PREDICTED BY IDOCK:   -3.88 KCAL/MOL
REMARK 922        TOTAL FREE ENERGY PREDICTED BY IDOCK:   -4.18 KCAL/MOL
REMARK 923 INTER-LIGAND FREE ENERGY PREDICTED BY IDOCK:   -4.08 KCAL/MOL
REMARK 924 INTRA-LIGAND FREE ENERGY PREDICTED BY IDOCK:   -0.09 KCAL/MOL
REMARK 927      BINDING AFFINITY PREDICTED BY RF-SCORE:    0.00 PKD
ROOT
HETATM    1  C   UNL     1      -9.735  18.576  68.430  1.00  0.00    -0.395 C  
HETATM    2  C   UNL     1      -9.187  17.418  67.587  1.00  0.00    -0.234 C  
HETATM    3  C   UNL     1      -7.758  17.814  67.132  1.00  0.00    -0.205 C  
HETATM    4  C   UNL     1      -9.044  16.104  68.408  1.00  0.00    -0.199 C  
HETATM    5  N   UNL     1     -10.070  17.249  66.411  1.00  0.00    -0.305 NA 
HETATM    6  H2  UNL     1     -10.180  18.109  65.874  1.00  0.00     0.000 HD 
HETATM    7  O   UNL     1      -7.636  17.921  65.785  1.00  0.00    -0.531 OA 
HETATM    8  H1  UNL     1      -9.705  16.479  65.850  1.00  0.00     0.000 HD 
HETATM    9  O   UNL     1      -6.817  18.021  67.883  1.00  0.00    -0.193 OA 
ENDROOT
BRANCH   4  10
HETATM   10  C   UNL     1     -10.304  15.546  69.045  1.00  0.00    -0.235 A  
HETATM   11  C   UNL     1     -11.081  14.579  68.393  1.00  0.00    -0.271 A  
HETATM   12  C   UNL     1     -12.257  14.092  68.967  1.00  0.00    -0.280 A  
HETATM   13  C   UNL     1     -12.643  14.550  70.220  1.00  0.00    -0.323 A  
HETATM   14  C   UNL     1     -11.862  15.468  70.910  1.00  0.00    -0.413 A  
HETATM   15  O   UNL     1     -13.793  14.115  70.807  1.00  0.00    -0.223 OA 
HETATM   16  C   UNL     1     -10.696  15.968  70.325  1.00  0.00    -0.278 A  
HETATM   17  H   UNL     1     -14.057  14.428  71.664  1.00  0.00     0.000 HD 
ENDBRANCH   4  10
TORSDOF 1
ENDMDL
MODEL       78
REMARK 921   NORMALIZED FREE ENERGY PREDICTED BY IDOCK:   -3.88 KCAL/MOL
REMARK 922        TOTAL FREE ENERGY PREDICTED BY IDOCK:   -4.17 KCAL/MOL
REMARK 923 INTER-LIGAND FREE ENERGY PREDICTED BY IDOCK:   -4.16 KCAL/MOL
REMARK 924 INTRA-LIGAND FREE ENERGY PREDICTED BY IDOCK:   -0.01 KCAL/MOL
REMARK 927      BINDING AFFINITY PREDICTED BY RF-SCORE:    0.00 PKD
ROOT
HETATM    1  C   UNL     1     -11.661   7.588  70.123  1.00  0.00    -0.046 C  
HETATM    2  C   UNL     1     -11.959   8.842  70.955  1.00  0.00    -0.251 C  
HETATM    3  C   UNL     1     -11.741   8.469  72.445  1.00  0.00    -0.358 C  
HETATM    4  C   UNL     1     -10.979  10.008  70.641  1.00  0.00    -0.392 C  
HETATM    5  N   UNL     1     -13.371   9.220  70.725  1.00  0.00    -0.523 NA 
HETATM    6  H2  UNL     1     -14.020   8.457  70.915  1.00  0.00     0.000 HD 
HETATM    7  O   UNL     1     -12.870   8.566  73.192  1.00  0.00    -0.104 OA 
HETATM    8  H1  UNL     1     -13.570  10.054  71.278  1.00  0.00     0.000 HD 
HETATM    9  O   UNL     1     -10.676   8.116  72.930  1.00  0.00    -0.352 OA 
ENDROOT
BRANCH   4  10
HETATM   10  C   UNL     1     -10.934  10.507  69.208  1.00  0.00    -0.291 A  
HETATM   11  C   UNL     1     -10.260   9.790  68.209  1.00  0.00    -0.212 A  
HETATM   12  C   UNL     1     -10.193  10.268  66.900  1.00  0.00    -0.286 A  
HETATM   13  C   UNL     1     -10.833  11.457  66.575  1.00  0.00    -0.283 A  
HETATM   14  C   UNL     1     -11.552  12.158  67.534  1.00  0.00    -0.413 A  
HETATM   15  O   UNL     1     -10.776  11.968  65.314  1.00  0.00    -0.269 OA 
HETATM   16  C   UNL     1     -11.602  11.687  68.848  1.00  0.00    -0.377 A  
HETATM   17  H   UNL     1     -11.214  12.782  65.092  1.00  0.00     0.000 HD 
ENDBRANCH   4  10
TORSDOF 1
ENDMDL
MODEL       79
REMARK 921   NORMALIZED FREE ENERGY PREDICTED BY IDOCK:   -3.85 KCAL/MOL
REMARK 922        TOTAL FREE ENERGY PREDICTED BY IDOCK:   -4.14 KCAL/MOL
REMARK 923 INTER-LIGAND FREE ENERGY PREDICTED BY IDOCK:   -4.07 KCAL/MOL
REMARK 924 INTRA-LIGAND FREE ENERGY PREDICTED BY IDOCK:   -0.07 KCAL/MOL
REMARK 927      BINDING AFFINITY PREDICTED BY RF-SCORE:    0.00 PKD
ROOT
HETATM    1  C   UNL     1     -10.301   9.151  67.193  1.00  0.00    -0.337 C  
HETATM    2  C   UNL     1      -9.142   9.961  67.789  1.00  0.00    -0.131 C  
HETATM    3  C   UNL     1      -8.746  11.036  66.744  1.00  0.00    -0.152 C  
HETATM    4  C   UNL     1      -9.557  10.726  69.079  1.00  0.00    -0.193 C  
HETATM    5  N   UNL     1      -8.010   9.037  68.026  1.00  0.00    -0.101 NA 
HETATM    6  H2  UNL     1      -7.741   8.521  67.188  1.00  0.00     0.000 HD 
HETATM    7  O   UNL     1      -7.477  10.893  66.283  1.00  0.00    -0.139 OA 
HETATM    8  H1  UNL     1      -7.240   9.575  68.421  1.00  0.00     0.000 HD 
HETATM    9  O   UNL     1      -9.477  11.932  66.349  1.00  0.00    -0.217 OA 
ENDROOT
BRANCH   4  10
HETATM   10  C   UNL     1     -10.075   9.896  70.239  1.00  0.00    -0.295 A  
HETATM   11  C   UNL     1      -9.220   9.065  70.977  1.00  0.00    -0.331 A  
HETATM   12  C   UNL     1      -9.705   8.278  72.023  1.00  0.00    -0.322 A  
HETATM   13  C   UNL     1     -11.051   8.345  72.357  1.00  0.00    -0.361 A  
HETATM   14  C   UNL     1     -11.908   9.200  71.676  1.00  0.00    -0.443 A  
HETATM   15  O   UNL     1     -11.569   7.580  73.358  1.00  0.00    -0.621 OA 
HETATM   16  C   UNL     1     -11.424   9.972  70.618  1.00  0.00    -0.425 A  
HETATM   17  H   UNL     1     -12.491   7.625  73.586  1.00  0.00     0.000 HD 
ENDBRANCH   4  10
TORSDOF 1
ENDMDL
MODEL       80
REMARK 921   NORMALIZED FREE ENERGY PREDICTED BY IDOCK:   -3.85 KCAL/MOL
REMARK 922        TOTAL FREE ENERGY PREDICTED BY IDOCK:   -4.14 KCAL/MOL
REMARK 923 INTER-LIGAND FREE ENERGY PREDICTED BY IDOCK:   -4.24 KCAL/MOL
REMARK 924 INTRA-LIGAND FREE ENERGY PREDICTED BY IDOCK:    0.10 KCAL/MOL
REMARK 927      BINDING AFFINITY PREDICTED BY RF-SCORE:    0.00 PKD
ROOT
HETATM    1  C   UNL     1      -9.477   7.564  70.536  1.00  0.00    -0.164 C  
HETATM    2  C   UNL     1     -10.942   7.905  70.839  1.00  0.00    -0.243 C  
HETATM    3  C   UNL     1     -11.292   7.266  72.208  1.00  0.00    -0.272 C  
HETATM    4  C   UNL     1     -11.173   9.437  70.991  1.00  0.00    -0.412 C  
HETATM    5  N   UNL     1     -11.781   7.317  69.771  1.00  0.00    -0.507 NA 
HETATM    6  H2  UNL     1     -11.625   6.315  69.655  1.00  0.00     0.000 HD 
HETATM    7  O   UNL     1     -12.265   6.325  72.126  1.00  0.00    -0.328 OA 
HETATM    8  H1  UNL     1     -12.754   7.544  69.972  1.00  0.00     0.000 HD 
HETATM    9  O   UNL     1     -10.761   7.553  73.271  1.00  0.00    -0.375 OA 
ENDROOT
BRANCH   4  10
HETATM   10  C   UNL     1     -10.817  10.311  69.803  1.00  0.00    -0.332 A  
HETATM   11  C   UNL     1     -11.804  11.015  69.097  1.00  0.00    -0.407 A  
HETATM   12  C   UNL     1     -11.477  11.793  67.985  1.00  0.00    -0.388 A  
HETATM   13  C   UNL     1     -10.150  11.896  67.592  1.00  0.00    -0.191 A  
HETATM   14  C   UNL     1      -9.148  11.252  68.306  1.00  0.00    -0.173 A  
HETATM   15  O   UNL     1      -9.791  12.628  66.501  1.00  0.00    -0.243 OA 
HETATM   16  C   UNL     1      -9.479  10.459  69.408  1.00  0.00    -0.204 A  
HETATM   17  H   UNL     1      -8.882  12.698  66.232  1.00  0.00     0.000 HD 
ENDBRANCH   4  10
TORSDOF 1
ENDMDL
MODEL       81
REMARK 921   NORMALIZED FREE ENERGY PREDICTED BY IDOCK:   -3.84 KCAL/MOL
REMARK 922        TOTAL FREE ENERGY PREDICTED BY IDOCK:   -4.13 KCAL/MOL
REMARK 923 INTER-LIGAND FREE ENERGY PREDICTED BY IDOCK:   -4.16 KCAL/MOL
REMARK 924 INTRA-LIGAND FREE ENERGY PREDICTED BY IDOCK:    0.03 KCAL/MOL
REMARK 927      BINDING AFFINITY PREDICTED BY RF-SCORE:    0.00 PKD
ROOT
HETATM    1  C   UNL     1      -9.694  11.082  68.731  1.00  0.00    -0.199 C  
HETATM    2  C   UNL     1     -10.735  10.520  67.755  1.00  0.00    -0.272 C  
HETATM    3  C   UNL     1     -10.812  11.494  66.550  1.00  0.00    -0.288 C  
HETATM    4  C   UNL     1     -10.321   9.135  67.182  1.00  0.00    -0.337 C  
HETATM    5  N   UNL     1     -12.039  10.469  68.454  1.00  0.00    -0.774 NA 
HETATM    6  H2  UNL     1     -12.312  11.371  68.846  1.00  0.00     0.000 HD 
HETATM    7  O   UNL     1     -12.029  12.076  66.408  1.00  0.00    -0.611 OA 
HETATM    8  H1  UNL     1     -12.731  10.096  67.805  1.00  0.00     0.000 HD 
HETATM    9  O   UNL     1      -9.888  11.740  65.789  1.00  0.00    -0.228 OA 
ENDROOT
BRANCH   4  10
HETATM   10  C   UNL     1     -10.092   8.014  68.178  1.00  0.00    -0.234 A  
HETATM   11  C   UNL     1     -10.992   6.944  68.288  1.00  0.00    -0.208 A  
HETATM   12  C   UNL     1     -10.796   5.931  69.229  1.00  0.00    -0.414 A  
HETATM   13  C   UNL     1      -9.674   5.969  70.046  1.00  0.00    -0.165 A  
HETATM   14  C   UNL     1      -8.740   6.989  69.920  1.00  0.00    -0.142 A  
HETATM   15  O   UNL     1      -9.455   5.011  70.990  1.00  0.00    -0.148 OA 
HETATM   16  C   UNL     1      -8.948   8.011  68.991  1.00  0.00    -0.145 A  
HETATM   17  H   UNL     1      -8.687   5.037  71.549  1.00  0.00     0.000 HD 
ENDBRANCH   4  10
TORSDOF 1
ENDMDL
MODEL       82
REMARK 921   NORMALIZED FREE ENERGY PREDICTED BY IDOCK:   -3.80 KCAL/MOL
REMARK 922        TOTAL FREE ENERGY PREDICTED BY IDOCK:   -4.09 KCAL/MOL
REMARK 923 INTER-LIGAND FREE ENERGY PREDICTED BY IDOCK:   -3.98 KCAL/MOL
REMARK 924 INTRA-LIGAND FREE ENERGY PREDICTED BY IDOCK:   -0.11 KCAL/MOL
REMARK 927      BINDING AFFINITY PREDICTED BY RF-SCORE:    0.00 PKD
ROOT
HETATM    1  C   UNL     1     -11.368  10.649  69.861  1.00  0.00    -0.386 C  
HETATM    2  C   UNL     1     -10.364   9.866  69.006  1.00  0.00    -0.209 C  
HETATM    3  C   UNL     1      -9.557  10.900  68.179  1.00  0.00    -0.164 C  
HETATM    4  C   UNL     1      -9.333   9.085  69.871  1.00  0.00    -0.182 C  
HETATM    5  N   UNL     1     -11.127   8.973  68.104  1.00  0.00    -0.470 NA 
HETATM    6  H2  UNL     1     -11.815   9.475  67.543  1.00  0.00     0.000 HD 
HETATM    7  O   UNL     1      -9.727  10.765  66.839  1.00  0.00    -0.172 OA 
HETATM    8  H1  UNL     1     -10.459   8.453  67.535  1.00  0.00     0.000 HD 
HETATM    9  O   UNL     1      -8.834  11.765  68.652  1.00  0.00    -0.148 OA 
ENDROOT
BRANCH   4  10
HETATM   10  C   UNL     1      -9.883   8.059  70.845  1.00  0.00    -0.195 A  
HETATM   11  C   UNL     1     -10.133   6.738  70.445  1.00  0.00    -0.200 A  
HETATM   12  C   UNL     1     -10.669   5.806  71.335  1.00  0.00    -0.319 A  
HETATM   13  C   UNL     1     -10.928   6.186  72.645  1.00  0.00    -0.256 A  
HETATM   14  C   UNL     1     -10.639   7.472  73.080  1.00  0.00    -0.422 A  
HETATM   15  O   UNL     1     -11.469   5.312  73.539  1.00  0.00    -0.482 OA 
HETATM   16  C   UNL     1     -10.120   8.409  72.183  1.00  0.00    -0.376 A  
HETATM   17  H   UNL     1     -11.646   5.572  74.436  1.00  0.00     0.000 HD 
ENDBRANCH   4  10
TORSDOF 1
ENDMDL
MODEL       83
REMARK 921   NORMALIZED FREE ENERGY PREDICTED BY IDOCK:   -3.80 KCAL/MOL
REMARK 922        TOTAL FREE ENERGY PREDICTED BY IDOCK:   -4.09 KCAL/MOL
REMARK 923 INTER-LIGAND FREE ENERGY PREDICTED BY IDOCK:   -4.07 KCAL/MOL
REMARK 924 INTRA-LIGAND FREE ENERGY PREDICTED BY IDOCK:   -0.02 KCAL/MOL
REMARK 927      BINDING AFFINITY PREDICTED BY RF-SCORE:    0.00 PKD
ROOT
HETATM    1  C   UNL     1      -7.767   6.958  71.478  1.00  0.00    -0.095 C  
HETATM    2  C   UNL     1      -7.917   8.481  71.584  1.00  0.00    -0.142 C  
HETATM    3  C   UNL     1      -6.628   9.114  70.998  1.00  0.00    -0.086 C  
HETATM    4  C   UNL     1      -9.103   9.019  70.732  1.00  0.00    -0.297 C  
HETATM    5  N   UNL     1      -8.053   8.831  73.015  1.00  0.00    -0.389 NA 
HETATM    6  H2  UNL     1      -7.286   8.471  73.584  1.00  0.00     0.000 HD 
HETATM    7  O   UNL     1      -5.920   9.829  71.908  1.00  0.00    -0.281 OA 
HETATM    8  H1  UNL     1      -8.152   9.844  73.085  1.00  0.00     0.000 HD 
HETATM    9  O   UNL     1      -6.254   8.996  69.840  1.00  0.00    -0.034 OA 
ENDROOT
BRANCH   4  10
HETATM   10  C   UNL     1     -10.485   8.479  71.052  1.00  0.00    -0.264 A  
HETATM   11  C   UNL     1     -11.415   9.243  71.770  1.00  0.00    -0.448 A  
HETATM   12  C   UNL     1     -12.674   8.731  72.091  1.00  0.00    -0.461 A  
HETATM   13  C   UNL     1     -13.020   7.457  71.662  1.00  0.00    -0.366 A  
HETATM   14  C   UNL     1     -12.136   6.700  70.903  1.00  0.00    -0.379 A  
HETATM   15  O   UNL     1     -14.230   6.912  71.970  1.00  0.00    -0.560 OA 
HETATM   16  C   UNL     1     -10.870   7.208  70.600  1.00  0.00    -0.268 A  
HETATM   17  H   UNL     1     -14.466   6.040  71.676  1.00  0.00     0.000 HD 
ENDBRANCH   4  10
TORSDOF 1
ENDMDL
MODEL       84
REMARK 921   NORMALIZED FREE ENERGY PREDICTED BY IDOCK:   -3.76 KCAL/MOL
REMARK 922        TOTAL FREE ENERGY PREDICTED BY IDOCK:   -4.05 KCAL/MOL
REMARK 923 INTER-LIGAND FREE ENERGY PREDICTED BY IDOCK:   -3.97 KCAL/MOL
REMARK 924 INTRA-LIGAND FREE ENERGY PREDICTED BY IDOCK:   -0.09 KCAL/MOL
REMARK 927      BINDING AFFINITY PREDICTED BY RF-SCORE:    0.00 PKD
ROOT
HETATM    1  C   UNL     1      -8.135  15.650  69.288  1.00  0.00    -0.244 C  
HETATM    2  C   UNL     1      -8.750  16.200  67.995  1.00  0.00    -0.176 C  
HETATM    3  C   UNL     1      -7.764  17.255  67.428  1.00  0.00    -0.176 C  
HETATM    4  C   UNL     1      -8.906  15.105  66.901  1.00  0.00    -0.284 C  
HETATM    5  N   UNL     1     -10.041  16.839  68.336  1.00  0.00    -0.270 NA 
HETATM    6  H2  UNL     1      -9.950  17.549  69.062  1.00  0.00     0.000 HD 
HETATM    7  O   UNL     1      -8.290  18.505  67.374  1.00  0.00    -0.252 OA 
HETATM    8  H1  UNL     1     -10.449  17.205  67.476  1.00  0.00     0.000 HD 
HETATM    9  O   UNL     1      -6.622  17.021  67.061  1.00  0.00    -0.163 OA 
ENDROOT
BRANCH   4  10
HETATM   10  C   UNL     1      -9.763  13.901  67.246  1.00  0.00    -0.245 A  
HETATM   11  C   UNL     1      -9.191  12.715  67.729  1.00  0.00    -0.195 A  
HETATM   12  C   UNL     1      -9.980  11.599  68.014  1.00  0.00    -0.194 A  
HETATM   13  C   UNL     1     -11.356  11.677  67.846  1.00  0.00    -0.299 A  
HETATM   14  C   UNL     1     -11.952  12.856  67.420  1.00  0.00    -0.360 A  
HETATM   15  O   UNL     1     -12.159  10.604  68.094  1.00  0.00    -0.797 OA 
HETATM   16  C   UNL     1     -11.159  13.966  67.117  1.00  0.00    -0.312 A  
HETATM   17  H   UNL     1     -13.101  10.658  67.979  1.00  0.00     0.000 HD 
ENDBRANCH   4  10
TORSDOF 1
ENDMDL
MODEL       85
REMARK 921   NORMALIZED FREE ENERGY PREDICTED BY IDOCK:   -3.76 KCAL/MOL
REMARK 922        TOTAL FREE ENERGY PREDICTED BY IDOCK:   -4.05 KCAL/MOL
REMARK 923 INTER-LIGAND FREE ENERGY PREDICTED BY IDOCK:   -4.37 KCAL/MOL
REMARK 924 INTRA-LIGAND FREE ENERGY PREDICTED BY IDOCK:    0.32 KCAL/MOL
REMARK 927      BINDING AFFINITY PREDICTED BY RF-SCORE:    0.00 PKD
ROOT
HETATM    1  C   UNL     1      -7.779  19.258  67.956  1.00  0.00    -0.323 C  
HETATM    2  C   UNL     1      -7.842  18.976  66.449  1.00  0.00    -0.278 C  
HETATM    3  C   UNL     1      -6.507  19.468  65.831  1.00  0.00    -0.215 C  
HETATM    4  C   UNL     1      -7.943  17.455  66.137  1.00  0.00    -0.275 C  
HETATM    5  N   UNL     1      -8.978  19.739  65.886  1.00  0.00    -0.437 NA 
HETATM    6  H2  UNL     1      -8.927  20.736  66.098  1.00  0.00     0.000 HD 
HETATM    7  O   UNL     1      -6.671  20.472  64.933  1.00  0.00    -0.303 OA 
HETATM    8  H1  UNL     1      -9.019  19.552  64.885  1.00  0.00     0.000 HD 
HETATM    9  O   UNL     1      -5.402  19.023  66.106  1.00  0.00    -0.150 OA 
ENDROOT
BRANCH   4  10
HETATM   10  C   UNL     1      -9.131  16.708  66.712  1.00  0.00    -0.261 A  
HETATM   11  C   UNL     1      -9.897  15.840  65.920  1.00  0.00    -0.381 A  
HETATM   12  C   UNL     1     -11.009  15.179  66.445  1.00  0.00    -0.329 A  
HETATM   13  C   UNL     1     -11.342  15.361  67.780  1.00  0.00    -0.306 A  
HETATM   14  C   UNL     1     -10.569  16.174  68.599  1.00  0.00    -0.283 A  
HETATM   15  O   UNL     1     -12.431  14.750  68.326  1.00  0.00    -0.584 OA 
HETATM   16  C   UNL     1      -9.467  16.849  68.067  1.00  0.00    -0.243 A  
HETATM   17  H   UNL     1     -12.659  14.875  69.240  1.00  0.00     0.000 HD 
ENDBRANCH   4  10
TORSDOF 1
ENDMDL
MODEL       86
REMARK 921   NORMALIZED FREE ENERGY PREDICTED BY IDOCK:   -3.73 KCAL/MOL
REMARK 922        TOTAL FREE ENERGY PREDICTED BY IDOCK:   -4.02 KCAL/MOL
REMARK 923 INTER-LIGAND FREE ENERGY PREDICTED BY IDOCK:   -3.92 KCAL/MOL
REMARK 924 INTRA-LIGAND FREE ENERGY PREDICTED BY IDOCK:   -0.09 KCAL/MOL
REMARK 927      BINDING AFFINITY PREDICTED BY RF-SCORE:    0.00 PKD
ROOT
HETATM    1  C   UNL     1     -11.358  13.213  68.671  1.00  0.00    -0.327 C  
HETATM    2  C   UNL     1     -10.283  12.852  67.638  1.00  0.00    -0.220 C  
HETATM    3  C   UNL     1     -10.799  11.624  66.844  1.00  0.00    -0.278 C  
HETATM    4  C   UNL     1     -10.054  13.989  66.601  1.00  0.00    -0.276 C  
HETATM    5  N   UNL     1      -9.043  12.504  68.369  1.00  0.00    -0.320 NA 
HETATM    6  H2  UNL     1      -9.187  11.769  69.061  1.00  0.00     0.000 HD 
HETATM    7  O   UNL     1     -10.020  10.523  66.994  1.00  0.00    -0.186 OA 
HETATM    8  H1  UNL     1      -8.328  12.264  67.682  1.00  0.00     0.000 HD 
HETATM    9  O   UNL     1     -11.803  11.613  66.148  1.00  0.00    -0.409 OA 
ENDROOT
BRANCH   4  10
HETATM   10  C   UNL     1      -9.624  15.341  67.139  1.00  0.00    -0.223 A  
HETATM   11  C   UNL     1      -8.269  15.692  67.224  1.00  0.00    -0.218 A  
HETATM   12  C   UNL     1      -7.875  16.924  67.750  1.00  0.00    -0.188 A  
HETATM   13  C   UNL     1      -8.844  17.827  68.166  1.00  0.00    -0.267 A  
HETATM   14  C   UNL     1     -10.194  17.525  68.043  1.00  0.00    -0.354 A  
HETATM   15  O   UNL     1      -8.502  19.032  68.703  1.00  0.00    -0.351 OA 
HETATM   16  C   UNL     1     -10.585  16.285  67.534  1.00  0.00    -0.310 A  
HETATM   17  H   UNL     1      -9.165  19.650  68.988  1.00  0.00     0.000 HD 
ENDBRANCH   4  10
TORSDOF 1
ENDMDL
MODEL       87
REMARK 921   NORMALIZED FREE ENERGY PREDICTED BY IDOCK:   -3.71 KCAL/MOL
REMARK 922        TOTAL FREE ENERGY PREDICTED BY IDOCK:   -4.00 KCAL/MOL
REMARK 923 INTER-LIGAND FREE ENERGY PREDICTED BY IDOCK:   -3.88 KCAL/MOL
REMARK 924 INTRA-LIGAND FREE ENERGY PREDICTED BY IDOCK:   -0.12 KCAL/MOL
REMARK 927      BINDING AFFINITY PREDICTED BY RF-SCORE:    0.00 PKD
ROOT
HETATM    1  C   UNL     1     -11.555  10.292  70.840  1.00  0.00    -0.454 C  
HETATM    2  C   UNL     1     -10.505   9.292  70.338  1.00  0.00    -0.245 C  
HETATM    3  C   UNL     1     -10.922   7.889  70.851  1.00  0.00    -0.243 C  
HETATM    4  C   UNL     1     -10.466   9.205  68.785  1.00  0.00    -0.236 C  
HETATM    5  N   UNL     1      -9.195   9.676  70.910  1.00  0.00    -0.345 NA 
HETATM    6  H2  UNL     1      -9.216   9.749  71.928  1.00  0.00     0.000 HD 
HETATM    7  O   UNL     1     -10.016   7.336  71.696  1.00  0.00    -0.180 OA 
HETATM    8  H1  UNL     1      -8.498   9.012  70.577  1.00  0.00     0.000 HD 
HETATM    9  O   UNL     1     -11.956   7.312  70.548  1.00  0.00    -0.255 OA 
ENDROOT
BRANCH   4  10
HETATM   10  C   UNL     1     -10.162  10.485  68.028  1.00  0.00    -0.195 A  
HETATM   11  C   UNL     1      -8.845  10.930  67.852  1.00  0.00    -0.134 A  
HETATM   12  C   UNL     1      -8.571  12.125  67.183  1.00  0.00    -0.185 A  
HETATM   13  C   UNL     1      -9.621  12.865  66.656  1.00  0.00    -0.257 A  
HETATM   14  C   UNL     1     -10.931  12.419  66.771  1.00  0.00    -0.305 A  
HETATM   15  O   UNL     1      -9.399  14.046  66.013  1.00  0.00    -0.489 OA 
HETATM   16  C   UNL     1     -11.203  11.233  67.457  1.00  0.00    -0.357 A  
HETATM   17  H   UNL     1     -10.117  14.553  65.653  1.00  0.00     0.000 HD 
ENDBRANCH   4  10
TORSDOF 1
ENDMDL
MODEL       88
REMARK 921   NORMALIZED FREE ENERGY PREDICTED BY IDOCK:   -3.70 KCAL/MOL
REMARK 922        TOTAL FREE ENERGY PREDICTED BY IDOCK:   -3.99 KCAL/MOL
REMARK 923 INTER-LIGAND FREE ENERGY PREDICTED BY IDOCK:   -4.00 KCAL/MOL
REMARK 924 INTRA-LIGAND FREE ENERGY PREDICTED BY IDOCK:    0.02 KCAL/MOL
REMARK 927      BINDING AFFINITY PREDICTED BY RF-SCORE:    0.00 PKD
ROOT
HETATM    1  C   UNL     1      -9.410  11.233  68.661  1.00  0.00    -0.167 C  
HETATM    2  C   UNL     1     -10.092  10.128  67.843  1.00  0.00    -0.176 C  
HETATM    3  C   UNL     1      -9.564  10.237  66.389  1.00  0.00    -0.185 C  
HETATM    4  C   UNL     1      -9.717   8.704  68.347  1.00  0.00    -0.176 C  
HETATM    5  N   UNL     1     -11.552  10.366  67.876  1.00  0.00    -0.693 NA 
HETATM    6  H2  UNL     1     -11.806  11.303  67.561  1.00  0.00     0.000 HD 
HETATM    7  O   UNL     1     -10.535  10.526  65.487  1.00  0.00    -0.237 OA 
HETATM    8  H1  UNL     1     -12.005   9.632  67.333  1.00  0.00     0.000 HD 
HETATM    9  O   UNL     1      -8.398  10.088  66.055  1.00  0.00    -0.120 OA 
ENDROOT
BRANCH   4  10
HETATM   10  C   UNL     1     -10.052   8.369  69.789  1.00  0.00    -0.197 A  
HETATM   11  C   UNL     1      -9.313   8.909  70.851  1.00  0.00    -0.295 A  
HETATM   12  C   UNL     1      -9.603   8.573  72.174  1.00  0.00    -0.382 A  
HETATM   13  C   UNL     1     -10.662   7.717  72.443  1.00  0.00    -0.280 A  
HETATM   14  C   UNL     1     -11.443   7.211  71.413  1.00  0.00    -0.303 A  
HETATM   15  O   UNL     1     -10.966   7.349  73.719  1.00  0.00    -0.548 OA 
HETATM   16  C   UNL     1     -11.139   7.533  70.087  1.00  0.00    -0.246 A  
HETATM   17  H   UNL     1     -11.691   6.762  73.903  1.00  0.00     0.000 HD 
ENDBRANCH   4  10
TORSDOF 1
ENDMDL
MODEL       89
REMARK 921   NORMALIZED FREE ENERGY PREDICTED BY IDOCK:   -3.70 KCAL/MOL
REMARK 922        TOTAL FREE ENERGY PREDICTED BY IDOCK:   -3.98 KCAL/MOL
REMARK 923 INTER-LIGAND FREE ENERGY PREDICTED BY IDOCK:   -3.87 KCAL/MOL
REMARK 924 INTRA-LIGAND FREE ENERGY PREDICTED BY IDOCK:   -0.11 KCAL/MOL
REMARK 927      BINDING AFFINITY PREDICTED BY RF-SCORE:    0.00 PKD
ROOT
HETATM    1  C   UNL     1     -10.842  16.530  68.069  1.00  0.00    -0.337 C  
HETATM    2  C   UNL     1     -10.063  16.471  66.749  1.00  0.00    -0.288 C  
HETATM    3  C   UNL     1     -10.522  17.676  65.888  1.00  0.00    -0.246 C  
HETATM    4  C   UNL     1      -8.530  16.633  66.960  1.00  0.00    -0.225 C  
HETATM    5  N   UNL     1     -10.403  15.199  66.072  1.00  0.00    -0.293 NA 
HETATM    6  H2  UNL     1     -11.407  15.078  65.942  1.00  0.00     0.000 HD 
HETATM    7  O   UNL     1     -11.126  17.307  64.730  1.00  0.00    -0.954 OA 
HETATM    8  H1  UNL     1      -9.885  15.160  65.194  1.00  0.00     0.000 HD 
HETATM    9  O   UNL     1     -10.376  18.850  66.192  1.00  0.00    -0.422 OA 
ENDROOT
BRANCH   4  10
HETATM   10  C   UNL     1      -7.842  15.616  67.851  1.00  0.00    -0.143 A  
HETATM   11  C   UNL     1      -7.481  14.351  67.366  1.00  0.00    -0.183 A  
HETATM   12  C   UNL     1      -6.878  13.406  68.198  1.00  0.00    -0.117 A  
HETATM   13  C   UNL     1      -6.603  13.737  69.518  1.00  0.00    -0.081 A  
HETATM   14  C   UNL     1      -6.903  15.001  70.008  1.00  0.00    -0.126 A  
HETATM   15  O   UNL     1      -6.034  12.837  70.368  1.00  0.00    -0.243 OA 
HETATM   16  C   UNL     1      -7.523  15.939  69.179  1.00  0.00    -0.210 A  
HETATM   17  H   UNL     1      -5.846  13.064  71.272  1.00  0.00     0.000 HD 
ENDBRANCH   4  10
TORSDOF 1
ENDMDL
MODEL       90
REMARK 921   NORMALIZED FREE ENERGY PREDICTED BY IDOCK:   -3.64 KCAL/MOL
REMARK 922        TOTAL FREE ENERGY PREDICTED BY IDOCK:   -3.92 KCAL/MOL
REMARK 923 INTER-LIGAND FREE ENERGY PREDICTED BY IDOCK:   -3.87 KCAL/MOL
REMARK 924 INTRA-LIGAND FREE ENERGY PREDICTED BY IDOCK:   -0.05 KCAL/MOL
REMARK 927      BINDING AFFINITY PREDICTED BY RF-SCORE:    0.00 PKD
ROOT
HETATM    1  C   UNL     1     -10.913  15.809  67.761  1.00  0.00    -0.314 C  
HETATM    2  C   UNL     1     -10.333  15.693  66.346  1.00  0.00    -0.296 C  
HETATM    3  C   UNL     1     -10.259  17.126  65.758  1.00  0.00    -0.219 C  
HETATM    4  C   UNL     1      -8.880  15.136  66.346  1.00  0.00    -0.277 C  
HETATM    5  N   UNL     1     -11.252  14.857  65.541  1.00  0.00    -0.342 NA 
HETATM    6  H2  UNL     1     -12.210  15.206  65.547  1.00  0.00     0.000 HD 
HETATM    7  O   UNL     1     -11.040  17.296  64.661  1.00  0.00    -1.052 OA 
HETATM    8  H1  UNL     1     -10.867  14.780  64.600  1.00  0.00     0.000 HD 
HETATM    9  O   UNL     1      -9.581  18.035  66.213  1.00  0.00    -0.375 OA 
ENDROOT
BRANCH   4  10
HETATM   10  C   UNL     1      -8.664  13.764  66.957  1.00  0.00    -0.212 A  
HETATM   11  C   UNL     1      -9.184  12.610  66.354  1.00  0.00    -0.162 A  
HETATM   12  C   UNL     1      -9.011  11.353  66.937  1.00  0.00    -0.171 A  
HETATM   13  C   UNL     1      -8.285  11.243  68.115  1.00  0.00    -0.140 A  
HETATM   14  C   UNL     1      -7.715  12.364  68.704  1.00  0.00    -0.067 A  
HETATM   15  O   UNL     1      -8.110  10.038  68.727  1.00  0.00    -0.096 OA 
HETATM   16  C   UNL     1      -7.905  13.623  68.129  1.00  0.00    -0.143 A  
HETATM   17  H   UNL     1      -7.613   9.963  69.533  1.00  0.00     0.000 HD 
ENDBRANCH   4  10
TORSDOF 1
ENDMDL
MODEL       91
REMARK 921   NORMALIZED FREE ENERGY PREDICTED BY IDOCK:   -3.63 KCAL/MOL
REMARK 922        TOTAL FREE ENERGY PREDICTED BY IDOCK:   -3.91 KCAL/MOL
REMARK 923 INTER-LIGAND FREE ENERGY PREDICTED BY IDOCK:   -3.87 KCAL/MOL
REMARK 924 INTRA-LIGAND FREE ENERGY PREDICTED BY IDOCK:   -0.05 KCAL/MOL
REMARK 927      BINDING AFFINITY PREDICTED BY RF-SCORE:    0.00 PKD
ROOT
HETATM    1  C   UNL     1      -9.932   4.575  71.477  1.00  0.00    -0.259 C  
HETATM    2  C   UNL     1      -9.427   5.328  70.239  1.00  0.00    -0.168 C  
HETATM    3  C   UNL     1      -8.923   4.266  69.227  1.00  0.00    -0.102 C  
HETATM    4  C   UNL     1     -10.561   6.120  69.526  1.00  0.00    -0.350 C  
HETATM    5  N   UNL     1      -8.311   6.205  70.659  1.00  0.00    -0.124 NA 
HETATM    6  H2  UNL     1      -7.570   5.696  71.140  1.00  0.00     0.000 HD 
HETATM    7  O   UNL     1      -7.597   4.370  68.958  1.00  0.00    -0.055 OA 
HETATM    8  H1  UNL     1      -7.976   6.705  69.836  1.00  0.00     0.000 HD 
HETATM    9  O   UNL     1      -9.620   3.407  68.709  1.00  0.00    -0.158 OA 
ENDROOT
BRANCH   4  10
HETATM   10  C   UNL     1     -11.287   7.174  70.340  1.00  0.00    -0.325 A  
HETATM   11  C   UNL     1     -12.329   6.829  71.213  1.00  0.00    -0.395 A  
HETATM   12  C   UNL     1     -13.016   7.805  71.936  1.00  0.00    -0.309 A  
HETATM   13  C   UNL     1     -12.639   9.136  71.813  1.00  0.00    -0.370 A  
HETATM   14  C   UNL     1     -11.576   9.498  70.996  1.00  0.00    -0.419 A  
HETATM   15  O   UNL     1     -13.296  10.122  72.486  1.00  0.00    -0.583 OA 
HETATM   16  C   UNL     1     -10.902   8.521  70.259  1.00  0.00    -0.249 A  
HETATM   17  H   UNL     1     -13.038  11.032  72.401  1.00  0.00     0.000 HD 
ENDBRANCH   4  10
TORSDOF 1
ENDMDL
MODEL       92
REMARK 921   NORMALIZED FREE ENERGY PREDICTED BY IDOCK:   -3.63 KCAL/MOL
REMARK 922        TOTAL FREE ENERGY PREDICTED BY IDOCK:   -3.91 KCAL/MOL
REMARK 923 INTER-LIGAND FREE ENERGY PREDICTED BY IDOCK:   -3.84 KCAL/MOL
REMARK 924 INTRA-LIGAND FREE ENERGY PREDICTED BY IDOCK:   -0.07 KCAL/MOL
REMARK 927      BINDING AFFINITY PREDICTED BY RF-SCORE:    0.00 PKD
ROOT
HETATM    1  C   UNL     1     -10.393  16.657  66.083  1.00  0.00    -0.340 C  
HETATM    2  C   UNL     1     -10.318  16.995  67.577  1.00  0.00    -0.329 C  
HETATM    3  C   UNL     1     -10.884  15.779  68.355  1.00  0.00    -0.297 C  
HETATM    4  C   UNL     1      -8.854  17.193  68.065  1.00  0.00    -0.229 C  
HETATM    5  N   UNL     1     -11.155  18.191  67.820  1.00  0.00    -0.074 NA 
HETATM    6  H2  UNL     1     -12.113  18.076  67.490  1.00  0.00     0.000 HD 
HETATM    7  O   UNL     1     -12.000  16.071  69.068  1.00  0.00    -0.342 OA 
HETATM    8  H1  UNL     1     -11.104  18.416  68.813  1.00  0.00     0.000 HD 
HETATM    9  O   UNL     1     -10.401  14.656  68.346  1.00  0.00    -0.226 OA 
ENDROOT
BRANCH   4  10
HETATM   10  C   UNL     1      -8.040  18.281  67.389  1.00  0.00    -0.232 A  
HETATM   11  C   UNL     1      -7.315  18.024  66.217  1.00  0.00    -0.317 A  
HETATM   12  C   UNL     1      -6.541  19.019  65.616  1.00  0.00    -0.304 A  
HETATM   13  C   UNL     1      -6.517  20.291  66.171  1.00  0.00    -0.212 A  
HETATM   14  C   UNL     1      -7.268  20.586  67.301  1.00  0.00    -0.367 A  
HETATM   15  O   UNL     1      -5.760  21.285  65.627  1.00  0.00    -0.234 OA 
HETATM   16  C   UNL     1      -8.027  19.584  67.912  1.00  0.00    -0.336 A  
HETATM   17  H   UNL     1      -5.743  22.156  66.007  1.00  0.00     0.000 HD 
ENDBRANCH   4  10
TORSDOF 1
ENDMDL
MODEL       93
REMARK 921   NORMALIZED FREE ENERGY PREDICTED BY IDOCK:   -3.61 KCAL/MOL
REMARK 922        TOTAL FREE ENERGY PREDICTED BY IDOCK:   -3.89 KCAL/MOL
REMARK 923 INTER-LIGAND FREE ENERGY PREDICTED BY IDOCK:   -3.88 KCAL/MOL
REMARK 924 INTRA-LIGAND FREE ENERGY PREDICTED BY IDOCK:   -0.01 KCAL/MOL
REMARK 927      BINDING AFFINITY PREDICTED BY RF-SCORE:    0.00 PKD
ROOT
HETATM    1  C   UNL     1     -10.486  18.411  68.053  1.00  0.00    -0.390 C  
HETATM    2  C   UNL     1      -9.840  17.933  66.746  1.00  0.00    -0.333 C  
HETATM    3  C   UNL     1     -10.485  18.742  65.590  1.00  0.00    -0.132 C  
HETATM    4  C   UNL     1      -8.313  18.230  66.699  1.00  0.00    -0.281 C  
HETATM    5  N   UNL     1     -10.135  16.492  66.588  1.00  0.00    -0.283 NA 
HETATM    6  H2  UNL     1     -11.133  16.287  66.632  1.00  0.00     0.000 HD 
HETATM    7  O   UNL     1     -11.167  17.967  64.710  1.00  0.00    -0.695 OA 
HETATM    8  H1  UNL     1      -9.706  16.174  65.719  1.00  0.00     0.000 HD 
HETATM    9  O   UNL     1     -10.410  19.954  65.457  1.00  0.00    -0.399 OA 
ENDROOT
BRANCH   4  10
HETATM   10  C   UNL     1      -7.456  17.618  67.791  1.00  0.00    -0.205 A  
HETATM   11  C   UNL     1      -7.352  16.228  67.941  1.00  0.00    -0.140 A  
HETATM   12  C   UNL     1      -6.588  15.669  68.967  1.00  0.00    -0.130 A  
HETATM   13  C   UNL     1      -5.894  16.505  69.832  1.00  0.00    -0.203 A  
HETATM   14  C   UNL     1      -5.938  17.883  69.672  1.00  0.00    -0.250 A  
HETATM   15  O   UNL     1      -5.153  16.001  70.859  1.00  0.00    -0.178 OA 
HETATM   16  C   UNL     1      -6.718  18.441  68.656  1.00  0.00    -0.265 A  
HETATM   17  H   UNL     1      -4.679  16.573  71.451  1.00  0.00     0.000 HD 
ENDBRANCH   4  10
TORSDOF 1
ENDMDL
MODEL       94
REMARK 921   NORMALIZED FREE ENERGY PREDICTED BY IDOCK:   -3.58 KCAL/MOL
REMARK 922        TOTAL FREE ENERGY PREDICTED BY IDOCK:   -3.86 KCAL/MOL
REMARK 923 INTER-LIGAND FREE ENERGY PREDICTED BY IDOCK:   -3.75 KCAL/MOL
REMARK 924 INTRA-LIGAND FREE ENERGY PREDICTED BY IDOCK:   -0.10 KCAL/MOL
REMARK 927      BINDING AFFINITY PREDICTED BY RF-SCORE:    0.00 PKD
ROOT
HETATM    1  C   UNL     1      -5.614  16.415  68.548  1.00  0.00    -0.105 C  
HETATM    2  C   UNL     1      -6.807  15.451  68.587  1.00  0.00    -0.106 C  
HETATM    3  C   UNL     1      -6.482  14.357  69.637  1.00  0.00    -0.145 C  
HETATM    4  C   UNL     1      -8.115  16.148  69.060  1.00  0.00    -0.237 C  
HETATM    5  N   UNL     1      -6.950  14.845  67.244  1.00  0.00    -0.285 NA 
HETATM    6  H2  UNL     1      -6.093  14.398  66.920  1.00  0.00     0.000 HD 
HETATM    7  O   UNL     1      -6.398  13.111  69.104  1.00  0.00    -0.093 OA 
HETATM    8  H1  UNL     1      -7.743  14.204  67.270  1.00  0.00     0.000 HD 
HETATM    9  O   UNL     1      -6.309  14.560  70.829  1.00  0.00    -0.169 OA 
ENDROOT
BRANCH   4  10
HETATM   10  C   UNL     1      -8.607  17.326  68.241  1.00  0.00    -0.247 A  
HETATM   11  C   UNL     1      -9.502  17.149  67.176  1.00  0.00    -0.249 A  
HETATM   12  C   UNL     1      -9.927  18.232  66.404  1.00  0.00    -0.385 A  
HETATM   13  C   UNL     1      -9.480  19.508  66.717  1.00  0.00    -0.354 A  
HETATM   14  C   UNL     1      -8.634  19.718  67.799  1.00  0.00    -0.373 A  
HETATM   15  O   UNL     1      -9.855  20.589  65.977  1.00  0.00    -0.635 OA 
HETATM   16  C   UNL     1      -8.196  18.630  68.559  1.00  0.00    -0.370 A  
HETATM   17  H   UNL     1      -9.548  21.462  66.191  1.00  0.00     0.000 HD 
ENDBRANCH   4  10
TORSDOF 1
ENDMDL
MODEL       95
REMARK 921   NORMALIZED FREE ENERGY PREDICTED BY IDOCK:   -3.58 KCAL/MOL
REMARK 922        TOTAL FREE ENERGY PREDICTED BY IDOCK:   -3.85 KCAL/MOL
REMARK 923 INTER-LIGAND FREE ENERGY PREDICTED BY IDOCK:   -3.75 KCAL/MOL
REMARK 924 INTRA-LIGAND FREE ENERGY PREDICTED BY IDOCK:   -0.10 KCAL/MOL
REMARK 927      BINDING AFFINITY PREDICTED BY RF-SCORE:    0.00 PKD
ROOT
HETATM    1  C   UNL     1      -8.505   9.331  68.800  1.00  0.00    -0.129 C  
HETATM    2  C   UNL     1      -8.967   9.205  67.343  1.00  0.00    -0.117 C  
HETATM    3  C   UNL     1      -8.693   7.745  66.896  1.00  0.00    -0.132 C  
HETATM    4  C   UNL     1     -10.497   9.438  67.186  1.00  0.00    -0.315 C  
HETATM    5  N   UNL     1      -8.171  10.148  66.525  1.00  0.00    -0.122 NA 
HETATM    6  H2  UNL     1      -7.166  10.011  66.633  1.00  0.00     0.000 HD 
HETATM    7  O   UNL     1      -7.799   7.655  65.879  1.00  0.00    -0.093 OA 
HETATM    8  H1  UNL     1      -8.478  10.064  65.557  1.00  0.00     0.000 HD 
HETATM    9  O   UNL     1      -9.208   6.753  67.390  1.00  0.00    -0.126 OA 
ENDROOT
BRANCH   4  10
HETATM   10  C   UNL     1     -11.043  10.778  67.642  1.00  0.00    -0.384 A  
HETATM   11  C   UNL     1     -11.161  11.856  66.753  1.00  0.00    -0.359 A  
HETATM   12  C   UNL     1     -11.633  13.097  67.184  1.00  0.00    -0.410 A  
HETATM   13  C   UNL     1     -12.023  13.256  68.507  1.00  0.00    -0.304 A  
HETATM   14  C   UNL     1     -11.966  12.189  69.395  1.00  0.00    -0.329 A  
HETATM   15  O   UNL     1     -12.470  14.455  68.973  1.00  0.00    -0.561 OA 
HETATM   16  C   UNL     1     -11.476  10.953  68.966  1.00  0.00    -0.371 A  
HETATM   17  H   UNL     1     -12.737  14.563  69.878  1.00  0.00     0.000 HD 
ENDBRANCH   4  10
TORSDOF 1
ENDMDL
MODEL       96
REMARK 921   NORMALIZED FREE ENERGY PREDICTED BY IDOCK:   -3.58 KCAL/MOL
REMARK 922        TOTAL FREE ENERGY PREDICTED BY IDOCK:   -3.85 KCAL/MOL
REMARK 923 INTER-LIGAND FREE ENERGY PREDICTED BY IDOCK:   -3.77 KCAL/MOL
REMARK 924 INTRA-LIGAND FREE ENERGY PREDICTED BY IDOCK:   -0.08 KCAL/MOL
REMARK 927      BINDING AFFINITY PREDICTED BY RF-SCORE:    0.00 PKD
ROOT
HETATM    1  C   UNL     1     -11.868  12.937  67.380  1.00  0.00    -0.418 C  
HETATM    2  C   UNL     1     -10.862  12.771  66.234  1.00  0.00    -0.275 C  
HETATM    3  C   UNL     1     -10.283  14.175  65.920  1.00  0.00    -0.319 C  
HETATM    4  C   UNL     1      -9.656  11.871  66.631  1.00  0.00    -0.220 C  
HETATM    5  N   UNL     1     -11.589  12.243  65.057  1.00  0.00    -0.342 NA 
HETATM    6  H2  UNL     1     -12.390  12.820  64.798  1.00  0.00     0.000 HD 
HETATM    7  O   UNL     1     -10.569  14.604  64.665  1.00  0.00    -0.392 OA 
HETATM    8  H1  UNL     1     -10.921  12.133  64.296  1.00  0.00     0.000 HD 
HETATM    9  O   UNL     1      -9.635  14.856  66.702  1.00  0.00    -0.240 OA 
ENDROOT
BRANCH   4  10
HETATM   10  C   UNL     1      -9.967  10.452  67.071  1.00  0.00    -0.252 A  
HETATM   11  C   UNL     1     -10.211  10.145  68.417  1.00  0.00    -0.192 A  
HETATM   12  C   UNL     1     -10.464   8.834  68.823  1.00  0.00    -0.214 A  
HETATM   13  C   UNL     1     -10.507   7.823  67.872  1.00  0.00    -0.201 A  
HETATM   14  C   UNL     1     -10.321   8.109  66.525  1.00  0.00    -0.162 A  
HETATM   15  O   UNL     1     -10.731   6.527  68.228  1.00  0.00    -0.224 OA 
HETATM   16  C   UNL     1     -10.050   9.420  66.124  1.00  0.00    -0.324 A  
HETATM   17  H   UNL     1     -10.760   5.836  67.577  1.00  0.00     0.000 HD 
ENDBRANCH   4  10
TORSDOF 1
ENDMDL
MODEL       97
REMARK 921   NORMALIZED FREE ENERGY PREDICTED BY IDOCK:   -3.57 KCAL/MOL
REMARK 922        TOTAL FREE ENERGY PREDICTED BY IDOCK:   -3.85 KCAL/MOL
REMARK 923 INTER-LIGAND FREE ENERGY PREDICTED BY IDOCK:   -3.77 KCAL/MOL
REMARK 924 INTRA-LIGAND FREE ENERGY PREDICTED BY IDOCK:   -0.08 KCAL/MOL
REMARK 927      BINDING AFFINITY PREDICTED BY RF-SCORE:    0.00 PKD
ROOT
HETATM    1  C   UNL     1     -10.370   9.144  71.623  1.00  0.00    -0.388 C  
HETATM    2  C   UNL     1     -11.573   8.210  71.807  1.00  0.00    -0.291 C  
HETATM    3  C   UNL     1     -12.848   9.094  71.803  1.00  0.00    -0.377 C  
HETATM    4  C   UNL     1     -11.725   7.204  70.630  1.00  0.00    -0.348 C  
HETATM    5  N   UNL     1     -11.429   7.527  73.112  1.00  0.00    -0.614 NA 
HETATM    6  H2  UNL     1     -11.314   8.180  73.888  1.00  0.00     0.000 HD 
HETATM    7  O   UNL     1     -13.533   9.051  72.973  1.00  0.00    -0.300 OA 
HETATM    8  H1  UNL     1     -12.229   6.907  73.234  1.00  0.00     0.000 HD 
HETATM    9  O   UNL     1     -13.224   9.776  70.861  1.00  0.00    -0.315 OA 
ENDROOT
BRANCH   4  10
HETATM   10  C   UNL     1     -10.559   6.271  70.362  1.00  0.00    -0.309 A  
HETATM   11  C   UNL     1      -9.518   6.638  69.498  1.00  0.00    -0.148 A  
HETATM   12  C   UNL     1      -8.463   5.763  69.228  1.00  0.00    -0.108 A  
HETATM   13  C   UNL     1      -8.430   4.524  69.853  1.00  0.00    -0.065 A  
HETATM   14  C   UNL     1      -9.421   4.158  70.754  1.00  0.00    -0.242 A  
HETATM   15  O   UNL     1      -7.429   3.634  69.603  1.00  0.00    -0.051 OA 
HETATM   16  C   UNL     1     -10.485   5.027  71.008  1.00  0.00    -0.211 A  
HETATM   17  H   UNL     1      -7.407   2.785  70.030  1.00  0.00     0.000 HD 
ENDBRANCH   4  10
TORSDOF 1
ENDMDL
MODEL       98
REMARK 921   NORMALIZED FREE ENERGY PREDICTED BY IDOCK:   -3.56 KCAL/MOL
REMARK 922        TOTAL FREE ENERGY PREDICTED BY IDOCK:   -3.83 KCAL/MOL
REMARK 923 INTER-LIGAND FREE ENERGY PREDICTED BY IDOCK:   -4.38 KCAL/MOL
REMARK 924 INTRA-LIGAND FREE ENERGY PREDICTED BY IDOCK:    0.55 KCAL/MOL
REMARK 927      BINDING AFFINITY PREDICTED BY RF-SCORE:    0.00 PKD
ROOT
HETATM    1  C   UNL     1     -11.844  14.448  67.010  1.00  0.00    -0.437 C  
HETATM    2  C   UNL     1     -11.629  13.782  65.645  1.00  0.00    -0.330 C  
HETATM    3  C   UNL     1     -11.815  14.878  64.563  1.00  0.00    -0.396 C  
HETATM    4  C   UNL     1     -10.183  13.232  65.476  1.00  0.00    -0.298 C  
HETATM    5  N   UNL     1     -12.652  12.725  65.484  1.00  0.00    -0.610 NA 
HETATM    6  H2  UNL     1     -13.602  13.074  65.606  1.00  0.00     0.000 HD 
HETATM    7  O   UNL     1     -12.856  14.633  63.727  1.00  0.00    -0.677 OA 
HETATM    8  H1  UNL     1     -12.509  12.283  64.576  1.00  0.00     0.000 HD 
HETATM    9  O   UNL     1     -11.118  15.875  64.448  1.00  0.00    -0.486 OA 
ENDROOT
BRANCH   4  10
HETATM   10  C   UNL     1      -9.716  12.195  66.481  1.00  0.00    -0.234 A  
HETATM   11  C   UNL     1     -10.387  12.008  67.698  1.00  0.00    -0.213 A  
HETATM   12  C   UNL     1      -9.935  11.076  68.634  1.00  0.00    -0.205 A  
HETATM   13  C   UNL     1      -8.822  10.300  68.339  1.00  0.00    -0.129 A  
HETATM   14  C   UNL     1      -8.171  10.429  67.119  1.00  0.00    -0.122 A  
HETATM   15  O   UNL     1      -8.337   9.393  69.232  1.00  0.00    -0.118 OA 
HETATM   16  C   UNL     1      -8.614  11.375  66.192  1.00  0.00    -0.128 A  
HETATM   17  H   UNL     1      -7.575   8.862  69.031  1.00  0.00     0.000 HD 
ENDBRANCH   4  10
TORSDOF 1
ENDMDL
MODEL       99
REMARK 921   NORMALIZED FREE ENERGY PREDICTED BY IDOCK:   -3.56 KCAL/MOL
REMARK 922        TOTAL FREE ENERGY PREDICTED BY IDOCK:   -3.83 KCAL/MOL
REMARK 923 INTER-LIGAND FREE ENERGY PREDICTED BY IDOCK:   -3.82 KCAL/MOL
REMARK 924 INTRA-LIGAND FREE ENERGY PREDICTED BY IDOCK:   -0.02 KCAL/MOL
REMARK 927      BINDING AFFINITY PREDICTED BY RF-SCORE:    0.00 PKD
ROOT
HETATM    1  C   UNL     1      -9.363   7.625  66.957  1.00  0.00    -0.195 C  
HETATM    2  C   UNL     1      -9.750   6.148  67.105  1.00  0.00    -0.135 C  
HETATM    3  C   UNL     1      -8.868   5.339  66.119  1.00  0.00    -0.135 C  
HETATM    4  C   UNL     1      -9.446   5.598  68.529  1.00  0.00    -0.149 C  
HETATM    5  N   UNL     1     -11.179   6.009  66.745  1.00  0.00    -0.696 NA 
HETATM    6  H2  UNL     1     -11.389   6.380  65.818  1.00  0.00     0.000 HD 
HETATM    7  O   UNL     1      -9.584   4.699  65.161  1.00  0.00    -0.166 OA 
HETATM    8  H1  UNL     1     -11.435   5.027  66.844  1.00  0.00     0.000 HD 
HETATM    9  O   UNL     1      -7.649   5.266  66.168  1.00  0.00    -0.085 OA 
ENDROOT
BRANCH   4  10
HETATM   10  C   UNL     1     -10.127   6.287  69.697  1.00  0.00    -0.215 A  
HETATM   11  C   UNL     1     -11.523   6.280  69.832  1.00  0.00    -0.459 A  
HETATM   12  C   UNL     1     -12.147   6.943  70.890  1.00  0.00    -0.424 A  
HETATM   13  C   UNL     1     -11.370   7.591  71.841  1.00  0.00    -0.260 A  
HETATM   14  C   UNL     1      -9.984   7.568  71.759  1.00  0.00    -0.200 A  
HETATM   15  O   UNL     1     -11.941   8.266  72.878  1.00  0.00    -0.535 OA 
HETATM   16  C   UNL     1      -9.362   6.920  70.688  1.00  0.00    -0.162 A  
HETATM   17  H   UNL     1     -11.409   8.711  73.528  1.00  0.00     0.000 HD 
ENDBRANCH   4  10
TORSDOF 1
ENDMDL
MODEL      100
REMARK 921   NORMALIZED FREE ENERGY PREDICTED BY IDOCK:   -3.55 KCAL/MOL
REMARK 922        TOTAL FREE ENERGY PREDICTED BY IDOCK:   -3.82 KCAL/MOL
REMARK 923 INTER-LIGAND FREE ENERGY PREDICTED BY IDOCK:   -3.75 KCAL/MOL
REMARK 924 INTRA-LIGAND FREE ENERGY PREDICTED BY IDOCK:   -0.08 KCAL/MOL
REMARK 927      BINDING AFFINITY PREDICTED BY RF-SCORE:    0.00 PKD
ROOT
HETATM    1  C   UNL     1     -11.556  11.945  67.906  1.00  0.00    -0.393 C  
HETATM    2  C   UNL     1     -10.055  11.904  67.594  1.00  0.00    -0.191 C  
HETATM    3  C   UNL     1      -9.813  10.702  66.645  1.00  0.00    -0.201 C  
HETATM    4  C   UNL     1      -9.574  13.174  66.834  1.00  0.00    -0.248 C  
HETATM    5  N   UNL     1      -9.327  11.705  68.867  1.00  0.00    -0.404 NA 
HETATM    6  H2  UNL     1      -9.645  10.882  69.379  1.00  0.00     0.000 HD 
HETATM    7  O   UNL     1      -9.008   9.750  67.181  1.00  0.00    -0.134 OA 
HETATM    8  H1  UNL     1      -8.329  11.678  68.659  1.00  0.00     0.000 HD 
HETATM    9  O   UNL     1     -10.287  10.588  65.524  1.00  0.00    -0.270 OA 
ENDROOT
BRANCH   4  10
HETATM   10  C   UNL     1      -9.783  14.511  67.521  1.00  0.00    -0.211 A  
HETATM   11  C   UNL     1     -10.971  15.237  67.355  1.00  0.00    -0.321 A  
HETATM   12  C   UNL     1     -11.146  16.481  67.962  1.00  0.00    -0.275 A  
HETATM   13  C   UNL     1     -10.139  16.993  68.769  1.00  0.00    -0.307 A  
HETATM   14  C   UNL     1      -8.974  16.271  68.992  1.00  0.00    -0.254 A  
HETATM   15  O   UNL     1     -10.261  18.213  69.363  1.00  0.00    -0.363 OA 
HETATM   16  C   UNL     1      -8.793  15.033  68.368  1.00  0.00    -0.178 A  
HETATM   17  H   UNL     1      -9.571  18.563  69.915  1.00  0.00     0.000 HD 
ENDBRANCH   4  10
TORSDOF 1
ENDMDL
MODEL      101
REMARK 921   NORMALIZED FREE ENERGY PREDICTED BY IDOCK:   -3.54 KCAL/MOL
REMARK 922        TOTAL FREE ENERGY PREDICTED BY IDOCK:   -3.82 KCAL/MOL
REMARK 923 INTER-LIGAND FREE ENERGY PREDICTED BY IDOCK:   -3.77 KCAL/MOL
REMARK 924 INTRA-LIGAND FREE ENERGY PREDICTED BY IDOCK:   -0.04 KCAL/MOL
REMARK 927      BINDING AFFINITY PREDICTED BY RF-SCORE:    0.00 PKD
ROOT
HETATM    1  C   UNL     1     -10.586  17.136  68.052  1.00  0.00    -0.374 C  
HETATM    2  C   UNL     1      -9.567  18.140  67.497  1.00  0.00    -0.280 C  
HETATM    3  C   UNL     1     -10.187  19.554  67.640  1.00  0.00    -0.434 C  
HETATM    4  C   UNL     1      -8.243  18.150  68.314  1.00  0.00    -0.300 C  
HETATM    5  N   UNL     1      -9.341  17.822  66.070  1.00  0.00    -0.523 NA 
HETATM    6  H2  UNL     1     -10.206  17.800  65.529  1.00  0.00     0.000 HD 
HETATM    7  O   UNL     1     -10.386  20.174  66.450  1.00  0.00    -0.440 OA 
HETATM    8  H1  UNL     1      -8.663  18.490  65.701  1.00  0.00     0.000 HD 
HETATM    9  O   UNL     1     -10.483  20.085  68.700  1.00  0.00    -0.399 OA 
ENDROOT
BRANCH   4  10
HETATM   10  C   UNL     1      -7.477  16.843  68.407  1.00  0.00    -0.206 A  
HETATM   11  C   UNL     1      -7.843  15.849  69.324  1.00  0.00    -0.226 A  
HETATM   12  C   UNL     1      -7.116  14.662  69.429  1.00  0.00    -0.157 A  
HETATM   13  C   UNL     1      -6.032  14.451  68.587  1.00  0.00    -0.085 A  
HETATM   14  C   UNL     1      -5.681  15.397  67.633  1.00  0.00    -0.097 A  
HETATM   15  O   UNL     1      -5.284  13.315  68.670  1.00  0.00    -0.065 OA 
HETATM   16  C   UNL     1      -6.399  16.593  67.543  1.00  0.00    -0.188 A  
HETATM   17  H   UNL     1      -4.542  13.171  68.094  1.00  0.00     0.000 HD 
ENDBRANCH   4  10
TORSDOF 1
ENDMDL
MODEL      102
REMARK 921   NORMALIZED FREE ENERGY PREDICTED BY IDOCK:   -3.52 KCAL/MOL
REMARK 922        TOTAL FREE ENERGY PREDICTED BY IDOCK:   -3.80 KCAL/MOL
REMARK 923 INTER-LIGAND FREE ENERGY PREDICTED BY IDOCK:   -3.98 KCAL/MOL
REMARK 924 INTRA-LIGAND FREE ENERGY PREDICTED BY IDOCK:    0.18 KCAL/MOL
REMARK 927      BINDING AFFINITY PREDICTED BY RF-SCORE:    0.00 PKD
ROOT
HETATM    1  C   UNL     1     -10.578  10.055  70.180  1.00  0.00    -0.350 C  
HETATM    2  C   UNL     1      -9.938   9.321  68.995  1.00  0.00    -0.182 C  
HETATM    3  C   UNL     1      -9.929   7.809  69.339  1.00  0.00    -0.188 C  
HETATM    4  C   UNL     1     -10.767   9.475  67.687  1.00  0.00    -0.314 C  
HETATM    5  N   UNL     1      -8.553   9.818  68.841  1.00  0.00    -0.128 NA 
HETATM    6  H2  UNL     1      -8.006   9.734  69.698  1.00  0.00     0.000 HD 
HETATM    7  O   UNL     1      -8.680   7.286  69.426  1.00  0.00    -0.136 OA 
HETATM    8  H1  UNL     1      -8.127   9.330  68.053  1.00  0.00     0.000 HD 
HETATM    9  O   UNL     1     -10.927   7.127  69.523  1.00  0.00    -0.238 OA 
ENDROOT
BRANCH   4  10
HETATM   10  C   UNL     1     -11.000  10.886  67.178  1.00  0.00    -0.334 A  
HETATM   11  C   UNL     1     -11.652  11.845  67.966  1.00  0.00    -0.401 A  
HETATM   12  C   UNL     1     -11.894  13.131  67.482  1.00  0.00    -0.409 A  
HETATM   13  C   UNL     1     -11.452  13.475  66.211  1.00  0.00    -0.326 A  
HETATM   14  C   UNL     1     -10.756  12.560  65.431  1.00  0.00    -0.312 A  
HETATM   15  O   UNL     1     -11.684  14.714  65.694  1.00  0.00    -0.347 OA 
HETATM   16  C   UNL     1     -10.532  11.267  65.911  1.00  0.00    -0.314 A  
HETATM   17  H   UNL     1     -11.382  14.949  64.824  1.00  0.00     0.000 HD 
ENDBRANCH   4  10
TORSDOF 1
ENDMDL
MODEL      103
REMARK 921   NORMALIZED FREE ENERGY PREDICTED BY IDOCK:   -3.50 KCAL/MOL
REMARK 922        TOTAL FREE ENERGY PREDICTED BY IDOCK:   -3.77 KCAL/MOL
REMARK 923 INTER-LIGAND FREE ENERGY PREDICTED BY IDOCK:   -3.66 KCAL/MOL
REMARK 924 INTRA-LIGAND FREE ENERGY PREDICTED BY IDOCK:   -0.11 KCAL/MOL
REMARK 927      BINDING AFFINITY PREDICTED BY RF-SCORE:    0.00 PKD
ROOT
HETATM    1  C   UNL     1      -9.161   9.931  69.294  1.00  0.00    -0.196 C  
HETATM    2  C   UNL     1     -10.646   9.879  68.913  1.00  0.00    -0.218 C  
HETATM    3  C   UNL     1     -11.223  11.305  69.109  1.00  0.00    -0.273 C  
HETATM    4  C   UNL     1     -10.859   9.514  67.415  1.00  0.00    -0.215 C  
HETATM    5  N   UNL     1     -11.320   8.925  69.822  1.00  0.00    -0.442 NA 
HETATM    6  H2  UNL     1     -11.174   9.149  70.807  1.00  0.00     0.000 HD 
HETATM    7  O   UNL     1     -12.195  11.364  70.054  1.00  0.00    -0.309 OA 
HETATM    8  H1  UNL     1     -12.307   8.891  69.569  1.00  0.00     0.000 HD 
HETATM    9  O   UNL     1     -10.860  12.298  68.495  1.00  0.00    -0.219 OA 
ENDROOT
BRANCH   4  10
HETATM   10  C   UNL     1     -10.299   8.187  66.940  1.00  0.00    -0.401 A  
HETATM   11  C   UNL     1     -10.967   6.981  67.198  1.00  0.00    -0.393 A  
HETATM   12  C   UNL     1     -10.433   5.759  66.787  1.00  0.00    -0.350 A  
HETATM   13  C   UNL     1      -9.236   5.741  66.084  1.00  0.00    -0.156 A  
HETATM   14  C   UNL     1      -8.581   6.925  65.769  1.00  0.00    -0.139 A  
HETATM   15  O   UNL     1      -8.670   4.568  65.682  1.00  0.00    -0.119 OA 
HETATM   16  C   UNL     1      -9.109   8.146  66.197  1.00  0.00    -0.232 A  
HETATM   17  H   UNL     1      -7.851   4.556  65.201  1.00  0.00     0.000 HD 
ENDBRANCH   4  10
TORSDOF 1
ENDMDL
MODEL      104
REMARK 921   NORMALIZED FREE ENERGY PREDICTED BY IDOCK:   -3.50 KCAL/MOL
REMARK 922        TOTAL FREE ENERGY PREDICTED BY IDOCK:   -3.77 KCAL/MOL
REMARK 923 INTER-LIGAND FREE ENERGY PREDICTED BY IDOCK:   -3.69 KCAL/MOL
REMARK 924 INTRA-LIGAND FREE ENERGY PREDICTED BY IDOCK:   -0.08 KCAL/MOL
REMARK 927      BINDING AFFINITY PREDICTED BY RF-SCORE:    0.00 PKD
ROOT
HETATM    1  C   UNL     1      -9.233  10.763  68.865  1.00  0.00    -0.180 C  
HETATM    2  C   UNL     1      -8.164  11.611  68.165  1.00  0.00    -0.151 C  
HETATM    3  C   UNL     1      -6.827  10.828  68.248  1.00  0.00    -0.067 C  
HETATM    4  C   UNL     1      -8.467  11.814  66.652  1.00  0.00    -0.153 C  
HETATM    5  N   UNL     1      -8.049  12.896  68.890  1.00  0.00    -0.339 NA 
HETATM    6  H2  UNL     1      -7.864  12.771  69.885  1.00  0.00     0.000 HD 
HETATM    7  O   UNL     1      -5.869  11.477  68.956  1.00  0.00    -0.047 OA 
HETATM    8  H1  UNL     1      -7.338  13.459  68.424  1.00  0.00     0.000 HD 
HETATM    9  O   UNL     1      -6.624   9.734  67.743  1.00  0.00    -0.067 OA 
ENDROOT
BRANCH   4  10
HETATM   10  C   UNL     1      -9.779  12.488  66.294  1.00  0.00    -0.259 A  
HETATM   11  C   UNL     1     -10.929  11.737  66.015  1.00  0.00    -0.355 A  
HETATM   12  C   UNL     1     -12.126  12.360  65.654  1.00  0.00    -0.396 A  
HETATM   13  C   UNL     1     -12.183  13.746  65.603  1.00  0.00    -0.454 A  
HETATM   14  C   UNL     1     -11.073  14.514  65.926  1.00  0.00    -0.327 A  
HETATM   15  O   UNL     1     -13.326  14.392  65.236  1.00  0.00    -0.574 OA 
HETATM   16  C   UNL     1      -9.871  13.888  66.269  1.00  0.00    -0.318 A  
HETATM   17  H   UNL     1     -13.365  15.341  65.201  1.00  0.00     0.000 HD 
ENDBRANCH   4  10
TORSDOF 1
ENDMDL
MODEL      105
REMARK 921   NORMALIZED FREE ENERGY PREDICTED BY IDOCK:   -3.48 KCAL/MOL
REMARK 922        TOTAL FREE ENERGY PREDICTED BY IDOCK:   -3.76 KCAL/MOL
REMARK 923 INTER-LIGAND FREE ENERGY PREDICTED BY IDOCK:   -3.65 KCAL/MOL
REMARK 924 INTRA-LIGAND FREE ENERGY PREDICTED BY IDOCK:   -0.10 KCAL/MOL
REMARK 927      BINDING AFFINITY PREDICTED BY RF-SCORE:    0.00 PKD
ROOT
HETATM    1  C   UNL     1      -9.317   8.108  71.360  1.00  0.00    -0.200 C  
HETATM    2  C   UNL     1      -9.293   6.674  71.905  1.00  0.00    -0.147 C  
HETATM    3  C   UNL     1      -9.572   6.755  73.428  1.00  0.00    -0.171 C  
HETATM    4  C   UNL     1     -10.417   5.790  71.293  1.00  0.00    -0.295 C  
HETATM    5  N   UNL     1      -7.945   6.114  71.661  1.00  0.00    -0.102 NA 
HETATM    6  H2  UNL     1      -7.200   6.695  72.047  1.00  0.00     0.000 HD 
HETATM    7  O   UNL     1      -8.539   6.308  74.186  1.00  0.00    -0.118 OA 
HETATM    8  H1  UNL     1      -7.928   5.161  72.023  1.00  0.00     0.000 HD 
HETATM    9  O   UNL     1     -10.603   7.177  73.930  1.00  0.00    -0.362 OA 
ENDROOT
BRANCH   4  10
HETATM   10  C   UNL     1     -10.421   5.621  69.784  1.00  0.00    -0.377 A  
HETATM   11  C   UNL     1      -9.740   4.561  69.169  1.00  0.00    -0.250 A  
HETATM   12  C   UNL     1      -9.719   4.428  67.780  1.00  0.00    -0.191 A  
HETATM   13  C   UNL     1     -10.411   5.343  66.998  1.00  0.00    -0.257 A  
HETATM   14  C   UNL     1     -11.137   6.371  67.585  1.00  0.00    -0.388 A  
HETATM   15  O   UNL     1     -10.400   5.261  65.638  1.00  0.00    -0.420 OA 
HETATM   16  C   UNL     1     -11.141   6.513  68.975  1.00  0.00    -0.375 A  
HETATM   17  H   UNL     1     -10.873   5.888  65.103  1.00  0.00     0.000 HD 
ENDBRANCH   4  10
TORSDOF 1
ENDMDL
MODEL      106
REMARK 921   NORMALIZED FREE ENERGY PREDICTED BY IDOCK:   -3.47 KCAL/MOL
REMARK 922        TOTAL FREE ENERGY PREDICTED BY IDOCK:   -3.74 KCAL/MOL
REMARK 923 INTER-LIGAND FREE ENERGY PREDICTED BY IDOCK:   -3.64 KCAL/MOL
REMARK 924 INTRA-LIGAND FREE ENERGY PREDICTED BY IDOCK:   -0.11 KCAL/MOL
REMARK 927      BINDING AFFINITY PREDICTED BY RF-SCORE:    0.00 PKD
ROOT
HETATM    1  C   UNL     1     -11.470   6.260  70.851  1.00  0.00    -0.377 C  
HETATM    2  C   UNL     1     -11.328   7.749  71.187  1.00  0.00    -0.269 C  
HETATM    3  C   UNL     1     -11.356   7.878  72.732  1.00  0.00    -0.393 C  
HETATM    4  C   UNL     1      -9.965   8.334  70.716  1.00  0.00    -0.217 C  
HETATM    5  N   UNL     1     -12.479   8.466  70.594  1.00  0.00    -0.449 NA 
HETATM    6  H2  UNL     1     -13.377   8.080  70.886  1.00  0.00     0.000 HD 
HETATM    7  O   UNL     1     -12.409   8.600  73.191  1.00  0.00    -0.059 OA 
HETATM    8  H1  UNL     1     -12.384   9.456  70.818  1.00  0.00     0.000 HD 
HETATM    9  O   UNL     1     -10.532   7.388  73.491  1.00  0.00    -0.355 OA 
ENDROOT
BRANCH   4  10
HETATM   10  C   UNL     1      -9.651   8.249  69.234  1.00  0.00    -0.164 A  
HETATM   11  C   UNL     1     -10.235   9.132  68.315  1.00  0.00    -0.242 A  
HETATM   12  C   UNL     1      -9.969   9.030  66.948  1.00  0.00    -0.313 A  
HETATM   13  C   UNL     1      -9.085   8.058  66.498  1.00  0.00    -0.173 A  
HETATM   14  C   UNL     1      -8.452   7.206  67.393  1.00  0.00    -0.122 A  
HETATM   15  O   UNL     1      -8.813   7.912  65.171  1.00  0.00    -0.379 OA 
HETATM   16  C   UNL     1      -8.735   7.298  68.759  1.00  0.00    -0.125 A  
HETATM   17  H   UNL     1      -8.208   7.247  64.863  1.00  0.00     0.000 HD 
ENDBRANCH   4  10
TORSDOF 1
ENDMDL
MODEL      107
REMARK 921   NORMALIZED FREE ENERGY PREDICTED BY IDOCK:   -3.46 KCAL/MOL
REMARK 922        TOTAL FREE ENERGY PREDICTED BY IDOCK:   -3.73 KCAL/MOL
REMARK 923 INTER-LIGAND FREE ENERGY PREDICTED BY IDOCK:   -3.71 KCAL/MOL
REMARK 924 INTRA-LIGAND FREE ENERGY PREDICTED BY IDOCK:   -0.02 KCAL/MOL
REMARK 927      BINDING AFFINITY PREDICTED BY RF-SCORE:    0.00 PKD
ROOT
HETATM    1  C   UNL     1      -9.125  10.451  69.111  1.00  0.00    -0.197 C  
HETATM    2  C   UNL     1     -10.051  10.190  67.917  1.00  0.00    -0.176 C  
HETATM    3  C   UNL     1     -10.276   8.658  67.834  1.00  0.00    -0.219 C  
HETATM    4  C   UNL     1     -11.454  10.836  68.104  1.00  0.00    -0.346 C  
HETATM    5  N   UNL     1      -9.371  10.673  66.694  1.00  0.00    -0.163 NA 
HETATM    6  H2  UNL     1      -8.445  10.265  66.571  1.00  0.00     0.000 HD 
HETATM    7  O   UNL     1      -9.806   8.109  66.685  1.00  0.00    -0.228 OA 
HETATM    8  H1  UNL     1      -9.987  10.499  65.900  1.00  0.00     0.000 HD 
HETATM    9  O   UNL     1     -10.814   7.981  68.698  1.00  0.00    -0.079 OA 
ENDROOT
BRANCH   4  10
HETATM   10  C   UNL     1     -11.503  12.340  68.298  1.00  0.00    -0.367 A  
HETATM   11  C   UNL     1     -11.892  12.903  69.522  1.00  0.00    -0.383 A  
HETATM   12  C   UNL     1     -11.967  14.287  69.687  1.00  0.00    -0.387 A  
HETATM   13  C   UNL     1     -11.618  15.119  68.632  1.00  0.00    -0.338 A  
HETATM   14  C   UNL     1     -11.179  14.587  67.426  1.00  0.00    -0.337 A  
HETATM   15  O   UNL     1     -11.696  16.474  68.745  1.00  0.00    -0.186 OA 
HETATM   16  C   UNL     1     -11.123  13.201  67.257  1.00  0.00    -0.305 A  
HETATM   17  H   UNL     1     -11.458  17.043  68.022  1.00  0.00     0.000 HD 
ENDBRANCH   4  10
TORSDOF 1
ENDMDL
MODEL      108
REMARK 921   NORMALIZED FREE ENERGY PREDICTED BY IDOCK:   -3.46 KCAL/MOL
REMARK 922        TOTAL FREE ENERGY PREDICTED BY IDOCK:   -3.73 KCAL/MOL
REMARK 923 INTER-LIGAND FREE ENERGY PREDICTED BY IDOCK:   -3.64 KCAL/MOL
REMARK 924 INTRA-LIGAND FREE ENERGY PREDICTED BY IDOCK:   -0.09 KCAL/MOL
REMARK 927      BINDING AFFINITY PREDICTED BY RF-SCORE:    0.00 PKD
ROOT
HETATM    1  C   UNL     1     -12.149   6.904  70.668  1.00  0.00    -0.363 C  
HETATM    2  C   UNL     1     -11.317   7.911  71.471  1.00  0.00    -0.256 C  
HETATM    3  C   UNL     1     -12.114   9.241  71.509  1.00  0.00    -0.361 C  
HETATM    4  C   UNL     1     -11.120   7.468  72.950  1.00  0.00    -0.426 C  
HETATM    5  N   UNL     1     -10.029   8.106  70.769  1.00  0.00    -0.187 NA 
HETATM    6  H2  UNL     1     -10.149   8.383  69.794  1.00  0.00     0.000 HD 
HETATM    7  O   UNL     1     -11.470  10.268  70.899  1.00  0.00    -0.338 OA 
HETATM    8  H1  UNL     1      -9.476   8.776  71.303  1.00  0.00     0.000 HD 
HETATM    9  O   UNL     1     -13.213   9.385  72.023  1.00  0.00    -0.384 OA 
ENDROOT
BRANCH   4  10
HETATM   10  C   UNL     1     -10.434   6.136  73.187  1.00  0.00    -0.254 A  
HETATM   11  C   UNL     1     -11.174   4.971  73.434  1.00  0.00    -0.391 A  
HETATM   12  C   UNL     1     -10.539   3.753  73.685  1.00  0.00    -0.285 A  
HETATM   13  C   UNL     1      -9.153   3.690  73.656  1.00  0.00    -0.094 A  
HETATM   14  C   UNL     1      -8.398   4.818  73.362  1.00  0.00    -0.103 A  
HETATM   15  O   UNL     1      -8.493   2.526  73.915  1.00  0.00    -0.069 OA 
HETATM   16  C   UNL     1      -9.035   6.039  73.130  1.00  0.00    -0.130 A  
HETATM   17  H   UNL     1      -7.544   2.483  73.896  1.00  0.00     0.000 HD 
ENDBRANCH   4  10
TORSDOF 1
ENDMDL
MODEL      109
REMARK 921   NORMALIZED FREE ENERGY PREDICTED BY IDOCK:   -3.44 KCAL/MOL
REMARK 922        TOTAL FREE ENERGY PREDICTED BY IDOCK:   -3.71 KCAL/MOL
REMARK 923 INTER-LIGAND FREE ENERGY PREDICTED BY IDOCK:   -3.60 KCAL/MOL
REMARK 924 INTRA-LIGAND FREE ENERGY PREDICTED BY IDOCK:   -0.11 KCAL/MOL
REMARK 927      BINDING AFFINITY PREDICTED BY RF-SCORE:    0.00 PKD
ROOT
HETATM    1  C   UNL     1     -11.910  12.819  68.275  1.00  0.00    -0.357 C  
HETATM    2  C   UNL     1     -10.931  12.336  67.198  1.00  0.00    -0.262 C  
HETATM    3  C   UNL     1     -10.296  13.595  66.553  1.00  0.00    -0.282 C  
HETATM    4  C   UNL     1      -9.761  11.502  67.794  1.00  0.00    -0.180 C  
HETATM    5  N   UNL     1     -11.700  11.577  66.186  1.00  0.00    -0.284 NA 
HETATM    6  H2  UNL     1     -12.478  12.111  65.800  1.00  0.00     0.000 HD 
HETATM    7  O   UNL     1     -10.582  13.724  65.233  1.00  0.00    -0.317 OA 
HETATM    8  H1  UNL     1     -11.049  11.255  65.470  1.00  0.00     0.000 HD 
HETATM    9  O   UNL     1      -9.606  14.412  67.145  1.00  0.00    -0.236 OA 
ENDROOT
BRANCH   4  10
HETATM   10  C   UNL     1     -10.127  10.247  68.564  1.00  0.00    -0.181 A  
HETATM   11  C   UNL     1     -10.259   9.010  67.917  1.00  0.00    -0.272 A  
HETATM   12  C   UNL     1     -10.628   7.863  68.622  1.00  0.00    -0.145 A  
HETATM   13  C   UNL     1     -10.836   7.945  69.993  1.00  0.00    -0.238 A  
HETATM   14  C   UNL     1     -10.660   9.147  70.666  1.00  0.00    -0.305 A  
HETATM   15  O   UNL     1     -11.216   6.854  70.716  1.00  0.00    -0.263 OA 
HETATM   16  C   UNL     1     -10.309  10.297  69.954  1.00  0.00    -0.281 A  
HETATM   17  H   UNL     1     -11.358   6.910  71.653  1.00  0.00     0.000 HD 
ENDBRANCH   4  10
TORSDOF 1
ENDMDL
MODEL      110
REMARK 921   NORMALIZED FREE ENERGY PREDICTED BY IDOCK:   -3.40 KCAL/MOL
REMARK 922        TOTAL FREE ENERGY PREDICTED BY IDOCK:   -3.67 KCAL/MOL
REMARK 923 INTER-LIGAND FREE ENERGY PREDICTED BY IDOCK:   -3.85 KCAL/MOL
REMARK 924 INTRA-LIGAND FREE ENERGY PREDICTED BY IDOCK:    0.18 KCAL/MOL
REMARK 927      BINDING AFFINITY PREDICTED BY RF-SCORE:    0.00 PKD
ROOT
HETATM    1  C   UNL     1      -9.945  11.216  68.354  1.00  0.00    -0.193 C  
HETATM    2  C   UNL     1     -11.305  11.878  68.609  1.00  0.00    -0.276 C  
HETATM    3  C   UNL     1     -11.989  11.096  69.761  1.00  0.00    -0.357 C  
HETATM    4  C   UNL     1     -11.165  13.350  69.092  1.00  0.00    -0.300 C  
HETATM    5  N   UNL     1     -12.108  11.769  67.370  1.00  0.00    -0.530 NA 
HETATM    6  H2  UNL     1     -12.193  10.808  67.038  1.00  0.00     0.000 HD 
HETATM    7  O   UNL     1     -13.146  10.494  69.386  1.00  0.00     0.126 OA 
HETATM    8  H1  UNL     1     -13.012  12.209  67.540  1.00  0.00     0.000 HD 
HETATM    9  O   UNL     1     -11.556  11.007  70.900  1.00  0.00    -0.225 OA 
ENDROOT
BRANCH   4  10
HETATM   10  C   UNL     1     -10.442  14.315  68.170  1.00  0.00    -0.246 A  
HETATM   11  C   UNL     1      -9.118  14.084  67.771  1.00  0.00    -0.192 A  
HETATM   12  C   UNL     1      -8.445  14.990  66.949  1.00  0.00    -0.269 A  
HETATM   13  C   UNL     1      -9.110  16.121  66.495  1.00  0.00    -0.277 A  
HETATM   14  C   UNL     1     -10.438  16.346  66.833  1.00  0.00    -0.289 A  
HETATM   15  O   UNL     1      -8.484  17.040  65.708  1.00  0.00    -0.508 OA 
HETATM   16  C   UNL     1     -11.104  15.447  67.670  1.00  0.00    -0.316 A  
HETATM   17  H   UNL     1      -8.939  17.814  65.398  1.00  0.00     0.000 HD 
ENDBRANCH   4  10
TORSDOF 1
ENDMDL
MODEL      111
REMARK 921   NORMALIZED FREE ENERGY PREDICTED BY IDOCK:   -3.40 KCAL/MOL
REMARK 922        TOTAL FREE ENERGY PREDICTED BY IDOCK:   -3.66 KCAL/MOL
REMARK 923 INTER-LIGAND FREE ENERGY PREDICTED BY IDOCK:   -3.54 KCAL/MOL
REMARK 924 INTRA-LIGAND FREE ENERGY PREDICTED BY IDOCK:   -0.12 KCAL/MOL
REMARK 927      BINDING AFFINITY PREDICTED BY RF-SCORE:    0.00 PKD
ROOT
HETATM    1  C   UNL     1     -10.420   9.336  67.233  1.00  0.00    -0.334 C  
HETATM    2  C   UNL     1      -9.121  10.032  66.806  1.00  0.00    -0.139 C  
HETATM    3  C   UNL     1      -8.398   9.088  65.811  1.00  0.00    -0.128 C  
HETATM    4  C   UNL     1      -9.385  11.363  66.046  1.00  0.00    -0.235 C  
HETATM    5  N   UNL     1      -8.290  10.234  68.015  1.00  0.00    -0.113 NA 
HETATM    6  H2  UNL     1      -8.123   9.368  68.527  1.00  0.00     0.000 HD 
HETATM    7  O   UNL     1      -7.190   8.660  66.259  1.00  0.00    -0.077 OA 
HETATM    8  H1  UNL     1      -7.427  10.696  67.731  1.00  0.00     0.000 HD 
HETATM    9  O   UNL     1      -8.842   8.741  64.726  1.00  0.00    -0.154 OA 
ENDROOT
BRANCH   4  10
HETATM   10  C   UNL     1     -10.166  12.437  66.781  1.00  0.00    -0.234 A  
HETATM   11  C   UNL     1      -9.528  13.333  67.651  1.00  0.00    -0.211 A  
HETATM   12  C   UNL     1     -10.254  14.298  68.350  1.00  0.00    -0.245 A  
HETATM   13  C   UNL     1     -11.626  14.392  68.156  1.00  0.00    -0.329 A  
HETATM   14  C   UNL     1     -12.273  13.552  67.260  1.00  0.00    -0.305 A  
HETATM   15  O   UNL     1     -12.374  15.307  68.833  1.00  0.00    -0.593 OA 
HETATM   16  C   UNL     1     -11.547  12.574  66.575  1.00  0.00    -0.447 A  
HETATM   17  H   UNL     1     -13.313  15.371  68.700  1.00  0.00     0.000 HD 
ENDBRANCH   4  10
TORSDOF 1
ENDMDL
MODEL      112
REMARK 921   NORMALIZED FREE ENERGY PREDICTED BY IDOCK:   -3.39 KCAL/MOL
REMARK 922        TOTAL FREE ENERGY PREDICTED BY IDOCK:   -3.66 KCAL/MOL
REMARK 923 INTER-LIGAND FREE ENERGY PREDICTED BY IDOCK:   -3.58 KCAL/MOL
REMARK 924 INTRA-LIGAND FREE ENERGY PREDICTED BY IDOCK:   -0.08 KCAL/MOL
REMARK 927      BINDING AFFINITY PREDICTED BY RF-SCORE:    0.00 PKD
ROOT
HETATM    1  C   UNL     1      -8.929   8.082  68.475  1.00  0.00    -0.133 C  
HETATM    2  C   UNL     1      -9.264   9.367  69.243  1.00  0.00    -0.159 C  
HETATM    3  C   UNL     1      -9.419  10.502  68.197  1.00  0.00    -0.151 C  
HETATM    4  C   UNL     1     -10.621   9.269  69.998  1.00  0.00    -0.256 C  
HETATM    5  N   UNL     1      -8.137   9.664  70.155  1.00  0.00    -0.177 NA 
HETATM    6  H2  UNL     1      -7.240   9.717  69.670  1.00  0.00     0.000 HD 
HETATM    7  O   UNL     1      -8.504  11.493  68.342  1.00  0.00    -0.149 OA 
HETATM    8  H1  UNL     1      -8.359  10.519  70.665  1.00  0.00     0.000 HD 
HETATM    9  O   UNL     1     -10.265  10.530  67.315  1.00  0.00    -0.195 OA 
ENDROOT
BRANCH   4  10
HETATM   10  C   UNL     1     -10.760   8.165  71.029  1.00  0.00    -0.248 A  
HETATM   11  C   UNL     1     -11.215   6.888  70.671  1.00  0.00    -0.346 A  
HETATM   12  C   UNL     1     -11.373   5.884  71.628  1.00  0.00    -0.272 A  
HETATM   13  C   UNL     1     -11.043   6.147  72.951  1.00  0.00    -0.247 A  
HETATM   14  C   UNL     1     -10.540   7.387  73.323  1.00  0.00    -0.442 A  
HETATM   15  O   UNL     1     -11.201   5.202  73.919  1.00  0.00    -0.410 OA 
HETATM   16  C   UNL     1     -10.400   8.396  72.366  1.00  0.00    -0.399 A  
HETATM   17  H   UNL     1     -10.975   5.382  74.825  1.00  0.00     0.000 HD 
ENDBRANCH   4  10
TORSDOF 1
ENDMDL
MODEL      113
REMARK 921   NORMALIZED FREE ENERGY PREDICTED BY IDOCK:   -3.35 KCAL/MOL
REMARK 922        TOTAL FREE ENERGY PREDICTED BY IDOCK:   -3.61 KCAL/MOL
REMARK 923 INTER-LIGAND FREE ENERGY PREDICTED BY IDOCK:   -3.81 KCAL/MOL
REMARK 924 INTRA-LIGAND FREE ENERGY PREDICTED BY IDOCK:    0.20 KCAL/MOL
REMARK 927      BINDING AFFINITY PREDICTED BY RF-SCORE:    0.00 PKD
ROOT
HETATM    1  C   UNL     1      -9.759  15.010  65.912  1.00  0.00    -0.376 C  
HETATM    2  C   UNL     1      -9.049  15.167  67.262  1.00  0.00    -0.198 C  
HETATM    3  C   UNL     1      -8.909  16.688  67.536  1.00  0.00    -0.196 C  
HETATM    4  C   UNL     1      -9.879  14.578  68.439  1.00  0.00    -0.227 C  
HETATM    5  N   UNL     1      -7.712  14.543  67.154  1.00  0.00    -0.330 NA 
HETATM    6  H2  UNL     1      -7.165  14.914  66.377  1.00  0.00     0.000 HD 
HETATM    7  O   UNL     1      -7.620  17.103  67.609  1.00  0.00    -0.163 OA 
HETATM    8  H1  UNL     1      -7.240  14.648  68.052  1.00  0.00     0.000 HD 
HETATM    9  O   UNL     1      -9.844  17.463  67.672  1.00  0.00    -0.267 OA 
ENDROOT
BRANCH   4  10
HETATM   10  C   UNL     1     -10.233  13.104  68.367  1.00  0.00    -0.247 A  
HETATM   11  C   UNL     1      -9.288  12.149  67.965  1.00  0.00    -0.197 A  
HETATM   12  C   UNL     1      -9.626  10.798  67.868  1.00  0.00    -0.171 A  
HETATM   13  C   UNL     1     -10.909  10.391  68.207  1.00  0.00    -0.254 A  
HETATM   14  C   UNL     1     -11.848  11.310  68.659  1.00  0.00    -0.369 A  
HETATM   15  O   UNL     1     -11.285   9.086  68.108  1.00  0.00    -0.469 OA 
HETATM   16  C   UNL     1     -11.513  12.664  68.737  1.00  0.00    -0.349 A  
HETATM   17  H   UNL     1     -12.164   8.807  68.339  1.00  0.00     0.000 HD 
ENDBRANCH   4  10
TORSDOF 1
ENDMDL
MODEL      114
REMARK 921   NORMALIZED FREE ENERGY PREDICTED BY IDOCK:   -3.35 KCAL/MOL
REMARK 922        TOTAL FREE ENERGY PREDICTED BY IDOCK:   -3.61 KCAL/MOL
REMARK 923 INTER-LIGAND FREE ENERGY PREDICTED BY IDOCK:   -3.72 KCAL/MOL
REMARK 924 INTRA-LIGAND FREE ENERGY PREDICTED BY IDOCK:    0.11 KCAL/MOL
REMARK 927      BINDING AFFINITY PREDICTED BY RF-SCORE:    0.00 PKD
ROOT
HETATM    1  C   UNL     1      -8.263  11.035  68.289  1.00  0.00    -0.130 C  
HETATM    2  C   UNL     1      -9.323  10.629  67.257  1.00  0.00    -0.150 C  
HETATM    3  C   UNL     1      -8.582   9.933  66.085  1.00  0.00    -0.128 C  
HETATM    4  C   UNL     1     -10.333   9.591  67.824  1.00  0.00    -0.291 C  
HETATM    5  N   UNL     1      -9.993  11.859  66.779  1.00  0.00    -0.194 NA 
HETATM    6  H2  UNL     1      -9.336  12.551  66.418  1.00  0.00     0.000 HD 
HETATM    7  O   UNL     1      -8.705  10.593  64.906  1.00  0.00    -0.184 OA 
HETATM    8  H1  UNL     1     -10.697  11.589  66.092  1.00  0.00     0.000 HD 
HETATM    9  O   UNL     1      -7.940   8.897  66.180  1.00  0.00    -0.103 OA 
ENDROOT
BRANCH   4  10
HETATM   10  C   UNL     1     -11.134  10.001  69.046  1.00  0.00    -0.221 A  
HETATM   11  C   UNL     1     -11.132   9.221  70.212  1.00  0.00    -0.289 A  
HETATM   12  C   UNL     1     -11.895   9.584  71.323  1.00  0.00    -0.450 A  
HETATM   13  C   UNL     1     -12.642  10.754  71.282  1.00  0.00    -0.426 A  
HETATM   14  C   UNL     1     -12.619  11.571  70.160  1.00  0.00    -0.145 A  
HETATM   15  O   UNL     1     -13.416  11.134  72.338  1.00  0.00    -0.590 OA 
HETATM   16  C   UNL     1     -11.870  11.196  69.042  1.00  0.00    -0.418 A  
HETATM   17  H   UNL     1     -13.927  11.934  72.310  1.00  0.00     0.000 HD 
ENDBRANCH   4  10
TORSDOF 1
ENDMDL
MODEL      115
REMARK 921   NORMALIZED FREE ENERGY PREDICTED BY IDOCK:   -3.31 KCAL/MOL
REMARK 922        TOTAL FREE ENERGY PREDICTED BY IDOCK:   -3.57 KCAL/MOL
REMARK 923 INTER-LIGAND FREE ENERGY PREDICTED BY IDOCK:   -3.53 KCAL/MOL
REMARK 924 INTRA-LIGAND FREE ENERGY PREDICTED BY IDOCK:   -0.04 KCAL/MOL
REMARK 927      BINDING AFFINITY PREDICTED BY RF-SCORE:    0.00 PKD
ROOT
HETATM    1  C   UNL     1     -10.385   9.271  71.045  1.00  0.00    -0.388 C  
HETATM    2  C   UNL     1     -10.082   8.943  69.577  1.00  0.00    -0.198 C  
HETATM    3  C   UNL     1     -10.204   7.405  69.414  1.00  0.00    -0.201 C  
HETATM    4  C   UNL     1     -11.117   9.576  68.604  1.00  0.00    -0.034 C  
HETATM    5  N   UNL     1      -8.699   9.379  69.285  1.00  0.00    -0.138 NA 
HETATM    6  H2  UNL     1      -8.015   8.979  69.927  1.00  0.00     0.000 HD 
HETATM    7  O   UNL     1      -9.039   6.811  69.052  1.00  0.00    -0.138 OA 
HETATM    8  H1  UNL     1      -8.498   9.161  68.309  1.00  0.00     0.000 HD 
HETATM    9  O   UNL     1     -11.228   6.761  69.591  1.00  0.00    -0.295 OA 
ENDROOT
BRANCH   4  10
HETATM   10  C   UNL     1     -11.259  11.087  68.632  1.00  0.00    -0.322 A  
HETATM   11  C   UNL     1     -10.657  11.892  67.655  1.00  0.00    -0.241 A  
HETATM   12  C   UNL     1     -10.761  13.283  67.702  1.00  0.00    -0.250 A  
HETATM   13  C   UNL     1     -11.501  13.876  68.717  1.00  0.00    -0.292 A  
HETATM   14  C   UNL     1     -12.152  13.099  69.666  1.00  0.00    -0.317 A  
HETATM   15  O   UNL     1     -11.613  15.231  68.810  1.00  0.00    -0.326 OA 
HETATM   16  C   UNL     1     -12.030  11.707  69.627  1.00  0.00    -0.390 A  
HETATM   17  H   UNL     1     -12.119  15.636  69.505  1.00  0.00     0.000 HD 
ENDBRANCH   4  10
TORSDOF 1
ENDMDL
MODEL      116
REMARK 921   NORMALIZED FREE ENERGY PREDICTED BY IDOCK:   -3.31 KCAL/MOL
REMARK 922        TOTAL FREE ENERGY PREDICTED BY IDOCK:   -3.57 KCAL/MOL
REMARK 923 INTER-LIGAND FREE ENERGY PREDICTED BY IDOCK:   -3.47 KCAL/MOL
REMARK 924 INTRA-LIGAND FREE ENERGY PREDICTED BY IDOCK:   -0.10 KCAL/MOL
REMARK 927      BINDING AFFINITY PREDICTED BY RF-SCORE:    0.00 PKD
ROOT
HETATM    1  C   UNL     1      -7.707   8.469  70.700  1.00  0.00    -0.081 C  
HETATM    2  C   UNL     1      -8.204   8.545  69.251  1.00  0.00    -0.115 C  
HETATM    3  C   UNL     1      -7.414   7.488  68.436  1.00  0.00    -0.108 C  
HETATM    4  C   UNL     1      -9.709   8.173  69.121  1.00  0.00    -0.163 C  
HETATM    5  N   UNL     1      -7.918   9.904  68.739  1.00  0.00    -0.089 NA 
HETATM    6  H2  UNL     1      -6.935  10.162  68.833  1.00  0.00     0.000 HD 
HETATM    7  O   UNL     1      -6.647   8.031  67.457  1.00  0.00    -0.055 OA 
HETATM    8  H1  UNL     1      -8.248   9.955  67.775  1.00  0.00     0.000 HD 
HETATM    9  O   UNL     1      -7.451   6.283  68.631  1.00  0.00    -0.084 OA 
ENDROOT
BRANCH   4  10
HETATM   10  C   UNL     1     -10.700   9.013  69.906  1.00  0.00    -0.240 A  
HETATM   11  C   UNL     1     -11.048  10.306  69.488  1.00  0.00    -0.310 A  
HETATM   12  C   UNL     1     -11.934  11.088  70.230  1.00  0.00    -0.452 A  
HETATM   13  C   UNL     1     -12.505  10.564  71.382  1.00  0.00    -0.411 A  
HETATM   14  C   UNL     1     -12.218   9.267  71.789  1.00  0.00    -0.457 A  
HETATM   15  O   UNL     1     -13.360  11.301  72.146  1.00  0.00    -0.589 OA 
HETATM   16  C   UNL     1     -11.315   8.493  71.055  1.00  0.00    -0.313 A  
HETATM   17  H   UNL     1     -13.749  10.942  72.935  1.00  0.00     0.000 HD 
ENDBRANCH   4  10
TORSDOF 1
ENDMDL
MODEL      117
REMARK 921   NORMALIZED FREE ENERGY PREDICTED BY IDOCK:   -3.25 KCAL/MOL
REMARK 922        TOTAL FREE ENERGY PREDICTED BY IDOCK:   -3.51 KCAL/MOL
REMARK 923 INTER-LIGAND FREE ENERGY PREDICTED BY IDOCK:   -3.50 KCAL/MOL
REMARK 924 INTRA-LIGAND FREE ENERGY PREDICTED BY IDOCK:   -0.01 KCAL/MOL
REMARK 927      BINDING AFFINITY PREDICTED BY RF-SCORE:    0.00 PKD
ROOT
HETATM    1  C   UNL     1     -10.895   6.363  67.348  1.00  0.00    -0.457 C  
HETATM    2  C   UNL     1      -9.835   7.351  67.849  1.00  0.00    -0.148 C  
HETATM    3  C   UNL     1      -9.631   8.413  66.736  1.00  0.00    -0.219 C  
HETATM    4  C   UNL     1     -10.297   8.121  69.119  1.00  0.00    -0.228 C  
HETATM    5  N   UNL     1      -8.579   6.602  68.075  1.00  0.00    -0.119 NA 
HETATM    6  H2  UNL     1      -8.276   6.082  67.251  1.00  0.00     0.000 HD 
HETATM    7  O   UNL     1      -8.375   8.417  66.223  1.00  0.00    -0.112 OA 
HETATM    8  H1  UNL     1      -7.874   7.259  68.408  1.00  0.00     0.000 HD 
HETATM    9  O   UNL     1     -10.494   9.180  66.335  1.00  0.00    -0.213 OA 
ENDROOT
BRANCH   4  10
HETATM   10  C   UNL     1     -10.648   7.293  70.341  1.00  0.00    -0.240 A  
HETATM   11  C   UNL     1      -9.690   6.488  70.975  1.00  0.00    -0.189 A  
HETATM   12  C   UNL     1     -10.026   5.702  72.078  1.00  0.00    -0.217 A  
HETATM   13  C   UNL     1     -11.321   5.744  72.575  1.00  0.00    -0.307 A  
HETATM   14  C   UNL     1     -12.275   6.573  71.999  1.00  0.00    -0.343 A  
HETATM   15  O   UNL     1     -11.695   4.978  73.639  1.00  0.00    -0.403 OA 
HETATM   16  C   UNL     1     -11.942   7.344  70.883  1.00  0.00    -0.308 A  
HETATM   17  H   UNL     1     -12.582   5.007  73.978  1.00  0.00     0.000 HD 
ENDBRANCH   4  10
TORSDOF 1
ENDMDL
MODEL      118
REMARK 921   NORMALIZED FREE ENERGY PREDICTED BY IDOCK:   -3.23 KCAL/MOL
REMARK 922        TOTAL FREE ENERGY PREDICTED BY IDOCK:   -3.49 KCAL/MOL
REMARK 923 INTER-LIGAND FREE ENERGY PREDICTED BY IDOCK:   -3.41 KCAL/MOL
REMARK 924 INTRA-LIGAND FREE ENERGY PREDICTED BY IDOCK:   -0.08 KCAL/MOL
REMARK 927      BINDING AFFINITY PREDICTED BY RF-SCORE:    0.00 PKD
ROOT
HETATM    1  C   UNL     1     -11.693   9.455  71.079  1.00  0.00    -0.395 C  
HETATM    2  C   UNL     1     -10.621   8.390  71.341  1.00  0.00    -0.234 C  
HETATM    3  C   UNL     1     -11.226   7.360  72.331  1.00  0.00    -0.293 C  
HETATM    4  C   UNL     1     -10.244   7.601  70.054  1.00  0.00    -0.213 C  
HETATM    5  N   UNL     1      -9.450   9.057  71.951  1.00  0.00    -0.344 NA 
HETATM    6  H2  UNL     1      -9.690   9.588  72.789  1.00  0.00     0.000 HD 
HETATM    7  O   UNL     1     -10.566   7.303  73.515  1.00  0.00    -0.368 OA 
HETATM    8  H1  UNL     1      -8.737   8.349  72.126  1.00  0.00     0.000 HD 
HETATM    9  O   UNL     1     -12.201   6.658  72.102  1.00  0.00    -0.299 OA 
ENDROOT
BRANCH   4  10
HETATM   10  C   UNL     1      -9.702   8.403  68.885  1.00  0.00    -0.168 A  
HETATM   11  C   UNL     1     -10.528   8.777  67.816  1.00  0.00    -0.292 A  
HETATM   12  C   UNL     1     -10.019   9.487  66.727  1.00  0.00    -0.297 A  
HETATM   13  C   UNL     1      -8.681   9.855  66.719  1.00  0.00    -0.128 A  
HETATM   14  C   UNL     1      -7.854   9.543  67.790  1.00  0.00    -0.095 A  
HETATM   15  O   UNL     1      -8.140  10.531  65.667  1.00  0.00    -0.156 OA 
HETATM   16  C   UNL     1      -8.361   8.816  68.871  1.00  0.00    -0.127 A  
HETATM   17  H   UNL     1      -7.223  10.782  65.662  1.00  0.00     0.000 HD 
ENDBRANCH   4  10
TORSDOF 1
ENDMDL
MODEL      119
REMARK 921   NORMALIZED FREE ENERGY PREDICTED BY IDOCK:   -3.22 KCAL/MOL
REMARK 922        TOTAL FREE ENERGY PREDICTED BY IDOCK:   -3.48 KCAL/MOL
REMARK 923 INTER-LIGAND FREE ENERGY PREDICTED BY IDOCK:   -3.41 KCAL/MOL
REMARK 924 INTRA-LIGAND FREE ENERGY PREDICTED BY IDOCK:   -0.07 KCAL/MOL
REMARK 927      BINDING AFFINITY PREDICTED BY RF-SCORE:    0.00 PKD
ROOT
HETATM    1  C   UNL     1     -10.751   8.529  69.955  1.00  0.00    -0.224 C  
HETATM    2  C   UNL     1     -10.847   7.287  70.849  1.00  0.00    -0.243 C  
HETATM    3  C   UNL     1     -11.869   7.604  71.972  1.00  0.00    -0.301 C  
HETATM    4  C   UNL     1     -11.396   6.049  70.084  1.00  0.00    -0.351 C  
HETATM    5  N   UNL     1      -9.509   7.036  71.431  1.00  0.00    -0.159 NA 
HETATM    6  H2  UNL     1      -9.135   7.848  71.923  1.00  0.00     0.000 HD 
HETATM    7  O   UNL     1     -11.323   7.587  73.214  1.00  0.00    -0.296 OA 
HETATM    8  H1  UNL     1      -9.573   6.210  72.026  1.00  0.00     0.000 HD 
HETATM    9  O   UNL     1     -13.052   7.853  71.792  1.00  0.00    -0.323 OA 
ENDROOT
BRANCH   4  10
HETATM   10  C   UNL     1     -10.614   5.582  68.870  1.00  0.00    -0.258 A  
HETATM   11  C   UNL     1     -10.841   6.136  67.602  1.00  0.00    -0.421 A  
HETATM   12  C   UNL     1     -10.142   5.682  66.482  1.00  0.00    -0.225 A  
HETATM   13  C   UNL     1      -9.185   4.688  66.634  1.00  0.00    -0.129 A  
HETATM   14  C   UNL     1      -8.903   4.160  67.887  1.00  0.00    -0.131 A  
HETATM   15  O   UNL     1      -8.495   4.203  65.563  1.00  0.00    -0.109 OA 
HETATM   16  C   UNL     1      -9.617   4.603  69.004  1.00  0.00    -0.242 A  
HETATM   17  H   UNL     1      -7.840   3.522  65.667  1.00  0.00     0.000 HD 
ENDBRANCH   4  10
TORSDOF 1
ENDMDL
MODEL      120
REMARK 921   NORMALIZED FREE ENERGY PREDICTED BY IDOCK:   -3.22 KCAL/MOL
REMARK 922        TOTAL FREE ENERGY PREDICTED BY IDOCK:   -3.47 KCAL/MOL
REMARK 923 INTER-LIGAND FREE ENERGY PREDICTED BY IDOCK:   -3.39 KCAL/MOL
REMARK 924 INTRA-LIGAND FREE ENERGY PREDICTED BY IDOCK:   -0.08 KCAL/MOL
REMARK 927      BINDING AFFINITY PREDICTED BY RF-SCORE:    0.00 PKD
ROOT
HETATM    1  C   UNL     1      -8.144   6.478  67.644  1.00  0.00    -0.118 C  
HETATM    2  C   UNL     1      -9.172   6.659  66.519  1.00  0.00    -0.158 C  
HETATM    3  C   UNL     1      -9.517   5.247  65.979  1.00  0.00    -0.156 C  
HETATM    4  C   UNL     1     -10.505   7.279  67.030  1.00  0.00    -0.398 C  
HETATM    5  N   UNL     1      -8.548   7.475  65.454  1.00  0.00    -0.307 NA 
HETATM    6  H2  UNL     1      -7.666   7.084  65.123  1.00  0.00     0.000 HD 
HETATM    7  O   UNL     1      -9.175   5.073  64.678  1.00  0.00    -0.095 OA 
HETATM    8  H1  UNL     1      -9.231   7.595  64.707  1.00  0.00     0.000 HD 
HETATM    9  O   UNL     1     -10.041   4.356  66.632  1.00  0.00    -0.230 OA 
ENDROOT
BRANCH   4  10
HETATM   10  C   UNL     1     -10.425   8.641  67.693  1.00  0.00    -0.311 A  
HETATM   11  C   UNL     1     -10.413   8.772  69.089  1.00  0.00    -0.230 A  
HETATM   12  C   UNL     1     -10.372  10.028  69.695  1.00  0.00    -0.274 A  
HETATM   13  C   UNL     1     -10.310  11.166  68.901  1.00  0.00    -0.201 A  
HETATM   14  C   UNL     1     -10.268  11.062  67.517  1.00  0.00    -0.219 A  
HETATM   15  O   UNL     1     -10.289  12.411  69.452  1.00  0.00    -0.393 OA 
HETATM   16  C   UNL     1     -10.327   9.803  66.912  1.00  0.00    -0.301 A  
HETATM   17  H   UNL     1     -10.247  13.190  68.908  1.00  0.00     0.000 HD 
ENDBRANCH   4  10
TORSDOF 1
ENDMDL
MODEL      121
REMARK 921   NORMALIZED FREE ENERGY PREDICTED BY IDOCK:   -3.20 KCAL/MOL
REMARK 922        TOTAL FREE ENERGY PREDICTED BY IDOCK:   -3.45 KCAL/MOL
REMARK 923 INTER-LIGAND FREE ENERGY PREDICTED BY IDOCK:   -3.37 KCAL/MOL
REMARK 924 INTRA-LIGAND FREE ENERGY PREDICTED BY IDOCK:   -0.08 KCAL/MOL
REMARK 927      BINDING AFFINITY PREDICTED BY RF-SCORE:    0.00 PKD
ROOT
HETATM    1  C   UNL     1     -10.312   5.438  66.492  1.00  0.00    -0.320 C  
HETATM    2  C   UNL     1     -10.151   6.340  67.722  1.00  0.00    -0.149 C  
HETATM    3  C   UNL     1      -9.695   5.438  68.899  1.00  0.00    -0.151 C  
HETATM    4  C   UNL     1      -9.041   7.413  67.527  1.00  0.00    -0.128 C  
HETATM    5  N   UNL     1     -11.468   6.945  68.022  1.00  0.00    -0.410 NA 
HETATM    6  H2  UNL     1     -12.205   6.249  68.138  1.00  0.00     0.000 HD 
HETATM    7  O   UNL     1     -10.587   5.400  69.921  1.00  0.00    -0.307 OA 
HETATM    8  H1  UNL     1     -11.361   7.545  68.840  1.00  0.00     0.000 HD 
HETATM    9  O   UNL     1      -8.648   4.809  68.934  1.00  0.00    -0.084 OA 
ENDROOT
BRANCH   4  10
HETATM   10  C   UNL     1      -9.208   8.378  66.369  1.00  0.00    -0.253 A  
HETATM   11  C   UNL     1      -8.521   8.191  65.161  1.00  0.00    -0.134 A  
HETATM   12  C   UNL     1      -8.652   9.099  64.109  1.00  0.00    -0.191 A  
HETATM   13  C   UNL     1      -9.502  10.188  64.251  1.00  0.00    -0.305 A  
HETATM   14  C   UNL     1     -10.235  10.367  65.417  1.00  0.00    -0.329 A  
HETATM   15  O   UNL     1      -9.643  11.108  63.256  1.00  0.00    -0.280 OA 
HETATM   16  C   UNL     1     -10.088   9.467  66.476  1.00  0.00    -0.332 A  
HETATM   17  H   UNL     1     -10.225  11.853  63.354  1.00  0.00     0.000 HD 
ENDBRANCH   4  10
TORSDOF 1
ENDMDL
MODEL      122
REMARK 921   NORMALIZED FREE ENERGY PREDICTED BY IDOCK:   -3.20 KCAL/MOL
REMARK 922        TOTAL FREE ENERGY PREDICTED BY IDOCK:   -3.45 KCAL/MOL
REMARK 923 INTER-LIGAND FREE ENERGY PREDICTED BY IDOCK:   -3.52 KCAL/MOL
REMARK 924 INTRA-LIGAND FREE ENERGY PREDICTED BY IDOCK:    0.07 KCAL/MOL
REMARK 927      BINDING AFFINITY PREDICTED BY RF-SCORE:    0.00 PKD
ROOT
HETATM    1  C   UNL     1     -10.458   5.197  71.581  1.00  0.00    -0.255 C  
HETATM    2  C   UNL     1      -9.837   5.888  72.801  1.00  0.00    -0.166 C  
HETATM    3  C   UNL     1      -8.639   5.018  73.264  1.00  0.00    -0.112 C  
HETATM    4  C   UNL     1      -9.261   7.292  72.457  1.00  0.00    -0.168 C  
HETATM    5  N   UNL     1     -10.864   5.950  73.865  1.00  0.00    -0.395 NA 
HETATM    6  H2  UNL     1     -11.257   5.036  74.088  1.00  0.00     0.000 HD 
HETATM    7  O   UNL     1      -8.794   4.513  74.513  1.00  0.00    -0.107 OA 
HETATM    8  H1  UNL     1     -10.451   6.409  74.677  1.00  0.00     0.000 HD 
HETATM    9  O   UNL     1      -7.642   4.787  72.595  1.00  0.00    -0.087 OA 
ENDROOT
BRANCH   4  10
HETATM   10  C   UNL     1     -10.228   8.317  71.893  1.00  0.00    -0.314 A  
HETATM   11  C   UNL     1     -11.411   8.648  72.567  1.00  0.00    -0.287 A  
HETATM   12  C   UNL     1     -12.314   9.567  72.029  1.00  0.00    -0.404 A  
HETATM   13  C   UNL     1     -12.017  10.186  70.822  1.00  0.00    -0.348 A  
HETATM   14  C   UNL     1     -10.827   9.915  70.161  1.00  0.00    -0.356 A  
HETATM   15  O   UNL     1     -12.880  11.074  70.253  1.00  0.00    -0.233 OA 
HETATM   16  C   UNL     1      -9.934   8.981  70.692  1.00  0.00    -0.287 A  
HETATM   17  H   UNL     1     -12.677  11.498  69.427  1.00  0.00     0.000 HD 
ENDBRANCH   4  10
TORSDOF 1
ENDMDL
MODEL      123
REMARK 921   NORMALIZED FREE ENERGY PREDICTED BY IDOCK:   -3.19 KCAL/MOL
REMARK 922        TOTAL FREE ENERGY PREDICTED BY IDOCK:   -3.44 KCAL/MOL
REMARK 923 INTER-LIGAND FREE ENERGY PREDICTED BY IDOCK:   -3.48 KCAL/MOL
REMARK 924 INTRA-LIGAND FREE ENERGY PREDICTED BY IDOCK:    0.04 KCAL/MOL
REMARK 927      BINDING AFFINITY PREDICTED BY RF-SCORE:    0.00 PKD
ROOT
HETATM    1  C   UNL     1     -11.554   8.222  70.945  1.00  0.00    -0.282 C  
HETATM    2  C   UNL     1     -10.585   7.547  69.966  1.00  0.00    -0.237 C  
HETATM    3  C   UNL     1      -9.870   8.674  69.175  1.00  0.00    -0.185 C  
HETATM    4  C   UNL     1      -9.473   6.741  70.696  1.00  0.00    -0.171 C  
HETATM    5  N   UNL     1     -11.377   6.700  69.046  1.00  0.00    -0.576 NA 
HETATM    6  H2  UNL     1     -12.118   7.218  68.573  1.00  0.00     0.000 HD 
HETATM    7  O   UNL     1     -10.126   8.638  67.843  1.00  0.00    -0.182 OA 
HETATM    8  H1  UNL     1     -10.733   6.252  68.395  1.00  0.00     0.000 HD 
HETATM    9  O   UNL     1      -9.146   9.525  69.670  1.00  0.00    -0.167 OA 
ENDROOT
BRANCH   4  10
HETATM   10  C   UNL     1      -9.921   5.621  71.617  1.00  0.00    -0.222 A  
HETATM   11  C   UNL     1     -10.541   5.894  72.845  1.00  0.00    -0.265 A  
HETATM   12  C   UNL     1     -10.922   4.862  73.704  1.00  0.00    -0.387 A  
HETATM   13  C   UNL     1     -10.713   3.544  73.320  1.00  0.00    -0.196 A  
HETATM   14  C   UNL     1     -10.150   3.246  72.087  1.00  0.00    -0.199 A  
HETATM   15  O   UNL     1     -11.053   2.508  74.137  1.00  0.00    -0.159 OA 
HETATM   16  C   UNL     1      -9.751   4.281  71.236  1.00  0.00    -0.256 A  
HETATM   17  H   UNL     1     -10.909   1.606  73.875  1.00  0.00     0.000 HD 
ENDBRANCH   4  10
TORSDOF 1
ENDMDL
MODEL      124
REMARK 921   NORMALIZED FREE ENERGY PREDICTED BY IDOCK:   -3.09 KCAL/MOL
REMARK 922        TOTAL FREE ENERGY PREDICTED BY IDOCK:   -3.34 KCAL/MOL
REMARK 923 INTER-LIGAND FREE ENERGY PREDICTED BY IDOCK:   -3.24 KCAL/MOL
REMARK 924 INTRA-LIGAND FREE ENERGY PREDICTED BY IDOCK:   -0.10 KCAL/MOL
REMARK 927      BINDING AFFINITY PREDICTED BY RF-SCORE:    0.00 PKD
ROOT
HETATM    1  C   UNL     1     -11.643   6.716  70.113  1.00  0.00    -0.446 C  
HETATM    2  C   UNL     1     -11.785   7.138  71.581  1.00  0.00    -0.291 C  
HETATM    3  C   UNL     1     -13.217   7.706  71.762  1.00  0.00    -0.318 C  
HETATM    4  C   UNL     1     -11.659   5.932  72.557  1.00  0.00    -0.327 C  
HETATM    5  N   UNL     1     -10.779   8.188  71.857  1.00  0.00    -0.247 NA 
HETATM    6  H2  UNL     1     -10.846   8.976  71.213  1.00  0.00     0.000 HD 
HETATM    7  O   UNL     1     -13.232   9.015  72.121  1.00  0.00    -0.381 OA 
HETATM    8  H1  UNL     1     -10.874   8.468  72.833  1.00  0.00     0.000 HD 
HETATM    9  O   UNL     1     -14.248   7.070  71.602  1.00  0.00    -0.369 OA 
ENDROOT
BRANCH   4  10
HETATM   10  C   UNL     1     -10.365   5.140  72.514  1.00  0.00    -0.254 A  
HETATM   11  C   UNL     1      -9.295   5.448  73.365  1.00  0.00    -0.134 A  
HETATM   12  C   UNL     1      -8.095   4.738  73.300  1.00  0.00    -0.100 A  
HETATM   13  C   UNL     1      -7.973   3.688  72.399  1.00  0.00    -0.069 A  
HETATM   14  C   UNL     1      -9.037   3.328  71.582  1.00  0.00    -0.168 A  
HETATM   15  O   UNL     1      -6.813   2.982  72.290  1.00  0.00    -0.025 OA 
HETATM   16  C   UNL     1     -10.230   4.052  71.636  1.00  0.00    -0.110 A  
HETATM   17  H   UNL     1      -6.729   2.264  71.674  1.00  0.00     0.000 HD 
ENDBRANCH   4  10
TORSDOF 1
ENDMDL
MODEL      125
REMARK 921   NORMALIZED FREE ENERGY PREDICTED BY IDOCK:   -3.04 KCAL/MOL
REMARK 922        TOTAL FREE ENERGY PREDICTED BY IDOCK:   -3.29 KCAL/MOL
REMARK 923 INTER-LIGAND FREE ENERGY PREDICTED BY IDOCK:   -3.29 KCAL/MOL
REMARK 924 INTRA-LIGAND FREE ENERGY PREDICTED BY IDOCK:    0.00 KCAL/MOL
REMARK 927      BINDING AFFINITY PREDICTED BY RF-SCORE:    0.00 PKD
ROOT
HETATM    1  C   UNL     1      -7.194  18.965  67.028  1.00  0.00    -0.219 C  
HETATM    2  C   UNL     1      -8.681  18.945  67.404  1.00  0.00    -0.274 C  
HETATM    3  C   UNL     1      -9.381  20.057  66.579  1.00  0.00    -0.385 C  
HETATM    4  C   UNL     1      -9.371  17.605  67.018  1.00  0.00    -0.258 C  
HETATM    5  N   UNL     1      -8.793  19.235  68.851  1.00  0.00    -0.339 NA 
HETATM    6  H2  UNL     1      -8.332  20.106  69.115  1.00  0.00     0.000 HD 
HETATM    7  O   UNL     1      -9.925  21.032  67.349  1.00  0.00    -0.334 OA 
HETATM    8  H1  UNL     1      -9.782  19.222  69.100  1.00  0.00     0.000 HD 
HETATM    9  O   UNL     1      -9.449  20.085  65.359  1.00  0.00    -0.147 OA 
ENDROOT
BRANCH   4  10
HETATM   10  C   UNL     1      -8.808  16.336  67.631  1.00  0.00    -0.195 A  
HETATM   11  C   UNL     1      -8.209  15.347  66.837  1.00  0.00    -0.281 A  
HETATM   12  C   UNL     1      -7.722  14.167  67.400  1.00  0.00    -0.189 A  
HETATM   13  C   UNL     1      -7.804  13.985  68.774  1.00  0.00    -0.097 A  
HETATM   14  C   UNL     1      -8.343  14.971  69.590  1.00  0.00    -0.010 A  
HETATM   15  O   UNL     1      -7.358  12.839  69.362  1.00  0.00    -0.315 OA 
HETATM   16  C   UNL     1      -8.847  16.143  69.021  1.00  0.00    -0.251 A  
HETATM   17  H   UNL     1      -7.414  12.714  70.303  1.00  0.00     0.000 HD 
ENDBRANCH   4  10
TORSDOF 1
ENDMDL
MODEL      126
REMARK 921   NORMALIZED FREE ENERGY PREDICTED BY IDOCK:   -2.94 KCAL/MOL
REMARK 922        TOTAL FREE ENERGY PREDICTED BY IDOCK:   -3.18 KCAL/MOL
REMARK 923 INTER-LIGAND FREE ENERGY PREDICTED BY IDOCK:   -3.15 KCAL/MOL
REMARK 924 INTRA-LIGAND FREE ENERGY PREDICTED BY IDOCK:   -0.04 KCAL/MOL
REMARK 927      BINDING AFFINITY PREDICTED BY RF-SCORE:    0.00 PKD
ROOT
HETATM    1  C   UNL     1     -10.242   8.781  69.598  1.00  0.00    -0.210 C  
HETATM    2  C   UNL     1      -9.924   7.324  69.239  1.00  0.00    -0.170 C  
HETATM    3  C   UNL     1     -10.773   6.423  70.173  1.00  0.00    -0.271 C  
HETATM    4  C   UNL     1     -10.339   6.970  67.782  1.00  0.00    -0.255 C  
HETATM    5  N   UNL     1      -8.482   7.096  69.481  1.00  0.00    -0.133 NA 
HETATM    6  H2  UNL     1      -8.198   7.339  70.430  1.00  0.00     0.000 HD 
HETATM    7  O   UNL     1     -10.023   5.644  70.993  1.00  0.00    -0.178 OA 
HETATM    8  H1  UNL     1      -8.270   6.127  69.243  1.00  0.00     0.000 HD 
HETATM    9  O   UNL     1     -11.994   6.395  70.199  1.00  0.00    -0.354 OA 
ENDROOT
BRANCH   4  10
HETATM   10  C   UNL     1      -9.707   7.781  66.666  1.00  0.00    -0.292 A  
HETATM   11  C   UNL     1      -8.651   7.265  65.900  1.00  0.00    -0.159 A  
HETATM   12  C   UNL     1      -8.051   8.027  64.896  1.00  0.00    -0.147 A  
HETATM   13  C   UNL     1      -8.530   9.303  64.631  1.00  0.00    -0.178 A  
HETATM   14  C   UNL     1      -9.608   9.816  65.339  1.00  0.00    -0.359 A  
HETATM   15  O   UNL     1      -7.959  10.086  63.673  1.00  0.00    -0.145 OA 
HETATM   16  C   UNL     1     -10.196   9.059  66.356  1.00  0.00    -0.297 A  
HETATM   17  H   UNL     1      -8.287  10.960  63.492  1.00  0.00     0.000 HD 
ENDBRANCH   4  10
TORSDOF 1
ENDMDL
MODEL      127
REMARK 921   NORMALIZED FREE ENERGY PREDICTED BY IDOCK:   -2.86 KCAL/MOL
REMARK 922        TOTAL FREE ENERGY PREDICTED BY IDOCK:   -3.10 KCAL/MOL
REMARK 923 INTER-LIGAND FREE ENERGY PREDICTED BY IDOCK:   -3.03 KCAL/MOL
REMARK 924 INTRA-LIGAND FREE ENERGY PREDICTED BY IDOCK:   -0.07 KCAL/MOL
REMARK 927      BINDING AFFINITY PREDICTED BY RF-SCORE:    0.00 PKD
ROOT
HETATM    1  C   UNL     1      -8.822   8.726  69.578  1.00  0.00    -0.144 C  
HETATM    2  C   UNL     1     -10.346   8.590  69.469  1.00  0.00    -0.218 C  
HETATM    3  C   UNL     1     -10.757   9.107  68.066  1.00  0.00    -0.147 C  
HETATM    4  C   UNL     1     -10.815   7.109  69.553  1.00  0.00    -0.244 C  
HETATM    5  N   UNL     1     -10.959   9.431  70.523  1.00  0.00    -0.253 NA 
HETATM    6  H2  UNL     1     -10.646  10.401  70.484  1.00  0.00     0.000 HD 
HETATM    7  O   UNL     1     -11.566  10.195  68.111  1.00  0.00    -0.225 OA 
HETATM    8  H1  UNL     1     -11.972   9.340  70.450  1.00  0.00     0.000 HD 
HETATM    9  O   UNL     1     -10.403   8.611  67.006  1.00  0.00    -0.270 OA 
ENDROOT
BRANCH   4  10
HETATM   10  C   UNL     1     -10.455   6.339  70.810  1.00  0.00    -0.273 A  
HETATM   11  C   UNL     1      -9.218   5.691  70.937  1.00  0.00    -0.178 A  
HETATM   12  C   UNL     1      -8.903   4.957  72.081  1.00  0.00    -0.137 A  
HETATM   13  C   UNL     1      -9.818   4.895  73.124  1.00  0.00    -0.150 A  
HETATM   14  C   UNL     1     -11.027   5.572  73.046  1.00  0.00    -0.336 A  
HETATM   15  O   UNL     1      -9.557   4.174  74.250  1.00  0.00    -0.105 OA 
HETATM   16  C   UNL     1     -11.348   6.291  71.891  1.00  0.00    -0.348 A  
HETATM   17  H   UNL     1     -10.184   4.132  74.963  1.00  0.00     0.000 HD 
ENDBRANCH   4  10
TORSDOF 1
ENDMDL
MODEL      128
REMARK 921   NORMALIZED FREE ENERGY PREDICTED BY IDOCK:   -2.83 KCAL/MOL
REMARK 922        TOTAL FREE ENERGY PREDICTED BY IDOCK:   -3.06 KCAL/MOL
REMARK 923 INTER-LIGAND FREE ENERGY PREDICTED BY IDOCK:   -2.99 KCAL/MOL
REMARK 924 INTRA-LIGAND FREE ENERGY PREDICTED BY IDOCK:   -0.07 KCAL/MOL
REMARK 927      BINDING AFFINITY PREDICTED BY RF-SCORE:    0.00 PKD
ROOT
HETATM    1  C   UNL     1      -7.320  10.182  64.583  1.00  0.00    -0.129 C  
HETATM    2  C   UNL     1      -8.504   9.220  64.420  1.00  0.00    -0.188 C  
HETATM    3  C   UNL     1      -8.002   8.010  63.589  1.00  0.00    -0.130 C  
HETATM    4  C   UNL     1      -8.996   8.652  65.782  1.00  0.00    -0.244 C  
HETATM    5  N   UNL     1      -9.577   9.931  63.689  1.00  0.00    -0.484 NA 
HETATM    6  H2  UNL     1      -9.258  10.319  62.801  1.00  0.00     0.000 HD 
HETATM    7  O   UNL     1      -8.641   7.875  62.400  1.00  0.00    -0.094 OA 
HETATM    8  H1  UNL     1     -10.363   9.291  63.580  1.00  0.00     0.000 HD 
HETATM    9  O   UNL     1      -7.121   7.238  63.938  1.00  0.00    -0.061 OA 
ENDROOT
BRANCH   4  10
HETATM   10  C   UNL     1      -9.464   9.654  66.821  1.00  0.00    -0.209 A  
HETATM   11  C   UNL     1      -8.652  10.009  67.907  1.00  0.00    -0.121 A  
HETATM   12  C   UNL     1      -9.098  10.906  68.878  1.00  0.00    -0.151 A  
HETATM   13  C   UNL     1     -10.356  11.480  68.748  1.00  0.00    -0.196 A  
HETATM   14  C   UNL     1     -11.159  11.186  67.654  1.00  0.00    -0.348 A  
HETATM   15  O   UNL     1     -10.837  12.345  69.684  1.00  0.00    -0.447 OA 
HETATM   16  C   UNL     1     -10.717  10.273  66.692  1.00  0.00    -0.183 A  
HETATM   17  H   UNL     1     -11.698  12.738  69.594  1.00  0.00     0.000 HD 
ENDBRANCH   4  10
TORSDOF 1
ENDMDL
MODEL      129
REMARK 921   NORMALIZED FREE ENERGY PREDICTED BY IDOCK:   -2.82 KCAL/MOL
REMARK 922        TOTAL FREE ENERGY PREDICTED BY IDOCK:   -3.06 KCAL/MOL
REMARK 923 INTER-LIGAND FREE ENERGY PREDICTED BY IDOCK:   -3.44 KCAL/MOL
REMARK 924 INTRA-LIGAND FREE ENERGY PREDICTED BY IDOCK:    0.38 KCAL/MOL
REMARK 927      BINDING AFFINITY PREDICTED BY RF-SCORE:    0.00 PKD
ROOT
HETATM    1  C   UNL     1     -11.139   7.824  72.021  1.00  0.00    -0.318 C  
HETATM    2  C   UNL     1      -9.848   7.738  71.198  1.00  0.00    -0.169 C  
HETATM    3  C   UNL     1      -9.469   6.238  71.089  1.00  0.00    -0.170 C  
HETATM    4  C   UNL     1     -10.038   8.256  69.744  1.00  0.00    -0.197 C  
HETATM    5  N   UNL     1      -8.792   8.480  71.923  1.00  0.00    -0.201 NA 
HETATM    6  H2  UNL     1      -8.669   8.156  72.882  1.00  0.00     0.000 HD 
HETATM    7  O   UNL     1      -8.281   5.941  71.673  1.00  0.00    -0.117 OA 
HETATM    8  H1  UNL     1      -7.933   8.423  71.375  1.00  0.00     0.000 HD 
HETATM    9  O   UNL     1     -10.150   5.382  70.544  1.00  0.00    -0.202 OA 
ENDROOT
BRANCH   4  10
HETATM   10  C   UNL     1     -10.500   9.692  69.575  1.00  0.00    -0.240 A  
HETATM   11  C   UNL     1     -11.470  10.248  70.421  1.00  0.00    -0.415 A  
HETATM   12  C   UNL     1     -11.916  11.558  70.242  1.00  0.00    -0.455 A  
HETATM   13  C   UNL     1     -11.364  12.333  69.231  1.00  0.00    -0.256 A  
HETATM   14  C   UNL     1     -10.363  11.824  68.414  1.00  0.00    -0.223 A  
HETATM   15  O   UNL     1     -11.785  13.611  69.011  1.00  0.00    -0.286 OA 
HETATM   16  C   UNL     1      -9.932  10.506  68.583  1.00  0.00    -0.188 A  
HETATM   17  H   UNL     1     -11.407  14.141  68.319  1.00  0.00     0.000 HD 
ENDBRANCH   4  10
TORSDOF 1
ENDMDL
MODEL      130
REMARK 921   NORMALIZED FREE ENERGY PREDICTED BY IDOCK:   -2.81 KCAL/MOL
REMARK 922        TOTAL FREE ENERGY PREDICTED BY IDOCK:   -3.04 KCAL/MOL
REMARK 923 INTER-LIGAND FREE ENERGY PREDICTED BY IDOCK:   -3.55 KCAL/MOL
REMARK 924 INTRA-LIGAND FREE ENERGY PREDICTED BY IDOCK:    0.51 KCAL/MOL
REMARK 927      BINDING AFFINITY PREDICTED BY RF-SCORE:    0.00 PKD
ROOT
HETATM    1  C   UNL     1      -8.753   5.633  70.546  1.00  0.00    -0.140 C  
HETATM    2  C   UNL     1      -7.923   6.877  70.886  1.00  0.00    -0.098 C  
HETATM    3  C   UNL     1      -6.652   6.841  69.999  1.00  0.00    -0.044 C  
HETATM    4  C   UNL     1      -8.670   8.198  70.541  1.00  0.00    -0.135 C  
HETATM    5  N   UNL     1      -7.550   6.803  72.317  1.00  0.00    -0.093 NA 
HETATM    6  H2  UNL     1      -7.073   5.934  72.555  1.00  0.00     0.000 HD 
HETATM    7  O   UNL     1      -5.502   6.747  70.713  1.00  0.00    -0.022 OA 
HETATM    8  H1  UNL     1      -6.999   7.630  72.543  1.00  0.00     0.000 HD 
HETATM    9  O   UNL     1      -6.649   6.887  68.777  1.00  0.00    -0.044 OA 
ENDROOT
BRANCH   4  10
HETATM   10  C   UNL     1     -10.005   8.436  71.221  1.00  0.00    -0.261 A  
HETATM   11  C   UNL     1     -10.416   7.655  72.310  1.00  0.00    -0.289 A  
HETATM   12  C   UNL     1     -11.660   7.856  72.912  1.00  0.00    -0.303 A  
HETATM   13  C   UNL     1     -12.488   8.867  72.444  1.00  0.00    -0.335 A  
HETATM   14  C   UNL     1     -12.082   9.689  71.400  1.00  0.00    -0.472 A  
HETATM   15  O   UNL     1     -13.717   9.083  72.990  1.00  0.00    -0.923 OA 
HETATM   16  C   UNL     1     -10.845   9.474  70.787  1.00  0.00    -0.386 A  
HETATM   17  H   UNL     1     -14.284   9.775  72.669  1.00  0.00     0.000 HD 
ENDBRANCH   4  10
TORSDOF 1
ENDMDL
MODEL      131
REMARK 921   NORMALIZED FREE ENERGY PREDICTED BY IDOCK:   -2.69 KCAL/MOL
REMARK 922        TOTAL FREE ENERGY PREDICTED BY IDOCK:   -2.92 KCAL/MOL
REMARK 923 INTER-LIGAND FREE ENERGY PREDICTED BY IDOCK:   -3.05 KCAL/MOL
REMARK 924 INTRA-LIGAND FREE ENERGY PREDICTED BY IDOCK:    0.13 KCAL/MOL
REMARK 927      BINDING AFFINITY PREDICTED BY RF-SCORE:    0.00 PKD
ROOT
HETATM    1  C   UNL     1      -6.009  16.208  69.361  1.00  0.00    -0.152 C  
HETATM    2  C   UNL     1      -6.491  14.775  69.103  1.00  0.00    -0.109 C  
HETATM    3  C   UNL     1      -5.996  13.901  70.285  1.00  0.00    -0.155 C  
HETATM    4  C   UNL     1      -8.043  14.667  69.089  1.00  0.00    -0.078 C  
HETATM    5  N   UNL     1      -5.887  14.309  67.835  1.00  0.00    -0.211 NA 
HETATM    6  H2  UNL     1      -4.870  14.389  67.830  1.00  0.00     0.000 HD 
HETATM    7  O   UNL     1      -5.133  12.925  69.905  1.00  0.00    -0.081 OA 
HETATM    8  H1  UNL     1      -6.207  13.356  67.663  1.00  0.00     0.000 HD 
HETATM    9  O   UNL     1      -6.326  14.050  71.452  1.00  0.00    -0.093 OA 
ENDROOT
BRANCH   4  10
HETATM   10  C   UNL     1      -8.786  15.507  68.066  1.00  0.00    -0.163 A  
HETATM   11  C   UNL     1      -9.824  16.369  68.449  1.00  0.00    -0.233 A  
HETATM   12  C   UNL     1     -10.526  17.115  67.501  1.00  0.00    -0.348 A  
HETATM   13  C   UNL     1     -10.169  17.026  66.163  1.00  0.00    -0.337 A  
HETATM   14  C   UNL     1      -9.110  16.221  65.764  1.00  0.00    -0.110 A  
HETATM   15  O   UNL     1     -10.841  17.723  65.204  1.00  0.00    -0.671 OA 
HETATM   16  C   UNL     1      -8.420  15.460  66.712  1.00  0.00    -0.307 A  
HETATM   17  H   UNL     1     -10.597  17.662  64.288  1.00  0.00     0.000 HD 
ENDBRANCH   4  10
TORSDOF 1
ENDMDL
MODEL      132
REMARK 921   NORMALIZED FREE ENERGY PREDICTED BY IDOCK:   -2.56 KCAL/MOL
REMARK 922        TOTAL FREE ENERGY PREDICTED BY IDOCK:   -2.78 KCAL/MOL
REMARK 923 INTER-LIGAND FREE ENERGY PREDICTED BY IDOCK:   -3.23 KCAL/MOL
REMARK 924 INTRA-LIGAND FREE ENERGY PREDICTED BY IDOCK:    0.45 KCAL/MOL
REMARK 927      BINDING AFFINITY PREDICTED BY RF-SCORE:    0.00 PKD
ROOT
HETATM    1  C   UNL     1     -10.328   7.260  67.565  1.00  0.00    -0.310 C  
HETATM    2  C   UNL     1      -8.970   7.581  66.929  1.00  0.00    -0.135 C  
HETATM    3  C   UNL     1      -8.378   6.246  66.407  1.00  0.00    -0.118 C  
HETATM    4  C   UNL     1      -9.101   8.521  65.697  1.00  0.00    -0.189 C  
HETATM    5  N   UNL     1      -8.095   8.152  67.978  1.00  0.00    -0.127 NA 
HETATM    6  H2  UNL     1      -8.015   7.548  68.796  1.00  0.00     0.000 HD 
HETATM    7  O   UNL     1      -7.216   5.900  67.017  1.00  0.00    -0.072 OA 
HETATM    8  H1  UNL     1      -7.192   8.365  67.555  1.00  0.00     0.000 HD 
HETATM    9  O   UNL     1      -8.882   5.548  65.539  1.00  0.00    -0.153 OA 
ENDROOT
BRANCH   4  10
HETATM   10  C   UNL     1      -9.741   9.878  65.927  1.00  0.00    -0.326 A  
HETATM   11  C   UNL     1      -9.810  10.441  67.209  1.00  0.00    -0.214 A  
HETATM   12  C   UNL     1     -10.429  11.675  67.421  1.00  0.00    -0.239 A  
HETATM   13  C   UNL     1     -10.954  12.368  66.339  1.00  0.00    -0.276 A  
HETATM   14  C   UNL     1     -10.852  11.857  65.052  1.00  0.00    -0.351 A  
HETATM   15  O   UNL     1     -11.583  13.565  66.506  1.00  0.00    -0.329 OA 
HETATM   16  C   UNL     1     -10.249  10.613  64.844  1.00  0.00    -0.395 A  
HETATM   17  H   UNL     1     -11.943  14.039  65.766  1.00  0.00     0.000 HD 
ENDBRANCH   4  10
TORSDOF 1
ENDMDL
MODEL      133
REMARK 921   NORMALIZED FREE ENERGY PREDICTED BY IDOCK:   -2.50 KCAL/MOL
REMARK 922        TOTAL FREE ENERGY PREDICTED BY IDOCK:   -2.71 KCAL/MOL
REMARK 923 INTER-LIGAND FREE ENERGY PREDICTED BY IDOCK:   -2.60 KCAL/MOL
REMARK 924 INTRA-LIGAND FREE ENERGY PREDICTED BY IDOCK:   -0.11 KCAL/MOL
REMARK 927      BINDING AFFINITY PREDICTED BY RF-SCORE:    0.00 PKD
ROOT
HETATM    1  C   UNL     1      -8.975   9.214  71.429  1.00  0.00    -0.144 C  
HETATM    2  C   UNL     1     -10.330   8.588  71.073  1.00  0.00    -0.209 C  
HETATM    3  C   UNL     1     -11.406   9.694  71.235  1.00  0.00    -0.388 C  
HETATM    4  C   UNL     1     -10.393   8.120  69.590  1.00  0.00    -0.221 C  
HETATM    5  N   UNL     1     -10.587   7.481  72.021  1.00  0.00    -0.206 NA 
HETATM    6  H2  UNL     1     -10.534   7.776  72.996  1.00  0.00     0.000 HD 
HETATM    7  O   UNL     1     -12.324   9.410  72.193  1.00  0.00    -0.354 OA 
HETATM    8  H1  UNL     1     -11.488   7.065  71.783  1.00  0.00     0.000 HD 
HETATM    9  O   UNL     1     -11.450  10.728  70.586  1.00  0.00    -0.325 OA 
ENDROOT
BRANCH   4  10
HETATM   10  C   UNL     1      -9.371   7.090  69.146  1.00  0.00    -0.140 A  
HETATM   11  C   UNL     1      -9.617   5.716  69.281  1.00  0.00    -0.181 A  
HETATM   12  C   UNL     1      -8.662   4.772  68.901  1.00  0.00    -0.107 A  
HETATM   13  C   UNL     1      -7.461   5.202  68.352  1.00  0.00    -0.075 A  
HETATM   14  C   UNL     1      -7.214   6.554  68.159  1.00  0.00    -0.088 A  
HETATM   15  O   UNL     1      -6.494   4.314  67.987  1.00  0.00    -0.036 OA 
HETATM   16  C   UNL     1      -8.164   7.498  68.557  1.00  0.00    -0.125 A  
HETATM   17  H   UNL     1      -5.672   4.608  67.611  1.00  0.00     0.000 HD 
ENDBRANCH   4  10
TORSDOF 1
ENDMDL
MODEL      134
REMARK 921   NORMALIZED FREE ENERGY PREDICTED BY IDOCK:   -2.41 KCAL/MOL
REMARK 922        TOTAL FREE ENERGY PREDICTED BY IDOCK:   -2.61 KCAL/MOL
REMARK 923 INTER-LIGAND FREE ENERGY PREDICTED BY IDOCK:   -2.83 KCAL/MOL
REMARK 924 INTRA-LIGAND FREE ENERGY PREDICTED BY IDOCK:    0.22 KCAL/MOL
REMARK 927      BINDING AFFINITY PREDICTED BY RF-SCORE:    0.00 PKD
ROOT
HETATM    1  C   UNL     1     -11.201  11.773  67.871  1.00  0.00    -0.331 C  
HETATM    2  C   UNL     1     -10.398  12.363  66.705  1.00  0.00    -0.226 C  
HETATM    3  C   UNL     1     -10.459  13.907  66.837  1.00  0.00    -0.276 C  
HETATM    4  C   UNL     1      -8.893  11.970  66.765  1.00  0.00    -0.198 C  
HETATM    5  N   UNL     1     -11.038  11.932  65.442  1.00  0.00    -0.313 NA 
HETATM    6  H2  UNL     1     -12.029  12.174  65.400  1.00  0.00     0.000 HD 
HETATM    7  O   UNL     1     -11.077  14.510  65.791  1.00  0.00    -0.310 OA 
HETATM    8  H1  UNL     1     -10.504  12.325  64.667  1.00  0.00     0.000 HD 
HETATM    9  O   UNL     1     -10.010  14.547  67.776  1.00  0.00    -0.222 OA 
ENDROOT
BRANCH   4  10
HETATM   10  C   UNL     1      -8.563  10.489  66.741  1.00  0.00    -0.126 A  
HETATM   11  C   UNL     1      -9.239   9.607  65.885  1.00  0.00    -0.246 A  
HETATM   12  C   UNL     1      -8.956   8.240  65.889  1.00  0.00    -0.208 A  
HETATM   13  C   UNL     1      -7.966   7.753  66.732  1.00  0.00    -0.107 A  
HETATM   14  C   UNL     1      -7.245   8.613  67.550  1.00  0.00    -0.081 A  
HETATM   15  O   UNL     1      -7.671   6.423  66.780  1.00  0.00    -0.097 OA 
HETATM   16  C   UNL     1      -7.543   9.978  67.558  1.00  0.00    -0.091 A  
HETATM   17  H   UNL     1      -6.994   6.090  67.357  1.00  0.00     0.000 HD 
ENDBRANCH   4  10
TORSDOF 1
ENDMDL
MODEL      135
REMARK 921   NORMALIZED FREE ENERGY PREDICTED BY IDOCK:   -2.38 KCAL/MOL
REMARK 922        TOTAL FREE ENERGY PREDICTED BY IDOCK:   -2.59 KCAL/MOL
REMARK 923 INTER-LIGAND FREE ENERGY PREDICTED BY IDOCK:   -2.71 KCAL/MOL
REMARK 924 INTRA-LIGAND FREE ENERGY PREDICTED BY IDOCK:    0.12 KCAL/MOL
REMARK 927      BINDING AFFINITY PREDICTED BY RF-SCORE:    0.00 PKD
ROOT
HETATM    1  C   UNL     1     -10.569   8.891  71.216  1.00  0.00    -0.351 C  
HETATM    2  C   UNL     1      -9.357   8.149  71.792  1.00  0.00    -0.181 C  
HETATM    3  C   UNL     1      -9.631   7.919  73.302  1.00  0.00    -0.285 C  
HETATM    4  C   UNL     1      -9.167   6.742  71.155  1.00  0.00    -0.159 C  
HETATM    5  N   UNL     1      -8.165   9.009  71.615  1.00  0.00    -0.345 NA 
HETATM    6  H2  UNL     1      -8.287   9.938  72.018  1.00  0.00     0.000 HD 
HETATM    7  O   UNL     1      -8.741   8.547  74.110  1.00  0.00    -0.092 OA 
HETATM    8  H1  UNL     1      -7.360   8.515  71.999  1.00  0.00     0.000 HD 
HETATM    9  O   UNL     1     -10.549   7.249  73.752  1.00  0.00    -0.364 OA 
ENDROOT
BRANCH   4  10
HETATM   10  C   UNL     1      -8.966   6.685  69.652  1.00  0.00    -0.142 A  
HETATM   11  C   UNL     1      -8.017   7.495  69.014  1.00  0.00    -0.122 A  
HETATM   12  C   UNL     1      -7.858   7.463  67.627  1.00  0.00    -0.113 A  
HETATM   13  C   UNL     1      -8.631   6.590  66.873  1.00  0.00    -0.114 A  
HETATM   14  C   UNL     1      -9.540   5.739  67.486  1.00  0.00    -0.118 A  
HETATM   15  O   UNL     1      -8.520   6.542  65.516  1.00  0.00    -0.150 OA 
HETATM   16  C   UNL     1      -9.711   5.786  68.873  1.00  0.00    -0.174 A  
HETATM   17  H   UNL     1      -9.050   5.945  65.000  1.00  0.00     0.000 HD 
ENDBRANCH   4  10
TORSDOF 1
ENDMDL
MODEL      136
REMARK 921   NORMALIZED FREE ENERGY PREDICTED BY IDOCK:   -2.30 KCAL/MOL
REMARK 922        TOTAL FREE ENERGY PREDICTED BY IDOCK:   -2.50 KCAL/MOL
REMARK 923 INTER-LIGAND FREE ENERGY PREDICTED BY IDOCK:   -2.90 KCAL/MOL
REMARK 924 INTRA-LIGAND FREE ENERGY PREDICTED BY IDOCK:    0.40 KCAL/MOL
REMARK 927      BINDING AFFINITY PREDICTED BY RF-SCORE:    0.00 PKD
ROOT
HETATM    1  C   UNL     1     -10.138   6.348  68.934  1.00  0.00    -0.187 C  
HETATM    2  C   UNL     1      -8.912   6.969  69.615  1.00  0.00    -0.141 C  
HETATM    3  C   UNL     1      -7.654   6.339  68.964  1.00  0.00    -0.096 C  
HETATM    4  C   UNL     1      -8.817   8.503  69.375  1.00  0.00    -0.141 C  
HETATM    5  N   UNL     1      -8.966   6.631  71.055  1.00  0.00    -0.146 NA 
HETATM    6  H2  UNL     1      -9.042   5.628  71.222  1.00  0.00     0.000 HD 
HETATM    7  O   UNL     1      -6.897   5.628  69.837  1.00  0.00    -0.055 OA 
HETATM    8  H1  UNL     1      -8.151   7.044  71.507  1.00  0.00     0.000 HD 
HETATM    9  O   UNL     1      -7.346   6.448  67.786  1.00  0.00    -0.084 OA 
ENDROOT
BRANCH   4  10
HETATM   10  C   UNL     1      -9.983   9.352  69.847  1.00  0.00    -0.237 A  
HETATM   11  C   UNL     1     -10.809   8.931  70.899  1.00  0.00    -0.308 A  
HETATM   12  C   UNL     1     -11.900   9.699  71.310  1.00  0.00    -0.460 A  
HETATM   13  C   UNL     1     -12.151  10.913  70.686  1.00  0.00    -0.371 A  
HETATM   14  C   UNL     1     -11.317  11.378  69.678  1.00  0.00    -0.347 A  
HETATM   15  O   UNL     1     -13.217  11.684  71.043  1.00  0.00    -0.094 OA 
HETATM   16  C   UNL     1     -10.236  10.599  69.256  1.00  0.00    -0.235 A  
HETATM   17  H   UNL     1     -13.389  12.515  70.616  1.00  0.00     0.000 HD 
ENDBRANCH   4  10
TORSDOF 1
ENDMDL
MODEL      137
REMARK 921   NORMALIZED FREE ENERGY PREDICTED BY IDOCK:   -2.30 KCAL/MOL
REMARK 922        TOTAL FREE ENERGY PREDICTED BY IDOCK:   -2.50 KCAL/MOL
REMARK 923 INTER-LIGAND FREE ENERGY PREDICTED BY IDOCK:   -2.47 KCAL/MOL
REMARK 924 INTRA-LIGAND FREE ENERGY PREDICTED BY IDOCK:   -0.03 KCAL/MOL
REMARK 927      BINDING AFFINITY PREDICTED BY RF-SCORE:    0.00 PKD
ROOT
HETATM    1  C   UNL     1      -9.288   3.094  72.322  1.00  0.00    -0.174 C  
HETATM    2  C   UNL     1      -8.041   3.914  71.967  1.00  0.00    -0.080 C  
HETATM    3  C   UNL     1      -6.977   2.924  71.426  1.00  0.00    -0.032 C  
HETATM    4  C   UNL     1      -8.313   4.941  70.830  1.00  0.00    -0.108 C  
HETATM    5  N   UNL     1      -7.553   4.564  73.203  1.00  0.00    -0.085 NA 
HETATM    6  H2  UNL     1      -7.385   3.900  73.959  1.00  0.00     0.000 HD 
HETATM    7  O   UNL     1      -5.858   2.870  72.191  1.00  0.00    -0.008 OA 
HETATM    8  H1  UNL     1      -6.724   5.109  72.967  1.00  0.00     0.000 HD 
HETATM    9  O   UNL     1      -7.102   2.243  70.419  1.00  0.00    -0.033 OA 
ENDROOT
BRANCH   4  10
HETATM   10  C   UNL     1      -9.391   5.979  71.079  1.00  0.00    -0.175 A  
HETATM   11  C   UNL     1     -10.604   5.951  70.376  1.00  0.00    -0.353 A  
HETATM   12  C   UNL     1     -11.580   6.927  70.584  1.00  0.00    -0.402 A  
HETATM   13  C   UNL     1     -11.358   7.922  71.526  1.00  0.00    -0.256 A  
HETATM   14  C   UNL     1     -10.187   7.942  72.273  1.00  0.00    -0.302 A  
HETATM   15  O   UNL     1     -12.276   8.905  71.745  1.00  0.00    -0.314 OA 
HETATM   16  C   UNL     1      -9.204   6.975  72.050  1.00  0.00    -0.148 A  
HETATM   17  H   UNL     1     -12.124   9.586  72.390  1.00  0.00     0.000 HD 
ENDBRANCH   4  10
TORSDOF 1
ENDMDL
MODEL      138
REMARK 921   NORMALIZED FREE ENERGY PREDICTED BY IDOCK:   -2.28 KCAL/MOL
REMARK 922        TOTAL FREE ENERGY PREDICTED BY IDOCK:   -2.48 KCAL/MOL
REMARK 923 INTER-LIGAND FREE ENERGY PREDICTED BY IDOCK:   -2.40 KCAL/MOL
REMARK 924 INTRA-LIGAND FREE ENERGY PREDICTED BY IDOCK:   -0.08 KCAL/MOL
REMARK 927      BINDING AFFINITY PREDICTED BY RF-SCORE:    0.00 PKD
ROOT
HETATM    1  C   UNL     1     -10.907   7.085  67.044  1.00  0.00    -0.413 C  
HETATM    2  C   UNL     1      -9.919   8.258  67.046  1.00  0.00    -0.255 C  
HETATM    3  C   UNL     1     -10.535   9.379  67.924  1.00  0.00    -0.243 C  
HETATM    4  C   UNL     1      -8.556   7.882  67.694  1.00  0.00    -0.127 C  
HETATM    5  N   UNL     1      -9.764   8.730  65.651  1.00  0.00    -0.455 NA 
HETATM    6  H2  UNL     1     -10.655   8.966  65.213  1.00  0.00     0.000 HD 
HETATM    7  O   UNL     1     -10.794  10.518  67.235  1.00  0.00    -0.275 OA 
HETATM    8  H1  UNL     1      -9.107   9.510  65.653  1.00  0.00     0.000 HD 
HETATM    9  O   UNL     1     -10.778   9.278  69.118  1.00  0.00    -0.224 OA 
ENDROOT
BRANCH   4  10
HETATM   10  C   UNL     1      -7.783   6.737  67.066  1.00  0.00    -0.100 A  
HETATM   11  C   UNL     1      -7.993   5.411  67.469  1.00  0.00    -0.101 A  
HETATM   12  C   UNL     1      -7.257   4.364  66.912  1.00  0.00    -0.072 A  
HETATM   13  C   UNL     1      -6.326   4.639  65.919  1.00  0.00    -0.036 A  
HETATM   14  C   UNL     1      -6.137   5.937  65.465  1.00  0.00    -0.029 A  
HETATM   15  O   UNL     1      -5.573   3.648  65.363  1.00  0.00    -0.016 OA 
HETATM   16  C   UNL     1      -6.862   6.986  66.037  1.00  0.00    -0.057 A  
HETATM   17  H   UNL     1      -4.936   3.837  64.684  1.00  0.00     0.000 HD 
ENDBRANCH   4  10
TORSDOF 1
ENDMDL
MODEL      139
REMARK 921   NORMALIZED FREE ENERGY PREDICTED BY IDOCK:   -2.20 KCAL/MOL
REMARK 922        TOTAL FREE ENERGY PREDICTED BY IDOCK:   -2.40 KCAL/MOL
REMARK 923 INTER-LIGAND FREE ENERGY PREDICTED BY IDOCK:   -2.33 KCAL/MOL
REMARK 924 INTRA-LIGAND FREE ENERGY PREDICTED BY IDOCK:   -0.07 KCAL/MOL
REMARK 927      BINDING AFFINITY PREDICTED BY RF-SCORE:    0.00 PKD
ROOT
HETATM    1  C   UNL     1      -6.433   6.469  71.386  1.00  0.00    -0.050 C  
HETATM    2  C   UNL     1      -7.583   6.074  72.320  1.00  0.00    -0.100 C  
HETATM    3  C   UNL     1      -6.963   5.745  73.703  1.00  0.00    -0.081 C  
HETATM    4  C   UNL     1      -8.586   7.242  72.549  1.00  0.00    -0.131 C  
HETATM    5  N   UNL     1      -8.242   4.875  71.756  1.00  0.00    -0.112 NA 
HETATM    6  H2  UNL     1      -7.589   4.108  71.590  1.00  0.00     0.000 HD 
HETATM    7  O   UNL     1      -7.152   4.456  74.081  1.00  0.00    -0.068 OA 
HETATM    8  H1  UNL     1      -9.007   4.612  72.377  1.00  0.00     0.000 HD 
HETATM    9  O   UNL     1      -6.355   6.540  74.405  1.00  0.00    -0.072 OA 
ENDROOT
BRANCH   4  10
HETATM   10  C   UNL     1      -9.273   7.815  71.322  1.00  0.00    -0.158 A  
HETATM   11  C   UNL     1      -8.863   9.032  70.761  1.00  0.00    -0.281 A  
HETATM   12  C   UNL     1      -9.518   9.572  69.653  1.00  0.00    -0.213 A  
HETATM   13  C   UNL     1     -10.572   8.874  69.079  1.00  0.00    -0.183 A  
HETATM   14  C   UNL     1     -10.963   7.640  69.583  1.00  0.00    -0.145 A  
HETATM   15  O   UNL     1     -11.251   9.374  68.009  1.00  0.00    -0.515 OA 
HETATM   16  C   UNL     1     -10.318   7.111  70.704  1.00  0.00    -0.217 A  
HETATM   17  H   UNL     1     -11.972   8.897  67.616  1.00  0.00     0.000 HD 
ENDBRANCH   4  10
TORSDOF 1
ENDMDL
MODEL      140
REMARK 921   NORMALIZED FREE ENERGY PREDICTED BY IDOCK:   -2.17 KCAL/MOL
REMARK 922        TOTAL FREE ENERGY PREDICTED BY IDOCK:   -2.36 KCAL/MOL
REMARK 923 INTER-LIGAND FREE ENERGY PREDICTED BY IDOCK:   -2.32 KCAL/MOL
REMARK 924 INTRA-LIGAND FREE ENERGY PREDICTED BY IDOCK:   -0.04 KCAL/MOL
REMARK 927      BINDING AFFINITY PREDICTED BY RF-SCORE:    0.00 PKD
ROOT
HETATM    1  C   UNL     1      -7.624   6.320  68.288  1.00  0.00    -0.099 C  
HETATM    2  C   UNL     1      -9.117   5.999  68.434  1.00  0.00    -0.112 C  
HETATM    3  C   UNL     1      -9.228   4.690  69.259  1.00  0.00    -0.127 C  
HETATM    4  C   UNL     1      -9.882   7.094  69.232  1.00  0.00    -0.161 C  
HETATM    5  N   UNL     1      -9.678   5.798  67.080  1.00  0.00    -0.133 NA 
HETATM    6  H2  UNL     1      -9.173   5.091  66.544  1.00  0.00     0.000 HD 
HETATM    7  O   UNL     1      -9.799   3.670  68.571  1.00  0.00    -0.065 OA 
HETATM    8  H1  UNL     1     -10.670   5.584  67.177  1.00  0.00     0.000 HD 
HETATM    9  O   UNL     1      -8.847   4.555  70.412  1.00  0.00    -0.083 OA 
ENDROOT
BRANCH   4  10
HETATM   10  C   UNL     1      -9.852   8.505  68.673  1.00  0.00    -0.180 A  
HETATM   11  C   UNL     1     -10.476   8.819  67.458  1.00  0.00    -0.340 A  
HETATM   12  C   UNL     1     -10.418  10.111  66.931  1.00  0.00    -0.286 A  
HETATM   13  C   UNL     1      -9.759  11.106  67.640  1.00  0.00    -0.170 A  
HETATM   14  C   UNL     1      -9.178  10.833  68.872  1.00  0.00    -0.180 A  
HETATM   15  O   UNL     1      -9.663  12.375  67.153  1.00  0.00    -0.201 OA 
HETATM   16  C   UNL     1      -9.221   9.535  69.388  1.00  0.00    -0.181 A  
HETATM   17  H   UNL     1      -9.211  13.056  67.638  1.00  0.00     0.000 HD 
ENDBRANCH   4  10
TORSDOF 1
ENDMDL
MODEL      141
REMARK 921   NORMALIZED FREE ENERGY PREDICTED BY IDOCK:   -2.15 KCAL/MOL
REMARK 922        TOTAL FREE ENERGY PREDICTED BY IDOCK:   -2.35 KCAL/MOL
REMARK 923 INTER-LIGAND FREE ENERGY PREDICTED BY IDOCK:   -2.74 KCAL/MOL
REMARK 924 INTRA-LIGAND FREE ENERGY PREDICTED BY IDOCK:    0.39 KCAL/MOL
REMARK 927      BINDING AFFINITY PREDICTED BY RF-SCORE:    0.00 PKD
ROOT
HETATM    1  C   UNL     1      -7.952   7.231  68.742  1.00  0.00    -0.123 C  
HETATM    2  C   UNL     1      -9.354   7.461  69.319  1.00  0.00    -0.154 C  
HETATM    3  C   UNL     1      -9.378   6.836  70.738  1.00  0.00    -0.161 C  
HETATM    4  C   UNL     1      -9.683   8.972  69.493  1.00  0.00    -0.171 C  
HETATM    5  N   UNL     1     -10.329   6.774  68.442  1.00  0.00    -0.178 NA 
HETATM    6  H2  UNL     1     -10.114   5.785  68.312  1.00  0.00     0.000 HD 
HETATM    7  O   UNL     1     -10.264   5.816  70.860  1.00  0.00    -0.196 OA 
HETATM    8  H1  UNL     1     -11.262   6.926  68.826  1.00  0.00     0.000 HD 
HETATM    9  O   UNL     1      -8.679   7.197  71.674  1.00  0.00    -0.119 OA 
ENDROOT
BRANCH   4  10
HETATM   10  C   UNL     1      -9.639   9.837  68.247  1.00  0.00    -0.155 A  
HETATM   11  C   UNL     1      -8.663   9.642  67.259  1.00  0.00    -0.136 A  
HETATM   12  C   UNL     1      -8.607  10.460  66.130  1.00  0.00    -0.151 A  
HETATM   13  C   UNL     1      -9.553  11.463  65.968  1.00  0.00    -0.221 A  
HETATM   14  C   UNL     1     -10.563  11.643  66.905  1.00  0.00    -0.276 A  
HETATM   15  O   UNL     1      -9.522  12.296  64.890  1.00  0.00    -0.454 OA 
HETATM   16  C   UNL     1     -10.606  10.834  68.044  1.00  0.00    -0.245 A  
HETATM   17  H   UNL     1     -10.170  12.983  64.780  1.00  0.00     0.000 HD 
ENDBRANCH   4  10
TORSDOF 1
ENDMDL
MODEL      142
REMARK 921   NORMALIZED FREE ENERGY PREDICTED BY IDOCK:   -1.89 KCAL/MOL
REMARK 922        TOTAL FREE ENERGY PREDICTED BY IDOCK:   -2.07 KCAL/MOL
REMARK 923 INTER-LIGAND FREE ENERGY PREDICTED BY IDOCK:   -1.99 KCAL/MOL
REMARK 924 INTRA-LIGAND FREE ENERGY PREDICTED BY IDOCK:   -0.08 KCAL/MOL
REMARK 927      BINDING AFFINITY PREDICTED BY RF-SCORE:    0.00 PKD
ROOT
HETATM    1  C   UNL     1      -6.805   4.964  66.770  1.00  0.00    -0.062 C  
HETATM    2  C   UNL     1      -8.257   4.495  66.616  1.00  0.00    -0.102 C  
HETATM    3  C   UNL     1      -8.244   2.944  66.618  1.00  0.00    -0.087 C  
HETATM    4  C   UNL     1      -9.151   4.934  67.812  1.00  0.00    -0.128 C  
HETATM    5  N   UNL     1      -8.768   5.000  65.322  1.00  0.00    -0.145 NA 
HETATM    6  H2  UNL     1      -8.180   4.729  64.533  1.00  0.00     0.000 HD 
HETATM    7  O   UNL     1      -8.689   2.403  65.456  1.00  0.00    -0.109 OA 
HETATM    8  H1  UNL     1      -9.733   4.688  65.219  1.00  0.00     0.000 HD 
HETATM    9  O   UNL     1      -7.873   2.248  67.551  1.00  0.00    -0.060 OA 
ENDROOT
BRANCH   4  10
HETATM   10  C   UNL     1      -9.261   6.423  68.084  1.00  0.00    -0.111 A  
HETATM   11  C   UNL     1      -8.395   7.064  68.982  1.00  0.00    -0.126 A  
HETATM   12  C   UNL     1      -8.521   8.427  69.254  1.00  0.00    -0.125 A  
HETATM   13  C   UNL     1      -9.498   9.165  68.600  1.00  0.00    -0.143 A  
HETATM   14  C   UNL     1     -10.333   8.565  67.666  1.00  0.00    -0.317 A  
HETATM   15  O   UNL     1      -9.666  10.494  68.851  1.00  0.00    -0.181 OA 
HETATM   16  C   UNL     1     -10.218   7.196  67.409  1.00  0.00    -0.291 A  
HETATM   17  H   UNL     1     -10.335  10.999  68.403  1.00  0.00     0.000 HD 
ENDBRANCH   4  10
TORSDOF 1
ENDMDL
MODEL      143
REMARK 921   NORMALIZED FREE ENERGY PREDICTED BY IDOCK:   -1.64 KCAL/MOL
REMARK 922        TOTAL FREE ENERGY PREDICTED BY IDOCK:   -1.81 KCAL/MOL
REMARK 923 INTER-LIGAND FREE ENERGY PREDICTED BY IDOCK:   -2.34 KCAL/MOL
REMARK 924 INTRA-LIGAND FREE ENERGY PREDICTED BY IDOCK:    0.53 KCAL/MOL
REMARK 927      BINDING AFFINITY PREDICTED BY RF-SCORE:    0.00 PKD
ROOT
HETATM    1  C   UNL     1     -10.869   9.165  68.631  1.00  0.00    -0.092 C  
HETATM    2  C   UNL     1      -9.476   9.236  69.269  1.00  0.00    -0.160 C  
HETATM    3  C   UNL     1      -8.978   7.779  69.455  1.00  0.00    -0.142 C  
HETATM    4  C   UNL     1      -8.441   9.946  68.349  1.00  0.00    -0.111 C  
HETATM    5  N   UNL     1      -9.606   9.904  70.583  1.00  0.00    -0.323 NA 
HETATM    6  H2  UNL     1     -10.293   9.454  71.188  1.00  0.00     0.000 HD 
HETATM    7  O   UNL     1      -8.781   7.443  70.755  1.00  0.00    -0.142 OA 
HETATM    8  H1  UNL     1      -8.680   9.951  71.007  1.00  0.00     0.000 HD 
HETATM    9  O   UNL     1      -8.779   6.986  68.547  1.00  0.00    -0.123 OA 
ENDROOT
BRANCH   4  10
HETATM   10  C   UNL     1      -8.744  11.375  67.940  1.00  0.00    -0.145 A  
HETATM   11  C   UNL     1     -10.048  11.886  67.993  1.00  0.00    -0.199 A  
HETATM   12  C   UNL     1     -10.329  13.191  67.585  1.00  0.00    -0.223 A  
HETATM   13  C   UNL     1      -9.292  14.006  67.150  1.00  0.00    -0.242 A  
HETATM   14  C   UNL     1      -7.983  13.541  67.138  1.00  0.00    -0.058 A  
HETATM   15  O   UNL     1      -9.525  15.279  66.725  1.00  0.00    -0.222 OA 
HETATM   16  C   UNL     1      -7.708  12.228  67.529  1.00  0.00    -0.158 A  
HETATM   17  H   UNL     1      -8.815  15.836  66.427  1.00  0.00     0.000 HD 
ENDBRANCH   4  10
TORSDOF 1
ENDMDL
MODEL      144
REMARK 921   NORMALIZED FREE ENERGY PREDICTED BY IDOCK:   -0.36 KCAL/MOL
REMARK 922        TOTAL FREE ENERGY PREDICTED BY IDOCK:   -0.45 KCAL/MOL
REMARK 923 INTER-LIGAND FREE ENERGY PREDICTED BY IDOCK:   -0.37 KCAL/MOL
REMARK 924 INTRA-LIGAND FREE ENERGY PREDICTED BY IDOCK:   -0.09 KCAL/MOL
REMARK 927      BINDING AFFINITY PREDICTED BY RF-SCORE:    0.00 PKD
ROOT
HETATM    1  C   UNL     1      -6.762   9.862  71.599  1.00  0.00     0.658 C  
HETATM    2  C   UNL     1      -7.132   9.168  70.283  1.00  0.00    -0.063 C  
HETATM    3  C   UNL     1      -6.512  10.001  69.131  1.00  0.00    -0.048 C  
HETATM    4  C   UNL     1      -6.523   7.740  70.176  1.00  0.00    -0.034 C  
HETATM    5  N   UNL     1      -8.607   9.157  70.168  1.00  0.00    -0.163 NA 
HETATM    6  H2  UNL     1      -9.016  10.088  70.251  1.00  0.00     0.000 HD 
HETATM    7  O   UNL     1      -7.439  10.529  68.293  1.00  0.00    -0.086 OA 
HETATM    8  H1  UNL     1      -8.853   8.695  69.293  1.00  0.00     0.000 HD 
HETATM    9  O   UNL     1      -5.315  10.188  68.967  1.00  0.00    -0.036 OA 
ENDROOT
BRANCH   4  10
HETATM   10  C   UNL     1      -6.908   6.741  71.252  1.00  0.00    -0.062 A  
HETATM   11  C   UNL     1      -6.100   6.540  72.380  1.00  0.00    -0.042 A  
HETATM   12  C   UNL     1      -6.440   5.597  73.352  1.00  0.00    -0.072 A  
HETATM   13  C   UNL     1      -7.616   4.872  73.213  1.00  0.00    -0.092 A  
HETATM   14  C   UNL     1      -8.461   5.090  72.133  1.00  0.00    -0.125 A  
HETATM   15  O   UNL     1      -7.975   3.929  74.129  1.00  0.00    -0.081 OA 
HETATM   16  C   UNL     1      -8.108   6.021  71.152  1.00  0.00    -0.121 A  
HETATM   17  H   UNL     1      -8.780   3.432  74.034  1.00  0.00     0.000 HD 
ENDBRANCH   4  10
TORSDOF 1
ENDMDL
MODEL      145
REMARK 921   NORMALIZED FREE ENERGY PREDICTED BY IDOCK:    2.76 KCAL/MOL
REMARK 922        TOTAL FREE ENERGY PREDICTED BY IDOCK:    2.86 KCAL/MOL
REMARK 923 INTER-LIGAND FREE ENERGY PREDICTED BY IDOCK:    2.67 KCAL/MOL
REMARK 924 INTRA-LIGAND FREE ENERGY PREDICTED BY IDOCK:    0.19 KCAL/MOL
REMARK 927      BINDING AFFINITY PREDICTED BY RF-SCORE:    0.00 PKD
ROOT
HETATM    1  C   UNL     1      -8.529  15.176  65.823  1.00  0.00     1.286 C  
HETATM    2  C   UNL     1      -9.923  14.571  65.617  1.00  0.00    -0.347 C  
HETATM    3  C   UNL     1     -10.770  15.615  64.843  1.00  0.00    -0.382 C  
HETATM    4  C   UNL     1      -9.887  13.288  64.737  1.00  0.00    -0.028 C  
HETATM    5  N   UNL     1     -10.516  14.318  66.949  1.00  0.00    -0.271 NA 
HETATM    6  H2  UNL     1     -10.531  15.151  67.538  1.00  0.00     0.000 HD 
HETATM    7  O   UNL     1     -11.842  16.061  65.545  1.00  0.00     0.480 OA 
HETATM    8  H1  UNL     1     -11.443  13.916  66.812  1.00  0.00     0.000 HD 
HETATM    9  O   UNL     1     -10.523  16.020  63.717  1.00  0.00     1.266 OA 
ENDROOT
BRANCH   4  10
HETATM   10  C   UNL     1      -9.042  12.130  65.236  1.00  0.00     0.345 A  
HETATM   11  C   UNL     1      -9.072  11.735  66.581  1.00  0.00    -0.194 A  
HETATM   12  C   UNL     1      -8.269  10.691  67.043  1.00  0.00    -0.124 A  
HETATM   13  C   UNL     1      -7.452  10.013  66.149  1.00  0.00    -0.109 A  
HETATM   14  C   UNL     1      -7.442  10.350  64.802  1.00  0.00    -0.049 A  
HETATM   15  O   UNL     1      -6.638   9.002  66.562  1.00  0.00    -0.066 OA 
HETATM   16  C   UNL     1      -8.233  11.408  64.345  1.00  0.00     0.860 A  
HETATM   17  H   UNL     1      -6.078   8.538  65.950  1.00  0.00     0.000 HD 
ENDBRANCH   4  10
TORSDOF 1
ENDMDL
MODEL      146
REMARK 921   NORMALIZED FREE ENERGY PREDICTED BY IDOCK:   24.13 KCAL/MOL
REMARK 922        TOTAL FREE ENERGY PREDICTED BY IDOCK:   25.48 KCAL/MOL
REMARK 923 INTER-LIGAND FREE ENERGY PREDICTED BY IDOCK:   25.03 KCAL/MOL
REMARK 924 INTRA-LIGAND FREE ENERGY PREDICTED BY IDOCK:    0.45 KCAL/MOL
REMARK 927      BINDING AFFINITY PREDICTED BY RF-SCORE:    0.00 PKD
ROOT
HETATM    1  C   UNL     1      -9.292  17.425  64.225  1.00  0.00     7.666 C  
HETATM    2  C   UNL     1     -10.291  18.357  64.923  1.00  0.00     2.109 C  
HETATM    3  C   UNL     1     -11.651  18.206  64.192  1.00  0.00     5.957 C  
HETATM    4  C   UNL     1     -10.536  17.957  66.406  1.00  0.00    -0.238 C  
HETATM    5  N   UNL     1      -9.792  19.744  64.793  1.00  0.00     1.538 NA 
HETATM    6  H2  UNL     1      -9.615  20.011  63.824  1.00  0.00     0.000 HD 
HETATM    7  O   UNL     1     -12.072  19.354  63.603  1.00  0.00     7.672 OA 
HETATM    8  H1  UNL     1     -10.456  20.364  65.256  1.00  0.00     0.000 HD 
HETATM    9  O   UNL     1     -12.301  17.174  64.130  1.00  0.00     1.526 OA 
ENDROOT
BRANCH   4  10
HETATM   10  C   UNL     1      -9.330  17.938  67.326  1.00  0.00    -0.258 A  
HETATM   11  C   UNL     1      -8.164  18.651  67.012  1.00  0.00    -0.259 A  
HETATM   12  C   UNL     1      -7.045  18.605  67.844  1.00  0.00    -0.245 A  
HETATM   13  C   UNL     1      -7.099  17.867  69.019  1.00  0.00    -0.228 A  
HETATM   14  C   UNL     1      -8.260  17.195  69.380  1.00  0.00     0.311 A  
HETATM   15  O   UNL     1      -6.023  17.780  69.849  1.00  0.00    -0.247 OA 
HETATM   16  C   UNL     1      -9.373  17.227  68.536  1.00  0.00    -0.276 A  
HETATM   17  H   UNL     1      -6.060  17.275  70.653  1.00  0.00     0.000 HD 
ENDBRANCH   4  10
TORSDOF 1
ENDMDL
