MODEL        1
REMARK 921   NORMALIZED FREE ENERGY PREDICTED BY IDOCK:   -6.26 KCAL/MOL
REMARK 922        TOTAL FREE ENERGY PREDICTED BY IDOCK:   -7.57 KCAL/MOL
REMARK 923 INTER-LIGAND FREE ENERGY PREDICTED BY IDOCK:   -7.36 KCAL/MOL
REMARK 924 INTRA-LIGAND FREE ENERGY PREDICTED BY IDOCK:   -0.21 KCAL/MOL
REMARK 927      BINDING AFFINITY PREDICTED BY RF-SCORE:    0.00 PKD
ROOT
HETATM    1  C   UNL     1      -9.047  14.617  66.749  1.00  0.00    -0.287 C  
HETATM    2  C   UNL     1     -10.475  14.980  66.285  1.00  0.00    -0.309 C  
HETATM    3  C   UNL     1     -11.343  15.073  67.569  1.00  0.00    -0.340 C  
ENDROOT
BRANCH   2   4
HETATM    4  C   UNL     1     -11.132  13.939  65.381  1.00  0.00    -0.310 A  
HETATM    5  C   UNL     1     -12.460  12.119  63.792  1.00  0.00    -0.514 A  
HETATM    6  C   UNL     1     -10.456  13.283  64.339  1.00  0.00    -0.424 A  
HETATM    7  C   UNL     1     -12.477  13.595  65.557  1.00  0.00    -0.503 A  
HETATM    8  C   UNL     1     -11.127  12.368  63.532  1.00  0.00    -0.521 A  
HETATM    9  N   UNL     1     -13.150  12.712  64.787  1.00  0.00    -0.848 NA 
ENDBRANCH   2   4
BRANCH   2  10
HETATM   10  C   UNL     1     -10.403  16.385  65.627  1.00  0.00    -0.350 C  
HETATM   11  O   UNL     1     -10.918  16.611  64.529  1.00  0.00    -0.885 OA 
BRANCH  10  12
HETATM   12  C   UNL     1      -9.793  17.552  66.331  1.00  0.00    -0.316 A  
HETATM   13  C   UNL     1      -8.433  17.823  66.368  1.00  0.00    -0.239 A  
HETATM   14  C   UNL     1      -8.733  19.746  67.608  1.00  0.00    -0.326 A  
HETATM   15  C   UNL     1     -10.107  19.582  67.613  1.00  0.00    -0.526 A  
HETATM   16  N   UNL     1      -7.884  18.890  67.004  1.00  0.00    -0.239 NA 
HETATM   17  C   UNL     1     -10.641  18.470  66.963  1.00  0.00    -0.421 A  
ENDBRANCH  10  12
ENDBRANCH   2  10
TORSDOF 3
ENDMDL
MODEL        2
REMARK 921   NORMALIZED FREE ENERGY PREDICTED BY IDOCK:   -6.13 KCAL/MOL
REMARK 922        TOTAL FREE ENERGY PREDICTED BY IDOCK:   -7.41 KCAL/MOL
REMARK 923 INTER-LIGAND FREE ENERGY PREDICTED BY IDOCK:   -7.09 KCAL/MOL
REMARK 924 INTRA-LIGAND FREE ENERGY PREDICTED BY IDOCK:   -0.32 KCAL/MOL
REMARK 927      BINDING AFFINITY PREDICTED BY RF-SCORE:    0.00 PKD
ROOT
HETATM    1  C   UNL     1     -10.528  15.610  67.769  1.00  0.00    -0.273 C  
HETATM    2  C   UNL     1      -9.925  16.355  66.559  1.00  0.00    -0.294 C  
HETATM    3  C   UNL     1      -8.503  15.768  66.347  1.00  0.00    -0.313 C  
ENDROOT
BRANCH   2   4
HETATM    4  C   UNL     1      -9.758  17.860  66.757  1.00  0.00    -0.314 A  
HETATM    5  C   UNL     1      -9.344  20.575  67.002  1.00  0.00    -0.345 A  
HETATM    6  C   UNL     1     -10.731  18.673  67.361  1.00  0.00    -0.456 A  
HETATM    7  C   UNL     1      -8.594  18.507  66.324  1.00  0.00    -0.205 A  
HETATM    8  C   UNL     1     -10.526  20.045  67.480  1.00  0.00    -0.487 A  
HETATM    9  N   UNL     1      -8.372  19.835  66.427  1.00  0.00    -0.338 NA 
ENDBRANCH   2   4
BRANCH   2  10
HETATM   10  C   UNL     1     -10.799  16.007  65.322  1.00  0.00    -0.362 C  
HETATM   11  O   UNL     1     -11.046  16.844  64.451  1.00  0.00    -1.128 OA 
BRANCH  10  12
HETATM   12  C   UNL     1     -11.299  14.622  65.078  1.00  0.00    -0.390 A  
HETATM   13  C   UNL     1     -12.619  14.225  65.241  1.00  0.00    -0.394 A  
HETATM   14  C   UNL     1     -12.172  12.063  64.568  1.00  0.00    -0.241 A  
HETATM   15  C   UNL     1     -10.837  12.359  64.351  1.00  0.00    -0.375 A  
HETATM   16  N   UNL     1     -13.071  12.965  65.011  1.00  0.00    -0.773 NA 
HETATM   17  C   UNL     1     -10.399  13.658  64.609  1.00  0.00    -0.407 A  
ENDBRANCH  10  12
ENDBRANCH   2  10
TORSDOF 3
ENDMDL
MODEL        3
REMARK 921   NORMALIZED FREE ENERGY PREDICTED BY IDOCK:   -5.96 KCAL/MOL
REMARK 922        TOTAL FREE ENERGY PREDICTED BY IDOCK:   -7.23 KCAL/MOL
REMARK 923 INTER-LIGAND FREE ENERGY PREDICTED BY IDOCK:   -6.78 KCAL/MOL
REMARK 924 INTRA-LIGAND FREE ENERGY PREDICTED BY IDOCK:   -0.44 KCAL/MOL
REMARK 927      BINDING AFFINITY PREDICTED BY RF-SCORE:    0.00 PKD
ROOT
HETATM    1  C   UNL     1      -8.759  15.867  66.237  1.00  0.00    -0.372 C  
HETATM    2  C   UNL     1     -10.259  16.142  66.482  1.00  0.00    -0.304 C  
HETATM    3  C   UNL     1     -10.380  17.656  66.806  1.00  0.00    -0.331 C  
ENDROOT
BRANCH   2   4
HETATM    4  C   UNL     1     -10.858  15.387  67.666  1.00  0.00    -0.304 A  
HETATM    5  C   UNL     1     -12.055  14.133  69.811  1.00  0.00    -0.354 A  
HETATM    6  C   UNL     1     -10.574  14.041  67.948  1.00  0.00    -0.246 A  
HETATM    7  C   UNL     1     -11.747  16.027  68.539  1.00  0.00    -0.241 A  
HETATM    8  C   UNL     1     -11.182  13.404  69.026  1.00  0.00    -0.323 A  
HETATM    9  N   UNL     1     -12.350  15.431  69.590  1.00  0.00    -0.272 NA 
ENDBRANCH   2   4
BRANCH   2  10
HETATM   10  C   UNL     1     -11.004  15.855  65.149  1.00  0.00    -0.377 C  
HETATM   11  O   UNL     1     -11.172  16.735  64.302  1.00  0.00    -1.163 OA 
BRANCH  10  12
HETATM   12  C   UNL     1     -11.466  14.483  64.786  1.00  0.00    -0.408 A  
HETATM   13  C   UNL     1     -12.735  13.987  65.050  1.00  0.00    -0.328 A  
HETATM   14  C   UNL     1     -12.273  11.957  64.053  1.00  0.00    -0.339 A  
HETATM   15  C   UNL     1     -10.992  12.360  63.723  1.00  0.00    -0.501 A  
HETATM   16  N   UNL     1     -13.153  12.739  64.711  1.00  0.00    -0.836 NA 
HETATM   17  C   UNL     1     -10.586  13.641  64.094  1.00  0.00    -0.082 A  
ENDBRANCH  10  12
ENDBRANCH   2  10
TORSDOF 3
ENDMDL
MODEL        4
REMARK 921   NORMALIZED FREE ENERGY PREDICTED BY IDOCK:   -5.83 KCAL/MOL
REMARK 922        TOTAL FREE ENERGY PREDICTED BY IDOCK:   -7.07 KCAL/MOL
REMARK 923 INTER-LIGAND FREE ENERGY PREDICTED BY IDOCK:   -6.81 KCAL/MOL
REMARK 924 INTRA-LIGAND FREE ENERGY PREDICTED BY IDOCK:   -0.26 KCAL/MOL
REMARK 927      BINDING AFFINITY PREDICTED BY RF-SCORE:    0.00 PKD
ROOT
HETATM    1  C   UNL     1     -11.586  15.831  68.539  1.00  0.00    -0.367 C  
HETATM    2  C   UNL     1     -11.230  14.329  68.506  1.00  0.00    -0.289 C  
HETATM    3  C   UNL     1      -9.688  14.240  68.674  1.00  0.00    -0.213 C  
ENDROOT
BRANCH   2   4
HETATM    4  C   UNL     1     -11.574  13.623  67.197  1.00  0.00    -0.392 A  
HETATM    5  C   UNL     1     -12.273  12.479  64.787  1.00  0.00    -0.465 A  
HETATM    6  C   UNL     1     -10.878  12.502  66.717  1.00  0.00    -0.281 A  
HETATM    7  C   UNL     1     -12.626  14.085  66.397  1.00  0.00    -0.245 A  
HETATM    8  C   UNL     1     -11.225  11.926  65.497  1.00  0.00    -0.353 A  
HETATM    9  N   UNL     1     -12.982  13.546  65.211  1.00  0.00    -0.711 NA 
ENDBRANCH   2   4
BRANCH   2  10
HETATM   10  C   UNL     1     -11.905  13.668  69.739  1.00  0.00    -0.327 C  
HETATM   11  O   UNL     1     -11.985  12.443  69.851  1.00  0.00    -0.322 OA 
BRANCH  10  12
HETATM   12  C   UNL     1     -12.402  14.477  70.891  1.00  0.00    -0.415 A  
HETATM   13  C   UNL     1     -13.742  14.649  71.209  1.00  0.00    -0.374 A  
HETATM   14  C   UNL     1     -13.257  15.945  73.055  1.00  0.00    -0.552 A  
HETATM   15  C   UNL     1     -11.895  15.819  72.841  1.00  0.00    -0.568 A  
HETATM   16  N   UNL     1     -14.189  15.381  72.262  1.00  0.00    -0.561 NA 
HETATM   17  C   UNL     1     -11.465  15.073  71.744  1.00  0.00    -0.376 A  
ENDBRANCH  10  12
ENDBRANCH   2  10
TORSDOF 3
ENDMDL
MODEL        5
REMARK 921   NORMALIZED FREE ENERGY PREDICTED BY IDOCK:   -5.80 KCAL/MOL
REMARK 922        TOTAL FREE ENERGY PREDICTED BY IDOCK:   -7.03 KCAL/MOL
REMARK 923 INTER-LIGAND FREE ENERGY PREDICTED BY IDOCK:   -6.63 KCAL/MOL
REMARK 924 INTRA-LIGAND FREE ENERGY PREDICTED BY IDOCK:   -0.40 KCAL/MOL
REMARK 927      BINDING AFFINITY PREDICTED BY RF-SCORE:    0.00 PKD
ROOT
HETATM    1  C   UNL     1      -9.442  14.292  68.926  1.00  0.00    -0.071 C  
HETATM    2  C   UNL     1     -10.942  14.277  68.561  1.00  0.00    -0.267 C  
HETATM    3  C   UNL     1     -11.545  13.017  69.239  1.00  0.00    -0.367 C  
ENDROOT
BRANCH   2   4
HETATM    4  C   UNL     1     -11.232  14.158  67.067  1.00  0.00    -0.328 A  
HETATM    5  C   UNL     1     -11.909  13.972  64.400  1.00  0.00    -0.431 A  
HETATM    6  C   UNL     1     -10.246  14.287  66.076  1.00  0.00    -0.327 A  
HETATM    7  C   UNL     1     -12.535  13.916  66.615  1.00  0.00    -0.270 A  
HETATM    8  C   UNL     1     -10.587  14.199  64.728  1.00  0.00    -0.439 A  
HETATM    9  N   UNL     1     -12.891  13.828  65.315  1.00  0.00    -0.737 NA 
ENDBRANCH   2   4
BRANCH   2  10
HETATM   10  C   UNL     1     -11.583  15.541  69.197  1.00  0.00    -0.362 C  
HETATM   11  O   UNL     1     -11.712  16.589  68.560  1.00  0.00    -0.171 OA 
BRANCH  10  12
HETATM   12  C   UNL     1     -12.162  15.522  70.573  1.00  0.00    -0.444 A  
HETATM   13  C   UNL     1     -11.439  15.765  71.732  1.00  0.00    -0.398 A  
HETATM   14  C   UNL     1     -13.295  15.516  73.080  1.00  0.00    -0.528 A  
HETATM   15  C   UNL     1     -14.112  15.282  71.988  1.00  0.00    -0.662 A  
HETATM   16  N   UNL     1     -11.972  15.753  72.982  1.00  0.00    -0.472 NA 
HETATM   17  C   UNL     1     -13.535  15.287  70.719  1.00  0.00    -0.359 A  
ENDBRANCH  10  12
ENDBRANCH   2  10
TORSDOF 3
ENDMDL
MODEL        6
REMARK 921   NORMALIZED FREE ENERGY PREDICTED BY IDOCK:   -5.80 KCAL/MOL
REMARK 922        TOTAL FREE ENERGY PREDICTED BY IDOCK:   -7.03 KCAL/MOL
REMARK 923 INTER-LIGAND FREE ENERGY PREDICTED BY IDOCK:   -6.67 KCAL/MOL
REMARK 924 INTRA-LIGAND FREE ENERGY PREDICTED BY IDOCK:   -0.36 KCAL/MOL
REMARK 927      BINDING AFFINITY PREDICTED BY RF-SCORE:    0.00 PKD
ROOT
HETATM    1  C   UNL     1      -9.601  14.882  68.936  1.00  0.00    -0.215 C  
HETATM    2  C   UNL     1     -10.087  15.225  67.512  1.00  0.00    -0.232 C  
HETATM    3  C   UNL     1      -8.981  14.730  66.540  1.00  0.00    -0.267 C  
ENDROOT
BRANCH   2   4
HETATM    4  C   UNL     1     -10.273  16.717  67.246  1.00  0.00    -0.292 A  
HETATM    5  C   UNL     1     -10.656  19.375  66.620  1.00  0.00    -0.467 A  
HETATM    6  C   UNL     1     -10.413  17.672  68.266  1.00  0.00    -0.376 A  
HETATM    7  C   UNL     1     -10.320  17.204  65.934  1.00  0.00    -0.284 A  
HETATM    8  C   UNL     1     -10.613  19.014  67.952  1.00  0.00    -0.441 A  
HETATM    9  N   UNL     1     -10.514  18.499  65.603  1.00  0.00    -0.608 NA 
ENDBRANCH   2   4
BRANCH   2  10
HETATM   10  C   UNL     1     -11.381  14.405  67.256  1.00  0.00    -0.342 C  
HETATM   11  O   UNL     1     -12.251  14.286  68.122  1.00  0.00    -0.284 OA 
BRANCH  10  12
HETATM   12  C   UNL     1     -11.680  13.804  65.922  1.00  0.00    -0.370 A  
HETATM   13  C   UNL     1     -12.348  14.461  64.898  1.00  0.00    -0.405 A  
HETATM   14  C   UNL     1     -12.163  12.659  63.468  1.00  0.00    -0.547 A  
HETATM   15  C   UNL     1     -11.469  11.923  64.412  1.00  0.00    -0.393 A  
HETATM   16  N   UNL     1     -12.611  13.912  63.683  1.00  0.00    -0.794 NA 
HETATM   17  C   UNL     1     -11.225  12.507  65.655  1.00  0.00    -0.352 A  
ENDBRANCH  10  12
ENDBRANCH   2  10
TORSDOF 3
ENDMDL
MODEL        7
REMARK 921   NORMALIZED FREE ENERGY PREDICTED BY IDOCK:   -5.76 KCAL/MOL
REMARK 922        TOTAL FREE ENERGY PREDICTED BY IDOCK:   -6.99 KCAL/MOL
REMARK 923 INTER-LIGAND FREE ENERGY PREDICTED BY IDOCK:   -6.61 KCAL/MOL
REMARK 924 INTRA-LIGAND FREE ENERGY PREDICTED BY IDOCK:   -0.38 KCAL/MOL
REMARK 927      BINDING AFFINITY PREDICTED BY RF-SCORE:    0.00 PKD
ROOT
HETATM    1  C   UNL     1      -8.696  15.662  66.596  1.00  0.00    -0.333 C  
HETATM    2  C   UNL     1      -9.994  15.079  67.194  1.00  0.00    -0.237 C  
HETATM    3  C   UNL     1      -9.558  14.108  68.326  1.00  0.00    -0.226 C  
ENDROOT
BRANCH   2   4
HETATM    4  C   UNL     1     -10.836  14.266  66.213  1.00  0.00    -0.310 A  
HETATM    5  C   UNL     1     -12.413  12.716  64.566  1.00  0.00    -0.448 A  
HETATM    6  C   UNL     1     -11.141  14.699  64.913  1.00  0.00    -0.409 A  
HETATM    7  C   UNL     1     -11.357  13.022  66.588  1.00  0.00    -0.325 A  
HETATM    8  C   UNL     1     -11.943  13.921  64.082  1.00  0.00    -0.464 A  
HETATM    9  N   UNL     1     -12.138  12.249  65.802  1.00  0.00    -0.603 NA 
ENDBRANCH   2   4
BRANCH   2  10
HETATM   10  C   UNL     1     -10.783  16.260  67.825  1.00  0.00    -0.325 C  
HETATM   11  O   UNL     1     -11.657  16.071  68.673  1.00  0.00    -0.386 OA 
BRANCH  10  12
HETATM   12  C   UNL     1     -10.455  17.681  67.509  1.00  0.00    -0.365 A  
HETATM   13  C   UNL     1     -10.643  18.272  66.267  1.00  0.00    -0.296 A  
HETATM   14  C   UNL     1      -9.873  20.321  66.999  1.00  0.00    -0.467 A  
HETATM   15  C   UNL     1      -9.668  19.838  68.279  1.00  0.00    -0.499 A  
HETATM   16  N   UNL     1     -10.350  19.569  65.987  1.00  0.00    -0.496 NA 
HETATM   17  C   UNL     1      -9.965  18.500  68.535  1.00  0.00    -0.419 A  
ENDBRANCH  10  12
ENDBRANCH   2  10
TORSDOF 3
ENDMDL
MODEL        8
REMARK 921   NORMALIZED FREE ENERGY PREDICTED BY IDOCK:   -5.75 KCAL/MOL
REMARK 922        TOTAL FREE ENERGY PREDICTED BY IDOCK:   -6.98 KCAL/MOL
REMARK 923 INTER-LIGAND FREE ENERGY PREDICTED BY IDOCK:   -6.52 KCAL/MOL
REMARK 924 INTRA-LIGAND FREE ENERGY PREDICTED BY IDOCK:   -0.46 KCAL/MOL
REMARK 927      BINDING AFFINITY PREDICTED BY RF-SCORE:    0.00 PKD
ROOT
HETATM    1  C   UNL     1      -8.744  13.925  66.877  1.00  0.00    -0.177 C  
HETATM    2  C   UNL     1     -10.237  13.568  67.042  1.00  0.00    -0.249 C  
HETATM    3  C   UNL     1     -10.300  12.419  68.085  1.00  0.00    -0.231 C  
ENDROOT
BRANCH   2   4
HETATM    4  C   UNL     1     -10.912  13.053  65.773  1.00  0.00    -0.299 A  
HETATM    5  C   UNL     1     -12.265  12.193  63.530  1.00  0.00    -0.567 A  
HETATM    6  C   UNL     1     -10.202  12.636  64.636  1.00  0.00    -0.319 A  
HETATM    7  C   UNL     1     -12.308  12.981  65.692  1.00  0.00    -0.446 A  
HETATM    8  C   UNL     1     -10.884  12.207  63.499  1.00  0.00    -0.518 A  
HETATM    9  N   UNL     1     -12.992  12.570  64.602  1.00  0.00    -0.844 NA 
ENDBRANCH   2   4
BRANCH   2  10
HETATM   10  C   UNL     1     -10.946  14.818  67.633  1.00  0.00    -0.291 C  
HETATM   11  O   UNL     1     -11.685  14.736  68.617  1.00  0.00    -0.308 OA 
BRANCH  10  12
HETATM   12  C   UNL     1     -10.694  16.190  67.101  1.00  0.00    -0.262 A  
HETATM   13  C   UNL     1     -10.761  16.535  65.759  1.00  0.00    -0.225 A  
HETATM   14  C   UNL     1     -10.262  18.748  66.185  1.00  0.00    -0.421 A  
HETATM   15  C   UNL     1     -10.192  18.516  67.548  1.00  0.00    -0.414 A  
HETATM   16  N   UNL     1     -10.537  17.787  65.281  1.00  0.00    -0.575 NA 
HETATM   17  C   UNL     1     -10.413  17.219  68.009  1.00  0.00    -0.375 A  
ENDBRANCH  10  12
ENDBRANCH   2  10
TORSDOF 3
ENDMDL
MODEL        9
REMARK 921   NORMALIZED FREE ENERGY PREDICTED BY IDOCK:   -5.72 KCAL/MOL
REMARK 922        TOTAL FREE ENERGY PREDICTED BY IDOCK:   -6.94 KCAL/MOL
REMARK 923 INTER-LIGAND FREE ENERGY PREDICTED BY IDOCK:   -6.38 KCAL/MOL
REMARK 924 INTRA-LIGAND FREE ENERGY PREDICTED BY IDOCK:   -0.56 KCAL/MOL
REMARK 927      BINDING AFFINITY PREDICTED BY RF-SCORE:    0.00 PKD
ROOT
HETATM    1  C   UNL     1      -9.148  14.610  68.400  1.00  0.00    -0.192 C  
HETATM    2  C   UNL     1     -10.669  14.582  68.132  1.00  0.00    -0.240 C  
HETATM    3  C   UNL     1     -11.273  13.565  69.139  1.00  0.00    -0.310 C  
ENDROOT
BRANCH   2   4
HETATM    4  C   UNL     1     -11.060  14.106  66.735  1.00  0.00    -0.314 A  
HETATM    5  C   UNL     1     -11.910  13.310  64.236  1.00  0.00    -0.417 A  
HETATM    6  C   UNL     1     -10.124  13.787  65.738  1.00  0.00    -0.322 A  
HETATM    7  C   UNL     1     -12.408  13.974  66.382  1.00  0.00    -0.431 A  
HETATM    8  C   UNL     1     -10.551  13.390  64.473  1.00  0.00    -0.441 A  
HETATM    9  N   UNL     1     -12.848  13.593  65.163  1.00  0.00    -0.738 NA 
ENDBRANCH   2   4
BRANCH   2  10
HETATM   10  C   UNL     1     -11.220  15.997  68.460  1.00  0.00    -0.374 C  
HETATM   11  O   UNL     1     -12.132  16.162  69.274  1.00  0.00    -0.225 OA 
BRANCH  10  12
HETATM   12  C   UNL     1     -10.611  17.231  67.882  1.00  0.00    -0.384 A  
HETATM   13  C   UNL     1     -10.525  17.501  66.523  1.00  0.00    -0.270 A  
HETATM   14  C   UNL     1      -9.516  19.546  66.877  1.00  0.00    -0.344 A  
HETATM   15  C   UNL     1      -9.572  19.387  68.250  1.00  0.00    -0.454 A  
HETATM   16  N   UNL     1      -9.976  18.629  66.002  1.00  0.00    -0.534 NA 
HETATM   17  C   UNL     1     -10.129  18.213  68.756  1.00  0.00    -0.392 A  
ENDBRANCH  10  12
ENDBRANCH   2  10
TORSDOF 3
ENDMDL
MODEL       10
REMARK 921   NORMALIZED FREE ENERGY PREDICTED BY IDOCK:   -5.70 KCAL/MOL
REMARK 922        TOTAL FREE ENERGY PREDICTED BY IDOCK:   -6.92 KCAL/MOL
REMARK 923 INTER-LIGAND FREE ENERGY PREDICTED BY IDOCK:   -6.47 KCAL/MOL
REMARK 924 INTRA-LIGAND FREE ENERGY PREDICTED BY IDOCK:   -0.45 KCAL/MOL
REMARK 927      BINDING AFFINITY PREDICTED BY RF-SCORE:    0.00 PKD
ROOT
HETATM    1  C   UNL     1      -9.321  15.509  69.408  1.00  0.00    -0.279 C  
HETATM    2  C   UNL     1     -10.075  15.588  68.062  1.00  0.00    -0.223 C  
HETATM    3  C   UNL     1      -9.216  14.803  67.033  1.00  0.00    -0.248 C  
ENDROOT
BRANCH   2   4
HETATM    4  C   UNL     1     -10.244  17.002  67.511  1.00  0.00    -0.323 A  
HETATM    5  C   UNL     1     -10.610  19.491  66.383  1.00  0.00    -0.472 A  
HETATM    6  C   UNL     1     -10.273  18.149  68.321  1.00  0.00    -0.402 A  
HETATM    7  C   UNL     1     -10.389  17.214  66.135  1.00  0.00    -0.322 A  
HETATM    8  C   UNL     1     -10.464  19.406  67.754  1.00  0.00    -0.556 A  
HETATM    9  N   UNL     1     -10.576  18.422  65.560  1.00  0.00    -0.567 NA 
ENDBRANCH   2   4
BRANCH   2  10
HETATM   10  C   UNL     1     -11.430  14.851  68.248  1.00  0.00    -0.324 C  
HETATM   11  O   UNL     1     -12.006  14.312  67.301  1.00  0.00    -0.401 OA 
BRANCH  10  12
HETATM   12  C   UNL     1     -12.050  14.674  69.595  1.00  0.00    -0.355 A  
HETATM   13  C   UNL     1     -12.589  15.706  70.351  1.00  0.00    -0.336 A  
HETATM   14  C   UNL     1     -13.221  14.280  72.053  1.00  0.00    -0.385 A  
HETATM   15  C   UNL     1     -12.734  13.179  71.372  1.00  0.00    -0.390 A  
HETATM   16  N   UNL     1     -13.159  15.539  71.573  1.00  0.00    -0.471 NA 
HETATM   17  C   UNL     1     -12.142  13.382  70.125  1.00  0.00    -0.415 A  
ENDBRANCH  10  12
ENDBRANCH   2  10
TORSDOF 3
ENDMDL
MODEL       11
REMARK 921   NORMALIZED FREE ENERGY PREDICTED BY IDOCK:   -5.65 KCAL/MOL
REMARK 922        TOTAL FREE ENERGY PREDICTED BY IDOCK:   -6.85 KCAL/MOL
REMARK 923 INTER-LIGAND FREE ENERGY PREDICTED BY IDOCK:   -6.47 KCAL/MOL
REMARK 924 INTRA-LIGAND FREE ENERGY PREDICTED BY IDOCK:   -0.38 KCAL/MOL
REMARK 927      BINDING AFFINITY PREDICTED BY RF-SCORE:    0.00 PKD
ROOT
HETATM    1  C   UNL     1      -9.503  15.348  69.695  1.00  0.00    -0.220 C  
HETATM    2  C   UNL     1     -11.024  15.217  69.463  1.00  0.00    -0.279 C  
HETATM    3  C   UNL     1     -11.436  16.417  68.568  1.00  0.00    -0.209 C  
ENDROOT
BRANCH   2   4
HETATM    4  C   UNL     1     -11.870  15.300  70.732  1.00  0.00    -0.381 A  
HETATM    5  C   UNL     1     -13.518  15.389  72.940  1.00  0.00    -0.533 A  
HETATM    6  C   UNL     1     -11.322  15.405  72.020  1.00  0.00    -0.466 A  
HETATM    7  C   UNL     1     -13.267  15.266  70.655  1.00  0.00    -0.323 A  
HETATM    8  C   UNL     1     -12.153  15.444  73.137  1.00  0.00    -0.566 A  
HETATM    9  N   UNL     1     -14.094  15.301  71.723  1.00  0.00    -0.520 NA 
ENDBRANCH   2   4
BRANCH   2  10
HETATM   10  C   UNL     1     -11.258  13.900  68.673  1.00  0.00    -0.270 C  
HETATM   11  O   UNL     1     -11.397  12.818  69.248  1.00  0.00    -0.263 OA 
BRANCH  10  12
HETATM   12  C   UNL     1     -11.423  13.892  67.189  1.00  0.00    -0.370 A  
HETATM   13  C   UNL     1     -12.646  13.826  66.536  1.00  0.00    -0.194 A  
HETATM   14  C   UNL     1     -11.667  13.928  64.449  1.00  0.00    -0.404 A  
HETATM   15  C   UNL     1     -10.400  14.020  64.998  1.00  0.00    -0.432 A  
HETATM   16  N   UNL     1     -12.792  13.827  65.186  1.00  0.00    -0.748 NA 
HETATM   17  C   UNL     1     -10.280  14.004  66.387  1.00  0.00    -0.293 A  
ENDBRANCH  10  12
ENDBRANCH   2  10
TORSDOF 3
ENDMDL
MODEL       12
REMARK 921   NORMALIZED FREE ENERGY PREDICTED BY IDOCK:   -5.64 KCAL/MOL
REMARK 922        TOTAL FREE ENERGY PREDICTED BY IDOCK:   -6.85 KCAL/MOL
REMARK 923 INTER-LIGAND FREE ENERGY PREDICTED BY IDOCK:   -6.41 KCAL/MOL
REMARK 924 INTRA-LIGAND FREE ENERGY PREDICTED BY IDOCK:   -0.44 KCAL/MOL
REMARK 927      BINDING AFFINITY PREDICTED BY RF-SCORE:    0.00 PKD
ROOT
HETATM    1  C   UNL     1      -9.879  12.728  67.858  1.00  0.00    -0.223 C  
HETATM    2  C   UNL     1     -10.104  14.248  68.009  1.00  0.00    -0.227 C  
HETATM    3  C   UNL     1      -8.703  14.877  68.238  1.00  0.00    -0.166 C  
ENDROOT
BRANCH   2   4
HETATM    4  C   UNL     1     -10.969  14.647  69.202  1.00  0.00    -0.277 A  
HETATM    5  C   UNL     1     -12.493  15.520  71.327  1.00  0.00    -0.425 A  
HETATM    6  C   UNL     1     -11.974  13.825  69.737  1.00  0.00    -0.406 A  
HETATM    7  C   UNL     1     -10.793  15.890  69.821  1.00  0.00    -0.328 A  
HETATM    8  C   UNL     1     -12.749  14.266  70.807  1.00  0.00    -0.419 A  
HETATM    9  N   UNL     1     -11.532  16.342  70.858  1.00  0.00    -0.382 NA 
ENDBRANCH   2   4
BRANCH   2  10
HETATM   10  C   UNL     1     -10.669  14.766  66.658  1.00  0.00    -0.309 C  
HETATM   11  O   UNL     1     -10.547  15.945  66.318  1.00  0.00    -0.305 OA 
BRANCH  10  12
HETATM   12  C   UNL     1     -11.300  13.847  65.665  1.00  0.00    -0.310 A  
HETATM   13  C   UNL     1     -12.621  13.427  65.714  1.00  0.00    -0.393 A  
HETATM   14  C   UNL     1     -12.418  12.185  63.779  1.00  0.00    -0.514 A  
HETATM   15  C   UNL     1     -11.096  12.561  63.624  1.00  0.00    -0.523 A  
HETATM   16  N   UNL     1     -13.192  12.595  64.804  1.00  0.00    -0.780 NA 
HETATM   17  C   UNL     1     -10.532  13.405  64.581  1.00  0.00    -0.428 A  
ENDBRANCH  10  12
ENDBRANCH   2  10
TORSDOF 3
ENDMDL
MODEL       13
REMARK 921   NORMALIZED FREE ENERGY PREDICTED BY IDOCK:   -5.62 KCAL/MOL
REMARK 922        TOTAL FREE ENERGY PREDICTED BY IDOCK:   -6.82 KCAL/MOL
REMARK 923 INTER-LIGAND FREE ENERGY PREDICTED BY IDOCK:   -6.42 KCAL/MOL
REMARK 924 INTRA-LIGAND FREE ENERGY PREDICTED BY IDOCK:   -0.40 KCAL/MOL
REMARK 927      BINDING AFFINITY PREDICTED BY RF-SCORE:    0.00 PKD
ROOT
HETATM    1  C   UNL     1     -11.615  15.703  68.388  1.00  0.00    -0.358 C  
HETATM    2  C   UNL     1     -10.243  16.220  67.905  1.00  0.00    -0.261 C  
HETATM    3  C   UNL     1      -9.233  15.915  69.045  1.00  0.00    -0.242 C  
ENDROOT
BRANCH   2   4
HETATM    4  C   UNL     1     -10.184  17.725  67.652  1.00  0.00    -0.359 A  
HETATM    5  C   UNL     1      -9.979  20.454  67.319  1.00  0.00    -0.424 A  
HETATM    6  C   UNL     1     -10.531  18.317  66.427  1.00  0.00    -0.387 A  
HETATM    7  C   UNL     1      -9.761  18.598  68.662  1.00  0.00    -0.377 A  
HETATM    8  C   UNL     1     -10.422  19.694  66.255  1.00  0.00    -0.621 A  
HETATM    9  N   UNL     1      -9.645  19.936  68.520  1.00  0.00    -0.315 NA 
ENDBRANCH   2   4
BRANCH   2  10
HETATM   10  C   UNL     1      -9.850  15.387  66.654  1.00  0.00    -0.255 C  
HETATM   11  O   UNL     1      -8.704  15.406  66.199  1.00  0.00    -0.282 OA 
BRANCH  10  12
HETATM   12  C   UNL     1     -10.811  14.449  66.001  1.00  0.00    -0.309 A  
HETATM   13  C   UNL     1     -11.751  14.825  65.051  1.00  0.00    -0.364 A  
HETATM   14  C   UNL     1     -12.528  12.666  64.799  1.00  0.00    -0.484 A  
HETATM   15  C   UNL     1     -11.614  12.182  65.719  1.00  0.00    -0.414 A  
HETATM   16  N   UNL     1     -12.619  13.966  64.454  1.00  0.00    -0.675 NA 
HETATM   17  C   UNL     1     -10.744  13.089  66.325  1.00  0.00    -0.290 A  
ENDBRANCH  10  12
ENDBRANCH   2  10
TORSDOF 3
ENDMDL
MODEL       14
REMARK 921   NORMALIZED FREE ENERGY PREDICTED BY IDOCK:   -5.56 KCAL/MOL
REMARK 922        TOTAL FREE ENERGY PREDICTED BY IDOCK:   -6.75 KCAL/MOL
REMARK 923 INTER-LIGAND FREE ENERGY PREDICTED BY IDOCK:   -6.13 KCAL/MOL
REMARK 924 INTRA-LIGAND FREE ENERGY PREDICTED BY IDOCK:   -0.62 KCAL/MOL
REMARK 927      BINDING AFFINITY PREDICTED BY RF-SCORE:    0.00 PKD
ROOT
HETATM    1  C   UNL     1      -9.153  12.206  66.485  1.00  0.00    -0.199 C  
HETATM    2  C   UNL     1     -10.195  13.130  65.820  1.00  0.00    -0.294 C  
HETATM    3  C   UNL     1     -10.187  12.784  64.306  1.00  0.00    -0.352 C  
ENDROOT
BRANCH   2   4
HETATM    4  C   UNL     1      -9.888  14.622  65.935  1.00  0.00    -0.358 A  
HETATM    5  C   UNL     1      -9.481  17.344  66.095  1.00  0.00    -0.169 A  
HETATM    6  C   UNL     1      -8.827  15.135  66.699  1.00  0.00    -0.321 A  
HETATM    7  C   UNL     1     -10.681  15.563  65.268  1.00  0.00    -0.422 A  
HETATM    8  C   UNL     1      -8.624  16.510  66.786  1.00  0.00    -0.263 A  
HETATM    9  N   UNL     1     -10.505  16.900  65.337  1.00  0.00    -0.642 NA 
ENDBRANCH   2   4
BRANCH   2  10
HETATM   10  C   UNL     1     -11.584  12.758  66.410  1.00  0.00    -0.378 C  
HETATM   11  O   UNL     1     -12.537  12.470  65.682  1.00  0.00    -0.612 OA 
BRANCH  10  12
HETATM   12  C   UNL     1     -11.806  12.635  67.881  1.00  0.00    -0.388 A  
HETATM   13  C   UNL     1     -11.893  11.430  68.563  1.00  0.00    -0.294 A  
HETATM   14  C   UNL     1     -12.171  12.473  70.603  1.00  0.00    -0.276 A  
HETATM   15  C   UNL     1     -12.076  13.727  70.025  1.00  0.00    -0.416 A  
HETATM   16  N   UNL     1     -12.088  11.324  69.903  1.00  0.00    -0.332 NA 
HETATM   17  C   UNL     1     -11.889  13.806  68.645  1.00  0.00    -0.409 A  
ENDBRANCH  10  12
ENDBRANCH   2  10
TORSDOF 3
ENDMDL
MODEL       15
REMARK 921   NORMALIZED FREE ENERGY PREDICTED BY IDOCK:   -5.56 KCAL/MOL
REMARK 922        TOTAL FREE ENERGY PREDICTED BY IDOCK:   -6.75 KCAL/MOL
REMARK 923 INTER-LIGAND FREE ENERGY PREDICTED BY IDOCK:   -6.48 KCAL/MOL
REMARK 924 INTRA-LIGAND FREE ENERGY PREDICTED BY IDOCK:   -0.27 KCAL/MOL
REMARK 927      BINDING AFFINITY PREDICTED BY RF-SCORE:    0.00 PKD
ROOT
HETATM    1  C   UNL     1     -11.685  15.539  68.467  1.00  0.00    -0.351 C  
HETATM    2  C   UNL     1     -10.272  16.002  68.052  1.00  0.00    -0.245 C  
HETATM    3  C   UNL     1      -9.377  15.866  69.314  1.00  0.00    -0.259 C  
ENDROOT
BRANCH   2   4
HETATM    4  C   UNL     1     -10.186  17.460  67.604  1.00  0.00    -0.342 A  
HETATM    5  C   UNL     1     -10.100  20.049  66.660  1.00  0.00    -0.479 A  
HETATM    6  C   UNL     1     -10.021  18.533  68.495  1.00  0.00    -0.419 A  
HETATM    7  C   UNL     1     -10.278  17.792  66.247  1.00  0.00    -0.364 A  
HETATM    8  C   UNL     1      -9.984  19.842  68.020  1.00  0.00    -0.553 A  
HETATM    9  N   UNL     1     -10.246  19.052  65.762  1.00  0.00    -0.531 NA 
ENDBRANCH   2   4
BRANCH   2  10
HETATM   10  C   UNL     1      -9.762  15.012  66.969  1.00  0.00    -0.236 C  
HETATM   11  O   UNL     1      -8.557  14.831  66.776  1.00  0.00    -0.236 OA 
BRANCH  10  12
HETATM   12  C   UNL     1     -10.699  14.161  66.178  1.00  0.00    -0.297 A  
HETATM   13  C   UNL     1     -11.106  12.887  66.549  1.00  0.00    -0.286 A  
HETATM   14  C   UNL     1     -12.466  12.658  64.699  1.00  0.00    -0.466 A  
HETATM   15  C   UNL     1     -12.144  13.926  64.249  1.00  0.00    -0.477 A  
HETATM   16  N   UNL     1     -11.965  12.120  65.830  1.00  0.00    -0.550 NA 
HETATM   17  C   UNL     1     -11.250  14.686  65.002  1.00  0.00    -0.388 A  
ENDBRANCH  10  12
ENDBRANCH   2  10
TORSDOF 3
ENDMDL
MODEL       16
REMARK 921   NORMALIZED FREE ENERGY PREDICTED BY IDOCK:   -5.56 KCAL/MOL
REMARK 922        TOTAL FREE ENERGY PREDICTED BY IDOCK:   -6.75 KCAL/MOL
REMARK 923 INTER-LIGAND FREE ENERGY PREDICTED BY IDOCK:   -6.45 KCAL/MOL
REMARK 924 INTRA-LIGAND FREE ENERGY PREDICTED BY IDOCK:   -0.30 KCAL/MOL
REMARK 927      BINDING AFFINITY PREDICTED BY RF-SCORE:    0.00 PKD
ROOT
HETATM    1  C   UNL     1      -9.333  12.708  68.124  1.00  0.00    -0.210 C  
HETATM    2  C   UNL     1     -10.663  12.322  67.441  1.00  0.00    -0.261 C  
HETATM    3  C   UNL     1     -10.426  10.942  66.770  1.00  0.00    -0.302 C  
ENDROOT
BRANCH   2   4
HETATM    4  C   UNL     1     -11.113  13.279  66.339  1.00  0.00    -0.313 A  
HETATM    5  C   UNL     1     -12.075  14.953  64.372  1.00  0.00    -0.401 A  
HETATM    6  C   UNL     1     -10.362  14.392  65.928  1.00  0.00    -0.327 A  
HETATM    7  C   UNL     1     -12.333  13.080  65.683  1.00  0.00    -0.446 A  
HETATM    8  C   UNL     1     -10.849  15.242  64.939  1.00  0.00    -0.444 A  
HETATM    9  N   UNL     1     -12.828  13.890  64.722  1.00  0.00    -0.694 NA 
ENDBRANCH   2   4
BRANCH   2  10
HETATM   10  C   UNL     1     -11.725  12.156  68.562  1.00  0.00    -0.330 C  
HETATM   11  O   UNL     1     -12.299  11.082  68.753  1.00  0.00    -0.533 OA 
BRANCH  10  12
HETATM   12  C   UNL     1     -12.032  13.257  69.523  1.00  0.00    -0.366 A  
HETATM   13  C   UNL     1     -12.001  14.607  69.205  1.00  0.00    -0.294 A  
HETATM   14  C   UNL     1     -12.651  15.240  71.327  1.00  0.00    -0.383 A  
HETATM   15  C   UNL     1     -12.735  13.923  71.742  1.00  0.00    -0.393 A  
HETATM   16  N   UNL     1     -12.288  15.605  70.081  1.00  0.00    -0.384 NA 
HETATM   17  C   UNL     1     -12.422  12.920  70.825  1.00  0.00    -0.370 A  
ENDBRANCH  10  12
ENDBRANCH   2  10
TORSDOF 3
ENDMDL
MODEL       17
REMARK 921   NORMALIZED FREE ENERGY PREDICTED BY IDOCK:   -5.53 KCAL/MOL
REMARK 922        TOTAL FREE ENERGY PREDICTED BY IDOCK:   -6.72 KCAL/MOL
REMARK 923 INTER-LIGAND FREE ENERGY PREDICTED BY IDOCK:   -6.32 KCAL/MOL
REMARK 924 INTRA-LIGAND FREE ENERGY PREDICTED BY IDOCK:   -0.40 KCAL/MOL
REMARK 927      BINDING AFFINITY PREDICTED BY RF-SCORE:    0.00 PKD
ROOT
HETATM    1  C   UNL     1     -12.116  14.304  67.295  1.00  0.00    -0.390 C  
HETATM    2  C   UNL     1     -11.309  14.102  68.596  1.00  0.00    -0.306 C  
HETATM    3  C   UNL     1     -10.742  12.657  68.540  1.00  0.00    -0.271 C  
ENDROOT
BRANCH   2   4
HETATM    4  C   UNL     1     -12.133  14.204  69.877  1.00  0.00    -0.405 A  
HETATM    5  C   UNL     1     -13.559  14.252  72.237  1.00  0.00    -0.478 A  
HETATM    6  C   UNL     1     -12.676  15.409  70.352  1.00  0.00    -0.407 A  
HETATM    7  C   UNL     1     -12.381  13.067  70.654  1.00  0.00    -0.310 A  
HETATM    8  C   UNL     1     -13.391  15.436  71.547  1.00  0.00    -0.586 A  
HETATM    9  N   UNL     1     -13.069  13.067  71.817  1.00  0.00    -0.400 NA 
ENDBRANCH   2   4
BRANCH   2  10
HETATM   10  C   UNL     1     -10.124  15.106  68.564  1.00  0.00    -0.228 C  
HETATM   11  O   UNL     1      -9.071  14.879  69.164  1.00  0.00    -0.192 OA 
BRANCH  10  12
HETATM   12  C   UNL     1     -10.164  16.342  67.729  1.00  0.00    -0.274 A  
HETATM   13  C   UNL     1      -9.811  16.395  66.388  1.00  0.00    -0.294 A  
HETATM   14  C   UNL     1     -10.300  18.645  66.229  1.00  0.00    -0.444 A  
HETATM   15  C   UNL     1     -10.696  18.698  67.554  1.00  0.00    -0.447 A  
HETATM   16  N   UNL     1      -9.856  17.522  65.630  1.00  0.00    -0.534 NA 
HETATM   17  C   UNL     1     -10.627  17.529  68.311  1.00  0.00    -0.354 A  
ENDBRANCH  10  12
ENDBRANCH   2  10
TORSDOF 3
ENDMDL
MODEL       18
REMARK 921   NORMALIZED FREE ENERGY PREDICTED BY IDOCK:   -5.49 KCAL/MOL
REMARK 922        TOTAL FREE ENERGY PREDICTED BY IDOCK:   -6.67 KCAL/MOL
REMARK 923 INTER-LIGAND FREE ENERGY PREDICTED BY IDOCK:   -6.10 KCAL/MOL
REMARK 924 INTRA-LIGAND FREE ENERGY PREDICTED BY IDOCK:   -0.57 KCAL/MOL
REMARK 927      BINDING AFFINITY PREDICTED BY RF-SCORE:    0.00 PKD
ROOT
HETATM    1  C   UNL     1      -9.727  14.884  69.552  1.00  0.00    -0.046 C  
HETATM    2  C   UNL     1     -11.258  14.975  69.378  1.00  0.00    -0.299 C  
HETATM    3  C   UNL     1     -11.523  16.198  68.458  1.00  0.00    -0.324 C  
ENDROOT
BRANCH   2   4
HETATM    4  C   UNL     1     -12.032  15.217  70.672  1.00  0.00    -0.386 A  
HETATM    5  C   UNL     1     -13.556  15.593  72.938  1.00  0.00    -0.572 A  
HETATM    6  C   UNL     1     -11.412  15.412  71.917  1.00  0.00    -0.513 A  
HETATM    7  C   UNL     1     -13.431  15.249  70.666  1.00  0.00    -0.208 A  
HETATM    8  C   UNL     1     -12.181  15.595  73.064  1.00  0.00    -0.574 A  
HETATM    9  N   UNL     1     -14.199  15.424  71.764  1.00  0.00    -0.525 NA 
ENDBRANCH   2   4
BRANCH   2  10
HETATM   10  C   UNL     1     -11.715  13.686  68.639  1.00  0.00    -0.354 C  
HETATM   11  O   UNL     1     -12.275  13.736  67.541  1.00  0.00    -0.355 OA 
BRANCH  10  12
HETATM   12  C   UNL     1     -11.414  12.325  69.174  1.00  0.00    -0.352 A  
HETATM   13  C   UNL     1     -10.409  11.498  68.692  1.00  0.00    -0.210 A  
HETATM   14  C   UNL     1     -10.877   9.842  70.230  1.00  0.00    -0.310 A  
HETATM   15  C   UNL     1     -11.889  10.595  70.800  1.00  0.00    -0.459 A  
HETATM   16  N   UNL     1     -10.134  10.263  69.187  1.00  0.00    -0.206 NA 
HETATM   17  C   UNL     1     -12.158  11.854  70.263  1.00  0.00    -0.409 A  
ENDBRANCH  10  12
ENDBRANCH   2  10
TORSDOF 3
ENDMDL
MODEL       19
REMARK 921   NORMALIZED FREE ENERGY PREDICTED BY IDOCK:   -5.48 KCAL/MOL
REMARK 922        TOTAL FREE ENERGY PREDICTED BY IDOCK:   -6.65 KCAL/MOL
REMARK 923 INTER-LIGAND FREE ENERGY PREDICTED BY IDOCK:   -6.23 KCAL/MOL
REMARK 924 INTRA-LIGAND FREE ENERGY PREDICTED BY IDOCK:   -0.42 KCAL/MOL
REMARK 927      BINDING AFFINITY PREDICTED BY RF-SCORE:    0.00 PKD
ROOT
HETATM    1  C   UNL     1      -9.533  11.502  68.991  1.00  0.00     0.068 C  
HETATM    2  C   UNL     1     -10.319  12.604  68.248  1.00  0.00    -0.246 C  
HETATM    3  C   UNL     1      -9.293  13.346  67.349  1.00  0.00    -0.221 C  
ENDROOT
BRANCH   2   4
HETATM    4  C   UNL     1     -10.953  13.655  69.157  1.00  0.00    -0.235 A  
HETATM    5  C   UNL     1     -12.042  15.664  70.700  1.00  0.00    -0.405 A  
HETATM    6  C   UNL     1     -11.984  13.369  70.067  1.00  0.00    -0.407 A  
HETATM    7  C   UNL     1     -10.522  14.986  69.110  1.00  0.00    -0.247 A  
HETATM    8  C   UNL     1     -12.539  14.384  70.842  1.00  0.00    -0.422 A  
HETATM    9  N   UNL     1     -11.044  15.988  69.850  1.00  0.00    -0.327 NA 
ENDBRANCH   2   4
BRANCH   2  10
HETATM   10  C   UNL     1     -11.359  11.894  67.338  1.00  0.00    -0.324 C  
HETATM   11  O   UNL     1     -12.059  10.969  67.757  1.00  0.00    -0.534 OA 
BRANCH  10  12
HETATM   12  C   UNL     1     -11.631  12.358  65.945  1.00  0.00    -0.449 A  
HETATM   13  C   UNL     1     -12.335  13.510  65.626  1.00  0.00    -0.476 A  
HETATM   14  C   UNL     1     -12.062  13.186  63.357  1.00  0.00    -0.486 A  
HETATM   15  C   UNL     1     -11.328  12.032  63.565  1.00  0.00    -0.528 A  
HETATM   16  N   UNL     1     -12.574  13.932  64.357  1.00  0.00    -0.675 NA 
HETATM   17  C   UNL     1     -11.110  11.615  64.878  1.00  0.00    -0.317 A  
ENDBRANCH  10  12
ENDBRANCH   2  10
TORSDOF 3
ENDMDL
MODEL       20
REMARK 921   NORMALIZED FREE ENERGY PREDICTED BY IDOCK:   -5.44 KCAL/MOL
REMARK 922        TOTAL FREE ENERGY PREDICTED BY IDOCK:   -6.61 KCAL/MOL
REMARK 923 INTER-LIGAND FREE ENERGY PREDICTED BY IDOCK:   -6.19 KCAL/MOL
REMARK 924 INTRA-LIGAND FREE ENERGY PREDICTED BY IDOCK:   -0.41 KCAL/MOL
REMARK 927      BINDING AFFINITY PREDICTED BY RF-SCORE:    0.00 PKD
ROOT
HETATM    1  C   UNL     1      -9.656  13.548  66.585  1.00  0.00    -0.282 C  
HETATM    2  C   UNL     1     -11.171  13.313  66.765  1.00  0.00    -0.331 C  
HETATM    3  C   UNL     1     -11.846  14.709  66.672  1.00  0.00    -0.325 C  
ENDROOT
BRANCH   2   4
HETATM    4  C   UNL     1     -11.567  12.719  68.115  1.00  0.00    -0.380 A  
HETATM    5  C   UNL     1     -12.338  11.789  70.593  1.00  0.00    -0.328 A  
HETATM    6  C   UNL     1     -11.710  11.340  68.340  1.00  0.00    -0.365 A  
HETATM    7  C   UNL     1     -11.815  13.553  69.211  1.00  0.00    -0.341 A  
HETATM    8  C   UNL     1     -12.106  10.869  69.589  1.00  0.00    -0.400 A  
HETATM    9  N   UNL     1     -12.201  13.122  70.431  1.00  0.00    -0.345 NA 
ENDBRANCH   2   4
BRANCH   2  10
HETATM   10  C   UNL     1     -11.648  12.447  65.566  1.00  0.00    -0.385 C  
HETATM   11  O   UNL     1     -12.807  12.505  65.149  1.00  0.00    -0.685 OA 
BRANCH  10  12
HETATM   12  C   UNL     1     -10.707  11.576  64.802  1.00  0.00    -0.366 A  
HETATM   13  C   UNL     1     -10.153  10.401  65.290  1.00  0.00    -0.300 A  
HETATM   14  C   UNL     1      -9.011   9.989  63.327  1.00  0.00    -0.258 A  
HETATM   15  C   UNL     1      -9.523  11.131  62.737  1.00  0.00    -0.357 A  
HETATM   16  N   UNL     1      -9.303   9.608  64.587  1.00  0.00    -0.250 NA 
HETATM   17  C   UNL     1     -10.384  11.932  63.486  1.00  0.00    -0.495 A  
ENDBRANCH  10  12
ENDBRANCH   2  10
TORSDOF 3
ENDMDL
MODEL       21
REMARK 921   NORMALIZED FREE ENERGY PREDICTED BY IDOCK:   -5.42 KCAL/MOL
REMARK 922        TOTAL FREE ENERGY PREDICTED BY IDOCK:   -6.59 KCAL/MOL
REMARK 923 INTER-LIGAND FREE ENERGY PREDICTED BY IDOCK:   -6.03 KCAL/MOL
REMARK 924 INTRA-LIGAND FREE ENERGY PREDICTED BY IDOCK:   -0.56 KCAL/MOL
REMARK 927      BINDING AFFINITY PREDICTED BY RF-SCORE:    0.00 PKD
ROOT
HETATM    1  C   UNL     1     -10.224  19.995  68.157  1.00  0.00    -0.535 C  
HETATM    2  C   UNL     1      -9.863  19.124  66.935  1.00  0.00    -0.403 C  
HETATM    3  C   UNL     1     -10.653  19.708  65.732  1.00  0.00    -0.537 C  
ENDROOT
BRANCH   2   4
HETATM    4  C   UNL     1     -10.266  17.657  67.058  1.00  0.00    -0.332 A  
HETATM    5  C   UNL     1     -11.080  15.046  67.409  1.00  0.00    -0.324 A  
HETATM    6  C   UNL     1     -10.180  16.740  65.998  1.00  0.00    -0.361 A  
HETATM    7  C   UNL     1     -10.759  17.156  68.269  1.00  0.00    -0.363 A  
HETATM    8  C   UNL     1     -10.597  15.422  66.172  1.00  0.00    -0.321 A  
HETATM    9  N   UNL     1     -11.170  15.884  68.463  1.00  0.00    -0.344 NA 
ENDBRANCH   2   4
BRANCH   2  10
HETATM   10  C   UNL     1      -8.343  19.308  66.671  1.00  0.00    -0.306 C  
HETATM   11  O   UNL     1      -7.899  19.446  65.528  1.00  0.00    -0.401 OA 
BRANCH  10  12
HETATM   12  C   UNL     1      -7.360  19.424  67.788  1.00  0.00    -0.288 A  
HETATM   13  C   UNL     1      -7.073  18.408  68.689  1.00  0.00    -0.279 A  
HETATM   14  C   UNL     1      -5.503  19.682  69.801  1.00  0.00    -0.222 A  
HETATM   15  C   UNL     1      -5.696  20.750  68.943  1.00  0.00    -0.398 A  
HETATM   16  N   UNL     1      -6.172  18.516  69.700  1.00  0.00    -0.256 NA 
HETATM   17  C   UNL     1      -6.637  20.615  67.922  1.00  0.00    -0.360 A  
ENDBRANCH  10  12
ENDBRANCH   2  10
TORSDOF 3
ENDMDL
MODEL       22
REMARK 921   NORMALIZED FREE ENERGY PREDICTED BY IDOCK:   -5.39 KCAL/MOL
REMARK 922        TOTAL FREE ENERGY PREDICTED BY IDOCK:   -6.55 KCAL/MOL
REMARK 923 INTER-LIGAND FREE ENERGY PREDICTED BY IDOCK:   -6.28 KCAL/MOL
REMARK 924 INTRA-LIGAND FREE ENERGY PREDICTED BY IDOCK:   -0.26 KCAL/MOL
REMARK 927      BINDING AFFINITY PREDICTED BY RF-SCORE:    0.00 PKD
ROOT
HETATM    1  C   UNL     1     -12.439  12.062  63.748  1.00  0.00    -0.594 C  
HETATM    2  C   UNL     1     -11.521  12.676  64.827  1.00  0.00    -0.364 C  
HETATM    3  C   UNL     1     -10.176  13.004  64.123  1.00  0.00    -0.263 C  
ENDROOT
BRANCH   2   4
HETATM    4  C   UNL     1     -11.196  11.743  65.991  1.00  0.00    -0.352 A  
HETATM    5  C   UNL     1     -10.751  10.095  68.156  1.00  0.00    -0.244 A  
HETATM    6  C   UNL     1     -10.215  10.741  65.928  1.00  0.00    -0.319 A  
HETATM    7  C   UNL     1     -11.891  11.852  67.202  1.00  0.00    -0.139 A  
HETATM    8  C   UNL     1      -9.993   9.904  67.018  1.00  0.00    -0.254 A  
HETATM    9  N   UNL     1     -11.696  11.051  68.272  1.00  0.00    -0.529 NA 
ENDBRANCH   2   4
BRANCH   2  10
HETATM   10  C   UNL     1     -12.180  14.005  65.289  1.00  0.00    -0.440 C  
HETATM   11  O   UNL     1     -13.405  14.138  65.331  1.00  0.00    -0.705 OA 
BRANCH  10  12
HETATM   12  C   UNL     1     -11.367  15.150  65.797  1.00  0.00    -0.238 A  
HETATM   13  C   UNL     1     -10.797  16.126  64.992  1.00  0.00    -0.363 A  
HETATM   14  C   UNL     1      -9.915  17.262  66.797  1.00  0.00    -0.301 A  
HETATM   15  C   UNL     1     -10.458  16.356  67.690  1.00  0.00    -0.302 A  
HETATM   16  N   UNL     1     -10.064  17.170  65.460  1.00  0.00    -0.587 NA 
HETATM   17  C   UNL     1     -11.195  15.287  67.180  1.00  0.00    -0.291 A  
ENDBRANCH  10  12
ENDBRANCH   2  10
TORSDOF 3
ENDMDL
MODEL       23
REMARK 921   NORMALIZED FREE ENERGY PREDICTED BY IDOCK:   -5.34 KCAL/MOL
REMARK 922        TOTAL FREE ENERGY PREDICTED BY IDOCK:   -6.49 KCAL/MOL
REMARK 923 INTER-LIGAND FREE ENERGY PREDICTED BY IDOCK:   -6.15 KCAL/MOL
REMARK 924 INTRA-LIGAND FREE ENERGY PREDICTED BY IDOCK:   -0.34 KCAL/MOL
REMARK 927      BINDING AFFINITY PREDICTED BY RF-SCORE:    0.00 PKD
ROOT
HETATM    1  C   UNL     1     -11.494  14.234  68.773  1.00  0.00    -0.327 C  
HETATM    2  C   UNL     1     -10.828  14.524  67.410  1.00  0.00    -0.291 C  
HETATM    3  C   UNL     1      -9.390  13.945  67.493  1.00  0.00    -0.217 C  
ENDROOT
BRANCH   2   4
HETATM    4  C   UNL     1     -10.690  16.007  67.074  1.00  0.00    -0.277 A  
HETATM    5  C   UNL     1     -10.475  18.649  66.315  1.00  0.00    -0.424 A  
HETATM    6  C   UNL     1     -10.758  17.028  68.036  1.00  0.00    -0.365 A  
HETATM    7  C   UNL     1     -10.490  16.418  65.750  1.00  0.00    -0.354 A  
HETATM    8  C   UNL     1     -10.656  18.363  67.654  1.00  0.00    -0.437 A  
HETATM    9  N   UNL     1     -10.389  17.706  65.354  1.00  0.00    -0.570 NA 
ENDBRANCH   2   4
BRANCH   2  10
HETATM   10  C   UNL     1     -11.623  13.737  66.332  1.00  0.00    -0.360 C  
HETATM   11  O   UNL     1     -12.781  14.040  66.035  1.00  0.00    -0.475 OA 
BRANCH  10  12
HETATM   12  C   UNL     1     -10.995  12.641  65.537  1.00  0.00    -0.313 A  
HETATM   13  C   UNL     1     -10.816  11.343  65.995  1.00  0.00    -0.249 A  
HETATM   14  C   UNL     1      -9.871  10.650  64.007  1.00  0.00    -0.338 A  
HETATM   15  C   UNL     1     -10.023  11.905  63.445  1.00  0.00    -0.435 A  
HETATM   16  N   UNL     1     -10.250  10.347  65.265  1.00  0.00    -0.291 NA 
HETATM   17  C   UNL     1     -10.595  12.912  64.223  1.00  0.00    -0.430 A  
ENDBRANCH  10  12
ENDBRANCH   2  10
TORSDOF 3
ENDMDL
MODEL       24
REMARK 921   NORMALIZED FREE ENERGY PREDICTED BY IDOCK:   -5.31 KCAL/MOL
REMARK 922        TOTAL FREE ENERGY PREDICTED BY IDOCK:   -6.46 KCAL/MOL
REMARK 923 INTER-LIGAND FREE ENERGY PREDICTED BY IDOCK:   -6.01 KCAL/MOL
REMARK 924 INTRA-LIGAND FREE ENERGY PREDICTED BY IDOCK:   -0.45 KCAL/MOL
REMARK 927      BINDING AFFINITY PREDICTED BY RF-SCORE:    0.00 PKD
ROOT
HETATM    1  C   UNL     1     -10.693   9.726  67.342  1.00  0.00    -0.314 C  
HETATM    2  C   UNL     1     -10.176  11.012  68.023  1.00  0.00    -0.201 C  
HETATM    3  C   UNL     1      -8.810  10.649  68.666  1.00  0.00    -0.151 C  
ENDROOT
BRANCH   2   4
HETATM    4  C   UNL     1     -11.067  11.541  69.144  1.00  0.00    -0.316 A  
HETATM    5  C   UNL     1     -12.694  12.629  71.087  1.00  0.00    -0.254 A  
HETATM    6  C   UNL     1     -11.694  10.712  70.089  1.00  0.00    -0.417 A  
HETATM    7  C   UNL     1     -11.306  12.914  69.273  1.00  0.00    -0.243 A  
HETATM    8  C   UNL     1     -12.521  11.259  71.066  1.00  0.00    -0.503 A  
HETATM    9  N   UNL     1     -12.104  13.469  70.211  1.00  0.00    -0.353 NA 
ENDBRANCH   2   4
BRANCH   2  10
HETATM   10  C   UNL     1      -9.937  12.062  66.902  1.00  0.00    -0.202 C  
HETATM   11  O   UNL     1      -8.962  12.817  66.923  1.00  0.00    -0.214 OA 
BRANCH  10  12
HETATM   12  C   UNL     1     -10.817  12.143  65.700  1.00  0.00    -0.323 A  
HETATM   13  C   UNL     1     -12.126  12.604  65.716  1.00  0.00    -0.423 A  
HETATM   14  C   UNL     1     -12.378  12.310  63.440  1.00  0.00    -0.517 A  
HETATM   15  C   UNL     1     -11.078  11.855  63.310  1.00  0.00    -0.390 A  
HETATM   16  N   UNL     1     -12.921  12.683  64.617  1.00  0.00    -0.844 NA 
HETATM   17  C   UNL     1     -10.289  11.773  64.457  1.00  0.00    -0.340 A  
ENDBRANCH  10  12
ENDBRANCH   2  10
TORSDOF 3
ENDMDL
MODEL       25
REMARK 921   NORMALIZED FREE ENERGY PREDICTED BY IDOCK:   -5.28 KCAL/MOL
REMARK 922        TOTAL FREE ENERGY PREDICTED BY IDOCK:   -6.42 KCAL/MOL
REMARK 923 INTER-LIGAND FREE ENERGY PREDICTED BY IDOCK:   -6.31 KCAL/MOL
REMARK 924 INTRA-LIGAND FREE ENERGY PREDICTED BY IDOCK:   -0.11 KCAL/MOL
REMARK 927      BINDING AFFINITY PREDICTED BY RF-SCORE:    0.00 PKD
ROOT
HETATM    1  C   UNL     1      -9.504  15.726  66.514  1.00  0.00    -0.298 C  
HETATM    2  C   UNL     1     -10.133  14.343  66.790  1.00  0.00    -0.266 C  
HETATM    3  C   UNL     1      -8.966  13.404  67.198  1.00  0.00    -0.227 C  
ENDROOT
BRANCH   2   4
HETATM    4  C   UNL     1     -10.815  13.703  65.582  1.00  0.00    -0.280 A  
HETATM    5  C   UNL     1     -12.118  12.685  63.376  1.00  0.00    -0.525 A  
HETATM    6  C   UNL     1     -10.342  12.538  64.956  1.00  0.00    -0.323 A  
HETATM    7  C   UNL     1     -11.969  14.275  65.034  1.00  0.00    -0.410 A  
HETATM    8  C   UNL     1     -10.995  12.027  63.838  1.00  0.00    -0.465 A  
HETATM    9  N   UNL     1     -12.620  13.799  63.950  1.00  0.00    -0.697 NA 
ENDBRANCH   2   4
BRANCH   2  10
HETATM   10  C   UNL     1     -11.091  14.506  68.002  1.00  0.00    -0.276 C  
HETATM   11  O   UNL     1     -11.562  15.604  68.309  1.00  0.00    -0.362 OA 
BRANCH  10  12
HETATM   12  C   UNL     1     -11.564  13.332  68.793  1.00  0.00    -0.350 A  
HETATM   13  C   UNL     1     -11.682  12.044  68.291  1.00  0.00    -0.334 A  
HETATM   14  C   UNL     1     -12.400  11.198  70.314  1.00  0.00    -0.315 A  
HETATM   15  C   UNL     1     -12.297  12.438  70.920  1.00  0.00    -0.358 A  
HETATM   16  N   UNL     1     -12.106  10.977  69.017  1.00  0.00    -0.474 NA 
HETATM   17  C   UNL     1     -11.871  13.517  70.147  1.00  0.00    -0.348 A  
ENDBRANCH  10  12
ENDBRANCH   2  10
TORSDOF 3
ENDMDL
MODEL       26
REMARK 921   NORMALIZED FREE ENERGY PREDICTED BY IDOCK:   -5.27 KCAL/MOL
REMARK 922        TOTAL FREE ENERGY PREDICTED BY IDOCK:   -6.41 KCAL/MOL
REMARK 923 INTER-LIGAND FREE ENERGY PREDICTED BY IDOCK:   -5.95 KCAL/MOL
REMARK 924 INTRA-LIGAND FREE ENERGY PREDICTED BY IDOCK:   -0.46 KCAL/MOL
REMARK 927      BINDING AFFINITY PREDICTED BY RF-SCORE:    0.00 PKD
ROOT
HETATM    1  C   UNL     1     -11.020  11.708  66.169  1.00  0.00    -0.339 C  
HETATM    2  C   UNL     1     -10.941  12.798  67.259  1.00  0.00    -0.294 C  
HETATM    3  C   UNL     1      -9.430  13.056  67.512  1.00  0.00    -0.198 C  
ENDROOT
BRANCH   2   4
HETATM    4  C   UNL     1     -11.553  12.402  68.601  1.00  0.00    -0.365 A  
HETATM    5  C   UNL     1     -12.609  11.538  70.997  1.00  0.00    -0.357 A  
HETATM    6  C   UNL     1     -11.863  13.326  69.612  1.00  0.00    -0.391 A  
HETATM    7  C   UNL     1     -11.831  11.060  68.884  1.00  0.00    -0.308 A  
HETATM    8  C   UNL     1     -12.390  12.891  70.825  1.00  0.00    -0.385 A  
HETATM    9  N   UNL     1     -12.341  10.612  70.052  1.00  0.00    -0.304 NA 
ENDBRANCH   2   4
BRANCH   2  10
HETATM   10  C   UNL     1     -11.575  14.088  66.669  1.00  0.00    -0.382 C  
HETATM   11  O   UNL     1     -12.714  14.088  66.196  1.00  0.00    -0.450 OA 
BRANCH  10  12
HETATM   12  C   UNL     1     -10.878  15.407  66.732  1.00  0.00    -0.306 A  
HETATM   13  C   UNL     1     -10.109  15.937  65.706  1.00  0.00    -0.361 A  
HETATM   14  C   UNL     1      -9.654  17.865  66.890  1.00  0.00    -0.300 A  
HETATM   15  C   UNL     1     -10.417  17.440  67.963  1.00  0.00    -0.383 A  
HETATM   16  N   UNL     1      -9.483  17.141  65.766  1.00  0.00    -0.531 NA 
HETATM   17  C   UNL     1     -11.038  16.194  67.879  1.00  0.00    -0.293 A  
ENDBRANCH  10  12
ENDBRANCH   2  10
TORSDOF 3
ENDMDL
MODEL       27
REMARK 921   NORMALIZED FREE ENERGY PREDICTED BY IDOCK:   -5.27 KCAL/MOL
REMARK 922        TOTAL FREE ENERGY PREDICTED BY IDOCK:   -6.41 KCAL/MOL
REMARK 923 INTER-LIGAND FREE ENERGY PREDICTED BY IDOCK:   -5.92 KCAL/MOL
REMARK 924 INTRA-LIGAND FREE ENERGY PREDICTED BY IDOCK:   -0.49 KCAL/MOL
REMARK 927      BINDING AFFINITY PREDICTED BY RF-SCORE:    0.00 PKD
ROOT
HETATM    1  C   UNL     1     -11.575  14.621  67.281  1.00  0.00    -0.404 C  
HETATM    2  C   UNL     1     -11.578  14.464  65.745  1.00  0.00    -0.353 C  
HETATM    3  C   UNL     1     -13.065  14.307  65.324  1.00  0.00    -0.042 C  
ENDROOT
BRANCH   2   4
HETATM    4  C   UNL     1     -10.839  13.231  65.229  1.00  0.00    -0.314 A  
HETATM    5  C   UNL     1      -9.474  10.966  64.450  1.00  0.00    -0.247 A  
HETATM    6  C   UNL     1     -11.034  12.694  63.946  1.00  0.00    -0.468 A  
HETATM    7  C   UNL     1      -9.917  12.565  66.045  1.00  0.00    -0.257 A  
HETATM    8  C   UNL     1     -10.350  11.547  63.553  1.00  0.00    -0.484 A  
HETATM    9  N   UNL     1      -9.243  11.451  65.688  1.00  0.00    -0.213 NA 
ENDBRANCH   2   4
BRANCH   2  10
HETATM   10  C   UNL     1     -11.027  15.787  65.145  1.00  0.00    -0.382 C  
HETATM   11  O   UNL     1     -11.452  16.240  64.080  1.00  0.00    -0.919 OA 
BRANCH  10  12
HETATM   12  C   UNL     1     -10.028  16.624  65.874  1.00  0.00    -0.320 A  
HETATM   13  C   UNL     1     -10.288  17.886  66.388  1.00  0.00    -0.365 A  
HETATM   14  C   UNL     1      -8.157  18.101  67.248  1.00  0.00    -0.225 A  
HETATM   15  C   UNL     1      -7.800  16.842  66.796  1.00  0.00    -0.279 A  
HETATM   16  N   UNL     1      -9.377  18.641  67.056  1.00  0.00    -0.287 NA 
HETATM   17  C   UNL     1      -8.751  16.096  66.101  1.00  0.00    -0.358 A  
ENDBRANCH  10  12
ENDBRANCH   2  10
TORSDOF 3
ENDMDL
MODEL       28
REMARK 921   NORMALIZED FREE ENERGY PREDICTED BY IDOCK:   -5.26 KCAL/MOL
REMARK 922        TOTAL FREE ENERGY PREDICTED BY IDOCK:   -6.40 KCAL/MOL
REMARK 923 INTER-LIGAND FREE ENERGY PREDICTED BY IDOCK:   -6.01 KCAL/MOL
REMARK 924 INTRA-LIGAND FREE ENERGY PREDICTED BY IDOCK:   -0.39 KCAL/MOL
REMARK 927      BINDING AFFINITY PREDICTED BY RF-SCORE:    0.00 PKD
ROOT
HETATM    1  C   UNL     1     -12.446  14.016  66.137  1.00  0.00    -0.467 C  
HETATM    2  C   UNL     1     -11.307  13.260  66.855  1.00  0.00    -0.351 C  
HETATM    3  C   UNL     1     -10.935  12.060  65.943  1.00  0.00    -0.342 C  
ENDROOT
BRANCH   2   4
HETATM    4  C   UNL     1     -11.688  12.680  68.216  1.00  0.00    -0.389 A  
HETATM    5  C   UNL     1     -12.305  11.498  70.629  1.00  0.00    -0.364 A  
HETATM    6  C   UNL     1     -12.025  13.471  69.326  1.00  0.00    -0.378 A  
HETATM    7  C   UNL     1     -11.709  11.295  68.415  1.00  0.00    -0.294 A  
HETATM    8  C   UNL     1     -12.331  12.876  70.547  1.00  0.00    -0.362 A  
HETATM    9  N   UNL     1     -12.000  10.693  69.589  1.00  0.00    -0.287 NA 
ENDBRANCH   2   4
BRANCH   2  10
HETATM   10  C   UNL     1     -10.092  14.224  66.934  1.00  0.00    -0.264 C  
HETATM   11  O   UNL     1      -8.935  13.800  66.995  1.00  0.00    -0.227 OA 
BRANCH  10  12
HETATM   12  C   UNL     1     -10.255  15.705  66.841  1.00  0.00    -0.281 A  
HETATM   13  C   UNL     1     -10.362  16.409  65.649  1.00  0.00    -0.350 A  
HETATM   14  C   UNL     1     -10.601  18.432  66.734  1.00  0.00    -0.333 A  
HETATM   15  C   UNL     1     -10.529  17.826  67.976  1.00  0.00    -0.399 A  
HETATM   16  N   UNL     1     -10.518  17.756  65.570  1.00  0.00    -0.636 NA 
HETATM   17  C   UNL     1     -10.355  16.443  68.027  1.00  0.00    -0.288 A  
ENDBRANCH  10  12
ENDBRANCH   2  10
TORSDOF 3
ENDMDL
MODEL       29
REMARK 921   NORMALIZED FREE ENERGY PREDICTED BY IDOCK:   -5.24 KCAL/MOL
REMARK 922        TOTAL FREE ENERGY PREDICTED BY IDOCK:   -6.37 KCAL/MOL
REMARK 923 INTER-LIGAND FREE ENERGY PREDICTED BY IDOCK:   -6.06 KCAL/MOL
REMARK 924 INTRA-LIGAND FREE ENERGY PREDICTED BY IDOCK:   -0.32 KCAL/MOL
REMARK 927      BINDING AFFINITY PREDICTED BY RF-SCORE:    0.00 PKD
ROOT
HETATM    1  C   UNL     1     -10.728  19.248  65.871  1.00  0.00    -0.463 C  
HETATM    2  C   UNL     1      -9.872  18.388  66.826  1.00  0.00    -0.351 C  
HETATM    3  C   UNL     1     -10.767  18.076  68.056  1.00  0.00    -0.301 C  
ENDROOT
BRANCH   2   4
HETATM    4  C   UNL     1      -8.619  19.081  67.355  1.00  0.00    -0.301 A  
HETATM    5  C   UNL     1      -6.383  20.452  68.208  1.00  0.00    -0.311 A  
HETATM    6  C   UNL     1      -8.035  18.781  68.596  1.00  0.00    -0.369 A  
HETATM    7  C   UNL     1      -7.989  20.079  66.602  1.00  0.00    -0.314 A  
HETATM    8  C   UNL     1      -6.910  19.476  69.032  1.00  0.00    -0.384 A  
HETATM    9  N   UNL     1      -6.899  20.769  67.002  1.00  0.00    -0.301 NA 
ENDBRANCH   2   4
BRANCH   2  10
HETATM   10  C   UNL     1      -9.554  17.058  66.089  1.00  0.00    -0.240 C  
HETATM   11  O   UNL     1      -8.398  16.738  65.804  1.00  0.00    -0.434 OA 
BRANCH  10  12
HETATM   12  C   UNL     1     -10.619  16.059  65.776  1.00  0.00    -0.366 A  
HETATM   13  C   UNL     1     -11.466  16.132  64.679  1.00  0.00    -0.224 A  
HETATM   14  C   UNL     1     -12.534  14.162  65.227  1.00  0.00    -0.461 A  
HETATM   15  C   UNL     1     -11.727  13.980  66.336  1.00  0.00    -0.407 A  
HETATM   16  N   UNL     1     -12.428  15.217  64.395  1.00  0.00    -0.517 NA 
HETATM   17  C   UNL     1     -10.756  14.943  66.611  1.00  0.00    -0.312 A  
ENDBRANCH  10  12
ENDBRANCH   2  10
TORSDOF 3
ENDMDL
MODEL       30
REMARK 921   NORMALIZED FREE ENERGY PREDICTED BY IDOCK:   -5.23 KCAL/MOL
REMARK 922        TOTAL FREE ENERGY PREDICTED BY IDOCK:   -6.36 KCAL/MOL
REMARK 923 INTER-LIGAND FREE ENERGY PREDICTED BY IDOCK:   -5.97 KCAL/MOL
REMARK 924 INTRA-LIGAND FREE ENERGY PREDICTED BY IDOCK:   -0.39 KCAL/MOL
REMARK 927      BINDING AFFINITY PREDICTED BY RF-SCORE:    0.00 PKD
ROOT
HETATM    1  C   UNL     1      -9.323  14.204  66.937  1.00  0.00    -0.274 C  
HETATM    2  C   UNL     1     -10.801  14.618  67.103  1.00  0.00    -0.303 C  
HETATM    3  C   UNL     1     -10.883  16.119  66.714  1.00  0.00    -0.162 C  
ENDROOT
BRANCH   2   4
HETATM    4  C   UNL     1     -11.338  14.501  68.528  1.00  0.00    -0.309 A  
HETATM    5  C   UNL     1     -12.359  14.438  71.088  1.00  0.00    -0.358 A  
HETATM    6  C   UNL     1     -11.576  13.272  69.165  1.00  0.00    -0.370 A  
HETATM    7  C   UNL     1     -11.628  15.650  69.274  1.00  0.00    -0.366 A  
HETATM    8  C   UNL     1     -12.098  13.238  70.456  1.00  0.00    -0.391 A  
HETATM    9  N   UNL     1     -12.135  15.644  70.526  1.00  0.00    -0.379 NA 
ENDBRANCH   2   4
BRANCH   2  10
HETATM   10  C   UNL     1     -11.629  13.791  66.081  1.00  0.00    -0.352 C  
HETATM   11  O   UNL     1     -12.793  14.089  65.802  1.00  0.00    -0.516 OA 
BRANCH  10  12
HETATM   12  C   UNL     1     -11.029  12.659  65.316  1.00  0.00    -0.320 A  
HETATM   13  C   UNL     1     -10.704  12.708  63.968  1.00  0.00    -0.425 A  
HETATM   14  C   UNL     1      -9.881  10.552  63.970  1.00  0.00    -0.324 A  
HETATM   15  C   UNL     1     -10.146  10.404  65.320  1.00  0.00    -0.370 A  
HETATM   16  N   UNL     1     -10.150  11.677  63.278  1.00  0.00    -0.417 NA 
HETATM   17  C   UNL     1     -10.726  11.475  66.000  1.00  0.00    -0.332 A  
ENDBRANCH  10  12
ENDBRANCH   2  10
TORSDOF 3
ENDMDL
MODEL       31
REMARK 921   NORMALIZED FREE ENERGY PREDICTED BY IDOCK:   -5.20 KCAL/MOL
REMARK 922        TOTAL FREE ENERGY PREDICTED BY IDOCK:   -6.33 KCAL/MOL
REMARK 923 INTER-LIGAND FREE ENERGY PREDICTED BY IDOCK:   -5.72 KCAL/MOL
REMARK 924 INTRA-LIGAND FREE ENERGY PREDICTED BY IDOCK:   -0.62 KCAL/MOL
REMARK 927      BINDING AFFINITY PREDICTED BY RF-SCORE:    0.00 PKD
ROOT
HETATM    1  C   UNL     1     -11.041  13.450  68.317  1.00  0.00    -0.289 C  
HETATM    2  C   UNL     1     -10.699  12.240  67.420  1.00  0.00    -0.261 C  
HETATM    3  C   UNL     1      -9.149  12.158  67.369  1.00  0.00    -0.181 C  
ENDROOT
BRANCH   2   4
HETATM    4  C   UNL     1     -11.183  12.361  65.977  1.00  0.00    -0.374 A  
HETATM    5  C   UNL     1     -12.155  12.696  63.419  1.00  0.00    -0.525 A  
HETATM    6  C   UNL     1     -10.460  11.876  64.876  1.00  0.00    -0.331 A  
HETATM    7  C   UNL     1     -12.402  12.987  65.689  1.00  0.00    -0.446 A  
HETATM    8  C   UNL     1     -10.946  12.049  63.583  1.00  0.00    -0.517 A  
HETATM    9  N   UNL     1     -12.894  13.169  64.444  1.00  0.00    -0.687 NA 
ENDBRANCH   2   4
BRANCH   2  10
HETATM   10  C   UNL     1     -11.243  10.971  68.131  1.00  0.00    -0.302 C  
HETATM   11  O   UNL     1     -12.366  10.948  68.641  1.00  0.00    -0.501 OA 
BRANCH  10  12
HETATM   12  C   UNL     1     -10.478   9.689  68.145  1.00  0.00    -0.266 A  
HETATM   13  C   UNL     1      -9.674   9.268  69.195  1.00  0.00    -0.164 A  
HETATM   14  C   UNL     1      -9.126   7.293  68.134  1.00  0.00    -0.134 A  
HETATM   15  C   UNL     1      -9.919   7.607  67.044  1.00  0.00    -0.310 A  
HETATM   16  N   UNL     1      -8.985   8.097  69.207  1.00  0.00    -0.147 NA 
HETATM   17  C   UNL     1     -10.604   8.821  67.054  1.00  0.00    -0.283 A  
ENDBRANCH  10  12
ENDBRANCH   2  10
TORSDOF 3
ENDMDL
MODEL       32
REMARK 921   NORMALIZED FREE ENERGY PREDICTED BY IDOCK:   -5.18 KCAL/MOL
REMARK 922        TOTAL FREE ENERGY PREDICTED BY IDOCK:   -6.30 KCAL/MOL
REMARK 923 INTER-LIGAND FREE ENERGY PREDICTED BY IDOCK:   -5.91 KCAL/MOL
REMARK 924 INTRA-LIGAND FREE ENERGY PREDICTED BY IDOCK:   -0.39 KCAL/MOL
REMARK 927      BINDING AFFINITY PREDICTED BY RF-SCORE:    0.00 PKD
ROOT
HETATM    1  C   UNL     1     -10.620  18.806  66.542  1.00  0.00    -0.436 C  
HETATM    2  C   UNL     1     -10.228  17.319  66.676  1.00  0.00    -0.319 C  
HETATM    3  C   UNL     1     -10.838  16.823  68.015  1.00  0.00    -0.341 C  
ENDROOT
BRANCH   2   4
HETATM    4  C   UNL     1      -8.724  17.063  66.753  1.00  0.00    -0.272 A  
HETATM    5  C   UNL     1      -5.987  16.756  66.877  1.00  0.00    -0.158 A  
HETATM    6  C   UNL     1      -8.167  15.887  67.281  1.00  0.00    -0.211 A  
HETATM    7  C   UNL     1      -7.817  18.023  66.291  1.00  0.00    -0.253 A  
HETATM    8  C   UNL     1      -6.785  15.733  67.351  1.00  0.00    -0.228 A  
HETATM    9  N   UNL     1      -6.473  17.898  66.348  1.00  0.00    -0.204 NA 
ENDBRANCH   2   4
BRANCH   2  10
HETATM   10  C   UNL     1     -10.907  16.556  65.505  1.00  0.00    -0.188 C  
HETATM   11  O   UNL     1     -11.178  17.117  64.441  1.00  0.00    -1.143 OA 
BRANCH  10  12
HETATM   12  C   UNL     1     -11.174  15.089  65.573  1.00  0.00    -0.344 A  
HETATM   13  C   UNL     1     -12.270  14.520  66.206  1.00  0.00    -0.250 A  
HETATM   14  C   UNL     1     -11.637  12.378  65.626  1.00  0.00    -0.392 A  
HETATM   15  C   UNL     1     -10.525  12.842  64.947  1.00  0.00    -0.342 A  
HETATM   16  N   UNL     1     -12.513  13.184  66.259  1.00  0.00    -0.395 NA 
HETATM   17  C   UNL     1     -10.293  14.217  64.921  1.00  0.00    -0.435 A  
ENDBRANCH  10  12
ENDBRANCH   2  10
TORSDOF 3
ENDMDL
MODEL       33
REMARK 921   NORMALIZED FREE ENERGY PREDICTED BY IDOCK:   -5.17 KCAL/MOL
REMARK 922        TOTAL FREE ENERGY PREDICTED BY IDOCK:   -6.30 KCAL/MOL
REMARK 923 INTER-LIGAND FREE ENERGY PREDICTED BY IDOCK:   -5.83 KCAL/MOL
REMARK 924 INTRA-LIGAND FREE ENERGY PREDICTED BY IDOCK:   -0.46 KCAL/MOL
REMARK 927      BINDING AFFINITY PREDICTED BY RF-SCORE:    0.00 PKD
ROOT
HETATM    1  C   UNL     1     -11.936  13.961  67.398  1.00  0.00    -0.436 C  
HETATM    2  C   UNL     1     -11.255  14.539  68.658  1.00  0.00    -0.281 C  
HETATM    3  C   UNL     1     -11.656  16.037  68.724  1.00  0.00    -0.352 C  
ENDROOT
BRANCH   2   4
HETATM    4  C   UNL     1      -9.729  14.489  68.635  1.00  0.00    -0.221 A  
HETATM    5  C   UNL     1      -6.973  14.492  68.722  1.00  0.00    -0.104 A  
HETATM    6  C   UNL     1      -8.998  13.499  67.958  1.00  0.00    -0.189 A  
HETATM    7  C   UNL     1      -8.978  15.455  69.314  1.00  0.00    -0.261 A  
HETATM    8  C   UNL     1      -7.606  13.495  68.007  1.00  0.00    -0.143 A  
HETATM    9  N   UNL     1      -7.628  15.473  69.377  1.00  0.00    -0.219 NA 
ENDBRANCH   2   4
BRANCH   2  10
HETATM   10  C   UNL     1     -11.860  13.805  69.886  1.00  0.00    -0.327 C  
HETATM   11  O   UNL     1     -11.865  12.574  69.964  1.00  0.00    -0.331 OA 
BRANCH  10  12
HETATM   12  C   UNL     1     -12.374  14.551  71.073  1.00  0.00    -0.417 A  
HETATM   13  C   UNL     1     -11.569  15.133  72.042  1.00  0.00    -0.412 A  
HETATM   14  C   UNL     1     -13.379  15.953  73.215  1.00  0.00    -0.564 A  
HETATM   15  C   UNL     1     -14.270  15.430  72.294  1.00  0.00    -0.639 A  
HETATM   16  N   UNL     1     -12.041  15.817  73.116  1.00  0.00    -0.464 NA 
HETATM   17  C   UNL     1     -13.757  14.722  71.209  1.00  0.00    -0.476 A  
ENDBRANCH  10  12
ENDBRANCH   2  10
TORSDOF 3
ENDMDL
MODEL       34
REMARK 921   NORMALIZED FREE ENERGY PREDICTED BY IDOCK:   -5.16 KCAL/MOL
REMARK 922        TOTAL FREE ENERGY PREDICTED BY IDOCK:   -6.28 KCAL/MOL
REMARK 923 INTER-LIGAND FREE ENERGY PREDICTED BY IDOCK:   -5.74 KCAL/MOL
REMARK 924 INTRA-LIGAND FREE ENERGY PREDICTED BY IDOCK:   -0.54 KCAL/MOL
REMARK 927      BINDING AFFINITY PREDICTED BY RF-SCORE:    0.00 PKD
ROOT
HETATM    1  C   UNL     1      -9.760  14.931  65.932  1.00  0.00    -0.366 C  
HETATM    2  C   UNL     1     -10.098  13.527  66.479  1.00  0.00    -0.282 C  
HETATM    3  C   UNL     1      -9.057  13.227  67.591  1.00  0.00    -0.204 C  
ENDROOT
BRANCH   2   4
HETATM    4  C   UNL     1      -9.987  12.401  65.453  1.00  0.00    -0.253 A  
HETATM    5  C   UNL     1      -9.774  10.479  63.489  1.00  0.00    -0.319 A  
HETATM    6  C   UNL     1      -9.622  11.087  65.786  1.00  0.00    -0.260 A  
HETATM    7  C   UNL     1     -10.246  12.647  64.100  1.00  0.00    -0.340 A  
HETATM    8  C   UNL     1      -9.508  10.116  64.794  1.00  0.00    -0.355 A  
HETATM    9  N   UNL     1     -10.141  11.724  63.119  1.00  0.00    -0.408 NA 
ENDBRANCH   2   4
BRANCH   2  10
HETATM   10  C   UNL     1     -11.509  13.612  67.124  1.00  0.00    -0.342 C  
HETATM   11  O   UNL     1     -12.469  14.090  66.516  1.00  0.00    -0.442 OA 
BRANCH  10  12
HETATM   12  C   UNL     1     -11.793  13.034  68.471  1.00  0.00    -0.360 A  
HETATM   13  C   UNL     1     -12.051  13.785  69.609  1.00  0.00    -0.336 A  
HETATM   14  C   UNL     1     -12.355  11.909  70.918  1.00  0.00    -0.300 A  
HETATM   15  C   UNL     1     -12.133  11.067  69.842  1.00  0.00    -0.435 A  
HETATM   16  N   UNL     1     -12.317  13.254  70.831  1.00  0.00    -0.368 NA 
HETATM   17  C   UNL     1     -11.850  11.641  68.603  1.00  0.00    -0.370 A  
ENDBRANCH  10  12
ENDBRANCH   2  10
TORSDOF 3
ENDMDL
MODEL       35
REMARK 921   NORMALIZED FREE ENERGY PREDICTED BY IDOCK:   -5.14 KCAL/MOL
REMARK 922        TOTAL FREE ENERGY PREDICTED BY IDOCK:   -6.25 KCAL/MOL
REMARK 923 INTER-LIGAND FREE ENERGY PREDICTED BY IDOCK:   -5.64 KCAL/MOL
REMARK 924 INTRA-LIGAND FREE ENERGY PREDICTED BY IDOCK:   -0.61 KCAL/MOL
REMARK 927      BINDING AFFINITY PREDICTED BY RF-SCORE:    0.00 PKD
ROOT
HETATM    1  C   UNL     1      -9.970  11.689  68.230  1.00  0.00    -0.201 C  
HETATM    2  C   UNL     1     -10.500  12.924  67.471  1.00  0.00    -0.226 C  
HETATM    3  C   UNL     1     -11.735  13.430  68.265  1.00  0.00    -0.391 C  
ENDROOT
BRANCH   2   4
HETATM    4  C   UNL     1     -10.974  12.641  66.047  1.00  0.00    -0.313 A  
HETATM    5  C   UNL     1     -11.966  12.201  63.513  1.00  0.00    -0.524 A  
HETATM    6  C   UNL     1     -10.102  12.339  64.989  1.00  0.00    -0.277 A  
HETATM    7  C   UNL     1     -12.337  12.679  65.734  1.00  0.00    -0.253 A  
HETATM    8  C   UNL     1     -10.601  12.123  63.706  1.00  0.00    -0.482 A  
HETATM    9  N   UNL     1     -12.846  12.475  64.499  1.00  0.00    -0.772 NA 
ENDBRANCH   2   4
BRANCH   2  10
HETATM   10  C   UNL     1      -9.390  14.011  67.528  1.00  0.00    -0.209 C  
HETATM   11  O   UNL     1      -8.194  13.713  67.514  1.00  0.00    -0.160 OA 
BRANCH  10  12
HETATM   12  C   UNL     1      -9.715  15.468  67.502  1.00  0.00    -0.215 A  
HETATM   13  C   UNL     1      -9.687  16.298  68.614  1.00  0.00    -0.235 A  
HETATM   14  C   UNL     1     -10.281  18.158  67.384  1.00  0.00    -0.372 A  
HETATM   15  C   UNL     1     -10.318  17.425  66.211  1.00  0.00    -0.330 A  
HETATM   16  N   UNL     1      -9.976  17.624  68.584  1.00  0.00    -0.349 NA 
HETATM   17  C   UNL     1     -10.029  16.062  66.273  1.00  0.00    -0.329 A  
ENDBRANCH  10  12
ENDBRANCH   2  10
TORSDOF 3
ENDMDL
MODEL       36
REMARK 921   NORMALIZED FREE ENERGY PREDICTED BY IDOCK:   -5.12 KCAL/MOL
REMARK 922        TOTAL FREE ENERGY PREDICTED BY IDOCK:   -6.23 KCAL/MOL
REMARK 923 INTER-LIGAND FREE ENERGY PREDICTED BY IDOCK:   -5.78 KCAL/MOL
REMARK 924 INTRA-LIGAND FREE ENERGY PREDICTED BY IDOCK:   -0.46 KCAL/MOL
REMARK 927      BINDING AFFINITY PREDICTED BY RF-SCORE:    0.00 PKD
ROOT
HETATM    1  C   UNL     1     -11.641  14.964  67.435  1.00  0.00    -0.347 C  
HETATM    2  C   UNL     1     -10.590  14.192  66.610  1.00  0.00    -0.278 C  
HETATM    3  C   UNL     1      -9.684  15.263  65.942  1.00  0.00    -0.390 C  
ENDROOT
BRANCH   2   4
HETATM    4  C   UNL     1     -11.167  13.337  65.484  1.00  0.00    -0.307 A  
HETATM    5  C   UNL     1     -12.349  11.865  63.475  1.00  0.00    -0.490 A  
HETATM    6  C   UNL     1     -10.376  12.696  64.517  1.00  0.00    -0.369 A  
HETATM    7  C   UNL     1     -12.551  13.160  65.367  1.00  0.00    -0.454 A  
HETATM    8  C   UNL     1     -10.972  11.957  63.498  1.00  0.00    -0.505 A  
HETATM    9  N   UNL     1     -13.153  12.450  64.388  1.00  0.00    -0.811 NA 
ENDBRANCH   2   4
BRANCH   2  10
HETATM   10  C   UNL     1      -9.733  13.367  67.610  1.00  0.00    -0.222 C  
HETATM   11  O   UNL     1      -8.571  13.682  67.877  1.00  0.00    -0.158 OA 
BRANCH  10  12
HETATM   12  C   UNL     1     -10.304  12.215  68.368  1.00  0.00    -0.236 A  
HETATM   13  C   UNL     1     -11.324  12.319  69.303  1.00  0.00    -0.256 A  
HETATM   14  C   UNL     1     -11.345  10.046  69.703  1.00  0.00    -0.202 A  
HETATM   15  C   UNL     1     -10.343   9.828  68.774  1.00  0.00    -0.227 A  
HETATM   16  N   UNL     1     -11.845  11.266  69.986  1.00  0.00    -0.337 NA 
HETATM   17  C   UNL     1      -9.818  10.929  68.098  1.00  0.00    -0.187 A  
ENDBRANCH  10  12
ENDBRANCH   2  10
TORSDOF 3
ENDMDL
MODEL       37
REMARK 921   NORMALIZED FREE ENERGY PREDICTED BY IDOCK:   -5.12 KCAL/MOL
REMARK 922        TOTAL FREE ENERGY PREDICTED BY IDOCK:   -6.23 KCAL/MOL
REMARK 923 INTER-LIGAND FREE ENERGY PREDICTED BY IDOCK:   -5.98 KCAL/MOL
REMARK 924 INTRA-LIGAND FREE ENERGY PREDICTED BY IDOCK:   -0.25 KCAL/MOL
REMARK 927      BINDING AFFINITY PREDICTED BY RF-SCORE:    0.00 PKD
ROOT
HETATM    1  C   UNL     1      -8.945  15.213  66.433  1.00  0.00    -0.314 C  
HETATM    2  C   UNL     1     -10.179  16.137  66.516  1.00  0.00    -0.304 C  
HETATM    3  C   UNL     1     -10.902  16.028  65.146  1.00  0.00    -0.411 C  
ENDROOT
BRANCH   2   4
HETATM    4  C   UNL     1      -9.853  17.614  66.728  1.00  0.00    -0.304 A  
HETATM    5  C   UNL     1      -9.122  20.237  67.161  1.00  0.00    -0.378 A  
HETATM    6  C   UNL     1     -10.558  18.658  66.105  1.00  0.00    -0.409 A  
HETATM    7  C   UNL     1      -8.803  17.995  67.571  1.00  0.00    -0.252 A  
HETATM    8  C   UNL     1     -10.186  19.983  66.318  1.00  0.00    -0.595 A  
HETATM    9  N   UNL     1      -8.422  19.272  67.793  1.00  0.00    -0.297 NA 
ENDBRANCH   2   4
BRANCH   2  10
HETATM   10  C   UNL     1     -11.110  15.565  67.620  1.00  0.00    -0.311 C  
HETATM   11  O   UNL     1     -11.772  16.304  68.352  1.00  0.00    -0.271 OA 
BRANCH  10  12
HETATM   12  C   UNL     1     -11.325  14.097  67.784  1.00  0.00    -0.330 A  
HETATM   13  C   UNL     1     -11.823  13.261  66.794  1.00  0.00    -0.394 A  
HETATM   14  C   UNL     1     -11.656  11.388  68.131  1.00  0.00    -0.294 A  
HETATM   15  C   UNL     1     -11.132  12.126  69.177  1.00  0.00    -0.263 A  
HETATM   16  N   UNL     1     -12.009  11.924  66.946  1.00  0.00    -0.591 NA 
HETATM   17  C   UNL     1     -10.963  13.499  68.998  1.00  0.00    -0.264 A  
ENDBRANCH  10  12
ENDBRANCH   2  10
TORSDOF 3
ENDMDL
MODEL       38
REMARK 921   NORMALIZED FREE ENERGY PREDICTED BY IDOCK:   -5.11 KCAL/MOL
REMARK 922        TOTAL FREE ENERGY PREDICTED BY IDOCK:   -6.22 KCAL/MOL
REMARK 923 INTER-LIGAND FREE ENERGY PREDICTED BY IDOCK:   -5.74 KCAL/MOL
REMARK 924 INTRA-LIGAND FREE ENERGY PREDICTED BY IDOCK:   -0.47 KCAL/MOL
REMARK 927      BINDING AFFINITY PREDICTED BY RF-SCORE:    0.00 PKD
ROOT
HETATM    1  C   UNL     1      -8.396  10.613  66.319  1.00  0.00    -0.155 C  
HETATM    2  C   UNL     1      -9.879  10.814  66.697  1.00  0.00    -0.241 C  
HETATM    3  C   UNL     1     -10.500   9.394  66.806  1.00  0.00    -0.265 C  
ENDROOT
BRANCH   2   4
HETATM    4  C   UNL     1     -10.701  11.577  65.660  1.00  0.00    -0.323 A  
HETATM    5  C   UNL     1     -12.113  12.872  63.677  1.00  0.00    -0.535 A  
HETATM    6  C   UNL     1     -11.888  12.263  65.968  1.00  0.00    -0.409 A  
HETATM    7  C   UNL     1     -10.293  11.618  64.322  1.00  0.00    -0.322 A  
HETATM    8  C   UNL     1     -12.606  12.911  64.967  1.00  0.00    -0.538 A  
HETATM    9  N   UNL     1     -10.972  12.239  63.333  1.00  0.00    -0.441 NA 
ENDBRANCH   2   4
BRANCH   2  10
HETATM   10  C   UNL     1      -9.912  11.483  68.098  1.00  0.00    -0.192 C  
HETATM   11  O   UNL     1      -9.443  12.608  68.287  1.00  0.00    -0.213 OA 
BRANCH  10  12
HETATM   12  C   UNL     1     -10.595  10.841  69.260  1.00  0.00    -0.261 A  
HETATM   13  C   UNL     1      -9.990   9.943  70.128  1.00  0.00    -0.238 A  
HETATM   14  C   UNL     1     -11.894   9.725  71.413  1.00  0.00    -0.408 A  
HETATM   15  C   UNL     1     -12.585  10.626  70.622  1.00  0.00    -0.454 A  
HETATM   16  N   UNL     1     -10.614   9.367  71.188  1.00  0.00    -0.320 NA 
HETATM   17  C   UNL     1     -11.923  11.192  69.533  1.00  0.00    -0.425 A  
ENDBRANCH  10  12
ENDBRANCH   2  10
TORSDOF 3
ENDMDL
MODEL       39
REMARK 921   NORMALIZED FREE ENERGY PREDICTED BY IDOCK:   -5.07 KCAL/MOL
REMARK 922        TOTAL FREE ENERGY PREDICTED BY IDOCK:   -6.18 KCAL/MOL
REMARK 923 INTER-LIGAND FREE ENERGY PREDICTED BY IDOCK:   -6.56 KCAL/MOL
REMARK 924 INTRA-LIGAND FREE ENERGY PREDICTED BY IDOCK:    0.38 KCAL/MOL
REMARK 927      BINDING AFFINITY PREDICTED BY RF-SCORE:    0.00 PKD
ROOT
HETATM    1  C   UNL     1      -9.727  13.521  68.457  1.00  0.00    -0.168 C  
HETATM    2  C   UNL     1     -11.263  13.466  68.310  1.00  0.00    -0.310 C  
HETATM    3  C   UNL     1     -11.676  14.749  67.539  1.00  0.00    -0.370 C  
ENDROOT
BRANCH   2   4
HETATM    4  C   UNL     1     -12.028  13.478  69.632  1.00  0.00    -0.397 A  
HETATM    5  C   UNL     1     -13.336  13.363  72.056  1.00  0.00    -0.479 A  
HETATM    6  C   UNL     1     -12.625  14.630  70.169  1.00  0.00    -0.333 A  
HETATM    7  C   UNL     1     -12.162  12.304  70.383  1.00  0.00    -0.288 A  
HETATM    8  C   UNL     1     -13.280  14.575  71.396  1.00  0.00    -0.424 A  
HETATM    9  N   UNL     1     -12.791  12.226  71.576  1.00  0.00    -0.340 NA 
ENDBRANCH   2   4
BRANCH   2  10
HETATM   10  C   UNL     1     -11.598  12.227  67.434  1.00  0.00    -0.355 C  
HETATM   11  O   UNL     1     -12.092  11.208  67.921  1.00  0.00    -0.627 OA 
BRANCH  10  12
HETATM   12  C   UNL     1     -11.432  12.245  65.951  1.00  0.00    -0.428 A  
HETATM   13  C   UNL     1     -10.284  11.837  65.285  1.00  0.00    -0.267 A  
HETATM   14  C   UNL     1     -11.200  12.259  63.210  1.00  0.00    -0.324 A  
HETATM   15  C   UNL     1     -12.397  12.667  63.771  1.00  0.00    -0.568 A  
HETATM   16  N   UNL     1     -10.140  11.849  63.935  1.00  0.00    -0.350 NA 
HETATM   17  C   UNL     1     -12.512  12.657  65.161  1.00  0.00    -0.531 A  
ENDBRANCH  10  12
ENDBRANCH   2  10
TORSDOF 3
ENDMDL
MODEL       40
REMARK 921   NORMALIZED FREE ENERGY PREDICTED BY IDOCK:   -5.06 KCAL/MOL
REMARK 922        TOTAL FREE ENERGY PREDICTED BY IDOCK:   -6.16 KCAL/MOL
REMARK 923 INTER-LIGAND FREE ENERGY PREDICTED BY IDOCK:   -5.90 KCAL/MOL
REMARK 924 INTRA-LIGAND FREE ENERGY PREDICTED BY IDOCK:   -0.26 KCAL/MOL
REMARK 927      BINDING AFFINITY PREDICTED BY RF-SCORE:    0.00 PKD
ROOT
HETATM    1  C   UNL     1      -9.138  15.494  69.162  1.00  0.00    -0.248 C  
HETATM    2  C   UNL     1      -9.779  15.772  67.785  1.00  0.00    -0.216 C  
HETATM    3  C   UNL     1      -8.743  15.321  66.720  1.00  0.00    -0.304 C  
ENDROOT
BRANCH   2   4
HETATM    4  C   UNL     1     -10.083  17.244  67.512  1.00  0.00    -0.315 A  
HETATM    5  C   UNL     1     -10.557  19.936  67.153  1.00  0.00    -0.396 A  
HETATM    6  C   UNL     1     -10.410  17.741  66.240  1.00  0.00    -0.358 A  
HETATM    7  C   UNL     1     -10.038  18.182  68.550  1.00  0.00    -0.400 A  
HETATM    8  C   UNL     1     -10.643  19.102  66.056  1.00  0.00    -0.524 A  
HETATM    9  N   UNL     1     -10.259  19.506  68.397  1.00  0.00    -0.433 NA 
ENDBRANCH   2   4
BRANCH   2  10
HETATM   10  C   UNL     1     -11.038  14.869  67.672  1.00  0.00    -0.311 C  
HETATM   11  O   UNL     1     -11.579  14.651  66.585  1.00  0.00    -0.362 OA 
BRANCH  10  12
HETATM   12  C   UNL     1     -11.595  14.146  68.852  1.00  0.00    -0.345 A  
HETATM   13  C   UNL     1     -11.446  12.785  69.080  1.00  0.00    -0.309 A  
HETATM   14  C   UNL     1     -12.608  12.874  71.072  1.00  0.00    -0.287 A  
HETATM   15  C   UNL     1     -12.794  14.240  70.953  1.00  0.00    -0.416 A  
HETATM   16  N   UNL     1     -11.949  12.132  70.160  1.00  0.00    -0.345 NA 
HETATM   17  C   UNL     1     -12.279  14.882  69.828  1.00  0.00    -0.328 A  
ENDBRANCH  10  12
ENDBRANCH   2  10
TORSDOF 3
ENDMDL
MODEL       41
REMARK 921   NORMALIZED FREE ENERGY PREDICTED BY IDOCK:   -5.03 KCAL/MOL
REMARK 922        TOTAL FREE ENERGY PREDICTED BY IDOCK:   -6.13 KCAL/MOL
REMARK 923 INTER-LIGAND FREE ENERGY PREDICTED BY IDOCK:   -5.69 KCAL/MOL
REMARK 924 INTRA-LIGAND FREE ENERGY PREDICTED BY IDOCK:   -0.44 KCAL/MOL
REMARK 927      BINDING AFFINITY PREDICTED BY RF-SCORE:    0.00 PKD
ROOT
HETATM    1  C   UNL     1     -12.658  13.855  65.972  1.00  0.00    -0.467 C  
HETATM    2  C   UNL     1     -11.135  13.856  65.715  1.00  0.00    -0.294 C  
HETATM    3  C   UNL     1     -10.861  15.011  64.713  1.00  0.00    -0.375 C  
ENDROOT
BRANCH   2   4
HETATM    4  C   UNL     1     -10.598  12.578  65.075  1.00  0.00    -0.329 A  
HETATM    5  C   UNL     1      -9.582  10.357  63.795  1.00  0.00    -0.310 A  
HETATM    6  C   UNL     1     -10.302  11.414  65.804  1.00  0.00    -0.304 A  
HETATM    7  C   UNL     1     -10.366  12.519  63.696  1.00  0.00    -0.350 A  
HETATM    8  C   UNL     1      -9.783  10.294  65.160  1.00  0.00    -0.364 A  
HETATM    9  N   UNL     1      -9.863  11.445  63.048  1.00  0.00    -0.360 NA 
ENDBRANCH   2   4
BRANCH   2  10
HETATM   10  C   UNL     1     -10.440  14.189  67.064  1.00  0.00    -0.271 C  
HETATM   11  O   UNL     1      -9.264  14.555  67.110  1.00  0.00    -0.204 OA 
BRANCH  10  12
HETATM   12  C   UNL     1     -11.186  14.176  68.357  1.00  0.00    -0.289 A  
HETATM   13  C   UNL     1     -11.458  13.032  69.094  1.00  0.00    -0.299 A  
HETATM   14  C   UNL     1     -12.529  14.221  70.758  1.00  0.00    -0.358 A  
HETATM   15  C   UNL     1     -12.291  15.422  70.114  1.00  0.00    -0.395 A  
HETATM   16  N   UNL     1     -12.132  13.027  70.274  1.00  0.00    -0.350 NA 
HETATM   17  C   UNL     1     -11.609  15.397  68.898  1.00  0.00    -0.369 A  
ENDBRANCH  10  12
ENDBRANCH   2  10
TORSDOF 3
ENDMDL
MODEL       42
REMARK 921   NORMALIZED FREE ENERGY PREDICTED BY IDOCK:   -5.01 KCAL/MOL
REMARK 922        TOTAL FREE ENERGY PREDICTED BY IDOCK:   -6.10 KCAL/MOL
REMARK 923 INTER-LIGAND FREE ENERGY PREDICTED BY IDOCK:   -5.77 KCAL/MOL
REMARK 924 INTRA-LIGAND FREE ENERGY PREDICTED BY IDOCK:   -0.33 KCAL/MOL
REMARK 927      BINDING AFFINITY PREDICTED BY RF-SCORE:    0.00 PKD
ROOT
HETATM    1  C   UNL     1     -10.406  12.538  64.339  1.00  0.00    -0.378 C  
HETATM    2  C   UNL     1     -10.900  13.256  65.613  1.00  0.00    -0.291 C  
HETATM    3  C   UNL     1     -12.404  12.899  65.762  1.00  0.00    -0.437 C  
ENDROOT
BRANCH   2   4
HETATM    4  C   UNL     1     -10.810  14.780  65.560  1.00  0.00    -0.359 A  
HETATM    5  C   UNL     1     -10.770  17.529  65.362  1.00  0.00    -0.004 A  
HETATM    6  C   UNL     1     -10.169  15.550  66.543  1.00  0.00    -0.291 A  
HETATM    7  C   UNL     1     -11.388  15.487  64.499  1.00  0.00    -0.314 A  
HETATM    8  C   UNL     1     -10.153  16.940  66.448  1.00  0.00    -0.331 A  
HETATM    9  N   UNL     1     -11.387  16.833  64.385  1.00  0.00    -1.077 NA 
ENDBRANCH   2   4
BRANCH   2  10
HETATM   10  C   UNL     1     -10.121  12.652  66.814  1.00  0.00    -0.237 C  
HETATM   11  O   UNL     1      -8.899  12.492  66.776  1.00  0.00    -0.208 OA 
BRANCH  10  12
HETATM   12  C   UNL     1     -10.797  12.326  68.105  1.00  0.00    -0.258 A  
HETATM   13  C   UNL     1     -11.275  13.273  69.001  1.00  0.00    -0.270 A  
HETATM   14  C   UNL     1     -12.075  11.665  70.450  1.00  0.00    -0.373 A  
HETATM   15  C   UNL     1     -11.656  10.642  69.618  1.00  0.00    -0.368 A  
HETATM   16  N   UNL     1     -11.895  12.972  70.171  1.00  0.00    -0.293 NA 
HETATM   17  C   UNL     1     -11.010  10.981  68.429  1.00  0.00    -0.281 A  
ENDBRANCH  10  12
ENDBRANCH   2  10
TORSDOF 3
ENDMDL
MODEL       43
REMARK 921   NORMALIZED FREE ENERGY PREDICTED BY IDOCK:   -5.00 KCAL/MOL
REMARK 922        TOTAL FREE ENERGY PREDICTED BY IDOCK:   -6.10 KCAL/MOL
REMARK 923 INTER-LIGAND FREE ENERGY PREDICTED BY IDOCK:   -5.52 KCAL/MOL
REMARK 924 INTRA-LIGAND FREE ENERGY PREDICTED BY IDOCK:   -0.57 KCAL/MOL
REMARK 927      BINDING AFFINITY PREDICTED BY RF-SCORE:    0.00 PKD
ROOT
HETATM    1  C   UNL     1     -12.761  14.453  64.735  1.00  0.00    -0.149 C  
HETATM    2  C   UNL     1     -11.324  14.502  65.296  1.00  0.00    -0.353 C  
HETATM    3  C   UNL     1     -10.462  13.597  64.373  1.00  0.00    -0.322 C  
ENDROOT
BRANCH   2   4
HETATM    4  C   UNL     1     -11.176  13.956  66.715  1.00  0.00    -0.328 A  
HETATM    5  C   UNL     1     -11.066  12.985  69.293  1.00  0.00    -0.136 A  
HETATM    6  C   UNL     1     -10.062  13.219  67.146  1.00  0.00    -0.239 A  
HETATM    7  C   UNL     1     -12.181  14.171  67.665  1.00  0.00    -0.196 A  
HETATM    8  C   UNL     1     -10.007  12.722  68.446  1.00  0.00    -0.210 A  
HETATM    9  N   UNL     1     -12.153  13.700  68.931  1.00  0.00    -0.342 NA 
ENDBRANCH   2   4
BRANCH   2  10
HETATM   10  C   UNL     1     -10.827  15.968  65.164  1.00  0.00    -0.395 C  
HETATM   11  O   UNL     1     -11.211  16.699  64.247  1.00  0.00    -1.098 OA 
BRANCH  10  12
HETATM   12  C   UNL     1      -9.941  16.593  66.190  1.00  0.00    -0.356 A  
HETATM   13  C   UNL     1      -8.562  16.443  66.231  1.00  0.00    -0.340 A  
HETATM   14  C   UNL     1      -8.354  17.808  68.080  1.00  0.00    -0.264 A  
HETATM   15  C   UNL     1      -9.717  18.042  68.116  1.00  0.00    -0.323 A  
HETATM   16  N   UNL     1      -7.759  17.020  67.163  1.00  0.00    -0.166 NA 
HETATM   17  C   UNL     1     -10.519  17.427  67.155  1.00  0.00    -0.305 A  
ENDBRANCH  10  12
ENDBRANCH   2  10
TORSDOF 3
ENDMDL
MODEL       44
REMARK 921   NORMALIZED FREE ENERGY PREDICTED BY IDOCK:   -5.00 KCAL/MOL
REMARK 922        TOTAL FREE ENERGY PREDICTED BY IDOCK:   -6.09 KCAL/MOL
REMARK 923 INTER-LIGAND FREE ENERGY PREDICTED BY IDOCK:   -5.69 KCAL/MOL
REMARK 924 INTRA-LIGAND FREE ENERGY PREDICTED BY IDOCK:   -0.40 KCAL/MOL
REMARK 927      BINDING AFFINITY PREDICTED BY RF-SCORE:    0.00 PKD
ROOT
HETATM    1  C   UNL     1     -12.736  14.013  65.799  1.00  0.00    -0.487 C  
HETATM    2  C   UNL     1     -11.593  13.629  66.763  1.00  0.00    -0.393 C  
HETATM    3  C   UNL     1     -12.147  13.827  68.201  1.00  0.00    -0.316 C  
ENDROOT
BRANCH   2   4
HETATM    4  C   UNL     1     -10.343  14.499  66.646  1.00  0.00    -0.274 A  
HETATM    5  C   UNL     1      -8.180  16.187  66.381  1.00  0.00    -0.301 A  
HETATM    6  C   UNL     1      -9.146  14.227  67.328  1.00  0.00    -0.221 A  
HETATM    7  C   UNL     1     -10.347  15.639  65.834  1.00  0.00    -0.350 A  
HETATM    8  C   UNL     1      -8.054  15.082  67.200  1.00  0.00    -0.245 A  
HETATM    9  N   UNL     1      -9.303  16.485  65.695  1.00  0.00    -0.468 NA 
ENDBRANCH   2   4
BRANCH   2  10
HETATM   10  C   UNL     1     -11.294  12.120  66.547  1.00  0.00    -0.350 C  
HETATM   11  O   UNL     1     -11.769  11.255  67.287  1.00  0.00    -0.566 OA 
BRANCH  10  12
HETATM   12  C   UNL     1     -10.501  11.635  65.378  1.00  0.00    -0.324 A  
HETATM   13  C   UNL     1      -9.325  10.904  65.477  1.00  0.00    -0.206 A  
HETATM   14  C   UNL     1      -9.106  10.730  63.187  1.00  0.00    -0.270 A  
HETATM   15  C   UNL     1     -10.280  11.432  62.976  1.00  0.00    -0.311 A  
HETATM   16  N   UNL     1      -8.611  10.459  64.411  1.00  0.00    -0.179 NA 
HETATM   17  C   UNL     1     -10.986  11.888  64.089  1.00  0.00    -0.430 A  
ENDBRANCH  10  12
ENDBRANCH   2  10
TORSDOF 3
ENDMDL
MODEL       45
REMARK 921   NORMALIZED FREE ENERGY PREDICTED BY IDOCK:   -4.98 KCAL/MOL
REMARK 922        TOTAL FREE ENERGY PREDICTED BY IDOCK:   -6.07 KCAL/MOL
REMARK 923 INTER-LIGAND FREE ENERGY PREDICTED BY IDOCK:   -5.68 KCAL/MOL
REMARK 924 INTRA-LIGAND FREE ENERGY PREDICTED BY IDOCK:   -0.39 KCAL/MOL
REMARK 927      BINDING AFFINITY PREDICTED BY RF-SCORE:    0.00 PKD
ROOT
HETATM    1  C   UNL     1     -10.036  10.550  66.346  1.00  0.00    -0.285 C  
HETATM    2  C   UNL     1     -10.404  11.708  67.299  1.00  0.00    -0.232 C  
HETATM    3  C   UNL     1      -9.073  12.429  67.647  1.00  0.00    -0.186 C  
ENDROOT
BRANCH   2   4
HETATM    4  C   UNL     1     -11.029  11.269  68.622  1.00  0.00    -0.266 A  
HETATM    5  C   UNL     1     -12.057  10.353  71.010  1.00  0.00    -0.385 A  
HETATM    6  C   UNL     1     -11.761  12.131  69.454  1.00  0.00    -0.391 A  
HETATM    7  C   UNL     1     -10.884   9.951  69.071  1.00  0.00    -0.215 A  
HETATM    8  C   UNL     1     -12.276  11.671  70.664  1.00  0.00    -0.461 A  
HETATM    9  N   UNL     1     -11.372   9.482  70.240  1.00  0.00    -0.249 NA 
ENDBRANCH   2   4
BRANCH   2  10
HETATM   10  C   UNL     1     -11.311  12.689  66.505  1.00  0.00    -0.326 C  
HETATM   11  O   UNL     1     -12.408  12.339  66.064  1.00  0.00    -0.609 OA 
BRANCH  10  12
HETATM   12  C   UNL     1     -10.944  14.124  66.321  1.00  0.00    -0.303 A  
HETATM   13  C   UNL     1     -10.550  14.685  65.115  1.00  0.00    -0.421 A  
HETATM   14  C   UNL     1     -10.324  16.789  66.035  1.00  0.00    -0.335 A  
HETATM   15  C   UNL     1     -10.727  16.337  67.279  1.00  0.00    -0.265 A  
HETATM   16  N   UNL     1     -10.224  15.993  64.951  1.00  0.00    -0.425 NA 
HETATM   17  C   UNL     1     -11.042  14.986  67.421  1.00  0.00    -0.324 A  
ENDBRANCH  10  12
ENDBRANCH   2  10
TORSDOF 3
ENDMDL
MODEL       46
REMARK 921   NORMALIZED FREE ENERGY PREDICTED BY IDOCK:   -4.96 KCAL/MOL
REMARK 922        TOTAL FREE ENERGY PREDICTED BY IDOCK:   -6.05 KCAL/MOL
REMARK 923 INTER-LIGAND FREE ENERGY PREDICTED BY IDOCK:   -5.75 KCAL/MOL
REMARK 924 INTRA-LIGAND FREE ENERGY PREDICTED BY IDOCK:   -0.30 KCAL/MOL
REMARK 927      BINDING AFFINITY PREDICTED BY RF-SCORE:    0.00 PKD
ROOT
HETATM    1  C   UNL     1      -8.822  13.778  67.189  1.00  0.00    -0.240 C  
HETATM    2  C   UNL     1     -10.357  13.636  67.260  1.00  0.00    -0.249 C  
HETATM    3  C   UNL     1     -10.648  12.540  68.322  1.00  0.00    -0.245 C  
ENDROOT
BRANCH   2   4
HETATM    4  C   UNL     1     -11.013  13.177  65.959  1.00  0.00    -0.295 A  
HETATM    5  C   UNL     1     -12.331  12.419  63.659  1.00  0.00    -0.548 A  
HETATM    6  C   UNL     1     -10.286  12.791  64.821  1.00  0.00    -0.345 A  
HETATM    7  C   UNL     1     -12.408  13.127  65.848  1.00  0.00    -0.398 A  
HETATM    8  C   UNL     1     -10.950  12.415  63.657  1.00  0.00    -0.525 A  
HETATM    9  N   UNL     1     -13.075  12.767  64.730  1.00  0.00    -0.836 NA 
ENDBRANCH   2   4
BRANCH   2  10
HETATM   10  C   UNL     1     -10.923  14.989  67.771  1.00  0.00    -0.298 C  
HETATM   11  O   UNL     1     -11.121  15.936  67.005  1.00  0.00    -0.253 OA 
BRANCH  10  12
HETATM   12  C   UNL     1     -11.345  15.179  69.190  1.00  0.00    -0.311 A  
HETATM   13  C   UNL     1     -10.554  15.757  70.173  1.00  0.00    -0.324 A  
HETATM   14  C   UNL     1     -12.196  15.543  71.781  1.00  0.00    -0.394 A  
HETATM   15  C   UNL     1     -13.073  14.976  70.873  1.00  0.00    -0.462 A  
HETATM   16  N   UNL     1     -10.946  15.934  71.462  1.00  0.00     0.010 NA 
HETATM   17  C   UNL     1     -12.640  14.794  69.561  1.00  0.00    -0.034 A  
ENDBRANCH  10  12
ENDBRANCH   2  10
TORSDOF 3
ENDMDL
MODEL       47
REMARK 921   NORMALIZED FREE ENERGY PREDICTED BY IDOCK:   -4.96 KCAL/MOL
REMARK 922        TOTAL FREE ENERGY PREDICTED BY IDOCK:   -6.04 KCAL/MOL
REMARK 923 INTER-LIGAND FREE ENERGY PREDICTED BY IDOCK:   -5.60 KCAL/MOL
REMARK 924 INTRA-LIGAND FREE ENERGY PREDICTED BY IDOCK:   -0.44 KCAL/MOL
REMARK 927      BINDING AFFINITY PREDICTED BY RF-SCORE:    0.00 PKD
ROOT
HETATM    1  C   UNL     1      -9.589  13.533  68.276  1.00  0.00    -0.218 C  
HETATM    2  C   UNL     1     -11.078  13.916  68.126  1.00  0.00    -0.278 C  
HETATM    3  C   UNL     1     -11.104  15.340  67.507  1.00  0.00    -0.324 C  
ENDROOT
BRANCH   2   4
HETATM    4  C   UNL     1     -11.850  13.991  69.441  1.00  0.00    -0.381 A  
HETATM    5  C   UNL     1     -13.305  14.264  71.767  1.00  0.00    -0.371 A  
HETATM    6  C   UNL     1     -12.104  12.874  70.253  1.00  0.00    -0.377 A  
HETATM    7  C   UNL     1     -12.356  15.214  69.898  1.00  0.00    -0.276 A  
HETATM    8  C   UNL     1     -12.844  13.009  71.425  1.00  0.00    -0.385 A  
HETATM    9  N   UNL     1     -13.077  15.371  71.029  1.00  0.00    -0.486 NA 
ENDBRANCH   2   4
BRANCH   2  10
HETATM   10  C   UNL     1     -11.711  12.920  67.116  1.00  0.00    -0.377 C  
HETATM   11  O   UNL     1     -12.665  13.243  66.404  1.00  0.00    -0.252 OA 
BRANCH  10  12
HETATM   12  C   UNL     1     -11.136  11.561  66.887  1.00  0.00    -0.366 A  
HETATM   13  C   UNL     1     -11.282  10.491  67.759  1.00  0.00    -0.273 A  
HETATM   14  C   UNL     1     -10.091   9.066  66.389  1.00  0.00    -0.281 A  
HETATM   15  C   UNL     1      -9.906  10.058  65.442  1.00  0.00    -0.384 A  
HETATM   16  N   UNL     1     -10.763   9.255  67.542  1.00  0.00    -0.257 NA 
HETATM   17  C   UNL     1     -10.439  11.321  65.696  1.00  0.00    -0.317 A  
ENDBRANCH  10  12
ENDBRANCH   2  10
TORSDOF 3
ENDMDL
MODEL       48
REMARK 921   NORMALIZED FREE ENERGY PREDICTED BY IDOCK:   -4.95 KCAL/MOL
REMARK 922        TOTAL FREE ENERGY PREDICTED BY IDOCK:   -6.03 KCAL/MOL
REMARK 923 INTER-LIGAND FREE ENERGY PREDICTED BY IDOCK:   -5.70 KCAL/MOL
REMARK 924 INTRA-LIGAND FREE ENERGY PREDICTED BY IDOCK:   -0.33 KCAL/MOL
REMARK 927      BINDING AFFINITY PREDICTED BY RF-SCORE:    0.00 PKD
ROOT
HETATM    1  C   UNL     1      -9.695  10.447  65.168  1.00  0.00    -0.353 C  
HETATM    2  C   UNL     1      -9.953  10.579  66.685  1.00  0.00    -0.260 C  
HETATM    3  C   UNL     1      -8.765  11.396  67.262  1.00  0.00    -0.148 C  
ENDROOT
BRANCH   2   4
HETATM    4  C   UNL     1      -9.987   9.253  67.442  1.00  0.00    -0.253 A  
HETATM    5  C   UNL     1     -10.031   6.941  68.943  1.00  0.00    -0.157 A  
HETATM    6  C   UNL     1     -10.524   8.071  66.906  1.00  0.00    -0.387 A  
HETATM    7  C   UNL     1      -9.475   9.165  68.741  1.00  0.00    -0.147 A  
HETATM    8  C   UNL     1     -10.553   6.904  67.665  1.00  0.00    -0.328 A  
HETATM    9  N   UNL     1      -9.492   8.047  69.498  1.00  0.00    -0.160 NA 
ENDBRANCH   2   4
BRANCH   2  10
HETATM   10  C   UNL     1     -11.258  11.403  66.860  1.00  0.00    -0.264 C  
HETATM   11  O   UNL     1     -12.047  11.174  67.780  1.00  0.00    -0.606 OA 
BRANCH  10  12
HETATM   12  C   UNL     1     -11.574  12.572  65.987  1.00  0.00    -0.456 A  
HETATM   13  C   UNL     1     -12.479  12.543  64.935  1.00  0.00    -0.450 A  
HETATM   14  C   UNL     1     -12.147  14.773  64.438  1.00  0.00    -0.440 A  
HETATM   15  C   UNL     1     -11.244  14.916  65.477  1.00  0.00    -0.348 A  
HETATM   16  N   UNL     1     -12.767  13.612  64.147  1.00  0.00    -0.649 NA 
HETATM   17  C   UNL     1     -10.956  13.799  66.261  1.00  0.00    -0.297 A  
ENDBRANCH  10  12
ENDBRANCH   2  10
TORSDOF 3
ENDMDL
MODEL       49
REMARK 921   NORMALIZED FREE ENERGY PREDICTED BY IDOCK:   -4.94 KCAL/MOL
REMARK 922        TOTAL FREE ENERGY PREDICTED BY IDOCK:   -6.02 KCAL/MOL
REMARK 923 INTER-LIGAND FREE ENERGY PREDICTED BY IDOCK:   -5.40 KCAL/MOL
REMARK 924 INTRA-LIGAND FREE ENERGY PREDICTED BY IDOCK:   -0.62 KCAL/MOL
REMARK 927      BINDING AFFINITY PREDICTED BY RF-SCORE:    0.00 PKD
ROOT
HETATM    1  C   UNL     1      -9.980   7.385  73.629  1.00  0.00    -0.379 C  
HETATM    2  C   UNL     1     -10.283   7.569  72.127  1.00  0.00    -0.238 C  
HETATM    3  C   UNL     1      -8.927   7.896  71.443  1.00  0.00    -0.161 C  
ENDROOT
BRANCH   2   4
HETATM    4  C   UNL     1     -11.230   8.724  71.806  1.00  0.00    -0.410 A  
HETATM    5  C   UNL     1     -13.017  10.775  71.361  1.00  0.00    -0.432 A  
HETATM    6  C   UNL     1     -10.913   9.757  70.909  1.00  0.00    -0.411 A  
HETATM    7  C   UNL     1     -12.486   8.801  72.419  1.00  0.00    -0.352 A  
HETATM    8  C   UNL     1     -11.812  10.797  70.688  1.00  0.00    -0.460 A  
HETATM    9  N   UNL     1     -13.375   9.800  72.222  1.00  0.00    -0.428 NA 
ENDBRANCH   2   4
BRANCH   2  10
HETATM   10  C   UNL     1     -10.798   6.205  71.590  1.00  0.00    -0.258 C  
HETATM   11  O   UNL     1     -11.507   5.468  72.277  1.00  0.00    -0.242 OA 
BRANCH  10  12
HETATM   12  C   UNL     1     -10.542   5.766  70.186  1.00  0.00    -0.377 A  
HETATM   13  C   UNL     1      -9.697   4.723  69.832  1.00  0.00    -0.204 A  
HETATM   14  C   UNL     1     -10.144   4.972  67.582  1.00  0.00    -0.140 A  
HETATM   15  C   UNL     1     -11.025   6.011  67.826  1.00  0.00    -0.333 A  
HETATM   16  N   UNL     1      -9.473   4.322  68.554  1.00  0.00    -0.151 NA 
HETATM   17  C   UNL     1     -11.226   6.410  69.148  1.00  0.00    -0.421 A  
ENDBRANCH  10  12
ENDBRANCH   2  10
TORSDOF 3
ENDMDL
MODEL       50
REMARK 921   NORMALIZED FREE ENERGY PREDICTED BY IDOCK:   -4.93 KCAL/MOL
REMARK 922        TOTAL FREE ENERGY PREDICTED BY IDOCK:   -6.01 KCAL/MOL
REMARK 923 INTER-LIGAND FREE ENERGY PREDICTED BY IDOCK:   -5.71 KCAL/MOL
REMARK 924 INTRA-LIGAND FREE ENERGY PREDICTED BY IDOCK:   -0.30 KCAL/MOL
REMARK 927      BINDING AFFINITY PREDICTED BY RF-SCORE:    0.00 PKD
ROOT
HETATM    1  C   UNL     1      -9.247  10.847  65.980  1.00  0.00    -0.210 C  
HETATM    2  C   UNL     1     -10.000  10.635  67.311  1.00  0.00    -0.224 C  
HETATM    3  C   UNL     1      -9.088  11.213  68.427  1.00  0.00    -0.168 C  
ENDROOT
BRANCH   2   4
HETATM    4  C   UNL     1     -10.262   9.173  67.667  1.00  0.00    -0.293 A  
HETATM    5  C   UNL     1     -10.779   6.581  68.454  1.00  0.00    -0.279 A  
HETATM    6  C   UNL     1     -10.453   8.166  66.706  1.00  0.00    -0.316 A  
HETATM    7  C   UNL     1     -10.329   8.770  69.006  1.00  0.00    -0.213 A  
HETATM    8  C   UNL     1     -10.721   6.858  67.102  1.00  0.00    -0.436 A  
HETATM    9  N   UNL     1     -10.589   7.509  69.415  1.00  0.00    -0.229 NA 
ENDBRANCH   2   4
BRANCH   2  10
HETATM   10  C   UNL     1     -11.303  11.477  67.243  1.00  0.00    -0.290 C  
HETATM   11  O   UNL     1     -12.253  11.259  67.999  1.00  0.00    -0.621 OA 
BRANCH  10  12
HETATM   12  C   UNL     1     -11.433  12.651  66.330  1.00  0.00    -0.409 A  
HETATM   13  C   UNL     1     -10.932  13.916  66.603  1.00  0.00    -0.301 A  
HETATM   14  C   UNL     1     -11.666  14.767  64.587  1.00  0.00    -0.422 A  
HETATM   15  C   UNL     1     -12.183  13.541  64.207  1.00  0.00    -0.450 A  
HETATM   16  N   UNL     1     -11.047  14.980  65.766  1.00  0.00    -0.346 NA 
HETATM   17  C   UNL     1     -12.062  12.470  65.092  1.00  0.00    -0.503 A  
ENDBRANCH  10  12
ENDBRANCH   2  10
TORSDOF 3
ENDMDL
MODEL       51
REMARK 921   NORMALIZED FREE ENERGY PREDICTED BY IDOCK:   -4.92 KCAL/MOL
REMARK 922        TOTAL FREE ENERGY PREDICTED BY IDOCK:   -5.99 KCAL/MOL
REMARK 923 INTER-LIGAND FREE ENERGY PREDICTED BY IDOCK:   -5.78 KCAL/MOL
REMARK 924 INTRA-LIGAND FREE ENERGY PREDICTED BY IDOCK:   -0.21 KCAL/MOL
REMARK 927      BINDING AFFINITY PREDICTED BY RF-SCORE:    0.00 PKD
ROOT
HETATM    1  C   UNL     1     -10.110  12.508  68.151  1.00  0.00    -0.225 C  
HETATM    2  C   UNL     1     -10.160  11.428  67.049  1.00  0.00    -0.237 C  
HETATM    3  C   UNL     1      -8.688  11.156  66.634  1.00  0.00    -0.166 C  
ENDROOT
BRANCH   2   4
HETATM    4  C   UNL     1     -10.907  11.845  65.784  1.00  0.00    -0.341 A  
HETATM    5  C   UNL     1     -12.328  12.710  63.585  1.00  0.00    -0.492 A  
HETATM    6  C   UNL     1     -10.470  11.524  64.488  1.00  0.00    -0.369 A  
HETATM    7  C   UNL     1     -12.087  12.592  65.871  1.00  0.00    -0.396 A  
HETATM    8  C   UNL     1     -11.183  11.965  63.376  1.00  0.00    -0.463 A  
HETATM    9  N   UNL     1     -12.796  13.033  64.808  1.00  0.00    -0.745 NA 
ENDBRANCH   2   4
BRANCH   2  10
HETATM   10  C   UNL     1     -10.744  10.140  67.692  1.00  0.00    -0.285 C  
HETATM   11  O   UNL     1     -10.726   9.058  67.100  1.00  0.00    -0.259 OA 
BRANCH  10  12
HETATM   12  C   UNL     1     -11.265  10.127  69.091  1.00  0.00    -0.234 A  
HETATM   13  C   UNL     1     -12.369  10.849  69.524  1.00  0.00    -0.171 A  
HETATM   14  C   UNL     1     -12.207  10.027  71.674  1.00  0.00    -0.367 A  
HETATM   15  C   UNL     1     -11.111   9.250  71.342  1.00  0.00    -0.437 A  
HETATM   16  N   UNL     1     -12.844  10.828  70.796  1.00  0.00    -0.341 NA 
HETATM   17  C   UNL     1     -10.637   9.302  70.032  1.00  0.00    -0.256 A  
ENDBRANCH  10  12
ENDBRANCH   2  10
TORSDOF 3
ENDMDL
MODEL       52
REMARK 921   NORMALIZED FREE ENERGY PREDICTED BY IDOCK:   -4.90 KCAL/MOL
REMARK 922        TOTAL FREE ENERGY PREDICTED BY IDOCK:   -5.97 KCAL/MOL
REMARK 923 INTER-LIGAND FREE ENERGY PREDICTED BY IDOCK:   -5.37 KCAL/MOL
REMARK 924 INTRA-LIGAND FREE ENERGY PREDICTED BY IDOCK:   -0.60 KCAL/MOL
REMARK 927      BINDING AFFINITY PREDICTED BY RF-SCORE:    0.00 PKD
ROOT
HETATM    1  C   UNL     1     -10.267   7.151  73.788  1.00  0.00    -0.395 C  
HETATM    2  C   UNL     1     -10.417   7.411  72.274  1.00  0.00    -0.260 C  
HETATM    3  C   UNL     1      -8.995   7.739  71.742  1.00  0.00    -0.155 C  
ENDROOT
BRANCH   2   4
HETATM    4  C   UNL     1     -11.308   8.599  71.917  1.00  0.00    -0.417 A  
HETATM    5  C   UNL     1     -12.819  10.774  71.152  1.00  0.00    -0.414 A  
HETATM    6  C   UNL     1     -12.632   8.733  72.365  1.00  0.00    -0.430 A  
HETATM    7  C   UNL     1     -10.824   9.628  71.100  1.00  0.00    -0.334 A  
HETATM    8  C   UNL     1     -13.399   9.828  71.974  1.00  0.00    -0.547 A  
HETATM    9  N   UNL     1     -11.548  10.698  70.707  1.00  0.00    -0.332 NA 
ENDBRANCH   2   4
BRANCH   2  10
HETATM   10  C   UNL     1     -10.899   6.084  71.624  1.00  0.00    -0.260 C  
HETATM   11  O   UNL     1     -11.626   5.295  72.232  1.00  0.00    -0.108 OA 
BRANCH  10  12
HETATM   12  C   UNL     1     -10.589   5.746  70.203  1.00  0.00    -0.377 A  
HETATM   13  C   UNL     1      -9.730   4.730  69.809  1.00  0.00    -0.202 A  
HETATM   14  C   UNL     1     -10.090   5.141  67.566  1.00  0.00    -0.167 A  
HETATM   15  C   UNL     1     -10.981   6.161  67.851  1.00  0.00    -0.399 A  
HETATM   16  N   UNL     1      -9.456   4.422  68.514  1.00  0.00    -0.149 NA 
HETATM   17  C   UNL     1     -11.233   6.464  69.188  1.00  0.00    -0.421 A  
ENDBRANCH  10  12
ENDBRANCH   2  10
TORSDOF 3
ENDMDL
MODEL       53
REMARK 921   NORMALIZED FREE ENERGY PREDICTED BY IDOCK:   -4.89 KCAL/MOL
REMARK 922        TOTAL FREE ENERGY PREDICTED BY IDOCK:   -5.96 KCAL/MOL
REMARK 923 INTER-LIGAND FREE ENERGY PREDICTED BY IDOCK:   -5.41 KCAL/MOL
REMARK 924 INTRA-LIGAND FREE ENERGY PREDICTED BY IDOCK:   -0.55 KCAL/MOL
REMARK 927      BINDING AFFINITY PREDICTED BY RF-SCORE:    0.00 PKD
ROOT
HETATM    1  C   UNL     1     -10.320   8.437  72.401  1.00  0.00    -0.399 C  
HETATM    2  C   UNL     1     -11.292   7.689  71.464  1.00  0.00    -0.286 C  
HETATM    3  C   UNL     1     -11.659   6.362  72.182  1.00  0.00    -0.357 C  
ENDROOT
BRANCH   2   4
HETATM    4  C   UNL     1     -10.702   7.309  70.107  1.00  0.00    -0.260 A  
HETATM    5  C   UNL     1      -9.493   6.651  67.718  1.00  0.00    -0.120 A  
HETATM    6  C   UNL     1     -11.399   6.562  69.143  1.00  0.00    -0.330 A  
HETATM    7  C   UNL     1      -9.402   7.699  69.766  1.00  0.00    -0.150 A  
HETATM    8  C   UNL     1     -10.787   6.223  67.939  1.00  0.00    -0.417 A  
HETATM    9  N   UNL     1      -8.786   7.382  68.606  1.00  0.00    -0.127 NA 
ENDBRANCH   2   4
BRANCH   2  10
HETATM   10  C   UNL     1     -12.573   8.559  71.337  1.00  0.00    -0.283 C  
HETATM   11  O   UNL     1     -13.699   8.074  71.473  1.00  0.00    -0.343 OA 
BRANCH  10  12
HETATM   12  C   UNL     1     -12.502  10.038  71.144  1.00  0.00    -0.480 A  
HETATM   13  C   UNL     1     -11.883  10.659  70.069  1.00  0.00    -0.322 A  
HETATM   14  C   UNL     1     -12.444  12.769  70.817  1.00  0.00    -0.271 A  
HETATM   15  C   UNL     1     -13.108  12.251  71.915  1.00  0.00    -0.469 A  
HETATM   16  N   UNL     1     -11.827  12.005  69.893  1.00  0.00    -0.337 NA 
HETATM   17  C   UNL     1     -13.137  10.867  72.077  1.00  0.00    -0.462 A  
ENDBRANCH  10  12
ENDBRANCH   2  10
TORSDOF 3
ENDMDL
MODEL       54
REMARK 921   NORMALIZED FREE ENERGY PREDICTED BY IDOCK:   -4.87 KCAL/MOL
REMARK 922        TOTAL FREE ENERGY PREDICTED BY IDOCK:   -5.94 KCAL/MOL
REMARK 923 INTER-LIGAND FREE ENERGY PREDICTED BY IDOCK:   -5.62 KCAL/MOL
REMARK 924 INTRA-LIGAND FREE ENERGY PREDICTED BY IDOCK:   -0.32 KCAL/MOL
REMARK 927      BINDING AFFINITY PREDICTED BY RF-SCORE:    0.00 PKD
ROOT
HETATM    1  C   UNL     1      -9.044  12.664  67.077  1.00  0.00    -0.215 C  
HETATM    2  C   UNL     1     -10.572  12.653  67.299  1.00  0.00    -0.244 C  
HETATM    3  C   UNL     1     -10.996  14.132  67.507  1.00  0.00    -0.292 C  
ENDROOT
BRANCH   2   4
HETATM    4  C   UNL     1     -11.029  11.883  68.536  1.00  0.00    -0.277 A  
HETATM    5  C   UNL     1     -11.726  10.400  70.754  1.00  0.00    -0.368 A  
HETATM    6  C   UNL     1     -11.929  12.402  69.480  1.00  0.00    -0.324 A  
HETATM    7  C   UNL     1     -10.546  10.593  68.787  1.00  0.00    -0.206 A  
HETATM    8  C   UNL     1     -12.278  11.657  70.604  1.00  0.00    -0.461 A  
HETATM    9  N   UNL     1     -10.867   9.851  69.869  1.00  0.00    -0.258 NA 
ENDBRANCH   2   4
BRANCH   2  10
HETATM   10  C   UNL     1     -11.224  12.125  65.991  1.00  0.00    -0.336 C  
HETATM   11  O   UNL     1     -12.410  12.340  65.729  1.00  0.00    -0.622 OA 
BRANCH  10  12
HETATM   12  C   UNL     1     -10.427  11.420  64.944  1.00  0.00    -0.363 A  
HETATM   13  C   UNL     1     -10.130  11.948  63.696  1.00  0.00    -0.426 A  
HETATM   14  C   UNL     1      -8.914  10.089  63.071  1.00  0.00    -0.260 A  
HETATM   15  C   UNL     1      -9.133   9.480  64.294  1.00  0.00    -0.220 A  
HETATM   16  N   UNL     1      -9.398  11.305  62.749  1.00  0.00    -0.358 NA 
HETATM   17  C   UNL     1      -9.899  10.158  65.242  1.00  0.00    -0.388 A  
ENDBRANCH  10  12
ENDBRANCH   2  10
TORSDOF 3
ENDMDL
MODEL       55
REMARK 921   NORMALIZED FREE ENERGY PREDICTED BY IDOCK:   -4.87 KCAL/MOL
REMARK 922        TOTAL FREE ENERGY PREDICTED BY IDOCK:   -5.94 KCAL/MOL
REMARK 923 INTER-LIGAND FREE ENERGY PREDICTED BY IDOCK:   -5.54 KCAL/MOL
REMARK 924 INTRA-LIGAND FREE ENERGY PREDICTED BY IDOCK:   -0.40 KCAL/MOL
REMARK 927      BINDING AFFINITY PREDICTED BY RF-SCORE:    0.00 PKD
ROOT
HETATM    1  C   UNL     1     -11.006  10.191  67.281  1.00  0.00    -0.250 C  
HETATM    2  C   UNL     1     -10.467  11.199  68.319  1.00  0.00    -0.215 C  
HETATM    3  C   UNL     1      -9.150  10.592  68.875  1.00  0.00    -0.181 C  
ENDROOT
BRANCH   2   4
HETATM    4  C   UNL     1     -11.387  11.432  69.516  1.00  0.00    -0.357 A  
HETATM    5  C   UNL     1     -13.008  11.709  71.729  1.00  0.00    -0.377 A  
HETATM    6  C   UNL     1     -11.810  12.706  69.928  1.00  0.00    -0.364 A  
HETATM    7  C   UNL     1     -11.851  10.351  70.274  1.00  0.00    -0.312 A  
HETATM    8  C   UNL     1     -12.624  12.848  71.049  1.00  0.00    -0.376 A  
HETATM    9  N   UNL     1     -12.639  10.463  71.366  1.00  0.00    -0.397 NA 
ENDBRANCH   2   4
BRANCH   2  10
HETATM   10  C   UNL     1     -10.130  12.510  67.558  1.00  0.00    -0.207 C  
HETATM   11  O   UNL     1      -9.183  13.226  67.892  1.00  0.00    -0.196 OA 
BRANCH  10  12
HETATM   12  C   UNL     1     -10.873  12.918  66.328  1.00  0.00    -0.295 A  
HETATM   13  C   UNL     1     -10.509  12.561  65.037  1.00  0.00    -0.297 A  
HETATM   14  C   UNL     1     -12.308  13.663  64.103  1.00  0.00    -0.330 A  
HETATM   15  C   UNL     1     -12.771  14.056  65.346  1.00  0.00    -0.499 A  
HETATM   16  N   UNL     1     -11.192  12.928  63.922  1.00  0.00    -0.412 NA 
HETATM   17  C   UNL     1     -12.042  13.675  66.473  1.00  0.00    -0.469 A  
ENDBRANCH  10  12
ENDBRANCH   2  10
TORSDOF 3
ENDMDL
MODEL       56
REMARK 921   NORMALIZED FREE ENERGY PREDICTED BY IDOCK:   -4.86 KCAL/MOL
REMARK 922        TOTAL FREE ENERGY PREDICTED BY IDOCK:   -5.93 KCAL/MOL
REMARK 923 INTER-LIGAND FREE ENERGY PREDICTED BY IDOCK:   -5.38 KCAL/MOL
REMARK 924 INTRA-LIGAND FREE ENERGY PREDICTED BY IDOCK:   -0.55 KCAL/MOL
REMARK 927      BINDING AFFINITY PREDICTED BY RF-SCORE:    0.00 PKD
ROOT
HETATM    1  C   UNL     1     -10.484   8.152  72.627  1.00  0.00    -0.401 C  
HETATM    2  C   UNL     1     -11.367   7.396  71.610  1.00  0.00    -0.286 C  
HETATM    3  C   UNL     1     -11.749   6.048  72.278  1.00  0.00    -0.338 C  
ENDROOT
BRANCH   2   4
HETATM    4  C   UNL     1     -10.671   7.057  70.293  1.00  0.00    -0.266 A  
HETATM    5  C   UNL     1      -9.277   6.466  67.989  1.00  0.00    -0.110 A  
HETATM    6  C   UNL     1     -11.295   6.355  69.249  1.00  0.00    -0.405 A  
HETATM    7  C   UNL     1      -9.342   7.438  70.074  1.00  0.00    -0.151 A  
HETATM    8  C   UNL     1     -10.591   6.051  68.087  1.00  0.00    -0.328 A  
HETATM    9  N   UNL     1      -8.637   7.154  68.958  1.00  0.00    -0.129 NA 
ENDBRANCH   2   4
BRANCH   2  10
HETATM   10  C   UNL     1     -12.658   8.237  71.407  1.00  0.00    -0.275 C  
HETATM   11  O   UNL     1     -13.777   7.723  71.465  1.00  0.00    -0.364 OA 
BRANCH  10  12
HETATM   12  C   UNL     1     -12.611   9.718  71.229  1.00  0.00    -0.460 A  
HETATM   13  C   UNL     1     -13.223  10.630  72.078  1.00  0.00    -0.368 A  
HETATM   14  C   UNL     1     -12.453  12.442  70.874  1.00  0.00    -0.274 A  
HETATM   15  C   UNL     1     -11.788  11.622  69.980  1.00  0.00    -0.435 A  
HETATM   16  N   UNL     1     -13.172  11.977  71.916  1.00  0.00    -0.450 NA 
HETATM   17  C   UNL     1     -11.868  10.242  70.163  1.00  0.00    -0.343 A  
ENDBRANCH  10  12
ENDBRANCH   2  10
TORSDOF 3
ENDMDL
MODEL       57
REMARK 921   NORMALIZED FREE ENERGY PREDICTED BY IDOCK:   -4.86 KCAL/MOL
REMARK 922        TOTAL FREE ENERGY PREDICTED BY IDOCK:   -5.93 KCAL/MOL
REMARK 923 INTER-LIGAND FREE ENERGY PREDICTED BY IDOCK:   -5.68 KCAL/MOL
REMARK 924 INTRA-LIGAND FREE ENERGY PREDICTED BY IDOCK:   -0.25 KCAL/MOL
REMARK 927      BINDING AFFINITY PREDICTED BY RF-SCORE:    0.00 PKD
ROOT
HETATM    1  C   UNL     1     -10.753  14.296  67.936  1.00  0.00    -0.244 C  
HETATM    2  C   UNL     1      -9.724  14.814  66.908  1.00  0.00    -0.247 C  
HETATM    3  C   UNL     1      -8.633  13.715  66.789  1.00  0.00    -0.050 C  
ENDROOT
BRANCH   2   4
HETATM    4  C   UNL     1      -9.013  16.103  67.313  1.00  0.00    -0.210 A  
HETATM    5  C   UNL     1      -7.826  18.439  68.170  1.00  0.00    -0.289 A  
HETATM    6  C   UNL     1      -7.735  16.457  66.853  1.00  0.00    -0.276 A  
HETATM    7  C   UNL     1      -9.625  17.004  68.192  1.00  0.00    -0.266 A  
HETATM    8  C   UNL     1      -7.131  17.634  67.290  1.00  0.00    -0.199 A  
HETATM    9  N   UNL     1      -9.061  18.150  68.632  1.00  0.00    -0.301 NA 
ENDBRANCH   2   4
BRANCH   2  10
HETATM   10  C   UNL     1     -10.458  14.938  65.544  1.00  0.00    -0.360 C  
HETATM   11  O   UNL     1     -10.461  15.994  64.907  1.00  0.00    -0.574 OA 
BRANCH  10  12
HETATM   12  C   UNL     1     -11.110  13.764  64.892  1.00  0.00    -0.364 A  
HETATM   13  C   UNL     1     -12.448  13.426  65.042  1.00  0.00    -0.428 A  
HETATM   14  C   UNL     1     -12.267  11.611  63.628  1.00  0.00    -0.243 A  
HETATM   15  C   UNL     1     -10.928  11.872  63.392  1.00  0.00    -0.470 A  
HETATM   16  N   UNL     1     -13.038  12.360  64.441  1.00  0.00    -0.811 NA 
HETATM   17  C   UNL     1     -10.345  12.965  64.033  1.00  0.00    -0.346 A  
ENDBRANCH  10  12
ENDBRANCH   2  10
TORSDOF 3
ENDMDL
MODEL       58
REMARK 921   NORMALIZED FREE ENERGY PREDICTED BY IDOCK:   -4.85 KCAL/MOL
REMARK 922        TOTAL FREE ENERGY PREDICTED BY IDOCK:   -5.92 KCAL/MOL
REMARK 923 INTER-LIGAND FREE ENERGY PREDICTED BY IDOCK:   -5.41 KCAL/MOL
REMARK 924 INTRA-LIGAND FREE ENERGY PREDICTED BY IDOCK:   -0.50 KCAL/MOL
REMARK 927      BINDING AFFINITY PREDICTED BY RF-SCORE:    0.00 PKD
ROOT
HETATM    1  C   UNL     1     -10.530  16.741  69.430  1.00  0.00    -0.312 C  
HETATM    2  C   UNL     1     -10.001  17.180  68.047  1.00  0.00    -0.295 C  
HETATM    3  C   UNL     1     -10.767  18.480  67.678  1.00  0.00    -0.405 C  
ENDROOT
BRANCH   2   4
HETATM    4  C   UNL     1     -10.259  16.180  66.922  1.00  0.00    -0.283 A  
HETATM    5  C   UNL     1     -10.705  14.493  64.787  1.00  0.00    -0.393 A  
HETATM    6  C   UNL     1     -10.123  14.791  67.077  1.00  0.00    -0.245 A  
HETATM    7  C   UNL     1     -10.645  16.625  65.652  1.00  0.00    -0.270 A  
HETATM    8  C   UNL     1     -10.342  13.938  65.998  1.00  0.00    -0.310 A  
HETATM    9  N   UNL     1     -10.861  15.819  64.590  1.00  0.00    -0.504 NA 
ENDBRANCH   2   4
BRANCH   2  10
HETATM   10  C   UNL     1      -8.494  17.518  68.215  1.00  0.00    -0.266 C  
HETATM   11  O   UNL     1      -7.785  16.918  69.027  1.00  0.00    -0.243 OA 
BRANCH  10  12
HETATM   12  C   UNL     1      -7.810  18.513  67.338  1.00  0.00    -0.241 A  
HETATM   13  C   UNL     1      -7.453  18.280  66.017  1.00  0.00    -0.220 A  
HETATM   14  C   UNL     1      -6.588  20.403  65.756  1.00  0.00    -0.241 A  
HETATM   15  C   UNL     1      -6.920  20.747  67.054  1.00  0.00    -0.386 A  
HETATM   16  N   UNL     1      -6.837  19.191  65.221  1.00  0.00    -0.468 NA 
HETATM   17  C   UNL     1      -7.541  19.787  67.853  1.00  0.00    -0.331 A  
ENDBRANCH  10  12
ENDBRANCH   2  10
TORSDOF 3
ENDMDL
MODEL       59
REMARK 921   NORMALIZED FREE ENERGY PREDICTED BY IDOCK:   -4.85 KCAL/MOL
REMARK 922        TOTAL FREE ENERGY PREDICTED BY IDOCK:   -5.91 KCAL/MOL
REMARK 923 INTER-LIGAND FREE ENERGY PREDICTED BY IDOCK:   -5.29 KCAL/MOL
REMARK 924 INTRA-LIGAND FREE ENERGY PREDICTED BY IDOCK:   -0.62 KCAL/MOL
REMARK 927      BINDING AFFINITY PREDICTED BY RF-SCORE:    0.00 PKD
ROOT
HETATM    1  C   UNL     1      -9.601  20.378  65.997  1.00  0.00    -0.226 C  
HETATM    2  C   UNL     1      -9.438  19.099  66.846  1.00  0.00    -0.368 C  
HETATM    3  C   UNL     1     -10.043  19.418  68.240  1.00  0.00    -0.531 C  
ENDROOT
BRANCH   2   4
HETATM    4  C   UNL     1      -7.991  18.670  67.078  1.00  0.00    -0.254 A  
HETATM    5  C   UNL     1      -5.424  17.832  67.636  1.00  0.00    -0.135 A  
HETATM    6  C   UNL     1      -7.046  18.551  66.046  1.00  0.00    -0.306 A  
HETATM    7  C   UNL     1      -7.541  18.362  68.367  1.00  0.00    -0.291 A  
HETATM    8  C   UNL     1      -5.750  18.122  66.325  1.00  0.00    -0.207 A  
HETATM    9  N   UNL     1      -6.292  17.943  68.663  1.00  0.00    -0.202 NA 
ENDBRANCH   2   4
BRANCH   2  10
HETATM   10  C   UNL     1     -10.292  17.988  66.173  1.00  0.00    -0.366 C  
HETATM   11  O   UNL     1     -10.960  18.212  65.161  1.00  0.00    -0.637 OA 
BRANCH  10  12
HETATM   12  C   UNL     1     -10.269  16.577  66.659  1.00  0.00    -0.302 A  
HETATM   13  C   UNL     1     -10.956  16.120  67.776  1.00  0.00    -0.293 A  
HETATM   14  C   UNL     1     -10.224  13.952  67.481  1.00  0.00    -0.245 A  
HETATM   15  C   UNL     1      -9.520  14.297  66.340  1.00  0.00    -0.297 A  
HETATM   16  N   UNL     1     -10.938  14.833  68.210  1.00  0.00    -0.250 NA 
HETATM   17  C   UNL     1      -9.546  15.628  65.925  1.00  0.00    -0.385 A  
ENDBRANCH  10  12
ENDBRANCH   2  10
TORSDOF 3
ENDMDL
MODEL       60
REMARK 921   NORMALIZED FREE ENERGY PREDICTED BY IDOCK:   -4.84 KCAL/MOL
REMARK 922        TOTAL FREE ENERGY PREDICTED BY IDOCK:   -5.91 KCAL/MOL
REMARK 923 INTER-LIGAND FREE ENERGY PREDICTED BY IDOCK:   -5.24 KCAL/MOL
REMARK 924 INTRA-LIGAND FREE ENERGY PREDICTED BY IDOCK:   -0.66 KCAL/MOL
REMARK 927      BINDING AFFINITY PREDICTED BY RF-SCORE:    0.00 PKD
ROOT
HETATM    1  C   UNL     1      -6.640  17.595  69.264  1.00  0.00    -0.233 C  
HETATM    2  C   UNL     1      -7.585  17.032  68.180  1.00  0.00    -0.194 C  
HETATM    3  C   UNL     1      -6.696  16.708  66.949  1.00  0.00    -0.247 C  
ENDROOT
BRANCH   2   4
HETATM    4  C   UNL     1      -8.660  18.007  67.706  1.00  0.00    -0.244 A  
HETATM    5  C   UNL     1     -10.610  19.686  66.714  1.00  0.00    -0.486 A  
HETATM    6  C   UNL     1      -9.402  18.823  68.576  1.00  0.00    -0.390 A  
HETATM    7  C   UNL     1      -8.961  18.123  66.344  1.00  0.00    -0.239 A  
HETATM    8  C   UNL     1     -10.391  19.667  68.078  1.00  0.00    -0.579 A  
HETATM    9  N   UNL     1      -9.916  18.932  65.836  1.00  0.00    -0.506 NA 
ENDBRANCH   2   4
BRANCH   2  10
HETATM   10  C   UNL     1      -8.180  15.706  68.730  1.00  0.00    -0.183 C  
HETATM   11  O   UNL     1      -7.668  15.116  69.685  1.00  0.00    -0.215 OA 
BRANCH  10  12
HETATM   12  C   UNL     1      -9.451  15.134  68.196  1.00  0.00    -0.201 A  
HETATM   13  C   UNL     1      -9.562  14.469  66.983  1.00  0.00    -0.245 A  
HETATM   14  C   UNL     1     -11.814  14.060  67.284  1.00  0.00    -0.411 A  
HETATM   15  C   UNL     1     -11.808  14.684  68.519  1.00  0.00    -0.346 A  
HETATM   16  N   UNL     1     -10.720  13.943  66.504  1.00  0.00    -0.277 NA 
HETATM   17  C   UNL     1     -10.608  15.226  68.979  1.00  0.00    -0.245 A  
ENDBRANCH  10  12
ENDBRANCH   2  10
TORSDOF 3
ENDMDL
MODEL       61
REMARK 921   NORMALIZED FREE ENERGY PREDICTED BY IDOCK:   -4.82 KCAL/MOL
REMARK 922        TOTAL FREE ENERGY PREDICTED BY IDOCK:   -5.88 KCAL/MOL
REMARK 923 INTER-LIGAND FREE ENERGY PREDICTED BY IDOCK:   -5.25 KCAL/MOL
REMARK 924 INTRA-LIGAND FREE ENERGY PREDICTED BY IDOCK:   -0.63 KCAL/MOL
REMARK 927      BINDING AFFINITY PREDICTED BY RF-SCORE:    0.00 PKD
ROOT
HETATM    1  C   UNL     1     -10.507   9.001  67.118  1.00  0.00    -0.333 C  
HETATM    2  C   UNL     1     -10.088  10.360  66.517  1.00  0.00    -0.285 C  
HETATM    3  C   UNL     1      -9.947  10.138  64.987  1.00  0.00    -0.375 C  
ENDROOT
BRANCH   2   4
HETATM    4  C   UNL     1      -8.744  10.888  67.014  1.00  0.00    -0.141 A  
HETATM    5  C   UNL     1      -6.274  11.862  67.759  1.00  0.00    -0.070 A  
HETATM    6  C   UNL     1      -8.533  11.359  68.320  1.00  0.00    -0.154 A  
HETATM    7  C   UNL     1      -7.638  10.929  66.156  1.00  0.00    -0.119 A  
HETATM    8  C   UNL     1      -7.288  11.857  68.696  1.00  0.00    -0.115 A  
HETATM    9  N   UNL     1      -6.421  11.408  66.496  1.00  0.00    -0.116 NA 
ENDBRANCH   2   4
BRANCH   2  10
HETATM   10  C   UNL     1     -11.253  11.356  66.772  1.00  0.00    -0.252 C  
HETATM   11  O   UNL     1     -12.009  11.231  67.739  1.00  0.00    -0.637 OA 
BRANCH  10  12
HETATM   12  C   UNL     1     -11.455  12.564  65.919  1.00  0.00    -0.417 A  
HETATM   13  C   UNL     1     -12.496  12.720  65.014  1.00  0.00    -0.506 A  
HETATM   14  C   UNL     1     -11.802  14.835  64.405  1.00  0.00    -0.380 A  
HETATM   15  C   UNL     1     -10.742  14.792  65.294  1.00  0.00    -0.406 A  
HETATM   16  N   UNL     1     -12.680  13.824  64.245  1.00  0.00    -0.653 NA 
HETATM   17  C   UNL     1     -10.570  13.640  66.061  1.00  0.00    -0.290 A  
ENDBRANCH  10  12
ENDBRANCH   2  10
TORSDOF 3
ENDMDL
MODEL       62
REMARK 921   NORMALIZED FREE ENERGY PREDICTED BY IDOCK:   -4.81 KCAL/MOL
REMARK 922        TOTAL FREE ENERGY PREDICTED BY IDOCK:   -5.87 KCAL/MOL
REMARK 923 INTER-LIGAND FREE ENERGY PREDICTED BY IDOCK:   -5.35 KCAL/MOL
REMARK 924 INTRA-LIGAND FREE ENERGY PREDICTED BY IDOCK:   -0.52 KCAL/MOL
REMARK 927      BINDING AFFINITY PREDICTED BY RF-SCORE:    0.00 PKD
ROOT
HETATM    1  C   UNL     1     -11.784  11.817  68.433  1.00  0.00    -0.389 C  
HETATM    2  C   UNL     1     -10.684  12.231  67.433  1.00  0.00    -0.261 C  
HETATM    3  C   UNL     1     -10.197  13.638  67.874  1.00  0.00    -0.250 C  
ENDROOT
BRANCH   2   4
HETATM    4  C   UNL     1     -11.156  12.359  65.986  1.00  0.00    -0.344 A  
HETATM    5  C   UNL     1     -12.124  12.687  63.425  1.00  0.00    -0.525 A  
HETATM    6  C   UNL     1     -10.342  12.071  64.879  1.00  0.00    -0.316 A  
HETATM    7  C   UNL     1     -12.457  12.790  65.700  1.00  0.00    -0.275 A  
HETATM    8  C   UNL     1     -10.827  12.242  63.585  1.00  0.00    -0.522 A  
HETATM    9  N   UNL     1     -12.951  12.965  64.455  1.00  0.00    -0.737 NA 
ENDBRANCH   2   4
BRANCH   2  10
HETATM   10  C   UNL     1      -9.512  11.223  67.593  1.00  0.00    -0.167 C  
HETATM   11  O   UNL     1      -8.335  11.587  67.529  1.00  0.00    -0.134 OA 
BRANCH  10  12
HETATM   12  C   UNL     1      -9.750   9.788  67.928  1.00  0.00    -0.168 A  
HETATM   13  C   UNL     1      -9.623   9.249  69.201  1.00  0.00    -0.161 A  
HETATM   14  C   UNL     1     -10.246   7.142  68.494  1.00  0.00    -0.175 A  
HETATM   15  C   UNL     1     -10.424   7.581  67.194  1.00  0.00    -0.407 A  
HETATM   16  N   UNL     1      -9.847   7.943  69.503  1.00  0.00    -0.174 NA 
HETATM   17  C   UNL     1     -10.173   8.924  66.911  1.00  0.00    -0.347 A  
ENDBRANCH  10  12
ENDBRANCH   2  10
TORSDOF 3
ENDMDL
MODEL       63
REMARK 921   NORMALIZED FREE ENERGY PREDICTED BY IDOCK:   -4.81 KCAL/MOL
REMARK 922        TOTAL FREE ENERGY PREDICTED BY IDOCK:   -5.87 KCAL/MOL
REMARK 923 INTER-LIGAND FREE ENERGY PREDICTED BY IDOCK:   -5.42 KCAL/MOL
REMARK 924 INTRA-LIGAND FREE ENERGY PREDICTED BY IDOCK:   -0.45 KCAL/MOL
REMARK 927      BINDING AFFINITY PREDICTED BY RF-SCORE:    0.00 PKD
ROOT
HETATM    1  C   UNL     1      -8.989  10.368  69.441  1.00  0.00    -0.168 C  
HETATM    2  C   UNL     1     -10.189   9.505  69.888  1.00  0.00    -0.261 C  
HETATM    3  C   UNL     1      -9.881   9.045  71.340  1.00  0.00    -0.381 C  
ENDROOT
BRANCH   2   4
HETATM    4  C   UNL     1     -10.406   8.240  69.060  1.00  0.00    -0.233 A  
HETATM    5  C   UNL     1     -10.872   5.894  67.690  1.00  0.00    -0.239 A  
HETATM    6  C   UNL     1     -10.343   8.215  67.658  1.00  0.00    -0.313 A  
HETATM    7  C   UNL     1     -10.692   7.022  69.688  1.00  0.00    -0.241 A  
HETATM    8  C   UNL     1     -10.584   7.032  66.964  1.00  0.00    -0.412 A  
HETATM    9  N   UNL     1     -10.932   5.863  69.038  1.00  0.00    -0.325 NA 
ENDBRANCH   2   4
BRANCH   2  10
HETATM   10  C   UNL     1     -11.438  10.428  69.911  1.00  0.00    -0.297 C  
HETATM   11  O   UNL     1     -12.312  10.310  70.773  1.00  0.00    -0.303 OA 
BRANCH  10  12
HETATM   12  C   UNL     1     -11.593  11.564  68.954  1.00  0.00    -0.384 A  
HETATM   13  C   UNL     1     -11.746  11.418  67.583  1.00  0.00    -0.168 A  
HETATM   14  C   UNL     1     -11.921  13.695  67.245  1.00  0.00    -0.381 A  
HETATM   15  C   UNL     1     -11.799  13.950  68.600  1.00  0.00    -0.407 A  
HETATM   16  N   UNL     1     -11.895  12.455  66.717  1.00  0.00    -0.562 NA 
HETATM   17  C   UNL     1     -11.634  12.868  69.464  1.00  0.00    -0.348 A  
ENDBRANCH  10  12
ENDBRANCH   2  10
TORSDOF 3
ENDMDL
MODEL       64
REMARK 921   NORMALIZED FREE ENERGY PREDICTED BY IDOCK:   -4.81 KCAL/MOL
REMARK 922        TOTAL FREE ENERGY PREDICTED BY IDOCK:   -5.86 KCAL/MOL
REMARK 923 INTER-LIGAND FREE ENERGY PREDICTED BY IDOCK:   -5.81 KCAL/MOL
REMARK 924 INTRA-LIGAND FREE ENERGY PREDICTED BY IDOCK:   -0.05 KCAL/MOL
REMARK 927      BINDING AFFINITY PREDICTED BY RF-SCORE:    0.00 PKD
ROOT
HETATM    1  C   UNL     1      -9.206  11.768  67.995  1.00  0.00    -0.181 C  
HETATM    2  C   UNL     1     -10.708  11.856  67.651  1.00  0.00    -0.253 C  
HETATM    3  C   UNL     1     -11.140  10.432  67.205  1.00  0.00    -0.251 C  
ENDROOT
BRANCH   2   4
HETATM    4  C   UNL     1     -11.042  12.801  66.498  1.00  0.00    -0.321 A  
HETATM    5  C   UNL     1     -11.791  14.448  64.418  1.00  0.00    -0.415 A  
HETATM    6  C   UNL     1     -10.281  13.939  66.187  1.00  0.00    -0.307 A  
HETATM    7  C   UNL     1     -12.157  12.563  65.686  1.00  0.00    -0.400 A  
HETATM    8  C   UNL     1     -10.661  14.776  65.141  1.00  0.00    -0.433 A  
HETATM    9  N   UNL     1     -12.548  13.359  64.667  1.00  0.00    -0.637 NA 
ENDBRANCH   2   4
BRANCH   2  10
HETATM   10  C   UNL     1     -11.461  12.220  68.960  1.00  0.00    -0.297 C  
HETATM   11  O   UNL     1     -11.944  13.341  69.136  1.00  0.00    -0.309 OA 
BRANCH  10  12
HETATM   12  C   UNL     1     -11.723  11.206  70.024  1.00  0.00    -0.438 A  
HETATM   13  C   UNL     1     -10.791  10.279  70.470  1.00  0.00    -0.211 A  
HETATM   14  C   UNL     1     -12.250   9.390  72.022  1.00  0.00    -0.326 A  
HETATM   15  C   UNL     1     -13.243  10.285  71.667  1.00  0.00    -0.509 A  
HETATM   16  N   UNL     1     -11.032   9.363  71.444  1.00  0.00    -0.361 NA 
HETATM   17  C   UNL     1     -12.973  11.206  70.656  1.00  0.00    -0.164 A  
ENDBRANCH  10  12
ENDBRANCH   2  10
TORSDOF 3
ENDMDL
MODEL       65
REMARK 921   NORMALIZED FREE ENERGY PREDICTED BY IDOCK:   -4.79 KCAL/MOL
REMARK 922        TOTAL FREE ENERGY PREDICTED BY IDOCK:   -5.85 KCAL/MOL
REMARK 923 INTER-LIGAND FREE ENERGY PREDICTED BY IDOCK:   -5.33 KCAL/MOL
REMARK 924 INTRA-LIGAND FREE ENERGY PREDICTED BY IDOCK:   -0.52 KCAL/MOL
REMARK 927      BINDING AFFINITY PREDICTED BY RF-SCORE:    0.00 PKD
ROOT
HETATM    1  C   UNL     1     -10.569  13.282  64.414  1.00  0.00    -0.438 C  
HETATM    2  C   UNL     1     -11.323  13.647  65.710  1.00  0.00    -0.315 C  
HETATM    3  C   UNL     1     -12.835  13.642  65.354  1.00  0.00    -0.440 C  
ENDROOT
BRANCH   2   4
HETATM    4  C   UNL     1     -11.002  15.033  66.264  1.00  0.00    -0.338 A  
HETATM    5  C   UNL     1     -10.446  17.595  67.117  1.00  0.00    -0.319 A  
HETATM    6  C   UNL     1     -11.071  15.355  67.629  1.00  0.00    -0.316 A  
HETATM    7  C   UNL     1     -10.623  16.070  65.403  1.00  0.00    -0.408 A  
HETATM    8  C   UNL     1     -10.796  16.650  68.061  1.00  0.00    -0.337 A  
HETATM    9  N   UNL     1     -10.353  17.334  65.797  1.00  0.00    -0.581 NA 
ENDBRANCH   2   4
BRANCH   2  10
HETATM   10  C   UNL     1     -11.048  12.514  66.737  1.00  0.00    -0.279 C  
HETATM   11  O   UNL     1     -11.953  12.032  67.424  1.00  0.00    -0.583 OA 
BRANCH  10  12
HETATM   12  C   UNL     1      -9.701  11.886  66.874  1.00  0.00    -0.212 A  
HETATM   13  C   UNL     1      -8.547  12.574  67.225  1.00  0.00    -0.191 A  
HETATM   14  C   UNL     1      -7.251  10.666  67.154  1.00  0.00    -0.097 A  
HETATM   15  C   UNL     1      -8.343   9.883  66.822  1.00  0.00    -0.125 A  
HETATM   16  N   UNL     1      -7.324  11.997  67.355  1.00  0.00    -0.139 NA 
HETATM   17  C   UNL     1      -9.583  10.504  66.682  1.00  0.00    -0.210 A  
ENDBRANCH  10  12
ENDBRANCH   2  10
TORSDOF 3
ENDMDL
MODEL       66
REMARK 921   NORMALIZED FREE ENERGY PREDICTED BY IDOCK:   -4.79 KCAL/MOL
REMARK 922        TOTAL FREE ENERGY PREDICTED BY IDOCK:   -5.84 KCAL/MOL
REMARK 923 INTER-LIGAND FREE ENERGY PREDICTED BY IDOCK:   -5.52 KCAL/MOL
REMARK 924 INTRA-LIGAND FREE ENERGY PREDICTED BY IDOCK:   -0.32 KCAL/MOL
REMARK 927      BINDING AFFINITY PREDICTED BY RF-SCORE:    0.00 PKD
ROOT
HETATM    1  C   UNL     1     -12.125  13.177  65.809  1.00  0.00    -0.502 C  
HETATM    2  C   UNL     1     -11.246  13.788  66.921  1.00  0.00    -0.326 C  
HETATM    3  C   UNL     1     -12.029  13.606  68.250  1.00  0.00    -0.385 C  
ENDROOT
BRANCH   2   4
HETATM    4  C   UNL     1     -10.975  15.283  66.769  1.00  0.00    -0.306 A  
HETATM    5  C   UNL     1     -10.533  17.971  66.342  1.00  0.00    -0.339 A  
HETATM    6  C   UNL     1     -10.887  16.167  67.856  1.00  0.00    -0.332 A  
HETATM    7  C   UNL     1     -10.806  15.847  65.498  1.00  0.00    -0.315 A  
HETATM    8  C   UNL     1     -10.670  17.526  67.642  1.00  0.00    -0.306 A  
HETATM    9  N   UNL     1     -10.596  17.160  65.264  1.00  0.00    -0.662 NA 
ENDBRANCH   2   4
BRANCH   2  10
HETATM   10  C   UNL     1      -9.941  12.947  66.992  1.00  0.00    -0.244 C  
HETATM   11  O   UNL     1      -8.852  13.466  67.248  1.00  0.00    -0.201 OA 
BRANCH  10  12
HETATM   12  C   UNL     1      -9.955  11.461  66.850  1.00  0.00    -0.235 A  
HETATM   13  C   UNL     1     -10.415  10.585  67.823  1.00  0.00    -0.224 A  
HETATM   14  C   UNL     1      -9.998   8.731  66.513  1.00  0.00    -0.290 A  
HETATM   15  C   UNL     1      -9.538   9.516  65.470  1.00  0.00    -0.349 A  
HETATM   16  N   UNL     1     -10.433   9.233  67.686  1.00  0.00    -0.253 NA 
HETATM   17  C   UNL     1      -9.520  10.899  65.643  1.00  0.00    -0.252 A  
ENDBRANCH  10  12
ENDBRANCH   2  10
TORSDOF 3
ENDMDL
MODEL       67
REMARK 921   NORMALIZED FREE ENERGY PREDICTED BY IDOCK:   -4.78 KCAL/MOL
REMARK 922        TOTAL FREE ENERGY PREDICTED BY IDOCK:   -5.83 KCAL/MOL
REMARK 923 INTER-LIGAND FREE ENERGY PREDICTED BY IDOCK:   -5.30 KCAL/MOL
REMARK 924 INTRA-LIGAND FREE ENERGY PREDICTED BY IDOCK:   -0.53 KCAL/MOL
REMARK 927      BINDING AFFINITY PREDICTED BY RF-SCORE:    0.00 PKD
ROOT
HETATM    1  C   UNL     1     -12.779  12.789  64.552  1.00  0.00    -0.405 C  
HETATM    2  C   UNL     1     -11.476  13.020  65.346  1.00  0.00    -0.344 C  
HETATM    3  C   UNL     1     -11.766  12.574  66.805  1.00  0.00    -0.453 C  
ENDROOT
BRANCH   2   4
HETATM    4  C   UNL     1     -11.020  14.476  65.410  1.00  0.00    -0.346 A  
HETATM    5  C   UNL     1     -10.327  17.144  65.447  1.00  0.00    -0.018 A  
HETATM    6  C   UNL     1     -10.076  14.950  66.336  1.00  0.00    -0.296 A  
HETATM    7  C   UNL     1     -11.547  15.423  64.525  1.00  0.00    -0.296 A  
HETATM    8  C   UNL     1      -9.730  16.298  66.360  1.00  0.00    -0.310 A  
HETATM    9  N   UNL     1     -11.229  16.736  64.529  1.00  0.00    -1.039 NA 
ENDBRANCH   2   4
BRANCH   2  10
HETATM   10  C   UNL     1     -10.396  12.080  64.742  1.00  0.00    -0.280 C  
HETATM   11  O   UNL     1     -10.026  12.190  63.571  1.00  0.00    -0.405 OA 
BRANCH  10  12
HETATM   12  C   UNL     1      -9.684  11.064  65.574  1.00  0.00    -0.274 A  
HETATM   13  C   UNL     1      -9.986   9.710  65.587  1.00  0.00    -0.251 A  
HETATM   14  C   UNL     1      -8.306   9.232  67.094  1.00  0.00    -0.124 A  
HETATM   15  C   UNL     1      -7.908  10.557  67.139  1.00  0.00    -0.112 A  
HETATM   16  N   UNL     1      -9.331   8.789  66.339  1.00  0.00    -0.187 NA 
HETATM   17  C   UNL     1      -8.608  11.483  66.366  1.00  0.00    -0.159 A  
ENDBRANCH  10  12
ENDBRANCH   2  10
TORSDOF 3
ENDMDL
MODEL       68
REMARK 921   NORMALIZED FREE ENERGY PREDICTED BY IDOCK:   -4.76 KCAL/MOL
REMARK 922        TOTAL FREE ENERGY PREDICTED BY IDOCK:   -5.81 KCAL/MOL
REMARK 923 INTER-LIGAND FREE ENERGY PREDICTED BY IDOCK:   -5.72 KCAL/MOL
REMARK 924 INTRA-LIGAND FREE ENERGY PREDICTED BY IDOCK:   -0.08 KCAL/MOL
REMARK 927      BINDING AFFINITY PREDICTED BY RF-SCORE:    0.00 PKD
ROOT
HETATM    1  C   UNL     1     -11.994  13.827  68.969  1.00  0.00    -0.399 C  
HETATM    2  C   UNL     1     -11.109  13.425  67.770  1.00  0.00    -0.292 C  
HETATM    3  C   UNL     1      -9.637  13.611  68.229  1.00  0.00    -0.215 C  
ENDROOT
BRANCH   2   4
HETATM    4  C   UNL     1     -11.296  14.288  66.524  1.00  0.00    -0.351 A  
HETATM    5  C   UNL     1     -11.484  15.895  64.291  1.00  0.00    -0.191 A  
HETATM    6  C   UNL     1     -12.310  14.070  65.578  1.00  0.00    -0.503 A  
HETATM    7  C   UNL     1     -10.432  15.359  66.267  1.00  0.00    -0.303 A  
HETATM    8  C   UNL     1     -12.403  14.876  64.446  1.00  0.00    -0.342 A  
HETATM    9  N   UNL     1     -10.500  16.155  65.178  1.00  0.00    -0.608 NA 
ENDBRANCH   2   4
BRANCH   2  10
HETATM   10  C   UNL     1     -11.360  11.916  67.496  1.00  0.00    -0.314 C  
HETATM   11  O   UNL     1     -12.274  11.303  68.053  1.00  0.00    -0.621 OA 
BRANCH  10  12
HETATM   12  C   UNL     1     -10.573  11.161  66.477  1.00  0.00    -0.314 A  
HETATM   13  C   UNL     1     -10.655  11.372  65.108  1.00  0.00    -0.293 A  
HETATM   14  C   UNL     1      -9.063   9.765  64.649  1.00  0.00    -0.245 A  
HETATM   15  C   UNL     1      -8.888   9.490  65.994  1.00  0.00    -0.183 A  
HETATM   16  N   UNL     1      -9.931  10.687  64.185  1.00  0.00    -0.331 NA 
HETATM   17  C   UNL     1      -9.654  10.201  66.918  1.00  0.00    -0.219 A  
ENDBRANCH  10  12
ENDBRANCH   2  10
TORSDOF 3
ENDMDL
MODEL       69
REMARK 921   NORMALIZED FREE ENERGY PREDICTED BY IDOCK:   -4.75 KCAL/MOL
REMARK 922        TOTAL FREE ENERGY PREDICTED BY IDOCK:   -5.80 KCAL/MOL
REMARK 923 INTER-LIGAND FREE ENERGY PREDICTED BY IDOCK:   -5.82 KCAL/MOL
REMARK 924 INTRA-LIGAND FREE ENERGY PREDICTED BY IDOCK:    0.03 KCAL/MOL
REMARK 927      BINDING AFFINITY PREDICTED BY RF-SCORE:    0.00 PKD
ROOT
HETATM    1  C   UNL     1      -9.341  12.810  68.416  1.00  0.00    -0.143 C  
HETATM    2  C   UNL     1     -10.852  12.570  68.617  1.00  0.00    -0.280 C  
HETATM    3  C   UNL     1     -11.431  13.884  69.208  1.00  0.00    -0.348 C  
ENDROOT
BRANCH   2   4
HETATM    4  C   UNL     1     -11.193  11.454  69.603  1.00  0.00    -0.301 A  
HETATM    5  C   UNL     1     -11.658   9.389  71.370  1.00  0.00    -0.381 A  
HETATM    6  C   UNL     1     -12.293  11.502  70.474  1.00  0.00    -0.432 A  
HETATM    7  C   UNL     1     -10.391  10.309  69.683  1.00  0.00    -0.248 A  
HETATM    8  C   UNL     1     -12.526  10.463  71.372  1.00  0.00    -0.521 A  
HETATM    9  N   UNL     1     -10.595   9.289  70.545  1.00  0.00    -0.231 NA 
ENDBRANCH   2   4
BRANCH   2  10
HETATM   10  C   UNL     1     -11.474  12.338  67.213  1.00  0.00    -0.357 C  
HETATM   11  O   UNL     1     -11.998  11.263  66.908  1.00  0.00    -0.327 OA 
BRANCH  10  12
HETATM   12  C   UNL     1     -11.555  13.430  66.199  1.00  0.00    -0.378 A  
HETATM   13  C   UNL     1     -12.721  13.817  65.554  1.00  0.00    -0.488 A  
HETATM   14  C   UNL     1     -11.649  15.483  64.370  1.00  0.00    -0.258 A  
HETATM   15  C   UNL     1     -10.438  15.193  64.971  1.00  0.00    -0.418 A  
HETATM   16  N   UNL     1     -12.791  14.817  64.637  1.00  0.00    -0.389 NA 
HETATM   17  C   UNL     1     -10.393  14.153  65.899  1.00  0.00    -0.326 A  
ENDBRANCH  10  12
ENDBRANCH   2  10
TORSDOF 3
ENDMDL
MODEL       70
REMARK 921   NORMALIZED FREE ENERGY PREDICTED BY IDOCK:   -4.75 KCAL/MOL
REMARK 922        TOTAL FREE ENERGY PREDICTED BY IDOCK:   -5.79 KCAL/MOL
REMARK 923 INTER-LIGAND FREE ENERGY PREDICTED BY IDOCK:   -5.25 KCAL/MOL
REMARK 924 INTRA-LIGAND FREE ENERGY PREDICTED BY IDOCK:   -0.54 KCAL/MOL
REMARK 927      BINDING AFFINITY PREDICTED BY RF-SCORE:    0.00 PKD
ROOT
HETATM    1  C   UNL     1      -8.211   9.749  67.759  1.00  0.00    -0.114 C  
HETATM    2  C   UNL     1      -9.660   9.979  68.241  1.00  0.00    -0.151 C  
HETATM    3  C   UNL     1     -10.522   8.867  67.584  1.00  0.00    -0.320 C  
ENDROOT
BRANCH   2   4
HETATM    4  C   UNL     1     -10.265  11.316  67.818  1.00  0.00    -0.203 A  
HETATM    5  C   UNL     1     -11.491  13.652  67.015  1.00  0.00    -0.343 A  
HETATM    6  C   UNL     1      -9.778  12.558  68.256  1.00  0.00    -0.220 A  
HETATM    7  C   UNL     1     -11.368  11.354  66.956  1.00  0.00    -0.236 A  
HETATM    8  C   UNL     1     -10.400  13.739  67.856  1.00  0.00    -0.244 A  
HETATM    9  N   UNL     1     -11.989  12.485  66.555  1.00  0.00    -0.576 NA 
ENDBRANCH   2   4
BRANCH   2  10
HETATM   10  C   UNL     1      -9.672   9.777  69.781  1.00  0.00    -0.229 C  
HETATM   11  O   UNL     1      -8.631   9.800  70.443  1.00  0.00    -0.188 OA 
BRANCH  10  12
HETATM   12  C   UNL     1     -10.946   9.644  70.547  1.00  0.00    -0.374 A  
HETATM   13  C   UNL     1     -11.339   8.497  71.222  1.00  0.00    -0.271 A  
HETATM   14  C   UNL     1     -13.289   9.472  71.979  1.00  0.00    -0.452 A  
HETATM   15  C   UNL     1     -12.982  10.671  71.360  1.00  0.00    -0.545 A  
HETATM   16  N   UNL     1     -12.497   8.383  71.924  1.00  0.00    -0.327 NA 
HETATM   17  C   UNL     1     -11.793  10.755  70.636  1.00  0.00    -0.460 A  
ENDBRANCH  10  12
ENDBRANCH   2  10
TORSDOF 3
ENDMDL
MODEL       71
REMARK 921   NORMALIZED FREE ENERGY PREDICTED BY IDOCK:   -4.73 KCAL/MOL
REMARK 922        TOTAL FREE ENERGY PREDICTED BY IDOCK:   -5.78 KCAL/MOL
REMARK 923 INTER-LIGAND FREE ENERGY PREDICTED BY IDOCK:   -5.31 KCAL/MOL
REMARK 924 INTRA-LIGAND FREE ENERGY PREDICTED BY IDOCK:   -0.47 KCAL/MOL
REMARK 927      BINDING AFFINITY PREDICTED BY RF-SCORE:    0.00 PKD
ROOT
HETATM    1  C   UNL     1      -9.440  11.624  65.713  1.00  0.00    -0.244 C  
HETATM    2  C   UNL     1      -9.983  11.599  67.158  1.00  0.00    -0.219 C  
HETATM    3  C   UNL     1      -8.930  12.331  68.034  1.00  0.00    -0.190 C  
ENDROOT
BRANCH   2   4
HETATM    4  C   UNL     1     -10.156  10.202  67.748  1.00  0.00    -0.216 A  
HETATM    5  C   UNL     1     -10.502   7.746  68.954  1.00  0.00    -0.194 A  
HETATM    6  C   UNL     1     -10.396   9.058  66.969  1.00  0.00    -0.339 A  
HETATM    7  C   UNL     1     -10.087  10.003  69.132  1.00  0.00    -0.208 A  
HETATM    8  C   UNL     1     -10.578   7.818  67.577  1.00  0.00    -0.319 A  
HETATM    9  N   UNL     1     -10.260   8.812  69.746  1.00  0.00    -0.196 NA 
ENDBRANCH   2   4
BRANCH   2  10
HETATM   10  C   UNL     1     -11.300  12.422  67.169  1.00  0.00    -0.329 C  
HETATM   11  O   UNL     1     -12.216  12.184  66.379  1.00  0.00    -0.592 OA 
BRANCH  10  12
HETATM   12  C   UNL     1     -11.562  13.473  68.197  1.00  0.00    -0.368 A  
HETATM   13  C   UNL     1     -11.507  14.838  67.954  1.00  0.00    -0.342 A  
HETATM   14  C   UNL     1     -12.099  15.363  70.122  1.00  0.00    -0.369 A  
HETATM   15  C   UNL     1     -12.204  14.026  70.465  1.00  0.00    -0.435 A  
HETATM   16  N   UNL     1     -11.753  15.790  68.891  1.00  0.00    -0.401 NA 
HETATM   17  C   UNL     1     -11.933  13.071  69.486  1.00  0.00    -0.350 A  
ENDBRANCH  10  12
ENDBRANCH   2  10
TORSDOF 3
ENDMDL
MODEL       72
REMARK 921   NORMALIZED FREE ENERGY PREDICTED BY IDOCK:   -4.72 KCAL/MOL
REMARK 922        TOTAL FREE ENERGY PREDICTED BY IDOCK:   -5.76 KCAL/MOL
REMARK 923 INTER-LIGAND FREE ENERGY PREDICTED BY IDOCK:   -5.53 KCAL/MOL
REMARK 924 INTRA-LIGAND FREE ENERGY PREDICTED BY IDOCK:   -0.23 KCAL/MOL
REMARK 927      BINDING AFFINITY PREDICTED BY RF-SCORE:    0.00 PKD
ROOT
HETATM    1  C   UNL     1      -8.794  11.644  66.944  1.00  0.00    -0.190 C  
HETATM    2  C   UNL     1     -10.235  11.338  66.482  1.00  0.00    -0.269 C  
HETATM    3  C   UNL     1     -10.133  10.159  65.478  1.00  0.00    -0.338 C  
ENDROOT
BRANCH   2   4
HETATM    4  C   UNL     1     -10.924  12.487  65.748  1.00  0.00    -0.327 A  
HETATM    5  C   UNL     1     -12.280  14.457  64.376  1.00  0.00    -0.458 A  
HETATM    6  C   UNL     1     -10.696  13.840  66.044  1.00  0.00    -0.284 A  
HETATM    7  C   UNL     1     -11.844  12.224  64.726  1.00  0.00    -0.364 A  
HETATM    8  C   UNL     1     -11.384  14.837  65.356  1.00  0.00    -0.356 A  
HETATM    9  N   UNL     1     -12.525  13.172  64.045  1.00  0.00    -0.651 NA 
ENDBRANCH   2   4
BRANCH   2  10
HETATM   10  C   UNL     1     -11.029  10.864  67.731  1.00  0.00    -0.283 C  
HETATM   11  O   UNL     1     -12.159  11.290  67.978  1.00  0.00    -0.638 OA 
BRANCH  10  12
HETATM   12  C   UNL     1     -10.505   9.800  68.637  1.00  0.00    -0.233 A  
HETATM   13  C   UNL     1     -10.367   8.465  68.283  1.00  0.00    -0.199 A  
HETATM   14  C   UNL     1      -9.490   7.890  70.338  1.00  0.00    -0.163 A  
HETATM   15  C   UNL     1      -9.565   9.197  70.786  1.00  0.00    -0.338 A  
HETATM   16  N   UNL     1      -9.883   7.501  69.109  1.00  0.00    -0.167 NA 
HETATM   17  C   UNL     1     -10.078  10.163  69.920  1.00  0.00    -0.268 A  
ENDBRANCH  10  12
ENDBRANCH   2  10
TORSDOF 3
ENDMDL
MODEL       73
REMARK 921   NORMALIZED FREE ENERGY PREDICTED BY IDOCK:   -4.71 KCAL/MOL
REMARK 922        TOTAL FREE ENERGY PREDICTED BY IDOCK:   -5.75 KCAL/MOL
REMARK 923 INTER-LIGAND FREE ENERGY PREDICTED BY IDOCK:   -5.32 KCAL/MOL
REMARK 924 INTRA-LIGAND FREE ENERGY PREDICTED BY IDOCK:   -0.43 KCAL/MOL
REMARK 927      BINDING AFFINITY PREDICTED BY RF-SCORE:    0.00 PKD
ROOT
HETATM    1  C   UNL     1     -11.361  15.858  68.304  1.00  0.00    -0.342 C  
HETATM    2  C   UNL     1     -10.895  15.127  67.026  1.00  0.00    -0.314 C  
HETATM    3  C   UNL     1     -12.119  14.324  66.509  1.00  0.00    -0.454 C  
ENDROOT
BRANCH   2   4
HETATM    4  C   UNL     1      -9.766  14.122  67.245  1.00  0.00    -0.236 A  
HETATM    5  C   UNL     1      -7.692  12.384  67.774  1.00  0.00    -0.139 A  
HETATM    6  C   UNL     1      -9.720  12.864  66.622  1.00  0.00    -0.254 A  
HETATM    7  C   UNL     1      -8.705  14.424  68.107  1.00  0.00    -0.175 A  
HETATM    8  C   UNL     1      -8.677  11.983  66.893  1.00  0.00    -0.193 A  
HETATM    9  N   UNL     1      -7.683  13.587  68.387  1.00  0.00    -0.130 NA 
ENDBRANCH   2   4
BRANCH   2  10
HETATM   10  C   UNL     1     -10.533  16.216  65.978  1.00  0.00    -0.338 C  
HETATM   11  O   UNL     1     -10.877  16.115  64.799  1.00  0.00    -0.634 OA 
BRANCH  10  12
HETATM   12  C   UNL     1      -9.837  17.479  66.365  1.00  0.00    -0.316 A  
HETATM   13  C   UNL     1      -8.477  17.578  66.624  1.00  0.00    -0.259 A  
HETATM   14  C   UNL     1      -8.603  19.846  67.031  1.00  0.00    -0.330 A  
HETATM   15  C   UNL     1      -9.962  19.862  66.772  1.00  0.00    -0.569 A  
HETATM   16  N   UNL     1      -7.848  18.731  66.969  1.00  0.00    -0.236 NA 
HETATM   17  C   UNL     1     -10.585  18.661  66.433  1.00  0.00    -0.399 A  
ENDBRANCH  10  12
ENDBRANCH   2  10
TORSDOF 3
ENDMDL
MODEL       74
REMARK 921   NORMALIZED FREE ENERGY PREDICTED BY IDOCK:   -4.70 KCAL/MOL
REMARK 922        TOTAL FREE ENERGY PREDICTED BY IDOCK:   -5.74 KCAL/MOL
REMARK 923 INTER-LIGAND FREE ENERGY PREDICTED BY IDOCK:   -5.40 KCAL/MOL
REMARK 924 INTRA-LIGAND FREE ENERGY PREDICTED BY IDOCK:   -0.34 KCAL/MOL
REMARK 927      BINDING AFFINITY PREDICTED BY RF-SCORE:    0.00 PKD
ROOT
HETATM    1  C   UNL     1      -9.199  18.613  66.166  1.00  0.00    -0.146 C  
HETATM    2  C   UNL     1      -9.834  17.346  66.779  1.00  0.00    -0.297 C  
HETATM    3  C   UNL     1     -10.852  17.837  67.844  1.00  0.00    -0.229 C  
ENDROOT
BRANCH   2   4
HETATM    4  C   UNL     1      -8.850  16.426  67.498  1.00  0.00    -0.187 A  
HETATM    5  C   UNL     1      -7.174  14.762  68.919  1.00  0.00    -0.126 A  
HETATM    6  C   UNL     1      -7.857  15.688  66.835  1.00  0.00    -0.258 A  
HETATM    7  C   UNL     1      -8.908  16.275  68.888  1.00  0.00    -0.253 A  
HETATM    8  C   UNL     1      -7.013  14.842  67.550  1.00  0.00    -0.198 A  
HETATM    9  N   UNL     1      -8.103  15.461  69.605  1.00  0.00    -0.201 NA 
ENDBRANCH   2   4
BRANCH   2  10
HETATM   10  C   UNL     1     -10.609  16.624  65.643  1.00  0.00    -0.270 C  
HETATM   11  O   UNL     1     -10.941  17.214  64.612  1.00  0.00    -1.005 OA 
BRANCH  10  12
HETATM   12  C   UNL     1     -10.903  15.161  65.699  1.00  0.00    -0.367 A  
HETATM   13  C   UNL     1     -10.354  14.217  64.842  1.00  0.00    -0.401 A  
HETATM   14  C   UNL     1     -11.449  12.471  65.880  1.00  0.00    -0.373 A  
HETATM   15  C   UNL     1     -12.034  13.325  66.798  1.00  0.00    -0.438 A  
HETATM   16  N   UNL     1     -10.619  12.886  64.902  1.00  0.00    -0.309 NA 
HETATM   17  C   UNL     1     -11.754  14.688  66.705  1.00  0.00    -0.345 A  
ENDBRANCH  10  12
ENDBRANCH   2  10
TORSDOF 3
ENDMDL
MODEL       75
REMARK 921   NORMALIZED FREE ENERGY PREDICTED BY IDOCK:   -4.69 KCAL/MOL
REMARK 922        TOTAL FREE ENERGY PREDICTED BY IDOCK:   -5.73 KCAL/MOL
REMARK 923 INTER-LIGAND FREE ENERGY PREDICTED BY IDOCK:   -5.61 KCAL/MOL
REMARK 924 INTRA-LIGAND FREE ENERGY PREDICTED BY IDOCK:   -0.12 KCAL/MOL
REMARK 927      BINDING AFFINITY PREDICTED BY RF-SCORE:    0.00 PKD
ROOT
HETATM    1  C   UNL     1     -11.493  10.990  67.491  1.00  0.00    -0.266 C  
HETATM    2  C   UNL     1     -10.863  11.875  68.588  1.00  0.00    -0.273 C  
HETATM    3  C   UNL     1      -9.643  11.087  69.140  1.00  0.00    -0.081 C  
ENDROOT
BRANCH   2   4
HETATM    4  C   UNL     1     -11.778  12.162  69.776  1.00  0.00    -0.381 A  
HETATM    5  C   UNL     1     -13.469  12.820  71.852  1.00  0.00    -0.358 A  
HETATM    6  C   UNL     1     -12.256  11.166  70.642  1.00  0.00    -0.492 A  
HETATM    7  C   UNL     1     -12.195  13.471  70.049  1.00  0.00    -0.312 A  
HETATM    8  C   UNL     1     -13.115  11.495  71.688  1.00  0.00    -0.478 A  
HETATM    9  N   UNL     1     -13.028  13.815  71.055  1.00  0.00    -0.286 NA 
ENDBRANCH   2   4
BRANCH   2  10
HETATM   10  C   UNL     1     -10.351  13.169  67.898  1.00  0.00    -0.231 C  
HETATM   11  O   UNL     1      -9.330  13.744  68.282  1.00  0.00    -0.203 OA 
BRANCH  10  12
HETATM   12  C   UNL     1     -11.013  13.726  66.681  1.00  0.00    -0.298 A  
HETATM   13  C   UNL     1     -12.382  13.910  66.547  1.00  0.00    -0.404 A  
HETATM   14  C   UNL     1     -12.170  14.798  64.427  1.00  0.00    -0.428 A  
HETATM   15  C   UNL     1     -10.792  14.677  64.466  1.00  0.00    -0.209 A  
HETATM   16  N   UNL     1     -12.978  14.423  65.440  1.00  0.00    -0.552 NA 
HETATM   17  C   UNL     1     -10.208  14.135  65.610  1.00  0.00    -0.357 A  
ENDBRANCH  10  12
ENDBRANCH   2  10
TORSDOF 3
ENDMDL
MODEL       76
REMARK 921   NORMALIZED FREE ENERGY PREDICTED BY IDOCK:   -4.69 KCAL/MOL
REMARK 922        TOTAL FREE ENERGY PREDICTED BY IDOCK:   -5.73 KCAL/MOL
REMARK 923 INTER-LIGAND FREE ENERGY PREDICTED BY IDOCK:   -5.20 KCAL/MOL
REMARK 924 INTRA-LIGAND FREE ENERGY PREDICTED BY IDOCK:   -0.53 KCAL/MOL
REMARK 927      BINDING AFFINITY PREDICTED BY RF-SCORE:    0.00 PKD
ROOT
HETATM    1  C   UNL     1     -10.433  14.176  64.683  1.00  0.00    -0.366 C  
HETATM    2  C   UNL     1     -10.331  13.725  66.156  1.00  0.00    -0.301 C  
HETATM    3  C   UNL     1      -9.250  14.624  66.816  1.00  0.00    -0.285 C  
ENDROOT
BRANCH   2   4
HETATM    4  C   UNL     1      -9.880  12.278  66.349  1.00  0.00    -0.242 A  
HETATM    5  C   UNL     1      -8.992   9.713  66.827  1.00  0.00    -0.138 A  
HETATM    6  C   UNL     1     -10.512  11.185  65.735  1.00  0.00    -0.305 A  
HETATM    7  C   UNL     1      -8.791  11.979  67.175  1.00  0.00    -0.188 A  
HETATM    8  C   UNL     1     -10.069   9.887  65.980  1.00  0.00    -0.314 A  
HETATM    9  N   UNL     1      -8.343  10.730  67.430  1.00  0.00    -0.119 NA 
ENDBRANCH   2   4
BRANCH   2  10
HETATM   10  C   UNL     1     -11.702  14.019  66.825  1.00  0.00    -0.407 C  
HETATM   11  O   UNL     1     -12.740  14.090  66.163  1.00  0.00    -0.450 OA 
BRANCH  10  12
HETATM   12  C   UNL     1     -11.846  14.133  68.306  1.00  0.00    -0.391 A  
HETATM   13  C   UNL     1     -11.882  13.052  69.176  1.00  0.00    -0.310 A  
HETATM   14  C   UNL     1     -12.068  14.407  71.035  1.00  0.00    -0.349 A  
HETATM   15  C   UNL     1     -12.020  15.552  70.260  1.00  0.00    -0.401 A  
HETATM   16  N   UNL     1     -12.006  13.161  70.525  1.00  0.00    -0.286 NA 
HETATM   17  C   UNL     1     -11.906  15.410  68.877  1.00  0.00    -0.350 A  
ENDBRANCH  10  12
ENDBRANCH   2  10
TORSDOF 3
ENDMDL
MODEL       77
REMARK 921   NORMALIZED FREE ENERGY PREDICTED BY IDOCK:   -4.69 KCAL/MOL
REMARK 922        TOTAL FREE ENERGY PREDICTED BY IDOCK:   -5.73 KCAL/MOL
REMARK 923 INTER-LIGAND FREE ENERGY PREDICTED BY IDOCK:   -5.21 KCAL/MOL
REMARK 924 INTRA-LIGAND FREE ENERGY PREDICTED BY IDOCK:   -0.52 KCAL/MOL
REMARK 927      BINDING AFFINITY PREDICTED BY RF-SCORE:    0.00 PKD
ROOT
HETATM    1  C   UNL     1     -11.970  12.871  67.251  1.00  0.00    -0.371 C  
HETATM    2  C   UNL     1     -11.577  13.207  65.796  1.00  0.00    -0.383 C  
HETATM    3  C   UNL     1     -12.907  13.394  65.015  1.00  0.00    -0.344 C  
ENDROOT
BRANCH   2   4
HETATM    4  C   UNL     1     -10.795  12.108  65.080  1.00  0.00    -0.344 A  
HETATM    5  C   UNL     1      -9.396  10.036  63.917  1.00  0.00    -0.263 A  
HETATM    6  C   UNL     1     -10.653  12.046  63.684  1.00  0.00    -0.503 A  
HETATM    7  C   UNL     1     -10.176  11.087  65.810  1.00  0.00    -0.260 A  
HETATM    8  C   UNL     1      -9.952  10.997  63.094  1.00  0.00    -0.382 A  
HETATM    9  N   UNL     1      -9.492  10.059  65.262  1.00  0.00    -0.241 NA 
ENDBRANCH   2   4
BRANCH   2  10
HETATM   10  C   UNL     1     -10.818  14.562  65.824  1.00  0.00    -0.315 C  
HETATM   11  O   UNL     1     -10.925  15.380  64.907  1.00  0.00    -0.417 OA 
BRANCH  10  12
HETATM   12  C   UNL     1     -10.004  14.983  67.002  1.00  0.00    -0.242 A  
HETATM   13  C   UNL     1      -8.756  14.464  67.318  1.00  0.00    -0.215 A  
HETATM   14  C   UNL     1      -8.529  15.831  69.164  1.00  0.00    -0.251 A  
HETATM   15  C   UNL     1      -9.753  16.430  68.926  1.00  0.00    -0.257 A  
HETATM   16  N   UNL     1      -8.015  14.855  68.388  1.00  0.00    -0.128 NA 
HETATM   17  C   UNL     1     -10.498  16.000  67.829  1.00  0.00    -0.298 A  
ENDBRANCH  10  12
ENDBRANCH   2  10
TORSDOF 3
ENDMDL
MODEL       78
REMARK 921   NORMALIZED FREE ENERGY PREDICTED BY IDOCK:   -4.68 KCAL/MOL
REMARK 922        TOTAL FREE ENERGY PREDICTED BY IDOCK:   -5.72 KCAL/MOL
REMARK 923 INTER-LIGAND FREE ENERGY PREDICTED BY IDOCK:   -5.21 KCAL/MOL
REMARK 924 INTRA-LIGAND FREE ENERGY PREDICTED BY IDOCK:   -0.50 KCAL/MOL
REMARK 927      BINDING AFFINITY PREDICTED BY RF-SCORE:    0.00 PKD
ROOT
HETATM    1  C   UNL     1     -12.978  13.704  65.947  1.00  0.00    -0.173 C  
HETATM    2  C   UNL     1     -11.760  12.823  65.595  1.00  0.00    -0.443 C  
HETATM    3  C   UNL     1     -12.277  11.731  64.619  1.00  0.00    -0.036 C  
ENDROOT
BRANCH   2   4
HETATM    4  C   UNL     1     -11.137  12.095  66.784  1.00  0.00    -0.349 A  
HETATM    5  C   UNL     1      -9.874  10.781  68.852  1.00  0.00    -0.199 A  
HETATM    6  C   UNL     1     -11.701  12.093  68.070  1.00  0.00    -0.409 A  
HETATM    7  C   UNL     1      -9.939  11.387  66.633  1.00  0.00    -0.208 A  
HETATM    8  C   UNL     1     -11.061  11.435  69.117  1.00  0.00    -0.317 A  
HETATM    9  N   UNL     1      -9.298  10.742  67.632  1.00  0.00    -0.147 NA 
ENDBRANCH   2   4
BRANCH   2  10
HETATM   10  C   UNL     1     -10.742  13.723  64.843  1.00  0.00    -0.399 C  
HETATM   11  O   UNL     1     -10.110  13.308  63.869  1.00  0.00    -0.274 OA 
BRANCH  10  12
HETATM   12  C   UNL     1     -10.551  15.160  65.198  1.00  0.00    -0.447 A  
HETATM   13  C   UNL     1     -11.160  16.219  64.540  1.00  0.00    -0.160 A  
HETATM   14  C   UNL     1     -10.194  17.788  65.930  1.00  0.00    -0.225 A  
HETATM   15  C   UNL     1      -9.556  16.807  66.668  1.00  0.00    -0.274 A  
HETATM   16  N   UNL     1     -10.988  17.525  64.872  1.00  0.00    -0.827 NA 
HETATM   17  C   UNL     1      -9.740  15.476  66.296  1.00  0.00    -0.328 A  
ENDBRANCH  10  12
ENDBRANCH   2  10
TORSDOF 3
ENDMDL
MODEL       79
REMARK 921   NORMALIZED FREE ENERGY PREDICTED BY IDOCK:   -4.68 KCAL/MOL
REMARK 922        TOTAL FREE ENERGY PREDICTED BY IDOCK:   -5.72 KCAL/MOL
REMARK 923 INTER-LIGAND FREE ENERGY PREDICTED BY IDOCK:   -5.56 KCAL/MOL
REMARK 924 INTRA-LIGAND FREE ENERGY PREDICTED BY IDOCK:   -0.15 KCAL/MOL
REMARK 927      BINDING AFFINITY PREDICTED BY RF-SCORE:    0.00 PKD
ROOT
HETATM    1  C   UNL     1     -10.189  12.366  68.086  1.00  0.00    -0.225 C  
HETATM    2  C   UNL     1     -11.131  13.505  68.532  1.00  0.00    -0.300 C  
HETATM    3  C   UNL     1     -12.258  13.584  67.468  1.00  0.00    -0.247 C  
ENDROOT
BRANCH   2   4
HETATM    4  C   UNL     1     -10.477  14.884  68.589  1.00  0.00    -0.242 A  
HETATM    5  C   UNL     1      -9.157  17.302  68.691  1.00  0.00    -0.260 A  
HETATM    6  C   UNL     1     -11.139  16.068  68.223  1.00  0.00    -0.351 A  
HETATM    7  C   UNL     1      -9.151  15.024  69.014  1.00  0.00    -0.205 A  
HETATM    8  C   UNL     1     -10.471  17.289  68.268  1.00  0.00    -0.385 A  
HETATM    9  N   UNL     1      -8.481  16.195  69.065  1.00  0.00    -0.244 NA 
ENDBRANCH   2   4
BRANCH   2  10
HETATM   10  C   UNL     1     -11.755  13.082  69.891  1.00  0.00    -0.256 C  
HETATM   11  O   UNL     1     -11.802  11.900  70.239  1.00  0.00    -0.331 OA 
BRANCH  10  12
HETATM   12  C   UNL     1     -12.238  14.089  70.881  1.00  0.00    -0.436 A  
HETATM   13  C   UNL     1     -11.413  14.950  71.591  1.00  0.00    -0.222 A  
HETATM   14  C   UNL     1     -13.192  15.956  72.662  1.00  0.00    -0.472 A  
HETATM   15  C   UNL     1     -14.104  15.161  71.991  1.00  0.00    -0.659 A  
HETATM   16  N   UNL     1     -11.858  15.870  72.486  1.00  0.00    -0.477 NA 
HETATM   17  C   UNL     1     -13.617  14.216  71.088  1.00  0.00    -0.254 A  
ENDBRANCH  10  12
ENDBRANCH   2  10
TORSDOF 3
ENDMDL
MODEL       80
REMARK 921   NORMALIZED FREE ENERGY PREDICTED BY IDOCK:   -4.68 KCAL/MOL
REMARK 922        TOTAL FREE ENERGY PREDICTED BY IDOCK:   -5.72 KCAL/MOL
REMARK 923 INTER-LIGAND FREE ENERGY PREDICTED BY IDOCK:   -5.28 KCAL/MOL
REMARK 924 INTRA-LIGAND FREE ENERGY PREDICTED BY IDOCK:   -0.44 KCAL/MOL
REMARK 927      BINDING AFFINITY PREDICTED BY RF-SCORE:    0.00 PKD
ROOT
HETATM    1  C   UNL     1     -11.397  15.276  67.429  1.00  0.00    -0.285 C  
HETATM    2  C   UNL     1     -10.435  14.317  66.696  1.00  0.00    -0.278 C  
HETATM    3  C   UNL     1      -9.338  15.206  66.049  1.00  0.00    -0.326 C  
ENDROOT
BRANCH   2   4
HETATM    4  C   UNL     1     -11.076  13.513  65.567  1.00  0.00    -0.303 A  
HETATM    5  C   UNL     1     -12.374  12.122  63.571  1.00  0.00    -0.574 A  
HETATM    6  C   UNL     1     -10.354  13.003  64.475  1.00  0.00    -0.386 A  
HETATM    7  C   UNL     1     -12.451  13.252  65.574  1.00  0.00    -0.474 A  
HETATM    8  C   UNL     1     -11.009  12.306  63.463  1.00  0.00    -0.521 A  
HETATM    9  N   UNL     1     -13.110  12.580  64.605  1.00  0.00    -0.837 NA 
ENDBRANCH   2   4
BRANCH   2  10
HETATM   10  C   UNL     1      -9.774  13.414  67.774  1.00  0.00    -0.216 C  
HETATM   11  O   UNL     1     -10.413  12.991  68.741  1.00  0.00    -0.235 OA 
BRANCH  10  12
HETATM   12  C   UNL     1      -8.367  12.934  67.643  1.00  0.00    -0.176 A  
HETATM   13  C   UNL     1      -7.994  11.763  66.998  1.00  0.00    -0.164 A  
HETATM   14  C   UNL     1      -5.749  12.124  67.393  1.00  0.00    -0.135 A  
HETATM   15  C   UNL     1      -6.010  13.321  68.037  1.00  0.00    -0.122 A  
HETATM   16  N   UNL     1      -6.711  11.334  66.875  1.00  0.00    -0.124 NA 
HETATM   17  C   UNL     1      -7.337  13.730  68.160  1.00  0.00    -0.124 A  
ENDBRANCH  10  12
ENDBRANCH   2  10
TORSDOF 3
ENDMDL
MODEL       81
REMARK 921   NORMALIZED FREE ENERGY PREDICTED BY IDOCK:   -4.68 KCAL/MOL
REMARK 922        TOTAL FREE ENERGY PREDICTED BY IDOCK:   -5.71 KCAL/MOL
REMARK 923 INTER-LIGAND FREE ENERGY PREDICTED BY IDOCK:   -5.14 KCAL/MOL
REMARK 924 INTRA-LIGAND FREE ENERGY PREDICTED BY IDOCK:   -0.57 KCAL/MOL
REMARK 927      BINDING AFFINITY PREDICTED BY RF-SCORE:    0.00 PKD
ROOT
HETATM    1  C   UNL     1      -9.426  14.988  69.114  1.00  0.00    -0.195 C  
HETATM    2  C   UNL     1     -10.918  15.341  68.931  1.00  0.00    -0.261 C  
HETATM    3  C   UNL     1     -10.961  16.795  68.386  1.00  0.00    -0.325 C  
ENDROOT
BRANCH   2   4
HETATM    4  C   UNL     1     -11.737  15.326  70.219  1.00  0.00    -0.341 A  
HETATM    5  C   UNL     1     -13.094  15.368  72.619  1.00  0.00    -0.442 A  
HETATM    6  C   UNL     1     -13.135  15.194  70.244  1.00  0.00    -0.138 A  
HETATM    7  C   UNL     1     -11.106  15.455  71.462  1.00  0.00    -0.230 A  
HETATM    8  C   UNL     1     -13.823  15.221  71.455  1.00  0.00    -0.603 A  
HETATM    9  N   UNL     1     -11.750  15.485  72.649  1.00  0.00    -0.461 NA 
ENDBRANCH   2   4
BRANCH   2  10
HETATM   10  C   UNL     1     -11.488  14.385  67.847  1.00  0.00    -0.321 C  
HETATM   11  O   UNL     1     -12.187  14.802  66.921  1.00  0.00    -0.230 OA 
BRANCH  10  12
HETATM   12  C   UNL     1     -11.138  12.933  67.817  1.00  0.00    -0.291 A  
HETATM   13  C   UNL     1     -10.172  12.376  66.992  1.00  0.00    -0.220 A  
HETATM   14  C   UNL     1     -10.507  10.256  67.839  1.00  0.00    -0.212 A  
HETATM   15  C   UNL     1     -11.473  10.712  68.719  1.00  0.00    -0.330 A  
HETATM   16  N   UNL     1      -9.852  11.056  66.974  1.00  0.00    -0.179 NA 
HETATM   17  C   UNL     1     -11.789  12.070  68.707  1.00  0.00    -0.358 A  
ENDBRANCH  10  12
ENDBRANCH   2  10
TORSDOF 3
ENDMDL
MODEL       82
REMARK 921   NORMALIZED FREE ENERGY PREDICTED BY IDOCK:   -4.67 KCAL/MOL
REMARK 922        TOTAL FREE ENERGY PREDICTED BY IDOCK:   -5.71 KCAL/MOL
REMARK 923 INTER-LIGAND FREE ENERGY PREDICTED BY IDOCK:   -5.21 KCAL/MOL
REMARK 924 INTRA-LIGAND FREE ENERGY PREDICTED BY IDOCK:   -0.50 KCAL/MOL
REMARK 927      BINDING AFFINITY PREDICTED BY RF-SCORE:    0.00 PKD
ROOT
HETATM    1  C   UNL     1     -12.872  13.731  65.424  1.00  0.00    -0.455 C  
HETATM    2  C   UNL     1     -11.394  13.469  65.784  1.00  0.00    -0.318 C  
HETATM    3  C   UNL     1     -10.578  13.701  64.482  1.00  0.00    -0.428 C  
ENDROOT
BRANCH   2   4
HETATM    4  C   UNL     1     -11.094  12.045  66.246  1.00  0.00    -0.363 A  
HETATM    5  C   UNL     1     -10.439   9.467  66.971  1.00  0.00    -0.232 A  
HETATM    6  C   UNL     1     -11.483  11.541  67.497  1.00  0.00    -0.355 A  
HETATM    7  C   UNL     1     -10.391  11.163  65.416  1.00  0.00    -0.271 A  
HETATM    8  C   UNL     1     -11.148  10.241  67.868  1.00  0.00    -0.341 A  
HETATM    9  N   UNL     1     -10.053   9.900  65.752  1.00  0.00    -0.276 NA 
ENDBRANCH   2   4
BRANCH   2  10
HETATM   10  C   UNL     1     -10.978  14.539  66.831  1.00  0.00    -0.316 C  
HETATM   11  O   UNL     1     -11.758  14.923  67.705  1.00  0.00    -0.347 OA 
BRANCH  10  12
HETATM   12  C   UNL     1      -9.588  15.081  66.892  1.00  0.00    -0.251 A  
HETATM   13  C   UNL     1      -8.503  14.399  67.422  1.00  0.00    -0.203 A  
HETATM   14  C   UNL     1      -7.040  16.116  66.935  1.00  0.00    -0.187 A  
HETATM   15  C   UNL     1      -8.047  16.872  66.363  1.00  0.00    -0.350 A  
HETATM   16  N   UNL     1      -7.238  14.893  67.468  1.00  0.00    -0.193 NA 
HETATM   17  C   UNL     1      -9.338  16.344  66.341  1.00  0.00    -0.322 A  
ENDBRANCH  10  12
ENDBRANCH   2  10
TORSDOF 3
ENDMDL
MODEL       83
REMARK 921   NORMALIZED FREE ENERGY PREDICTED BY IDOCK:   -4.67 KCAL/MOL
REMARK 922        TOTAL FREE ENERGY PREDICTED BY IDOCK:   -5.70 KCAL/MOL
REMARK 923 INTER-LIGAND FREE ENERGY PREDICTED BY IDOCK:   -5.40 KCAL/MOL
REMARK 924 INTRA-LIGAND FREE ENERGY PREDICTED BY IDOCK:   -0.30 KCAL/MOL
REMARK 927      BINDING AFFINITY PREDICTED BY RF-SCORE:    0.00 PKD
ROOT
HETATM    1  C   UNL     1      -9.363  14.747  68.297  1.00  0.00    -0.199 C  
HETATM    2  C   UNL     1     -10.500  15.189  67.351  1.00  0.00    -0.264 C  
HETATM    3  C   UNL     1     -11.708  15.553  68.257  1.00  0.00    -0.287 C  
ENDROOT
BRANCH   2   4
HETATM    4  C   UNL     1     -10.980  14.108  66.385  1.00  0.00    -0.311 A  
HETATM    5  C   UNL     1     -11.702  12.094  64.647  1.00  0.00    -0.332 A  
HETATM    6  C   UNL     1     -12.335  13.792  66.191  1.00  0.00    -0.496 A  
HETATM    7  C   UNL     1     -10.059  13.363  65.639  1.00  0.00    -0.274 A  
HETATM    8  C   UNL     1     -12.701  12.771  65.318  1.00  0.00    -0.332 A  
HETATM    9  N   UNL     1     -10.388  12.368  64.788  1.00  0.00    -0.291 NA 
ENDBRANCH   2   4
BRANCH   2  10
HETATM   10  C   UNL     1     -10.018  16.473  66.621  1.00  0.00    -0.276 C  
HETATM   11  O   UNL     1     -10.334  16.708  65.452  1.00  0.00    -0.584 OA 
BRANCH  10  12
HETATM   12  C   UNL     1      -9.234  17.530  67.325  1.00  0.00    -0.240 A  
HETATM   13  C   UNL     1      -9.767  18.419  68.248  1.00  0.00    -0.344 A  
HETATM   14  C   UNL     1      -7.727  19.430  68.624  1.00  0.00    -0.359 A  
HETATM   15  C   UNL     1      -7.091  18.580  67.738  1.00  0.00    -0.222 A  
HETATM   16  N   UNL     1      -9.047  19.374  68.892  1.00  0.00    -0.360 NA 
HETATM   17  C   UNL     1      -7.857  17.617  67.082  1.00  0.00    -0.229 A  
ENDBRANCH  10  12
ENDBRANCH   2  10
TORSDOF 3
ENDMDL
MODEL       84
REMARK 921   NORMALIZED FREE ENERGY PREDICTED BY IDOCK:   -4.66 KCAL/MOL
REMARK 922        TOTAL FREE ENERGY PREDICTED BY IDOCK:   -5.69 KCAL/MOL
REMARK 923 INTER-LIGAND FREE ENERGY PREDICTED BY IDOCK:   -5.10 KCAL/MOL
REMARK 924 INTRA-LIGAND FREE ENERGY PREDICTED BY IDOCK:   -0.59 KCAL/MOL
REMARK 927      BINDING AFFINITY PREDICTED BY RF-SCORE:    0.00 PKD
ROOT
HETATM    1  C   UNL     1     -11.331   5.834  72.824  1.00  0.00    -0.328 C  
HETATM    2  C   UNL     1     -11.441   6.781  71.610  1.00  0.00    -0.322 C  
HETATM    3  C   UNL     1     -12.953   6.886  71.271  1.00  0.00    -0.309 C  
ENDROOT
BRANCH   2   4
HETATM    4  C   UNL     1     -10.739   6.283  70.349  1.00  0.00    -0.329 A  
HETATM    5  C   UNL     1      -9.382   5.289  68.164  1.00  0.00    -0.118 A  
HETATM    6  C   UNL     1     -11.279   6.417  69.059  1.00  0.00    -0.402 A  
HETATM    7  C   UNL     1      -9.494   5.648  70.434  1.00  0.00    -0.166 A  
HETATM    8  C   UNL     1     -10.598   5.910  67.955  1.00  0.00    -0.321 A  
HETATM    9  N   UNL     1      -8.815   5.147  69.380  1.00  0.00    -0.098 NA 
ENDBRANCH   2   4
BRANCH   2  10
HETATM   10  C   UNL     1     -10.934   8.177  72.066  1.00  0.00    -0.286 C  
HETATM   11  O   UNL     1     -10.044   8.295  72.912  1.00  0.00    -0.294 OA 
BRANCH  10  12
HETATM   12  C   UNL     1     -11.426   9.437  71.436  1.00  0.00    -0.449 A  
HETATM   13  C   UNL     1     -12.494  10.187  71.911  1.00  0.00    -0.282 A  
HETATM   14  C   UNL     1     -12.261  11.778  70.256  1.00  0.00    -0.299 A  
HETATM   15  C   UNL     1     -11.171  11.120  69.714  1.00  0.00    -0.318 A  
HETATM   16  N   UNL     1     -12.934  11.337  71.338  1.00  0.00    -0.415 NA 
HETATM   17  C   UNL     1     -10.750   9.934  70.315  1.00  0.00    -0.367 A  
ENDBRANCH  10  12
ENDBRANCH   2  10
TORSDOF 3
ENDMDL
MODEL       85
REMARK 921   NORMALIZED FREE ENERGY PREDICTED BY IDOCK:   -4.66 KCAL/MOL
REMARK 922        TOTAL FREE ENERGY PREDICTED BY IDOCK:   -5.69 KCAL/MOL
REMARK 923 INTER-LIGAND FREE ENERGY PREDICTED BY IDOCK:   -5.39 KCAL/MOL
REMARK 924 INTRA-LIGAND FREE ENERGY PREDICTED BY IDOCK:   -0.31 KCAL/MOL
REMARK 927      BINDING AFFINITY PREDICTED BY RF-SCORE:    0.00 PKD
ROOT
HETATM    1  C   UNL     1     -10.503   8.362  67.615  1.00  0.00    -0.307 C  
HETATM    2  C   UNL     1     -10.059   9.331  68.733  1.00  0.00    -0.210 C  
HETATM    3  C   UNL     1      -8.775   8.721  69.358  1.00  0.00    -0.142 C  
ENDROOT
BRANCH   2   4
HETATM    4  C   UNL     1     -11.068   9.497  69.867  1.00  0.00    -0.244 A  
HETATM    5  C   UNL     1     -12.816   9.679  71.992  1.00  0.00    -0.410 A  
HETATM    6  C   UNL     1     -11.827  10.662  70.061  1.00  0.00    -0.403 A  
HETATM    7  C   UNL     1     -11.275   8.464  70.789  1.00  0.00    -0.263 A  
HETATM    8  C   UNL     1     -12.706  10.759  71.137  1.00  0.00    -0.532 A  
HETATM    9  N   UNL     1     -12.119   8.533  71.841  1.00  0.00    -0.324 NA 
ENDBRANCH   2   4
BRANCH   2  10
HETATM   10  C   UNL     1      -9.692  10.680  68.055  1.00  0.00    -0.157 C  
HETATM   11  O   UNL     1      -8.779  11.390  68.483  1.00  0.00    -0.152 OA 
BRANCH  10  12
HETATM   12  C   UNL     1     -10.359  11.135  66.799  1.00  0.00    -0.284 A  
HETATM   13  C   UNL     1     -11.494  11.933  66.758  1.00  0.00    -0.316 A  
HETATM   14  C   UNL     1     -11.516  11.980  64.451  1.00  0.00    -0.343 A  
HETATM   15  C   UNL     1     -10.373  11.204  64.379  1.00  0.00    -0.407 A  
HETATM   16  N   UNL     1     -12.092  12.351  65.613  1.00  0.00    -0.584 NA 
HETATM   17  C   UNL     1      -9.787  10.779  65.571  1.00  0.00    -0.309 A  
ENDBRANCH  10  12
ENDBRANCH   2  10
TORSDOF 3
ENDMDL
MODEL       86
REMARK 921   NORMALIZED FREE ENERGY PREDICTED BY IDOCK:   -4.64 KCAL/MOL
REMARK 922        TOTAL FREE ENERGY PREDICTED BY IDOCK:   -5.67 KCAL/MOL
REMARK 923 INTER-LIGAND FREE ENERGY PREDICTED BY IDOCK:   -5.55 KCAL/MOL
REMARK 924 INTRA-LIGAND FREE ENERGY PREDICTED BY IDOCK:   -0.12 KCAL/MOL
REMARK 927      BINDING AFFINITY PREDICTED BY RF-SCORE:    0.00 PKD
ROOT
HETATM    1  C   UNL     1      -9.892  13.539  68.797  1.00  0.00    -0.050 C  
HETATM    2  C   UNL     1     -11.376  13.127  68.896  1.00  0.00    -0.335 C  
HETATM    3  C   UNL     1     -12.096  13.785  67.688  1.00  0.00    -0.333 C  
ENDROOT
BRANCH   2   4
HETATM    4  C   UNL     1     -12.089  13.616  70.156  1.00  0.00    -0.431 A  
HETATM    5  C   UNL     1     -13.372  14.644  72.368  1.00  0.00    -0.417 A  
HETATM    6  C   UNL     1     -12.803  12.768  71.018  1.00  0.00    -0.262 A  
HETATM    7  C   UNL     1     -12.061  14.971  70.505  1.00  0.00    -0.326 A  
HETATM    8  C   UNL     1     -13.457  13.287  72.132  1.00  0.00    -0.655 A  
HETATM    9  N   UNL     1     -12.688  15.499  71.579  1.00  0.00    -0.403 NA 
ENDBRANCH   2   4
BRANCH   2  10
HETATM   10  C   UNL     1     -11.438  11.583  68.734  1.00  0.00    -0.287 C  
HETATM   11  O   UNL     1     -12.280  11.043  68.013  1.00  0.00    -0.520 OA 
BRANCH  10  12
HETATM   12  C   UNL     1     -10.424  10.685  69.363  1.00  0.00    -0.252 A  
HETATM   13  C   UNL     1      -9.105  10.577  68.944  1.00  0.00    -0.177 A  
HETATM   14  C   UNL     1      -8.588   9.045  70.591  1.00  0.00    -0.210 A  
HETATM   15  C   UNL     1      -9.873   9.095  71.103  1.00  0.00    -0.371 A  
HETATM   16  N   UNL     1      -8.185   9.764  69.524  1.00  0.00    -0.128 NA 
HETATM   17  C   UNL     1     -10.801   9.929  70.479  1.00  0.00    -0.391 A  
ENDBRANCH  10  12
ENDBRANCH   2  10
TORSDOF 3
ENDMDL
MODEL       87
REMARK 921   NORMALIZED FREE ENERGY PREDICTED BY IDOCK:   -4.63 KCAL/MOL
REMARK 922        TOTAL FREE ENERGY PREDICTED BY IDOCK:   -5.66 KCAL/MOL
REMARK 923 INTER-LIGAND FREE ENERGY PREDICTED BY IDOCK:   -5.61 KCAL/MOL
REMARK 924 INTRA-LIGAND FREE ENERGY PREDICTED BY IDOCK:   -0.05 KCAL/MOL
REMARK 927      BINDING AFFINITY PREDICTED BY RF-SCORE:    0.00 PKD
ROOT
HETATM    1  C   UNL     1     -10.681   7.508  69.794  1.00  0.00    -0.249 C  
HETATM    2  C   UNL     1     -10.819   8.040  71.237  1.00  0.00    -0.267 C  
HETATM    3  C   UNL     1      -9.661   9.054  71.443  1.00  0.00    -0.369 C  
ENDROOT
BRANCH   2   4
HETATM    4  C   UNL     1     -10.675   6.977  72.324  1.00  0.00    -0.250 A  
HETATM    5  C   UNL     1     -10.379   5.173  74.388  1.00  0.00    -0.279 A  
HETATM    6  C   UNL     1     -11.232   5.692  72.226  1.00  0.00    -0.317 A  
HETATM    7  C   UNL     1      -9.965   7.255  73.498  1.00  0.00    -0.320 A  
HETATM    8  C   UNL     1     -11.089   4.781  73.270  1.00  0.00    -0.411 A  
HETATM    9  N   UNL     1      -9.813   6.391  74.525  1.00  0.00    -0.308 NA 
ENDBRANCH   2   4
BRANCH   2  10
HETATM   10  C   UNL     1     -12.171   8.802  71.320  1.00  0.00    -0.287 C  
HETATM   11  O   UNL     1     -13.197   8.253  71.729  1.00  0.00    -0.333 OA 
BRANCH  10  12
HETATM   12  C   UNL     1     -12.274  10.257  71.003  1.00  0.00    -0.487 A  
HETATM   13  C   UNL     1     -11.776  10.845  69.849  1.00  0.00    -0.339 A  
HETATM   14  C   UNL     1     -12.534  12.940  70.453  1.00  0.00    -0.173 A  
HETATM   15  C   UNL     1     -13.086  12.452  71.624  1.00  0.00    -0.408 A  
HETATM   16  N   UNL     1     -11.879  12.169  69.561  1.00  0.00    -0.322 NA 
HETATM   17  C   UNL     1     -12.954  11.091  71.899  1.00  0.00    -0.485 A  
ENDBRANCH  10  12
ENDBRANCH   2  10
TORSDOF 3
ENDMDL
MODEL       88
REMARK 921   NORMALIZED FREE ENERGY PREDICTED BY IDOCK:   -4.61 KCAL/MOL
REMARK 922        TOTAL FREE ENERGY PREDICTED BY IDOCK:   -5.64 KCAL/MOL
REMARK 923 INTER-LIGAND FREE ENERGY PREDICTED BY IDOCK:   -5.12 KCAL/MOL
REMARK 924 INTRA-LIGAND FREE ENERGY PREDICTED BY IDOCK:   -0.52 KCAL/MOL
REMARK 927      BINDING AFFINITY PREDICTED BY RF-SCORE:    0.00 PKD
ROOT
HETATM    1  C   UNL     1     -12.850   9.302  72.574  1.00  0.00    -0.351 C  
HETATM    2  C   UNL     1     -11.780   8.758  71.603  1.00  0.00    -0.402 C  
HETATM    3  C   UNL     1     -10.491   8.549  72.442  1.00  0.00    -0.367 C  
ENDROOT
BRANCH   2   4
HETATM    4  C   UNL     1     -11.417   9.706  70.462  1.00  0.00    -0.352 A  
HETATM    5  C   UNL     1     -10.894  11.498  68.432  1.00  0.00    -0.211 A  
HETATM    6  C   UNL     1     -10.116   9.835  69.949  1.00  0.00    -0.288 A  
HETATM    7  C   UNL     1     -12.397  10.513  69.871  1.00  0.00    -0.178 A  
HETATM    8  C   UNL     1      -9.849  10.744  68.928  1.00  0.00    -0.209 A  
HETATM    9  N   UNL     1     -12.163  11.402  68.881  1.00  0.00    -0.464 NA 
ENDBRANCH   2   4
BRANCH   2  10
HETATM   10  C   UNL     1     -12.277   7.376  71.097  1.00  0.00    -0.324 C  
HETATM   11  O   UNL     1     -13.476   7.087  71.082  1.00  0.00    -0.287 OA 
BRANCH  10  12
HETATM   12  C   UNL     1     -11.341   6.369  70.516  1.00  0.00    -0.438 A  
HETATM   13  C   UNL     1     -10.608   5.457  71.262  1.00  0.00    -0.206 A  
HETATM   14  C   UNL     1      -9.665   4.505  69.383  1.00  0.00    -0.202 A  
HETATM   15  C   UNL     1     -10.366   5.354  68.546  1.00  0.00    -0.219 A  
HETATM   16  N   UNL     1      -9.763   4.537  70.728  1.00  0.00    -0.183 NA 
HETATM   17  C   UNL     1     -11.216   6.296  69.123  1.00  0.00    -0.439 A  
ENDBRANCH  10  12
ENDBRANCH   2  10
TORSDOF 3
ENDMDL
MODEL       89
REMARK 921   NORMALIZED FREE ENERGY PREDICTED BY IDOCK:   -4.60 KCAL/MOL
REMARK 922        TOTAL FREE ENERGY PREDICTED BY IDOCK:   -5.62 KCAL/MOL
REMARK 923 INTER-LIGAND FREE ENERGY PREDICTED BY IDOCK:   -5.14 KCAL/MOL
REMARK 924 INTRA-LIGAND FREE ENERGY PREDICTED BY IDOCK:   -0.47 KCAL/MOL
REMARK 927      BINDING AFFINITY PREDICTED BY RF-SCORE:    0.00 PKD
ROOT
HETATM    1  C   UNL     1     -10.311  13.874  64.913  1.00  0.00    -0.430 C  
HETATM    2  C   UNL     1     -11.171  13.647  66.175  1.00  0.00    -0.309 C  
HETATM    3  C   UNL     1     -12.640  13.941  65.763  1.00  0.00    -0.533 C  
ENDROOT
BRANCH   2   4
HETATM    4  C   UNL     1     -10.845  14.576  67.342  1.00  0.00    -0.291 A  
HETATM    5  C   UNL     1     -10.132  16.307  69.367  1.00  0.00    -0.253 A  
HETATM    6  C   UNL     1     -11.776  14.929  68.333  1.00  0.00    -0.336 A  
HETATM    7  C   UNL     1      -9.567  15.134  67.469  1.00  0.00    -0.207 A  
HETATM    8  C   UNL     1     -11.419  15.808  69.352  1.00  0.00    -0.357 A  
HETATM    9  N   UNL     1      -9.197  15.989  68.447  1.00  0.00    -0.191 NA 
ENDBRANCH   2   4
BRANCH   2  10
HETATM   10  C   UNL     1     -11.049  12.145  66.552  1.00  0.00    -0.307 C  
HETATM   11  O   UNL     1     -11.959  11.550  67.133  1.00  0.00    -0.581 OA 
BRANCH  10  12
HETATM   12  C   UNL     1      -9.869  11.326  66.145  1.00  0.00    -0.262 A  
HETATM   13  C   UNL     1      -8.630  11.372  66.769  1.00  0.00    -0.166 A  
HETATM   14  C   UNL     1      -7.742   9.759  65.378  1.00  0.00    -0.123 A  
HETATM   15  C   UNL     1      -8.941   9.619  64.701  1.00  0.00    -0.274 A  
HETATM   16  N   UNL     1      -7.561  10.620  66.400  1.00  0.00    -0.132 NA 
HETATM   17  C   UNL     1     -10.017  10.414  65.094  1.00  0.00    -0.390 A  
ENDBRANCH  10  12
ENDBRANCH   2  10
TORSDOF 3
ENDMDL
MODEL       90
REMARK 921   NORMALIZED FREE ENERGY PREDICTED BY IDOCK:   -4.59 KCAL/MOL
REMARK 922        TOTAL FREE ENERGY PREDICTED BY IDOCK:   -5.61 KCAL/MOL
REMARK 923 INTER-LIGAND FREE ENERGY PREDICTED BY IDOCK:   -4.97 KCAL/MOL
REMARK 924 INTRA-LIGAND FREE ENERGY PREDICTED BY IDOCK:   -0.64 KCAL/MOL
REMARK 927      BINDING AFFINITY PREDICTED BY RF-SCORE:    0.00 PKD
ROOT
HETATM    1  C   UNL     1     -12.609   9.206  72.251  1.00  0.00    -0.425 C  
HETATM    2  C   UNL     1     -11.444   8.274  71.852  1.00  0.00    -0.372 C  
HETATM    3  C   UNL     1     -10.841   7.734  73.177  1.00  0.00    -0.401 C  
ENDROOT
BRANCH   2   4
HETATM    4  C   UNL     1     -10.309   8.963  71.098  1.00  0.00    -0.338 A  
HETATM    5  C   UNL     1      -8.362  10.319  69.693  1.00  0.00    -0.123 A  
HETATM    6  C   UNL     1      -8.950   8.725  71.361  1.00  0.00    -0.307 A  
HETATM    7  C   UNL     1     -10.589   9.892  70.089  1.00  0.00    -0.297 A  
HETATM    8  C   UNL     1      -7.966   9.413  70.657  1.00  0.00    -0.189 A  
HETATM    9  N   UNL     1      -9.653  10.573  69.393  1.00  0.00    -0.187 NA 
ENDBRANCH   2   4
BRANCH   2  10
HETATM   10  C   UNL     1     -12.055   7.086  71.060  1.00  0.00    -0.368 C  
HETATM   11  O   UNL     1     -13.266   6.852  71.078  1.00  0.00    -0.234 OA 
BRANCH  10  12
HETATM   12  C   UNL     1     -11.224   6.230  70.162  1.00  0.00    -0.470 A  
HETATM   13  C   UNL     1     -11.142   6.385  68.785  1.00  0.00    -0.326 A  
HETATM   14  C   UNL     1      -9.639   4.648  68.564  1.00  0.00    -0.158 A  
HETATM   15  C   UNL     1      -9.632   4.421  69.929  1.00  0.00    -0.275 A  
HETATM   16  N   UNL     1     -10.379   5.608  67.974  1.00  0.00    -0.199 NA 
HETATM   17  C   UNL     1     -10.435   5.226  70.737  1.00  0.00    -0.298 A  
ENDBRANCH  10  12
ENDBRANCH   2  10
TORSDOF 3
ENDMDL
MODEL       91
REMARK 921   NORMALIZED FREE ENERGY PREDICTED BY IDOCK:   -4.58 KCAL/MOL
REMARK 922        TOTAL FREE ENERGY PREDICTED BY IDOCK:   -5.60 KCAL/MOL
REMARK 923 INTER-LIGAND FREE ENERGY PREDICTED BY IDOCK:   -4.98 KCAL/MOL
REMARK 924 INTRA-LIGAND FREE ENERGY PREDICTED BY IDOCK:   -0.62 KCAL/MOL
REMARK 927      BINDING AFFINITY PREDICTED BY RF-SCORE:    0.00 PKD
ROOT
HETATM    1  C   UNL     1     -12.595  13.014  65.184  1.00  0.00    -0.530 C  
HETATM    2  C   UNL     1     -11.070  12.884  65.385  1.00  0.00    -0.309 C  
HETATM    3  C   UNL     1     -10.483  12.448  64.015  1.00  0.00    -0.443 C  
ENDROOT
BRANCH   2   4
HETATM    4  C   UNL     1     -10.651  11.825  66.403  1.00  0.00    -0.293 A  
HETATM    5  C   UNL     1     -10.048   9.896  68.278  1.00  0.00    -0.161 A  
HETATM    6  C   UNL     1      -9.418  11.154  66.357  1.00  0.00    -0.216 A  
HETATM    7  C   UNL     1     -11.511  11.467  67.448  1.00  0.00    -0.274 A  
HETATM    8  C   UNL     1      -9.115  10.175  67.300  1.00  0.00    -0.151 A  
HETATM    9  N   UNL     1     -11.241  10.521  68.374  1.00  0.00    -0.280 NA 
ENDBRANCH   2   4
BRANCH   2  10
HETATM   10  C   UNL     1     -10.528  14.297  65.734  1.00  0.00    -0.316 C  
HETATM   11  O   UNL     1     -10.223  15.107  64.855  1.00  0.00    -0.341 OA 
BRANCH  10  12
HETATM   12  C   UNL     1     -10.442  14.780  67.144  1.00  0.00    -0.265 A  
HETATM   13  C   UNL     1     -11.533  15.178  67.905  1.00  0.00    -0.332 A  
HETATM   14  C   UNL     1     -10.227  15.619  69.756  1.00  0.00    -0.300 A  
HETATM   15  C   UNL     1      -9.078  15.223  69.094  1.00  0.00    -0.236 A  
HETATM   16  N   UNL     1     -11.451  15.609  69.190  1.00  0.00    -0.334 NA 
HETATM   17  C   UNL     1      -9.190  14.797  67.771  1.00  0.00    -0.194 A  
ENDBRANCH  10  12
ENDBRANCH   2  10
TORSDOF 3
ENDMDL
MODEL       92
REMARK 921   NORMALIZED FREE ENERGY PREDICTED BY IDOCK:   -4.57 KCAL/MOL
REMARK 922        TOTAL FREE ENERGY PREDICTED BY IDOCK:   -5.59 KCAL/MOL
REMARK 923 INTER-LIGAND FREE ENERGY PREDICTED BY IDOCK:   -4.97 KCAL/MOL
REMARK 924 INTRA-LIGAND FREE ENERGY PREDICTED BY IDOCK:   -0.62 KCAL/MOL
REMARK 927      BINDING AFFINITY PREDICTED BY RF-SCORE:    0.00 PKD
ROOT
HETATM    1  C   UNL     1      -8.204  19.416  66.086  1.00  0.00    -0.319 C  
HETATM    2  C   UNL     1      -8.572  18.691  67.399  1.00  0.00    -0.281 C  
HETATM    3  C   UNL     1      -8.371  19.724  68.541  1.00  0.00    -0.265 C  
ENDROOT
BRANCH   2   4
HETATM    4  C   UNL     1      -7.691  17.488  67.729  1.00  0.00    -0.209 A  
HETATM    5  C   UNL     1      -6.011  15.353  68.199  1.00  0.00    -0.134 A  
HETATM    6  C   UNL     1      -7.653  16.883  68.995  1.00  0.00    -0.210 A  
HETATM    7  C   UNL     1      -6.856  16.931  66.753  1.00  0.00    -0.232 A  
HETATM    8  C   UNL     1      -6.801  15.808  69.236  1.00  0.00    -0.184 A  
HETATM    9  N   UNL     1      -6.020  15.891  66.961  1.00  0.00    -0.304 NA 
ENDBRANCH   2   4
BRANCH   2  10
HETATM   10  C   UNL     1     -10.079  18.324  67.316  1.00  0.00    -0.355 C  
HETATM   11  O   UNL     1     -10.959  19.172  67.485  1.00  0.00    -0.456 OA 
BRANCH  10  12
HETATM   12  C   UNL     1     -10.536  16.956  66.933  1.00  0.00    -0.271 A  
HETATM   13  C   UNL     1     -11.075  16.032  67.819  1.00  0.00    -0.273 A  
HETATM   14  C   UNL     1     -11.401  14.461  66.160  1.00  0.00    -0.350 A  
HETATM   15  C   UNL     1     -10.899  15.313  65.192  1.00  0.00    -0.441 A  
HETATM   16  N   UNL     1     -11.495  14.790  67.464  1.00  0.00    -0.344 NA 
HETATM   17  C   UNL     1     -10.462  16.577  65.587  1.00  0.00    -0.341 A  
ENDBRANCH  10  12
ENDBRANCH   2  10
TORSDOF 3
ENDMDL
MODEL       93
REMARK 921   NORMALIZED FREE ENERGY PREDICTED BY IDOCK:   -4.57 KCAL/MOL
REMARK 922        TOTAL FREE ENERGY PREDICTED BY IDOCK:   -5.59 KCAL/MOL
REMARK 923 INTER-LIGAND FREE ENERGY PREDICTED BY IDOCK:   -5.03 KCAL/MOL
REMARK 924 INTRA-LIGAND FREE ENERGY PREDICTED BY IDOCK:   -0.55 KCAL/MOL
REMARK 927      BINDING AFFINITY PREDICTED BY RF-SCORE:    0.00 PKD
ROOT
HETATM    1  C   UNL     1      -9.373   7.309  70.040  1.00  0.00    -0.154 C  
HETATM    2  C   UNL     1     -10.054   8.655  69.713  1.00  0.00    -0.199 C  
HETATM    3  C   UNL     1      -9.015   9.763  70.035  1.00  0.00    -0.255 C  
ENDROOT
BRANCH   2   4
HETATM    4  C   UNL     1     -11.297   8.958  70.548  1.00  0.00    -0.268 A  
HETATM    5  C   UNL     1     -13.530   9.358  72.115  1.00  0.00    -0.471 A  
HETATM    6  C   UNL     1     -11.736  10.260  70.834  1.00  0.00    -0.472 A  
HETATM    7  C   UNL     1     -12.063   7.915  71.082  1.00  0.00    -0.276 A  
HETATM    8  C   UNL     1     -12.860  10.464  71.631  1.00  0.00    -0.579 A  
HETATM    9  N   UNL     1     -13.156   8.087  71.858  1.00  0.00    -0.326 NA 
ENDBRANCH   2   4
BRANCH   2  10
HETATM   10  C   UNL     1     -10.342   8.668  68.186  1.00  0.00    -0.216 C  
HETATM   11  O   UNL     1     -10.767   7.668  67.601  1.00  0.00    -0.232 OA 
BRANCH  10  12
HETATM   12  C   UNL     1     -10.211   9.912  67.372  1.00  0.00    -0.275 A  
HETATM   13  C   UNL     1      -9.167  10.169  66.494  1.00  0.00    -0.153 A  
HETATM   14  C   UNL     1     -10.048  12.207  65.864  1.00  0.00    -0.245 A  
HETATM   15  C   UNL     1     -11.143  12.041  66.692  1.00  0.00    -0.358 A  
HETATM   16  N   UNL     1      -9.056  11.300  65.750  1.00  0.00    -0.210 NA 
HETATM   17  C   UNL     1     -11.224  10.875  67.454  1.00  0.00    -0.345 A  
ENDBRANCH  10  12
ENDBRANCH   2  10
TORSDOF 3
ENDMDL
MODEL       94
REMARK 921   NORMALIZED FREE ENERGY PREDICTED BY IDOCK:   -4.55 KCAL/MOL
REMARK 922        TOTAL FREE ENERGY PREDICTED BY IDOCK:   -5.57 KCAL/MOL
REMARK 923 INTER-LIGAND FREE ENERGY PREDICTED BY IDOCK:   -5.00 KCAL/MOL
REMARK 924 INTRA-LIGAND FREE ENERGY PREDICTED BY IDOCK:   -0.57 KCAL/MOL
REMARK 927      BINDING AFFINITY PREDICTED BY RF-SCORE:    0.00 PKD
ROOT
HETATM    1  C   UNL     1     -12.571  13.953  65.807  1.00  0.00    -0.533 C  
HETATM    2  C   UNL     1     -11.471  13.471  66.777  1.00  0.00    -0.374 C  
HETATM    3  C   UNL     1     -11.253  11.962  66.477  1.00  0.00    -0.383 C  
ENDROOT
BRANCH   2   4
HETATM    4  C   UNL     1     -11.835  13.580  68.256  1.00  0.00    -0.401 A  
HETATM    5  C   UNL     1     -12.423  13.636  70.949  1.00  0.00    -0.371 A  
HETATM    6  C   UNL     1     -12.145  14.795  68.888  1.00  0.00    -0.240 A  
HETATM    7  C   UNL     1     -11.866  12.437  69.065  1.00  0.00    -0.300 A  
HETATM    8  C   UNL     1     -12.437  14.826  70.249  1.00  0.00    -0.393 A  
HETATM    9  N   UNL     1     -12.144  12.441  70.386  1.00  0.00    -0.349 NA 
ENDBRANCH   2   4
BRANCH   2  10
HETATM   10  C   UNL     1     -10.171  14.244  66.421  1.00  0.00    -0.291 C  
HETATM   11  O   UNL     1     -10.030  14.801  65.330  1.00  0.00    -0.357 OA 
BRANCH  10  12
HETATM   12  C   UNL     1      -9.073  14.434  67.414  1.00  0.00    -0.202 A  
HETATM   13  C   UNL     1      -8.189  13.438  67.806  1.00  0.00    -0.172 A  
HETATM   14  C   UNL     1      -7.038  14.856  69.218  1.00  0.00    -0.160 A  
HETATM   15  C   UNL     1      -7.851  15.924  68.880  1.00  0.00    -0.198 A  
HETATM   16  N   UNL     1      -7.186  13.618  68.705  1.00  0.00    -0.102 NA 
HETATM   17  C   UNL     1      -8.880  15.707  67.964  1.00  0.00    -0.169 A  
ENDBRANCH  10  12
ENDBRANCH   2  10
TORSDOF 3
ENDMDL
MODEL       95
REMARK 921   NORMALIZED FREE ENERGY PREDICTED BY IDOCK:   -4.54 KCAL/MOL
REMARK 922        TOTAL FREE ENERGY PREDICTED BY IDOCK:   -5.55 KCAL/MOL
REMARK 923 INTER-LIGAND FREE ENERGY PREDICTED BY IDOCK:   -5.46 KCAL/MOL
REMARK 924 INTRA-LIGAND FREE ENERGY PREDICTED BY IDOCK:   -0.09 KCAL/MOL
REMARK 927      BINDING AFFINITY PREDICTED BY RF-SCORE:    0.00 PKD
ROOT
HETATM    1  C   UNL     1      -9.314  12.131  68.352  1.00  0.00    -0.170 C  
HETATM    2  C   UNL     1     -10.562  11.255  68.599  1.00  0.00    -0.231 C  
HETATM    3  C   UNL     1     -11.738  12.233  68.867  1.00  0.00    -0.380 C  
ENDROOT
BRANCH   2   4
HETATM    4  C   UNL     1     -10.463  10.338  69.816  1.00  0.00    -0.300 A  
HETATM    5  C   UNL     1     -10.442   8.670  72.011  1.00  0.00    -0.352 A  
HETATM    6  C   UNL     1      -9.288   9.658  70.178  1.00  0.00    -0.294 A  
HETATM    7  C   UNL     1     -11.576  10.128  70.638  1.00  0.00    -0.343 A  
HETATM    8  C   UNL     1      -9.278   8.810  71.282  1.00  0.00    -0.309 A  
HETATM    9  N   UNL     1     -11.592   9.311  71.714  1.00  0.00    -0.385 NA 
ENDBRANCH   2   4
BRANCH   2  10
HETATM   10  C   UNL     1     -10.848  10.478  67.285  1.00  0.00    -0.279 C  
HETATM   11  O   UNL     1     -11.034   9.259  67.283  1.00  0.00    -0.166 OA 
BRANCH  10  12
HETATM   12  C   UNL     1     -11.008  11.179  65.976  1.00  0.00    -0.189 A  
HETATM   13  C   UNL     1     -11.899  12.218  65.747  1.00  0.00    -0.352 A  
HETATM   14  C   UNL     1     -11.226  12.463  63.553  1.00  0.00    -0.469 A  
HETATM   15  C   UNL     1     -10.289  11.453  63.681  1.00  0.00    -0.463 A  
HETATM   16  N   UNL     1     -12.036  12.857  64.556  1.00  0.00    -0.389 NA 
HETATM   17  C   UNL     1     -10.179  10.806  64.911  1.00  0.00    -0.388 A  
ENDBRANCH  10  12
ENDBRANCH   2  10
TORSDOF 3
ENDMDL
MODEL       96
REMARK 921   NORMALIZED FREE ENERGY PREDICTED BY IDOCK:   -4.54 KCAL/MOL
REMARK 922        TOTAL FREE ENERGY PREDICTED BY IDOCK:   -5.55 KCAL/MOL
REMARK 923 INTER-LIGAND FREE ENERGY PREDICTED BY IDOCK:   -5.08 KCAL/MOL
REMARK 924 INTRA-LIGAND FREE ENERGY PREDICTED BY IDOCK:   -0.47 KCAL/MOL
REMARK 927      BINDING AFFINITY PREDICTED BY RF-SCORE:    0.00 PKD
ROOT
HETATM    1  C   UNL     1     -12.502  13.970  65.661  1.00  0.00    -0.531 C  
HETATM    2  C   UNL     1     -11.150  14.057  66.401  1.00  0.00    -0.316 C  
HETATM    3  C   UNL     1     -10.066  14.273  65.310  1.00  0.00    -0.378 C  
ENDROOT
BRANCH   2   4
HETATM    4  C   UNL     1     -10.762  12.793  67.166  1.00  0.00    -0.264 A  
HETATM    5  C   UNL     1      -9.941  10.594  68.611  1.00  0.00    -0.181 A  
HETATM    6  C   UNL     1     -11.645  11.726  67.393  1.00  0.00    -0.352 A  
HETATM    7  C   UNL     1      -9.473  12.651  67.692  1.00  0.00    -0.189 A  
HETATM    8  C   UNL     1     -11.234  10.617  68.128  1.00  0.00    -0.366 A  
HETATM    9  N   UNL     1      -9.050  11.587  68.409  1.00  0.00    -0.184 NA 
ENDBRANCH   2   4
BRANCH   2  10
HETATM   10  C   UNL     1     -11.203  15.315  67.310  1.00  0.00    -0.306 C  
HETATM   11  O   UNL     1     -12.015  15.412  68.233  1.00  0.00    -0.283 OA 
BRANCH  10  12
HETATM   12  C   UNL     1     -10.212  16.424  67.175  1.00  0.00    -0.282 A  
HETATM   13  C   UNL     1     -10.375  17.525  66.345  1.00  0.00    -0.334 A  
HETATM   14  C   UNL     1      -8.370  18.460  67.002  1.00  0.00    -0.252 A  
HETATM   15  C   UNL     1      -8.120  17.419  67.878  1.00  0.00    -0.220 A  
HETATM   16  N   UNL     1      -9.473  18.535  66.231  1.00  0.00    -0.441 NA 
HETATM   17  C   UNL     1      -9.056  16.389  67.965  1.00  0.00    -0.200 A  
ENDBRANCH  10  12
ENDBRANCH   2  10
TORSDOF 3
ENDMDL
MODEL       97
REMARK 921   NORMALIZED FREE ENERGY PREDICTED BY IDOCK:   -4.54 KCAL/MOL
REMARK 922        TOTAL FREE ENERGY PREDICTED BY IDOCK:   -5.55 KCAL/MOL
REMARK 923 INTER-LIGAND FREE ENERGY PREDICTED BY IDOCK:   -5.37 KCAL/MOL
REMARK 924 INTRA-LIGAND FREE ENERGY PREDICTED BY IDOCK:   -0.17 KCAL/MOL
REMARK 927      BINDING AFFINITY PREDICTED BY RF-SCORE:    0.00 PKD
ROOT
HETATM    1  C   UNL     1      -8.975  10.374  68.112  1.00  0.00    -0.132 C  
HETATM    2  C   UNL     1     -10.161   9.757  68.883  1.00  0.00    -0.213 C  
HETATM    3  C   UNL     1      -9.752   9.745  70.381  1.00  0.00    -0.244 C  
ENDROOT
BRANCH   2   4
HETATM    4  C   UNL     1     -10.487   8.314  68.502  1.00  0.00    -0.199 A  
HETATM    5  C   UNL     1     -11.013   5.739  67.670  1.00  0.00    -0.039 A  
HETATM    6  C   UNL     1     -10.716   7.299  69.444  1.00  0.00    -0.236 A  
HETATM    7  C   UNL     1     -10.564   7.937  67.156  1.00  0.00    -0.313 A  
HETATM    8  C   UNL     1     -10.975   5.996  69.026  1.00  0.00    -0.409 A  
HETATM    9  N   UNL     1     -10.813   6.682  66.725  1.00  0.00    -0.307 NA 
ENDBRANCH   2   4
BRANCH   2  10
HETATM   10  C   UNL     1     -11.374  10.712  68.704  1.00  0.00    -0.281 C  
HETATM   11  O   UNL     1     -11.879  10.913  67.597  1.00  0.00    -0.572 OA 
BRANCH  10  12
HETATM   12  C   UNL     1     -12.047  11.355  69.871  1.00  0.00    -0.404 A  
HETATM   13  C   UNL     1     -12.746  10.665  70.851  1.00  0.00    -0.404 A  
HETATM   14  C   UNL     1     -13.230  12.593  72.025  1.00  0.00    -0.427 A  
HETATM   15  C   UNL     1     -12.538  13.373  71.115  1.00  0.00    -0.430 A  
HETATM   16  N   UNL     1     -13.351  11.254  71.916  1.00  0.00    -0.394 NA 
HETATM   17  C   UNL     1     -11.938  12.743  70.026  1.00  0.00    -0.371 A  
ENDBRANCH  10  12
ENDBRANCH   2  10
TORSDOF 3
ENDMDL
MODEL       98
REMARK 921   NORMALIZED FREE ENERGY PREDICTED BY IDOCK:   -4.53 KCAL/MOL
REMARK 922        TOTAL FREE ENERGY PREDICTED BY IDOCK:   -5.54 KCAL/MOL
REMARK 923 INTER-LIGAND FREE ENERGY PREDICTED BY IDOCK:   -5.15 KCAL/MOL
REMARK 924 INTRA-LIGAND FREE ENERGY PREDICTED BY IDOCK:   -0.40 KCAL/MOL
REMARK 927      BINDING AFFINITY PREDICTED BY RF-SCORE:    0.00 PKD
ROOT
HETATM    1  C   UNL     1      -9.228   7.984  71.977  1.00  0.00    -0.229 C  
HETATM    2  C   UNL     1     -10.184   8.171  70.779  1.00  0.00    -0.215 C  
HETATM    3  C   UNL     1      -9.294   8.544  69.562  1.00  0.00    -0.161 C  
ENDROOT
BRANCH   2   4
HETATM    4  C   UNL     1     -11.199   9.300  70.947  1.00  0.00    -0.372 A  
HETATM    5  C   UNL     1     -13.077  11.270  71.387  1.00  0.00    -0.295 A  
HETATM    6  C   UNL     1     -11.110  10.527  70.270  1.00  0.00    -0.359 A  
HETATM    7  C   UNL     1     -12.288   9.151  71.815  1.00  0.00    -0.372 A  
HETATM    8  C   UNL     1     -12.054  11.525  70.496  1.00  0.00    -0.472 A  
HETATM    9  N   UNL     1     -13.215  10.104  72.052  1.00  0.00    -0.458 NA 
ENDBRANCH   2   4
BRANCH   2  10
HETATM   10  C   UNL     1     -10.855   6.797  70.506  1.00  0.00    -0.258 C  
HETATM   11  O   UNL     1     -11.465   6.575  69.457  1.00  0.00    -0.371 OA 
BRANCH  10  12
HETATM   12  C   UNL     1     -10.713   5.651  71.451  1.00  0.00    -0.310 A  
HETATM   13  C   UNL     1     -11.391   5.539  72.657  1.00  0.00    -0.291 A  
HETATM   14  C   UNL     1     -10.442   3.490  73.133  1.00  0.00    -0.172 A  
HETATM   15  C   UNL     1      -9.735   3.491  71.943  1.00  0.00    -0.234 A  
HETATM   16  N   UNL     1     -11.264   4.490  73.510  1.00  0.00    -0.316 NA 
HETATM   17  C   UNL     1      -9.875   4.587  71.092  1.00  0.00    -0.263 A  
ENDBRANCH  10  12
ENDBRANCH   2  10
TORSDOF 3
ENDMDL
MODEL       99
REMARK 921   NORMALIZED FREE ENERGY PREDICTED BY IDOCK:   -4.53 KCAL/MOL
REMARK 922        TOTAL FREE ENERGY PREDICTED BY IDOCK:   -5.54 KCAL/MOL
REMARK 923 INTER-LIGAND FREE ENERGY PREDICTED BY IDOCK:   -5.17 KCAL/MOL
REMARK 924 INTRA-LIGAND FREE ENERGY PREDICTED BY IDOCK:   -0.37 KCAL/MOL
REMARK 927      BINDING AFFINITY PREDICTED BY RF-SCORE:    0.00 PKD
ROOT
HETATM    1  C   UNL     1      -8.783  16.457  69.054  1.00  0.00    -0.233 C  
HETATM    2  C   UNL     1      -8.661  16.976  67.604  1.00  0.00    -0.213 C  
HETATM    3  C   UNL     1      -7.932  15.864  66.801  1.00  0.00    -0.287 C  
ENDROOT
BRANCH   2   4
HETATM    4  C   UNL     1      -7.831  18.248  67.452  1.00  0.00    -0.229 A  
HETATM    5  C   UNL     1      -6.313  20.547  67.335  1.00  0.00    -0.238 A  
HETATM    6  C   UNL     1      -7.234  18.642  66.243  1.00  0.00    -0.281 A  
HETATM    7  C   UNL     1      -7.621  19.093  68.549  1.00  0.00    -0.334 A  
HETATM    8  C   UNL     1      -6.462  19.799  66.184  1.00  0.00    -0.210 A  
HETATM    9  N   UNL     1      -6.876  20.220  68.517  1.00  0.00    -0.274 NA 
ENDBRANCH   2   4
BRANCH   2  10
HETATM   10  C   UNL     1     -10.103  17.131  67.047  1.00  0.00    -0.297 C  
HETATM   11  O   UNL     1     -10.670  18.226  67.020  1.00  0.00    -0.370 OA 
BRANCH  10  12
HETATM   12  C   UNL     1     -10.834  15.985  66.429  1.00  0.00    -0.159 A  
HETATM   13  C   UNL     1     -11.036  15.828  65.065  1.00  0.00    -0.417 A  
HETATM   14  C   UNL     1     -12.152  13.828  65.345  1.00  0.00    -0.407 A  
HETATM   15  C   UNL     1     -11.987  13.876  66.718  1.00  0.00    -0.472 A  
HETATM   16  N   UNL     1     -11.695  14.780  64.507  1.00  0.00    -0.409 NA 
HETATM   17  C   UNL     1     -11.317  14.970  67.264  1.00  0.00    -0.337 A  
ENDBRANCH  10  12
ENDBRANCH   2  10
TORSDOF 3
ENDMDL
MODEL      100
REMARK 921   NORMALIZED FREE ENERGY PREDICTED BY IDOCK:   -4.53 KCAL/MOL
REMARK 922        TOTAL FREE ENERGY PREDICTED BY IDOCK:   -5.54 KCAL/MOL
REMARK 923 INTER-LIGAND FREE ENERGY PREDICTED BY IDOCK:   -5.28 KCAL/MOL
REMARK 924 INTRA-LIGAND FREE ENERGY PREDICTED BY IDOCK:   -0.26 KCAL/MOL
REMARK 927      BINDING AFFINITY PREDICTED BY RF-SCORE:    0.00 PKD
ROOT
HETATM    1  C   UNL     1      -9.445  15.413  65.928  1.00  0.00    -0.369 C  
HETATM    2  C   UNL     1      -9.706  15.061  67.409  1.00  0.00    -0.216 C  
HETATM    3  C   UNL     1      -8.312  14.952  68.086  1.00  0.00    -0.144 C  
ENDROOT
BRANCH   2   4
HETATM    4  C   UNL     1     -10.411  13.724  67.630  1.00  0.00    -0.239 A  
HETATM    5  C   UNL     1     -11.722  11.311  67.875  1.00  0.00    -0.214 A  
HETATM    6  C   UNL     1     -10.150  12.885  68.725  1.00  0.00    -0.058 A  
HETATM    7  C   UNL     1     -11.368  13.268  66.716  1.00  0.00    -0.327 A  
HETATM    8  C   UNL     1     -10.807  11.663  68.847  1.00  0.00    -0.264 A  
HETATM    9  N   UNL     1     -12.018  12.088  66.811  1.00  0.00    -0.610 NA 
ENDBRANCH   2   4
BRANCH   2  10
HETATM   10  C   UNL     1     -10.475  16.255  68.038  1.00  0.00    -0.293 C  
HETATM   11  O   UNL     1     -11.435  16.079  68.791  1.00  0.00    -0.360 OA 
BRANCH  10  12
HETATM   12  C   UNL     1     -10.031  17.667  67.842  1.00  0.00    -0.323 A  
HETATM   13  C   UNL     1     -10.703  18.599  67.064  1.00  0.00    -0.344 A  
HETATM   14  C   UNL     1      -9.188  20.269  67.554  1.00  0.00    -0.367 A  
HETATM   15  C   UNL     1      -8.455  19.427  68.371  1.00  0.00    -0.389 A  
HETATM   16  N   UNL     1     -10.299  19.885  66.894  1.00  0.00    -0.454 NA 
HETATM   17  C   UNL     1      -8.886  18.108  68.516  1.00  0.00    -0.312 A  
ENDBRANCH  10  12
ENDBRANCH   2  10
TORSDOF 3
ENDMDL
MODEL      101
REMARK 921   NORMALIZED FREE ENERGY PREDICTED BY IDOCK:   -4.53 KCAL/MOL
REMARK 922        TOTAL FREE ENERGY PREDICTED BY IDOCK:   -5.54 KCAL/MOL
REMARK 923 INTER-LIGAND FREE ENERGY PREDICTED BY IDOCK:   -4.90 KCAL/MOL
REMARK 924 INTRA-LIGAND FREE ENERGY PREDICTED BY IDOCK:   -0.64 KCAL/MOL
REMARK 927      BINDING AFFINITY PREDICTED BY RF-SCORE:    0.00 PKD
ROOT
HETATM    1  C   UNL     1     -12.743   9.239  72.001  1.00  0.00    -0.479 C  
HETATM    2  C   UNL     1     -11.525   8.391  71.576  1.00  0.00    -0.335 C  
HETATM    3  C   UNL     1     -10.827   7.938  72.887  1.00  0.00    -0.451 C  
ENDROOT
BRANCH   2   4
HETATM    4  C   UNL     1     -10.481   9.145  70.755  1.00  0.00    -0.322 A  
HETATM    5  C   UNL     1      -8.488  10.399  69.321  1.00  0.00    -0.154 A  
HETATM    6  C   UNL     1     -10.807  10.027  69.713  1.00  0.00    -0.308 A  
HETATM    7  C   UNL     1      -9.116   8.973  71.015  1.00  0.00    -0.257 A  
HETATM    8  C   UNL     1      -9.802  10.657  68.984  1.00  0.00    -0.218 A  
HETATM    9  N   UNL     1      -8.123   9.570  70.322  1.00  0.00    -0.169 NA 
ENDBRANCH   2   4
BRANCH   2  10
HETATM   10  C   UNL     1     -12.071   7.135  70.842  1.00  0.00    -0.326 C  
HETATM   11  O   UNL     1     -13.273   6.859  70.843  1.00  0.00    -0.169 OA 
BRANCH  10  12
HETATM   12  C   UNL     1     -11.186   6.257  70.021  1.00  0.00    -0.480 A  
HETATM   13  C   UNL     1     -10.421   5.217  70.531  1.00  0.00    -0.242 A  
HETATM   14  C   UNL     1      -9.606   4.643  68.450  1.00  0.00    -0.151 A  
HETATM   15  C   UNL     1     -10.345   5.639  67.836  1.00  0.00    -0.260 A  
HETATM   16  N   UNL     1      -9.623   4.416  69.779  1.00  0.00    -0.189 NA 
HETATM   17  C   UNL     1     -11.146   6.454  68.635  1.00  0.00    -0.393 A  
ENDBRANCH  10  12
ENDBRANCH   2  10
TORSDOF 3
ENDMDL
MODEL      102
REMARK 921   NORMALIZED FREE ENERGY PREDICTED BY IDOCK:   -4.52 KCAL/MOL
REMARK 922        TOTAL FREE ENERGY PREDICTED BY IDOCK:   -5.53 KCAL/MOL
REMARK 923 INTER-LIGAND FREE ENERGY PREDICTED BY IDOCK:   -5.07 KCAL/MOL
REMARK 924 INTRA-LIGAND FREE ENERGY PREDICTED BY IDOCK:   -0.47 KCAL/MOL
REMARK 927      BINDING AFFINITY PREDICTED BY RF-SCORE:    0.00 PKD
ROOT
HETATM    1  C   UNL     1      -9.792  16.703  66.056  1.00  0.00    -0.335 C  
HETATM    2  C   UNL     1      -9.912  17.226  67.504  1.00  0.00    -0.296 C  
HETATM    3  C   UNL     1     -10.778  18.513  67.434  1.00  0.00    -0.424 C  
ENDROOT
BRANCH   2   4
HETATM    4  C   UNL     1      -8.585  17.619  68.149  1.00  0.00    -0.261 A  
HETATM    5  C   UNL     1      -6.262  18.457  69.375  1.00  0.00    -0.259 A  
HETATM    6  C   UNL     1      -7.534  16.714  68.368  1.00  0.00    -0.194 A  
HETATM    7  C   UNL     1      -8.363  18.937  68.566  1.00  0.00    -0.349 A  
HETATM    8  C   UNL     1      -6.363  17.133  68.993  1.00  0.00    -0.204 A  
HETATM    9  N   UNL     1      -7.237  19.368  69.175  1.00  0.00    -0.356 NA 
ENDBRANCH   2   4
BRANCH   2  10
HETATM   10  C   UNL     1     -10.680  16.150  68.320  1.00  0.00    -0.307 C  
HETATM   11  O   UNL     1     -11.291  16.438  69.353  1.00  0.00    -0.296 OA 
BRANCH  10  12
HETATM   12  C   UNL     1     -10.799  14.740  67.846  1.00  0.00    -0.269 A  
HETATM   13  C   UNL     1      -9.845  13.756  68.064  1.00  0.00    -0.239 A  
HETATM   14  C   UNL     1     -11.095  12.144  66.986  1.00  0.00    -0.294 A  
HETATM   15  C   UNL     1     -12.118  13.041  66.735  1.00  0.00    -0.366 A  
HETATM   16  N   UNL     1      -9.961  12.472  67.636  1.00  0.00    -0.198 NA 
HETATM   17  C   UNL     1     -11.966  14.356  67.174  1.00  0.00    -0.419 A  
ENDBRANCH  10  12
ENDBRANCH   2  10
TORSDOF 3
ENDMDL
MODEL      103
REMARK 921   NORMALIZED FREE ENERGY PREDICTED BY IDOCK:   -4.52 KCAL/MOL
REMARK 922        TOTAL FREE ENERGY PREDICTED BY IDOCK:   -5.52 KCAL/MOL
REMARK 923 INTER-LIGAND FREE ENERGY PREDICTED BY IDOCK:   -4.92 KCAL/MOL
REMARK 924 INTRA-LIGAND FREE ENERGY PREDICTED BY IDOCK:   -0.60 KCAL/MOL
REMARK 927      BINDING AFFINITY PREDICTED BY RF-SCORE:    0.00 PKD
ROOT
HETATM    1  C   UNL     1     -10.538  15.336  66.443  1.00  0.00    -0.308 C  
HETATM    2  C   UNL     1     -10.259  16.160  67.718  1.00  0.00    -0.267 C  
HETATM    3  C   UNL     1     -11.441  15.883  68.687  1.00  0.00    -0.391 C  
ENDROOT
BRANCH   2   4
HETATM    4  C   UNL     1     -10.209  17.671  67.501  1.00  0.00    -0.348 A  
HETATM    5  C   UNL     1     -10.077  20.415  67.259  1.00  0.00    -0.363 A  
HETATM    6  C   UNL     1     -10.114  18.266  66.232  1.00  0.00    -0.389 A  
HETATM    7  C   UNL     1     -10.252  18.546  68.592  1.00  0.00    -0.325 A  
HETATM    8  C   UNL     1     -10.040  19.652  66.109  1.00  0.00    -0.574 A  
HETATM    9  N   UNL     1     -10.182  19.892  68.499  1.00  0.00    -0.449 NA 
ENDBRANCH   2   4
BRANCH   2  10
HETATM   10  C   UNL     1      -8.953  15.604  68.351  1.00  0.00    -0.185 C  
HETATM   11  O   UNL     1      -8.953  14.571  69.024  1.00  0.00    -0.147 OA 
BRANCH  10  12
HETATM   12  C   UNL     1      -7.625  16.234  68.094  1.00  0.00    -0.151 A  
HETATM   13  C   UNL     1      -6.950  16.177  66.883  1.00  0.00    -0.152 A  
HETATM   14  C   UNL     1      -5.196  17.455  67.669  1.00  0.00    -0.120 A  
HETATM   15  C   UNL     1      -5.793  17.592  68.909  1.00  0.00    -0.186 A  
HETATM   16  N   UNL     1      -5.744  16.759  66.652  1.00  0.00    -0.337 NA 
HETATM   17  C   UNL     1      -7.025  16.974  69.121  1.00  0.00    -0.228 A  
ENDBRANCH  10  12
ENDBRANCH   2  10
TORSDOF 3
ENDMDL
MODEL      104
REMARK 921   NORMALIZED FREE ENERGY PREDICTED BY IDOCK:   -4.49 KCAL/MOL
REMARK 922        TOTAL FREE ENERGY PREDICTED BY IDOCK:   -5.50 KCAL/MOL
REMARK 923 INTER-LIGAND FREE ENERGY PREDICTED BY IDOCK:   -5.17 KCAL/MOL
REMARK 924 INTRA-LIGAND FREE ENERGY PREDICTED BY IDOCK:   -0.32 KCAL/MOL
REMARK 927      BINDING AFFINITY PREDICTED BY RF-SCORE:    0.00 PKD
ROOT
HETATM    1  C   UNL     1     -12.155  14.604  66.359  1.00  0.00    -0.229 C  
HETATM    2  C   UNL     1     -10.786  13.936  66.108  1.00  0.00    -0.290 C  
HETATM    3  C   UNL     1     -10.576  13.929  64.569  1.00  0.00    -0.375 C  
ENDROOT
BRANCH   2   4
HETATM    4  C   UNL     1     -10.692  12.485  66.574  1.00  0.00    -0.266 A  
HETATM    5  C   UNL     1     -10.659   9.885  67.492  1.00  0.00    -0.275 A  
HETATM    6  C   UNL     1      -9.892  11.520  65.940  1.00  0.00    -0.262 A  
HETATM    7  C   UNL     1     -11.429  12.046  67.680  1.00  0.00    -0.322 A  
HETATM    8  C   UNL     1      -9.879  10.205  66.399  1.00  0.00    -0.279 A  
HETATM    9  N   UNL     1     -11.435  10.777  68.144  1.00  0.00    -0.432 NA 
ENDBRANCH   2   4
BRANCH   2  10
HETATM   10  C   UNL     1      -9.705  14.844  66.756  1.00  0.00    -0.251 C  
HETATM   11  O   UNL     1      -8.539  14.464  66.890  1.00  0.00    -0.215 OA 
BRANCH  10  12
HETATM   12  C   UNL     1      -9.997  16.252  67.156  1.00  0.00    -0.257 A  
HETATM   13  C   UNL     1     -10.177  16.674  68.466  1.00  0.00    -0.282 A  
HETATM   14  C   UNL     1     -10.491  18.872  67.837  1.00  0.00    -0.388 A  
HETATM   15  C   UNL     1     -10.306  18.562  66.501  1.00  0.00    -0.447 A  
HETATM   16  N   UNL     1     -10.436  17.958  68.826  1.00  0.00    -0.291 NA 
HETATM   17  C   UNL     1     -10.055  17.234  66.159  1.00  0.00    -0.312 A  
ENDBRANCH  10  12
ENDBRANCH   2  10
TORSDOF 3
ENDMDL
MODEL      105
REMARK 921   NORMALIZED FREE ENERGY PREDICTED BY IDOCK:   -4.48 KCAL/MOL
REMARK 922        TOTAL FREE ENERGY PREDICTED BY IDOCK:   -5.49 KCAL/MOL
REMARK 923 INTER-LIGAND FREE ENERGY PREDICTED BY IDOCK:   -4.89 KCAL/MOL
REMARK 924 INTRA-LIGAND FREE ENERGY PREDICTED BY IDOCK:   -0.60 KCAL/MOL
REMARK 927      BINDING AFFINITY PREDICTED BY RF-SCORE:    0.00 PKD
ROOT
HETATM    1  C   UNL     1      -9.739   8.336  69.990  1.00  0.00    -0.176 C  
HETATM    2  C   UNL     1     -10.622   7.239  70.625  1.00  0.00    -0.240 C  
HETATM    3  C   UNL     1     -10.960   6.237  69.488  1.00  0.00    -0.445 C  
ENDROOT
BRANCH   2   4
HETATM    4  C   UNL     1     -11.952   7.739  71.185  1.00  0.00    -0.312 A  
HETATM    5  C   UNL     1     -14.293   8.788  72.196  1.00  0.00    -0.393 A  
HETATM    6  C   UNL     1     -13.149   7.011  71.097  1.00  0.00    -0.260 A  
HETATM    7  C   UNL     1     -12.031   8.984  71.821  1.00  0.00    -0.368 A  
HETATM    8  C   UNL     1     -14.334   7.542  71.601  1.00  0.00    -0.621 A  
HETATM    9  N   UNL     1     -13.166   9.521  72.317  1.00  0.00    -0.435 NA 
ENDBRANCH   2   4
BRANCH   2  10
HETATM   10  C   UNL     1      -9.758   6.512  71.692  1.00  0.00    -0.163 C  
HETATM   11  O   UNL     1      -8.844   7.090  72.285  1.00  0.00    -0.132 OA 
BRANCH  10  12
HETATM   12  C   UNL     1     -10.052   5.113  72.121  1.00  0.00    -0.247 A  
HETATM   13  C   UNL     1      -9.422   3.987  71.609  1.00  0.00    -0.149 A  
HETATM   14  C   UNL     1     -10.605   2.560  72.984  1.00  0.00    -0.153 A  
HETATM   15  C   UNL     1     -11.275   3.615  73.578  1.00  0.00    -0.285 A  
HETATM   16  N   UNL     1      -9.688   2.716  72.008  1.00  0.00    -0.136 NA 
HETATM   17  C   UNL     1     -10.991   4.908  73.139  1.00  0.00    -0.376 A  
ENDBRANCH  10  12
ENDBRANCH   2  10
TORSDOF 3
ENDMDL
MODEL      106
REMARK 921   NORMALIZED FREE ENERGY PREDICTED BY IDOCK:   -4.48 KCAL/MOL
REMARK 922        TOTAL FREE ENERGY PREDICTED BY IDOCK:   -5.48 KCAL/MOL
REMARK 923 INTER-LIGAND FREE ENERGY PREDICTED BY IDOCK:   -5.04 KCAL/MOL
REMARK 924 INTRA-LIGAND FREE ENERGY PREDICTED BY IDOCK:   -0.44 KCAL/MOL
REMARK 927      BINDING AFFINITY PREDICTED BY RF-SCORE:    0.00 PKD
ROOT
HETATM    1  C   UNL     1     -11.227   6.449  69.719  1.00  0.00    -0.484 C  
HETATM    2  C   UNL     1     -10.125   6.242  70.781  1.00  0.00    -0.229 C  
HETATM    3  C   UNL     1      -8.810   5.970  70.000  1.00  0.00    -0.139 C  
ENDROOT
BRANCH   2   4
HETATM    4  C   UNL     1     -10.348   5.046  71.704  1.00  0.00    -0.262 A  
HETATM    5  C   UNL     1     -10.619   2.820  73.308  1.00  0.00    -0.165 A  
HETATM    6  C   UNL     1     -11.146   5.098  72.857  1.00  0.00    -0.359 A  
HETATM    7  C   UNL     1      -9.739   3.816  71.429  1.00  0.00    -0.172 A  
HETATM    8  C   UNL     1     -11.279   3.977  73.672  1.00  0.00    -0.305 A  
HETATM    9  N   UNL     1      -9.851   2.715  72.204  1.00  0.00    -0.156 NA 
ENDBRANCH   2   4
BRANCH   2  10
HETATM   10  C   UNL     1      -9.977   7.579  71.558  1.00  0.00    -0.177 C  
HETATM   11  O   UNL     1      -8.952   7.849  72.189  1.00  0.00    -0.125 OA 
BRANCH  10  12
HETATM   12  C   UNL     1     -11.024   8.642  71.501  1.00  0.00    -0.360 A  
HETATM   13  C   UNL     1     -10.925   9.801  70.744  1.00  0.00    -0.336 A  
HETATM   14  C   UNL     1     -13.008  10.545  71.400  1.00  0.00    -0.440 A  
HETATM   15  C   UNL     1     -13.219   9.415  72.170  1.00  0.00    -0.541 A  
HETATM   16  N   UNL     1     -11.884  10.762  70.689  1.00  0.00    -0.342 NA 
HETATM   17  C   UNL     1     -12.212   8.451  72.218  1.00  0.00    -0.449 A  
ENDBRANCH  10  12
ENDBRANCH   2  10
TORSDOF 3
ENDMDL
MODEL      107
REMARK 921   NORMALIZED FREE ENERGY PREDICTED BY IDOCK:   -4.45 KCAL/MOL
REMARK 922        TOTAL FREE ENERGY PREDICTED BY IDOCK:   -5.45 KCAL/MOL
REMARK 923 INTER-LIGAND FREE ENERGY PREDICTED BY IDOCK:   -5.10 KCAL/MOL
REMARK 924 INTRA-LIGAND FREE ENERGY PREDICTED BY IDOCK:   -0.34 KCAL/MOL
REMARK 927      BINDING AFFINITY PREDICTED BY RF-SCORE:    0.00 PKD
ROOT
HETATM    1  C   UNL     1     -10.405   9.179  67.294  1.00  0.00    -0.338 C  
HETATM    2  C   UNL     1     -10.494   9.891  68.662  1.00  0.00    -0.231 C  
HETATM    3  C   UNL     1      -9.203  10.742  68.798  1.00  0.00    -0.192 C  
ENDROOT
BRANCH   2   4
HETATM    4  C   UNL     1     -10.534   8.951  69.865  1.00  0.00    -0.223 A  
HETATM    5  C   UNL     1     -10.600   7.133  71.937  1.00  0.00    -0.213 A  
HETATM    6  C   UNL     1     -10.206   9.353  71.170  1.00  0.00    -0.361 A  
HETATM    7  C   UNL     1     -10.905   7.611  69.706  1.00  0.00    -0.217 A  
HETATM    8  C   UNL     1     -10.232   8.435  72.217  1.00  0.00    -0.396 A  
HETATM    9  N   UNL     1     -10.938   6.701  70.704  1.00  0.00    -0.262 NA 
ENDBRANCH   2   4
BRANCH   2  10
HETATM   10  C   UNL     1     -11.718  10.845  68.606  1.00  0.00    -0.263 C  
HETATM   11  O   UNL     1     -12.737  10.628  69.267  1.00  0.00    -0.202 OA 
BRANCH  10  12
HETATM   12  C   UNL     1     -11.687  12.120  67.829  1.00  0.00    -0.390 A  
HETATM   13  C   UNL     1     -11.629  12.193  66.445  1.00  0.00    -0.364 A  
HETATM   14  C   UNL     1     -11.676  14.500  66.450  1.00  0.00    -0.363 A  
HETATM   15  C   UNL     1     -11.757  14.540  67.831  1.00  0.00    -0.381 A  
HETATM   16  N   UNL     1     -11.608  13.355  65.742  1.00  0.00    -0.322 NA 
HETATM   17  C   UNL     1     -11.764  13.331  68.527  1.00  0.00    -0.388 A  
ENDBRANCH  10  12
ENDBRANCH   2  10
TORSDOF 3
ENDMDL
MODEL      108
REMARK 921   NORMALIZED FREE ENERGY PREDICTED BY IDOCK:   -4.45 KCAL/MOL
REMARK 922        TOTAL FREE ENERGY PREDICTED BY IDOCK:   -5.44 KCAL/MOL
REMARK 923 INTER-LIGAND FREE ENERGY PREDICTED BY IDOCK:   -5.03 KCAL/MOL
REMARK 924 INTRA-LIGAND FREE ENERGY PREDICTED BY IDOCK:   -0.41 KCAL/MOL
REMARK 927      BINDING AFFINITY PREDICTED BY RF-SCORE:    0.00 PKD
ROOT
HETATM    1  C   UNL     1      -9.184  10.856  68.818  1.00  0.00    -0.187 C  
HETATM    2  C   UNL     1      -9.993  10.422  67.577  1.00  0.00    -0.215 C  
HETATM    3  C   UNL     1     -10.532   8.998  67.881  1.00  0.00    -0.291 C  
ENDROOT
BRANCH   2   4
HETATM    4  C   UNL     1      -9.178  10.322  66.290  1.00  0.00    -0.191 A  
HETATM    5  C   UNL     1      -7.574  10.139  64.054  1.00  0.00    -0.128 A  
HETATM    6  C   UNL     1      -9.715   9.886  65.068  1.00  0.00    -0.359 A  
HETATM    7  C   UNL     1      -7.821  10.665  66.282  1.00  0.00    -0.150 A  
HETATM    8  C   UNL     1      -8.905   9.787  63.939  1.00  0.00    -0.259 A  
HETATM    9  N   UNL     1      -7.014  10.577  65.202  1.00  0.00    -0.076 NA 
ENDBRANCH   2   4
BRANCH   2  10
HETATM   10  C   UNL     1     -11.198  11.395  67.449  1.00  0.00    -0.305 C  
HETATM   11  O   UNL     1     -12.174  11.315  68.198  1.00  0.00    -0.622 OA 
BRANCH  10  12
HETATM   12  C   UNL     1     -11.190  12.532  66.482  1.00  0.00    -0.356 A  
HETATM   13  C   UNL     1     -12.149  12.733  65.500  1.00  0.00    -0.465 A  
HETATM   14  C   UNL     1     -11.147  14.674  64.755  1.00  0.00    -0.384 A  
HETATM   15  C   UNL     1     -10.152  14.580  65.713  1.00  0.00    -0.365 A  
HETATM   16  N   UNL     1     -12.142  13.774  64.626  1.00  0.00    -0.403 NA 
HETATM   17  C   UNL     1     -10.178  13.494  66.588  1.00  0.00    -0.275 A  
ENDBRANCH  10  12
ENDBRANCH   2  10
TORSDOF 3
ENDMDL
MODEL      109
REMARK 921   NORMALIZED FREE ENERGY PREDICTED BY IDOCK:   -4.44 KCAL/MOL
REMARK 922        TOTAL FREE ENERGY PREDICTED BY IDOCK:   -5.43 KCAL/MOL
REMARK 923 INTER-LIGAND FREE ENERGY PREDICTED BY IDOCK:   -5.31 KCAL/MOL
REMARK 924 INTRA-LIGAND FREE ENERGY PREDICTED BY IDOCK:   -0.12 KCAL/MOL
REMARK 927      BINDING AFFINITY PREDICTED BY RF-SCORE:    0.00 PKD
ROOT
HETATM    1  C   UNL     1      -8.914  14.858  68.852  1.00  0.00    -0.184 C  
HETATM    2  C   UNL     1      -9.901  15.032  67.678  1.00  0.00    -0.220 C  
HETATM    3  C   UNL     1      -9.263  14.313  66.458  1.00  0.00    -0.259 C  
ENDROOT
BRANCH   2   4
HETATM    4  C   UNL     1     -10.143  16.482  67.261  1.00  0.00    -0.273 A  
HETATM    5  C   UNL     1     -10.641  19.043  66.372  1.00  0.00    -0.409 A  
HETATM    6  C   UNL     1     -10.191  17.550  68.171  1.00  0.00    -0.359 A  
HETATM    7  C   UNL     1     -10.340  16.808  65.914  1.00  0.00    -0.328 A  
HETATM    8  C   UNL     1     -10.448  18.843  67.725  1.00  0.00    -0.487 A  
HETATM    9  N   UNL     1     -10.593  18.054  65.456  1.00  0.00    -0.601 NA 
ENDBRANCH   2   4
BRANCH   2  10
HETATM   10  C   UNL     1     -11.212  14.293  68.064  1.00  0.00    -0.280 C  
HETATM   11  O   UNL     1     -12.320  14.802  67.873  1.00  0.00    -0.105 OA 
BRANCH  10  12
HETATM   12  C   UNL     1     -11.201  12.897  68.592  1.00  0.00    -0.321 A  
HETATM   13  C   UNL     1     -10.555  11.832  67.980  1.00  0.00    -0.206 A  
HETATM   14  C   UNL     1     -11.178  10.352  69.637  1.00  0.00    -0.277 A  
HETATM   15  C   UNL     1     -11.835  11.347  70.340  1.00  0.00    -0.428 A  
HETATM   16  N   UNL     1     -10.542  10.565  68.468  1.00  0.00    -0.192 NA 
HETATM   17  C   UNL     1     -11.844  12.636  69.808  1.00  0.00    -0.379 A  
ENDBRANCH  10  12
ENDBRANCH   2  10
TORSDOF 3
ENDMDL
MODEL      110
REMARK 921   NORMALIZED FREE ENERGY PREDICTED BY IDOCK:   -4.42 KCAL/MOL
REMARK 922        TOTAL FREE ENERGY PREDICTED BY IDOCK:   -5.41 KCAL/MOL
REMARK 923 INTER-LIGAND FREE ENERGY PREDICTED BY IDOCK:   -5.08 KCAL/MOL
REMARK 924 INTRA-LIGAND FREE ENERGY PREDICTED BY IDOCK:   -0.33 KCAL/MOL
REMARK 927      BINDING AFFINITY PREDICTED BY RF-SCORE:    0.00 PKD
ROOT
HETATM    1  C   UNL     1      -8.067  15.900  68.528  1.00  0.00    -0.157 C  
HETATM    2  C   UNL     1      -8.622  17.111  67.748  1.00  0.00    -0.216 C  
HETATM    3  C   UNL     1      -8.455  16.775  66.241  1.00  0.00    -0.342 C  
ENDROOT
BRANCH   2   4
HETATM    4  C   UNL     1      -7.877  18.421  67.994  1.00  0.00    -0.286 A  
HETATM    5  C   UNL     1      -6.457  20.716  68.558  1.00  0.00    -0.244 A  
HETATM    6  C   UNL     1      -7.764  19.438  67.032  1.00  0.00    -0.268 A  
HETATM    7  C   UNL     1      -7.255  18.662  69.224  1.00  0.00    -0.125 A  
HETATM    8  C   UNL     1      -7.041  20.595  67.313  1.00  0.00    -0.385 A  
HETATM    9  N   UNL     1      -6.548  19.774  69.521  1.00  0.00    -0.347 NA 
ENDBRANCH   2   4
BRANCH   2  10
HETATM   10  C   UNL     1     -10.138  17.213  68.072  1.00  0.00    -0.311 C  
HETATM   11  O   UNL     1     -10.837  18.118  67.610  1.00  0.00    -0.392 OA 
BRANCH  10  12
HETATM   12  C   UNL     1     -10.842  16.171  68.876  1.00  0.00    -0.305 A  
HETATM   13  C   UNL     1     -11.081  16.261  70.240  1.00  0.00    -0.332 A  
HETATM   14  C   UNL     1     -12.186  14.235  70.296  1.00  0.00    -0.342 A  
HETATM   15  C   UNL     1     -12.020  14.056  68.934  1.00  0.00    -0.387 A  
HETATM   16  N   UNL     1     -11.729  15.313  70.966  1.00  0.00    -0.316 NA 
HETATM   17  C   UNL     1     -11.340  15.040  68.217  1.00  0.00    -0.331 A  
ENDBRANCH  10  12
ENDBRANCH   2  10
TORSDOF 3
ENDMDL
MODEL      111
REMARK 921   NORMALIZED FREE ENERGY PREDICTED BY IDOCK:   -4.40 KCAL/MOL
REMARK 922        TOTAL FREE ENERGY PREDICTED BY IDOCK:   -5.39 KCAL/MOL
REMARK 923 INTER-LIGAND FREE ENERGY PREDICTED BY IDOCK:   -4.93 KCAL/MOL
REMARK 924 INTRA-LIGAND FREE ENERGY PREDICTED BY IDOCK:   -0.46 KCAL/MOL
REMARK 927      BINDING AFFINITY PREDICTED BY RF-SCORE:    0.00 PKD
ROOT
HETATM    1  C   UNL     1     -11.645  11.313  68.317  1.00  0.00    -0.370 C  
HETATM    2  C   UNL     1     -11.220  12.686  67.753  1.00  0.00    -0.319 C  
HETATM    3  C   UNL     1     -12.030  13.752  68.540  1.00  0.00    -0.402 C  
ENDROOT
BRANCH   2   4
HETATM    4  C   UNL     1     -11.537  12.892  66.274  1.00  0.00    -0.424 A  
HETATM    5  C   UNL     1     -12.099  13.420  63.627  1.00  0.00    -0.450 A  
HETATM    6  C   UNL     1     -11.370  11.892  65.302  1.00  0.00    -0.333 A  
HETATM    7  C   UNL     1     -12.013  14.126  65.816  1.00  0.00    -0.402 A  
HETATM    8  C   UNL     1     -11.648  12.159  63.963  1.00  0.00    -0.504 A  
HETATM    9  N   UNL     1     -12.289  14.410  64.524  1.00  0.00    -0.611 NA 
ENDBRANCH   2   4
BRANCH   2  10
HETATM   10  C   UNL     1      -9.710  12.869  68.074  1.00  0.00    -0.224 C  
HETATM   11  O   UNL     1      -9.279  13.908  68.579  1.00  0.00    -0.198 OA 
BRANCH  10  12
HETATM   12  C   UNL     1      -8.726  11.764  67.877  1.00  0.00    -0.164 A  
HETATM   13  C   UNL     1      -8.163  11.423  66.656  1.00  0.00    -0.163 A  
HETATM   14  C   UNL     1      -6.881   9.744  67.585  1.00  0.00    -0.085 A  
HETATM   15  C   UNL     1      -7.364  10.016  68.853  1.00  0.00    -0.080 A  
HETATM   16  N   UNL     1      -7.262  10.421  66.483  1.00  0.00    -0.111 NA 
HETATM   17  C   UNL     1      -8.298  11.041  68.998  1.00  0.00    -0.089 A  
ENDBRANCH  10  12
ENDBRANCH   2  10
TORSDOF 3
ENDMDL
MODEL      112
REMARK 921   NORMALIZED FREE ENERGY PREDICTED BY IDOCK:   -4.37 KCAL/MOL
REMARK 922        TOTAL FREE ENERGY PREDICTED BY IDOCK:   -5.36 KCAL/MOL
REMARK 923 INTER-LIGAND FREE ENERGY PREDICTED BY IDOCK:   -4.86 KCAL/MOL
REMARK 924 INTRA-LIGAND FREE ENERGY PREDICTED BY IDOCK:   -0.49 KCAL/MOL
REMARK 927      BINDING AFFINITY PREDICTED BY RF-SCORE:    0.00 PKD
ROOT
HETATM    1  C   UNL     1     -11.089   6.378  71.551  1.00  0.00    -0.322 C  
HETATM    2  C   UNL     1     -10.361   7.731  71.399  1.00  0.00    -0.226 C  
HETATM    3  C   UNL     1      -9.509   7.917  72.684  1.00  0.00    -0.284 C  
ENDROOT
BRANCH   2   4
HETATM    4  C   UNL     1     -11.284   8.943  71.300  1.00  0.00    -0.368 A  
HETATM    5  C   UNL     1     -13.009  11.094  71.264  1.00  0.00    -0.357 A  
HETATM    6  C   UNL     1     -11.058  10.018  70.424  1.00  0.00    -0.393 A  
HETATM    7  C   UNL     1     -12.424   9.034  72.108  1.00  0.00    -0.380 A  
HETATM    8  C   UNL     1     -11.924  11.108  70.409  1.00  0.00    -0.469 A  
HETATM    9  N   UNL     1     -13.278  10.080  72.113  1.00  0.00    -0.436 NA 
ENDBRANCH   2   4
BRANCH   2  10
HETATM   10  C   UNL     1      -9.405   7.605  70.180  1.00  0.00    -0.157 C  
HETATM   11  O   UNL     1      -8.260   8.064  70.208  1.00  0.00    -0.118 OA 
BRANCH  10  12
HETATM   12  C   UNL     1      -9.787   6.840  68.957  1.00  0.00    -0.152 A  
HETATM   13  C   UNL     1     -10.635   7.318  67.966  1.00  0.00    -0.189 A  
HETATM   14  C   UNL     1     -10.421   5.400  66.700  1.00  0.00    -0.298 A  
HETATM   15  C   UNL     1      -9.549   4.839  67.616  1.00  0.00    -0.190 A  
HETATM   16  N   UNL     1     -10.974   6.621  66.851  1.00  0.00    -0.381 NA 
HETATM   17  C   UNL     1      -9.228   5.572  68.758  1.00  0.00    -0.142 A  
ENDBRANCH  10  12
ENDBRANCH   2  10
TORSDOF 3
ENDMDL
MODEL      113
REMARK 921   NORMALIZED FREE ENERGY PREDICTED BY IDOCK:   -4.37 KCAL/MOL
REMARK 922        TOTAL FREE ENERGY PREDICTED BY IDOCK:   -5.35 KCAL/MOL
REMARK 923 INTER-LIGAND FREE ENERGY PREDICTED BY IDOCK:   -4.85 KCAL/MOL
REMARK 924 INTRA-LIGAND FREE ENERGY PREDICTED BY IDOCK:   -0.50 KCAL/MOL
REMARK 927      BINDING AFFINITY PREDICTED BY RF-SCORE:    0.00 PKD
ROOT
HETATM    1  C   UNL     1     -10.618   8.908  66.955  1.00  0.00    -0.279 C  
HETATM    2  C   UNL     1     -10.040  10.339  66.994  1.00  0.00    -0.268 C  
HETATM    3  C   UNL     1      -9.426  10.601  65.592  1.00  0.00    -0.257 C  
ENDROOT
BRANCH   2   4
HETATM    4  C   UNL     1      -8.922  10.546  68.013  1.00  0.00    -0.135 A  
HETATM    5  C   UNL     1      -6.935  10.776  69.911  1.00  0.00    -0.123 A  
HETATM    6  C   UNL     1      -7.890  11.485  67.848  1.00  0.00    -0.123 A  
HETATM    7  C   UNL     1      -8.877   9.778  69.183  1.00  0.00    -0.160 A  
HETATM    8  C   UNL     1      -6.883  11.598  68.803  1.00  0.00    -0.090 A  
HETATM    9  N   UNL     1      -7.911   9.868  70.122  1.00  0.00    -0.183 NA 
ENDBRANCH   2   4
BRANCH   2  10
HETATM   10  C   UNL     1     -11.232  11.312  67.207  1.00  0.00    -0.296 C  
HETATM   11  O   UNL     1     -12.099  11.094  68.057  1.00  0.00    -0.635 OA 
BRANCH  10  12
HETATM   12  C   UNL     1     -11.335  12.603  66.465  1.00  0.00    -0.377 A  
HETATM   13  C   UNL     1     -10.686  13.773  66.833  1.00  0.00    -0.280 A  
HETATM   14  C   UNL     1     -11.529  14.943  65.031  1.00  0.00    -0.379 A  
HETATM   15  C   UNL     1     -12.201  13.827  64.564  1.00  0.00    -0.441 A  
HETATM   16  N   UNL     1     -10.777  14.944  66.150  1.00  0.00    -0.308 NA 
HETATM   17  C   UNL     1     -12.100  12.642  65.292  1.00  0.00    -0.519 A  
ENDBRANCH  10  12
ENDBRANCH   2  10
TORSDOF 3
ENDMDL
MODEL      114
REMARK 921   NORMALIZED FREE ENERGY PREDICTED BY IDOCK:   -4.37 KCAL/MOL
REMARK 922        TOTAL FREE ENERGY PREDICTED BY IDOCK:   -5.35 KCAL/MOL
REMARK 923 INTER-LIGAND FREE ENERGY PREDICTED BY IDOCK:   -4.79 KCAL/MOL
REMARK 924 INTRA-LIGAND FREE ENERGY PREDICTED BY IDOCK:   -0.56 KCAL/MOL
REMARK 927      BINDING AFFINITY PREDICTED BY RF-SCORE:    0.00 PKD
ROOT
HETATM    1  C   UNL     1      -9.325   7.499  70.139  1.00  0.00    -0.157 C  
HETATM    2  C   UNL     1     -10.677   7.225  70.831  1.00  0.00    -0.251 C  
HETATM    3  C   UNL     1     -11.511   6.368  69.839  1.00  0.00    -0.483 C  
ENDROOT
BRANCH   2   4
HETATM    4  C   UNL     1     -11.500   8.475  71.136  1.00  0.00    -0.322 A  
HETATM    5  C   UNL     1     -12.925  10.797  71.557  1.00  0.00    -0.456 A  
HETATM    6  C   UNL     1     -12.622   8.474  71.981  1.00  0.00    -0.414 A  
HETATM    7  C   UNL     1     -11.161   9.705  70.562  1.00  0.00    -0.308 A  
HETATM    8  C   UNL     1     -13.346   9.644  72.190  1.00  0.00    -0.545 A  
HETATM    9  N   UNL     1     -11.847  10.854  70.747  1.00  0.00    -0.337 NA 
ENDBRANCH   2   4
BRANCH   2  10
HETATM   10  C   UNL     1     -10.383   6.377  72.099  1.00  0.00    -0.189 C  
HETATM   11  O   UNL     1     -11.106   5.432  72.425  1.00  0.00    -0.246 OA 
BRANCH  10  12
HETATM   12  C   UNL     1      -9.162   6.599  72.927  1.00  0.00    -0.147 A  
HETATM   13  C   UNL     1      -8.089   5.721  72.994  1.00  0.00    -0.118 A  
HETATM   14  C   UNL     1      -6.915   7.085  74.439  1.00  0.00    -0.093 A  
HETATM   15  C   UNL     1      -7.918   8.038  74.426  1.00  0.00    -0.299 A  
HETATM   16  N   UNL     1      -6.976   5.931  73.744  1.00  0.00    -0.081 NA 
HETATM   17  C   UNL     1      -9.055   7.789  73.657  1.00  0.00    -0.345 A  
ENDBRANCH  10  12
ENDBRANCH   2  10
TORSDOF 3
ENDMDL
MODEL      115
REMARK 921   NORMALIZED FREE ENERGY PREDICTED BY IDOCK:   -4.37 KCAL/MOL
REMARK 922        TOTAL FREE ENERGY PREDICTED BY IDOCK:   -5.35 KCAL/MOL
REMARK 923 INTER-LIGAND FREE ENERGY PREDICTED BY IDOCK:   -5.55 KCAL/MOL
REMARK 924 INTRA-LIGAND FREE ENERGY PREDICTED BY IDOCK:    0.21 KCAL/MOL
REMARK 927      BINDING AFFINITY PREDICTED BY RF-SCORE:    0.00 PKD
ROOT
HETATM    1  C   UNL     1     -11.182  12.219  68.328  1.00  0.00    -0.315 C  
HETATM    2  C   UNL     1     -10.782  13.286  67.286  1.00  0.00    -0.262 C  
HETATM    3  C   UNL     1     -11.697  14.514  67.543  1.00  0.00    -0.413 C  
ENDROOT
BRANCH   2   4
HETATM    4  C   UNL     1     -10.999  12.868  65.833  1.00  0.00    -0.300 A  
HETATM    5  C   UNL     1     -11.269  12.014  63.226  1.00  0.00    -0.318 A  
HETATM    6  C   UNL     1     -12.202  13.080  65.140  1.00  0.00    -0.507 A  
HETATM    7  C   UNL     1      -9.977  12.233  65.118  1.00  0.00    -0.215 A  
HETATM    8  C   UNL     1     -12.342  12.644  63.825  1.00  0.00    -0.568 A  
HETATM    9  N   UNL     1     -10.088  11.799  63.844  1.00  0.00    -0.338 NA 
ENDBRANCH   2   4
BRANCH   2  10
HETATM   10  C   UNL     1      -9.311  13.689  67.581  1.00  0.00    -0.215 C  
HETATM   11  O   UNL     1      -8.541  12.931  68.176  1.00  0.00    -0.177 OA 
BRANCH  10  12
HETATM   12  C   UNL     1      -8.730  14.967  67.074  1.00  0.00    -0.263 A  
HETATM   13  C   UNL     1      -9.425  15.899  66.317  1.00  0.00    -0.318 A  
HETATM   14  C   UNL     1      -7.616  17.328  66.206  1.00  0.00    -0.325 A  
HETATM   15  C   UNL     1      -6.841  16.478  66.974  1.00  0.00    -0.248 A  
HETATM   16  N   UNL     1      -8.894  17.064  65.864  1.00  0.00    -0.532 NA 
HETATM   17  C   UNL     1      -7.408  15.282  67.414  1.00  0.00    -0.241 A  
ENDBRANCH  10  12
ENDBRANCH   2  10
TORSDOF 3
ENDMDL
MODEL      116
REMARK 921   NORMALIZED FREE ENERGY PREDICTED BY IDOCK:   -4.35 KCAL/MOL
REMARK 922        TOTAL FREE ENERGY PREDICTED BY IDOCK:   -5.33 KCAL/MOL
REMARK 923 INTER-LIGAND FREE ENERGY PREDICTED BY IDOCK:   -5.24 KCAL/MOL
REMARK 924 INTRA-LIGAND FREE ENERGY PREDICTED BY IDOCK:   -0.09 KCAL/MOL
REMARK 927      BINDING AFFINITY PREDICTED BY RF-SCORE:    0.00 PKD
ROOT
HETATM    1  C   UNL     1      -8.597  10.877  67.185  1.00  0.00    -0.130 C  
HETATM    2  C   UNL     1      -9.856  10.224  66.575  1.00  0.00    -0.265 C  
HETATM    3  C   UNL     1     -11.045  10.627  67.490  1.00  0.00    -0.367 C  
ENDROOT
BRANCH   2   4
HETATM    4  C   UNL     1      -9.825   8.698  66.536  1.00  0.00    -0.348 A  
HETATM    5  C   UNL     1      -9.925   5.943  66.493  1.00  0.00    -0.153 A  
HETATM    6  C   UNL     1      -8.796   7.962  65.927  1.00  0.00    -0.183 A  
HETATM    7  C   UNL     1     -10.858   7.952  67.117  1.00  0.00    -0.116 A  
HETATM    8  C   UNL     1      -8.848   6.570  65.899  1.00  0.00    -0.131 A  
HETATM    9  N   UNL     1     -10.932   6.604  67.102  1.00  0.00    -0.401 NA 
ENDBRANCH   2   4
BRANCH   2  10
HETATM   10  C   UNL     1     -10.069  10.855  65.172  1.00  0.00    -0.292 C  
HETATM   11  O   UNL     1      -9.718  10.273  64.143  1.00  0.00    -0.303 OA 
BRANCH  10  12
HETATM   12  C   UNL     1     -10.795  12.148  64.993  1.00  0.00    -0.344 A  
HETATM   13  C   UNL     1     -12.158  12.256  64.757  1.00  0.00    -0.365 A  
HETATM   14  C   UNL     1     -12.084  14.562  64.717  1.00  0.00    -0.445 A  
HETATM   15  C   UNL     1     -10.724  14.568  64.971  1.00  0.00    -0.444 A  
HETATM   16  N   UNL     1     -12.815  13.435  64.603  1.00  0.00    -0.685 NA 
HETATM   17  C   UNL     1     -10.074  13.342  65.112  1.00  0.00    -0.266 A  
ENDBRANCH  10  12
ENDBRANCH   2  10
TORSDOF 3
ENDMDL
MODEL      117
REMARK 921   NORMALIZED FREE ENERGY PREDICTED BY IDOCK:   -4.35 KCAL/MOL
REMARK 922        TOTAL FREE ENERGY PREDICTED BY IDOCK:   -5.32 KCAL/MOL
REMARK 923 INTER-LIGAND FREE ENERGY PREDICTED BY IDOCK:   -4.71 KCAL/MOL
REMARK 924 INTRA-LIGAND FREE ENERGY PREDICTED BY IDOCK:   -0.61 KCAL/MOL
REMARK 927      BINDING AFFINITY PREDICTED BY RF-SCORE:    0.00 PKD
ROOT
HETATM    1  C   UNL     1     -11.325  13.745  69.517  1.00  0.00    -0.283 C  
HETATM    2  C   UNL     1     -10.716  13.037  68.287  1.00  0.00    -0.261 C  
HETATM    3  C   UNL     1      -9.181  13.255  68.370  1.00  0.00    -0.145 C  
ENDROOT
BRANCH   2   4
HETATM    4  C   UNL     1     -11.171  13.598  66.941  1.00  0.00    -0.326 A  
HETATM    5  C   UNL     1     -11.841  14.599  64.461  1.00  0.00    -0.431 A  
HETATM    6  C   UNL     1     -12.508  13.591  66.513  1.00  0.00    -0.309 A  
HETATM    7  C   UNL     1     -10.241  14.152  66.053  1.00  0.00    -0.308 A  
HETATM    8  C   UNL     1     -12.848  14.090  65.258  1.00  0.00    -0.418 A  
HETATM    9  N   UNL     1     -10.544  14.641  64.831  1.00  0.00    -0.435 NA 
ENDBRANCH   2   4
BRANCH   2  10
HETATM   10  C   UNL     1     -11.015  11.519  68.434  1.00  0.00    -0.221 C  
HETATM   11  O   UNL     1     -11.994  11.113  69.064  1.00  0.00    -0.333 OA 
BRANCH  10  12
HETATM   12  C   UNL     1     -10.189  10.485  67.743  1.00  0.00    -0.223 A  
HETATM   13  C   UNL     1      -9.378   9.565  68.393  1.00  0.00    -0.133 A  
HETATM   14  C   UNL     1      -8.725   8.572  66.415  1.00  0.00    -0.133 A  
HETATM   15  C   UNL     1      -9.519   9.428  65.671  1.00  0.00    -0.328 A  
HETATM   16  N   UNL     1      -8.635   8.622  67.759  1.00  0.00    -0.136 NA 
HETATM   17  C   UNL     1     -10.261  10.395  66.347  1.00  0.00    -0.292 A  
ENDBRANCH  10  12
ENDBRANCH   2  10
TORSDOF 3
ENDMDL
MODEL      118
REMARK 921   NORMALIZED FREE ENERGY PREDICTED BY IDOCK:   -4.34 KCAL/MOL
REMARK 922        TOTAL FREE ENERGY PREDICTED BY IDOCK:   -5.32 KCAL/MOL
REMARK 923 INTER-LIGAND FREE ENERGY PREDICTED BY IDOCK:   -4.74 KCAL/MOL
REMARK 924 INTRA-LIGAND FREE ENERGY PREDICTED BY IDOCK:   -0.57 KCAL/MOL
REMARK 927      BINDING AFFINITY PREDICTED BY RF-SCORE:    0.00 PKD
ROOT
HETATM    1  C   UNL     1      -9.543   7.256  71.315  1.00  0.00    -0.164 C  
HETATM    2  C   UNL     1      -9.960   8.363  70.323  1.00  0.00    -0.193 C  
HETATM    3  C   UNL     1      -8.722   9.283  70.146  1.00  0.00    -0.224 C  
ENDROOT
BRANCH   2   4
HETATM    4  C   UNL     1     -11.106   9.251  70.805  1.00  0.00    -0.349 A  
HETATM    5  C   UNL     1     -13.180  10.765  71.808  1.00  0.00    -0.418 A  
HETATM    6  C   UNL     1     -11.355  10.535  70.296  1.00  0.00    -0.407 A  
HETATM    7  C   UNL     1     -11.973   8.805  71.810  1.00  0.00    -0.349 A  
HETATM    8  C   UNL     1     -12.398  11.304  70.805  1.00  0.00    -0.495 A  
HETATM    9  N   UNL     1     -12.991   9.531  72.321  1.00  0.00    -0.400 NA 
ENDBRANCH   2   4
BRANCH   2  10
HETATM   10  C   UNL     1     -10.268   7.673  68.965  1.00  0.00    -0.206 C  
HETATM   11  O   UNL     1     -10.996   6.680  68.897  1.00  0.00    -0.263 OA 
BRANCH  10  12
HETATM   12  C   UNL     1      -9.780   8.233  67.670  1.00  0.00    -0.201 A  
HETATM   13  C   UNL     1      -8.654   7.782  66.995  1.00  0.00    -0.129 A  
HETATM   14  C   UNL     1      -8.954   9.276  65.262  1.00  0.00    -0.213 A  
HETATM   15  C   UNL     1     -10.104   9.784  65.840  1.00  0.00    -0.314 A  
HETATM   16  N   UNL     1      -8.218   8.290  65.813  1.00  0.00    -0.115 NA 
HETATM   17  C   UNL     1     -10.521   9.253  67.060  1.00  0.00    -0.303 A  
ENDBRANCH  10  12
ENDBRANCH   2  10
TORSDOF 3
ENDMDL
MODEL      119
REMARK 921   NORMALIZED FREE ENERGY PREDICTED BY IDOCK:   -4.33 KCAL/MOL
REMARK 922        TOTAL FREE ENERGY PREDICTED BY IDOCK:   -5.30 KCAL/MOL
REMARK 923 INTER-LIGAND FREE ENERGY PREDICTED BY IDOCK:   -4.73 KCAL/MOL
REMARK 924 INTRA-LIGAND FREE ENERGY PREDICTED BY IDOCK:   -0.57 KCAL/MOL
REMARK 927      BINDING AFFINITY PREDICTED BY RF-SCORE:    0.00 PKD
ROOT
HETATM    1  C   UNL     1      -9.675  15.250  69.782  1.00  0.00    -0.167 C  
HETATM    2  C   UNL     1      -9.163  15.413  68.335  1.00  0.00    -0.192 C  
HETATM    3  C   UNL     1      -9.041  13.980  67.749  1.00  0.00    -0.192 C  
ENDROOT
BRANCH   2   4
HETATM    4  C   UNL     1      -7.784  16.058  68.218  1.00  0.00    -0.142 A  
HETATM    5  C   UNL     1      -5.318  17.236  67.850  1.00  0.00    -0.118 A  
HETATM    6  C   UNL     1      -7.106  16.635  69.304  1.00  0.00    -0.212 A  
HETATM    7  C   UNL     1      -7.126  16.106  66.983  1.00  0.00    -0.213 A  
HETATM    8  C   UNL     1      -5.863  17.236  69.119  1.00  0.00    -0.193 A  
HETATM    9  N   UNL     1      -5.922  16.684  66.777  1.00  0.00    -0.313 NA 
ENDBRANCH   2   4
BRANCH   2  10
HETATM   10  C   UNL     1     -10.255  16.185  67.544  1.00  0.00    -0.267 C  
HETATM   11  O   UNL     1     -11.270  15.622  67.128  1.00  0.00    -0.269 OA 
BRANCH  10  12
HETATM   12  C   UNL     1     -10.177  17.661  67.335  1.00  0.00    -0.345 A  
HETATM   13  C   UNL     1     -10.066  18.273  66.093  1.00  0.00    -0.346 A  
HETATM   14  C   UNL     1     -10.083  20.391  67.008  1.00  0.00    -0.366 A  
HETATM   15  C   UNL     1     -10.216  19.886  68.289  1.00  0.00    -0.562 A  
HETATM   16  N   UNL     1     -10.003  19.617  65.907  1.00  0.00    -0.424 NA 
HETATM   17  C   UNL     1     -10.265  18.502  68.451  1.00  0.00    -0.409 A  
ENDBRANCH  10  12
ENDBRANCH   2  10
TORSDOF 3
ENDMDL
MODEL      120
REMARK 921   NORMALIZED FREE ENERGY PREDICTED BY IDOCK:   -4.32 KCAL/MOL
REMARK 922        TOTAL FREE ENERGY PREDICTED BY IDOCK:   -5.30 KCAL/MOL
REMARK 923 INTER-LIGAND FREE ENERGY PREDICTED BY IDOCK:   -4.89 KCAL/MOL
REMARK 924 INTRA-LIGAND FREE ENERGY PREDICTED BY IDOCK:   -0.40 KCAL/MOL
REMARK 927      BINDING AFFINITY PREDICTED BY RF-SCORE:    0.00 PKD
ROOT
HETATM    1  C   UNL     1      -9.554   7.934  69.927  1.00  0.00    -0.168 C  
HETATM    2  C   UNL     1     -10.730   7.621  70.877  1.00  0.00    -0.243 C  
HETATM    3  C   UNL     1     -11.615   6.573  70.149  1.00  0.00    -0.466 C  
ENDROOT
BRANCH   2   4
HETATM    4  C   UNL     1     -11.627   8.815  71.193  1.00  0.00    -0.344 A  
HETATM    5  C   UNL     1     -13.316  10.885  71.876  1.00  0.00    -0.324 A  
HETATM    6  C   UNL     1     -11.325  10.132  70.808  1.00  0.00    -0.436 A  
HETATM    7  C   UNL     1     -12.820   8.638  71.904  1.00  0.00    -0.369 A  
HETATM    8  C   UNL     1     -12.173  11.179  71.158  1.00  0.00    -0.387 A  
HETATM    9  N   UNL     1     -13.658   9.637  72.257  1.00  0.00    -0.423 NA 
ENDBRANCH   2   4
BRANCH   2  10
HETATM   10  C   UNL     1     -10.130   6.969  72.154  1.00  0.00    -0.181 C  
HETATM   11  O   UNL     1      -9.587   7.646  73.030  1.00  0.00    -0.188 OA 
BRANCH  10  12
HETATM   12  C   UNL     1     -10.269   5.508  72.429  1.00  0.00    -0.238 A  
HETATM   13  C   UNL     1     -11.197   4.959  73.303  1.00  0.00    -0.345 A  
HETATM   14  C   UNL     1     -10.507   2.802  72.862  1.00  0.00    -0.151 A  
HETATM   15  C   UNL     1      -9.562   3.242  71.953  1.00  0.00    -0.221 A  
HETATM   16  N   UNL     1     -11.324   3.629  73.545  1.00  0.00    -0.202 NA 
HETATM   17  C   UNL     1      -9.445   4.615  71.734  1.00  0.00    -0.205 A  
ENDBRANCH  10  12
ENDBRANCH   2  10
TORSDOF 3
ENDMDL
MODEL      121
REMARK 921   NORMALIZED FREE ENERGY PREDICTED BY IDOCK:   -4.32 KCAL/MOL
REMARK 922        TOTAL FREE ENERGY PREDICTED BY IDOCK:   -5.29 KCAL/MOL
REMARK 923 INTER-LIGAND FREE ENERGY PREDICTED BY IDOCK:   -4.92 KCAL/MOL
REMARK 924 INTRA-LIGAND FREE ENERGY PREDICTED BY IDOCK:   -0.37 KCAL/MOL
REMARK 927      BINDING AFFINITY PREDICTED BY RF-SCORE:    0.00 PKD
ROOT
HETATM    1  C   UNL     1      -8.984   7.747  69.745  1.00  0.00    -0.146 C  
HETATM    2  C   UNL     1      -9.956   8.902  69.417  1.00  0.00    -0.192 C  
HETATM    3  C   UNL     1      -9.140  10.216  69.563  1.00  0.00    -0.213 C  
ENDROOT
BRANCH   2   4
HETATM    4  C   UNL     1     -11.150   9.015  70.362  1.00  0.00    -0.279 A  
HETATM    5  C   UNL     1     -13.271   9.075  72.123  1.00  0.00    -0.446 A  
HETATM    6  C   UNL     1     -11.744  10.238  70.713  1.00  0.00    -0.453 A  
HETATM    7  C   UNL     1     -11.710   7.868  70.937  1.00  0.00    -0.257 A  
HETATM    8  C   UNL     1     -12.811  10.271  71.608  1.00  0.00    -0.568 A  
HETATM    9  N   UNL     1     -12.743   7.874  71.807  1.00  0.00    -0.322 NA 
ENDBRANCH   2   4
BRANCH   2  10
HETATM   10  C   UNL     1     -10.381   8.739  67.932  1.00  0.00    -0.224 C  
HETATM   11  O   UNL     1     -10.930   9.655  67.314  1.00  0.00    -0.224 OA 
BRANCH  10  12
HETATM   12  C   UNL     1     -10.058   7.508  67.152  1.00  0.00    -0.317 A  
HETATM   13  C   UNL     1      -8.932   7.356  66.355  1.00  0.00    -0.163 A  
HETATM   14  C   UNL     1      -9.494   5.195  65.773  1.00  0.00    -0.141 A  
HETATM   15  C   UNL     1     -10.634   5.233  66.556  1.00  0.00    -0.348 A  
HETATM   16  N   UNL     1      -8.639   6.231  65.653  1.00  0.00    -0.151 NA 
HETATM   17  C   UNL     1     -10.916   6.406  67.255  1.00  0.00    -0.474 A  
ENDBRANCH  10  12
ENDBRANCH   2  10
TORSDOF 3
ENDMDL
MODEL      122
REMARK 921   NORMALIZED FREE ENERGY PREDICTED BY IDOCK:   -4.31 KCAL/MOL
REMARK 922        TOTAL FREE ENERGY PREDICTED BY IDOCK:   -5.28 KCAL/MOL
REMARK 923 INTER-LIGAND FREE ENERGY PREDICTED BY IDOCK:   -5.02 KCAL/MOL
REMARK 924 INTRA-LIGAND FREE ENERGY PREDICTED BY IDOCK:   -0.26 KCAL/MOL
REMARK 927      BINDING AFFINITY PREDICTED BY RF-SCORE:    0.00 PKD
ROOT
HETATM    1  C   UNL     1     -12.627  13.963  66.130  1.00  0.00    -0.426 C  
HETATM    2  C   UNL     1     -11.094  13.824  66.012  1.00  0.00    -0.291 C  
HETATM    3  C   UNL     1     -10.606  15.040  65.179  1.00  0.00    -0.440 C  
ENDROOT
BRANCH   2   4
HETATM    4  C   UNL     1     -10.625  12.569  65.280  1.00  0.00    -0.319 A  
HETATM    5  C   UNL     1      -9.749  10.393  63.830  1.00  0.00    -0.305 A  
HETATM    6  C   UNL     1     -10.220  11.396  65.938  1.00  0.00    -0.292 A  
HETATM    7  C   UNL     1     -10.572  12.542  63.881  1.00  0.00    -0.440 A  
HETATM    8  C   UNL     1      -9.772  10.299  65.208  1.00  0.00    -0.354 A  
HETATM    9  N   UNL     1     -10.140  11.491  63.150  1.00  0.00    -0.371 NA 
ENDBRANCH   2   4
BRANCH   2  10
HETATM   10  C   UNL     1     -10.510  13.934  67.447  1.00  0.00    -0.263 C  
HETATM   11  O   UNL     1     -10.885  13.189  68.356  1.00  0.00    -0.244 OA 
BRANCH  10  12
HETATM   12  C   UNL     1      -9.400  14.878  67.773  1.00  0.00    -0.194 A  
HETATM   13  C   UNL     1      -9.558  16.058  68.486  1.00  0.00    -0.215 A  
HETATM   14  C   UNL     1      -7.306  16.555  68.383  1.00  0.00    -0.179 A  
HETATM   15  C   UNL     1      -7.035  15.391  67.686  1.00  0.00    -0.209 A  
HETATM   16  N   UNL     1      -8.543  16.910  68.787  1.00  0.00    -0.257 NA 
HETATM   17  C   UNL     1      -8.098  14.542  67.380  1.00  0.00    -0.219 A  
ENDBRANCH  10  12
ENDBRANCH   2  10
TORSDOF 3
ENDMDL
MODEL      123
REMARK 921   NORMALIZED FREE ENERGY PREDICTED BY IDOCK:   -4.30 KCAL/MOL
REMARK 922        TOTAL FREE ENERGY PREDICTED BY IDOCK:   -5.27 KCAL/MOL
REMARK 923 INTER-LIGAND FREE ENERGY PREDICTED BY IDOCK:   -5.48 KCAL/MOL
REMARK 924 INTRA-LIGAND FREE ENERGY PREDICTED BY IDOCK:    0.21 KCAL/MOL
REMARK 927      BINDING AFFINITY PREDICTED BY RF-SCORE:    0.00 PKD
ROOT
HETATM    1  C   UNL     1     -13.045   7.779  71.353  1.00  0.00    -0.310 C  
HETATM    2  C   UNL     1     -11.548   7.733  70.980  1.00  0.00    -0.301 C  
HETATM    3  C   UNL     1     -11.357   6.477  70.087  1.00  0.00    -0.463 C  
ENDROOT
BRANCH   2   4
HETATM    4  C   UNL     1     -10.601   7.580  72.168  1.00  0.00    -0.262 A  
HETATM    5  C   UNL     1      -8.952   7.158  74.337  1.00  0.00    -0.194 A  
HETATM    6  C   UNL     1      -9.448   8.362  72.343  1.00  0.00    -0.365 A  
HETATM    7  C   UNL     1     -10.852   6.619  73.155  1.00  0.00    -0.269 A  
HETATM    8  C   UNL     1      -8.610   8.146  73.434  1.00  0.00    -0.313 A  
HETATM    9  N   UNL     1     -10.055   6.389  74.221  1.00  0.00    -0.324 NA 
ENDBRANCH   2   4
BRANCH   2  10
HETATM   10  C   UNL     1     -11.245   9.000  70.132  1.00  0.00    -0.171 C  
HETATM   11  O   UNL     1     -10.607   8.933  69.079  1.00  0.00    -0.226 OA 
BRANCH  10  12
HETATM   12  C   UNL     1     -11.792  10.340  70.498  1.00  0.00    -0.419 A  
HETATM   13  C   UNL     1     -12.585  10.586  71.610  1.00  0.00    -0.393 A  
HETATM   14  C   UNL     1     -12.735  12.842  71.145  1.00  0.00    -0.263 A  
HETATM   15  C   UNL     1     -11.933  12.710  70.025  1.00  0.00    -0.377 A  
HETATM   16  N   UNL     1     -13.075  11.809  71.942  1.00  0.00    -0.445 NA 
HETATM   17  C   UNL     1     -11.456  11.440  69.700  1.00  0.00    -0.380 A  
ENDBRANCH  10  12
ENDBRANCH   2  10
TORSDOF 3
ENDMDL
MODEL      124
REMARK 921   NORMALIZED FREE ENERGY PREDICTED BY IDOCK:   -4.29 KCAL/MOL
REMARK 922        TOTAL FREE ENERGY PREDICTED BY IDOCK:   -5.25 KCAL/MOL
REMARK 923 INTER-LIGAND FREE ENERGY PREDICTED BY IDOCK:   -4.97 KCAL/MOL
REMARK 924 INTRA-LIGAND FREE ENERGY PREDICTED BY IDOCK:   -0.28 KCAL/MOL
REMARK 927      BINDING AFFINITY PREDICTED BY RF-SCORE:    0.00 PKD
ROOT
HETATM    1  C   UNL     1     -13.909   7.334  71.482  1.00  0.00    -0.463 C  
HETATM    2  C   UNL     1     -12.374   7.486  71.412  1.00  0.00    -0.374 C  
HETATM    3  C   UNL     1     -11.936   6.886  70.048  1.00  0.00    -0.127 C  
ENDROOT
BRANCH   2   4
HETATM    4  C   UNL     1     -11.610   6.727  72.495  1.00  0.00    -0.236 A  
HETATM    5  C   UNL     1     -10.256   5.225  74.369  1.00  0.00    -0.274 A  
HETATM    6  C   UNL     1     -10.719   7.345  73.388  1.00  0.00    -0.407 A  
HETATM    7  C   UNL     1     -11.768   5.344  72.638  1.00  0.00    -0.144 A  
HETATM    8  C   UNL     1     -10.030   6.587  74.331  1.00  0.00    -0.374 A  
HETATM    9  N   UNL     1     -11.111   4.586  73.543  1.00  0.00    -0.306 NA 
ENDBRANCH   2   4
BRANCH   2  10
HETATM   10  C   UNL     1     -12.061   9.007  71.412  1.00  0.00    -0.327 C  
HETATM   11  O   UNL     1     -12.609   9.779  72.203  1.00  0.00    -0.358 OA 
BRANCH  10  12
HETATM   12  C   UNL     1     -11.014   9.594  70.524  1.00  0.00    -0.374 A  
HETATM   13  C   UNL     1     -11.262  10.537  69.536  1.00  0.00    -0.271 A  
HETATM   14  C   UNL     1      -9.035  10.674  68.948  1.00  0.00    -0.168 A  
HETATM   15  C   UNL     1      -8.676   9.757  69.919  1.00  0.00    -0.238 A  
HETATM   16  N   UNL     1     -10.305  11.073  68.735  1.00  0.00    -0.192 NA 
HETATM   17  C   UNL     1      -9.681   9.212  70.718  1.00  0.00    -0.337 A  
ENDBRANCH  10  12
ENDBRANCH   2  10
TORSDOF 3
ENDMDL
MODEL      125
REMARK 921   NORMALIZED FREE ENERGY PREDICTED BY IDOCK:   -4.27 KCAL/MOL
REMARK 922        TOTAL FREE ENERGY PREDICTED BY IDOCK:   -5.24 KCAL/MOL
REMARK 923 INTER-LIGAND FREE ENERGY PREDICTED BY IDOCK:   -4.74 KCAL/MOL
REMARK 924 INTRA-LIGAND FREE ENERGY PREDICTED BY IDOCK:   -0.50 KCAL/MOL
REMARK 927      BINDING AFFINITY PREDICTED BY RF-SCORE:    0.00 PKD
ROOT
HETATM    1  C   UNL     1     -13.770  15.128  70.652  1.00  0.00    -0.100 C  
HETATM    2  C   UNL     1     -12.468  14.407  70.242  1.00  0.00    -0.413 C  
HETATM    3  C   UNL     1     -12.403  14.467  68.691  1.00  0.00    -0.051 C  
ENDROOT
BRANCH   2   4
HETATM    4  C   UNL     1     -12.409  12.931  70.631  1.00  0.00    -0.385 A  
HETATM    5  C   UNL     1     -12.443  10.285  71.403  1.00  0.00    -0.424 A  
HETATM    6  C   UNL     1     -11.579  11.996  69.991  1.00  0.00    -0.275 A  
HETATM    7  C   UNL     1     -13.210  12.439  71.668  1.00  0.00    -0.269 A  
HETATM    8  C   UNL     1     -11.600  10.658  70.375  1.00  0.00    -0.441 A  
HETATM    9  N   UNL     1     -13.249  11.146  72.059  1.00  0.00    -0.447 NA 
ENDBRANCH   2   4
BRANCH   2  10
HETATM   10  C   UNL     1     -11.284  15.228  70.824  1.00  0.00    -0.318 C  
HETATM   11  O   UNL     1     -11.088  15.303  72.039  1.00  0.00    -0.369 OA 
BRANCH  10  12
HETATM   12  C   UNL     1     -10.273  15.882  69.942  1.00  0.00    -0.233 A  
HETATM   13  C   UNL     1     -10.423  17.140  69.375  1.00  0.00    -0.203 A  
HETATM   14  C   UNL     1      -8.352  17.055  68.360  1.00  0.00    -0.241 A  
HETATM   15  C   UNL     1      -8.092  15.805  68.894  1.00  0.00    -0.207 A  
HETATM   16  N   UNL     1      -9.496  17.734  68.580  1.00  0.00    -0.296 NA 
HETATM   17  C   UNL     1      -9.067  15.214  69.696  1.00  0.00    -0.068 A  
ENDBRANCH  10  12
ENDBRANCH   2  10
TORSDOF 3
ENDMDL
MODEL      126
REMARK 921   NORMALIZED FREE ENERGY PREDICTED BY IDOCK:   -4.26 KCAL/MOL
REMARK 922        TOTAL FREE ENERGY PREDICTED BY IDOCK:   -5.22 KCAL/MOL
REMARK 923 INTER-LIGAND FREE ENERGY PREDICTED BY IDOCK:   -4.62 KCAL/MOL
REMARK 924 INTRA-LIGAND FREE ENERGY PREDICTED BY IDOCK:   -0.60 KCAL/MOL
REMARK 927      BINDING AFFINITY PREDICTED BY RF-SCORE:    0.00 PKD
ROOT
HETATM    1  C   UNL     1     -10.105  12.144  65.121  1.00  0.00    -0.288 C  
HETATM    2  C   UNL     1     -10.002  12.975  66.417  1.00  0.00    -0.277 C  
HETATM    3  C   UNL     1      -9.512  14.387  65.995  1.00  0.00    -0.239 C  
ENDROOT
BRANCH   2   4
HETATM    4  C   UNL     1      -8.995  12.443  67.435  1.00  0.00    -0.185 A  
HETATM    5  C   UNL     1      -7.216  11.336  69.228  1.00  0.00    -0.094 A  
HETATM    6  C   UNL     1      -7.949  13.217  67.964  1.00  0.00    -0.152 A  
HETATM    7  C   UNL     1      -9.075  11.121  67.888  1.00  0.00    -0.150 A  
HETATM    8  C   UNL     1      -7.046  12.658  68.864  1.00  0.00    -0.069 A  
HETATM    9  N   UNL     1      -8.212  10.555  68.759  1.00  0.00    -0.125 NA 
ENDBRANCH   2   4
BRANCH   2  10
HETATM   10  C   UNL     1     -11.436  13.098  67.002  1.00  0.00    -0.336 C  
HETATM   11  O   UNL     1     -12.408  12.591  66.437  1.00  0.00    -0.537 OA 
BRANCH  10  12
HETATM   12  C   UNL     1     -11.695  13.747  68.321  1.00  0.00    -0.394 A  
HETATM   13  C   UNL     1     -11.775  15.118  68.518  1.00  0.00    -0.325 A  
HETATM   14  C   UNL     1     -12.219  14.885  70.770  1.00  0.00    -0.325 A  
HETATM   15  C   UNL     1     -12.182  13.504  70.680  1.00  0.00    -0.434 A  
HETATM   16  N   UNL     1     -12.018  15.704  69.719  1.00  0.00    -0.361 NA 
HETATM   17  C   UNL     1     -11.917  12.931  69.437  1.00  0.00    -0.327 A  
ENDBRANCH  10  12
ENDBRANCH   2  10
TORSDOF 3
ENDMDL
MODEL      127
REMARK 921   NORMALIZED FREE ENERGY PREDICTED BY IDOCK:   -4.23 KCAL/MOL
REMARK 922        TOTAL FREE ENERGY PREDICTED BY IDOCK:   -5.18 KCAL/MOL
REMARK 923 INTER-LIGAND FREE ENERGY PREDICTED BY IDOCK:   -4.71 KCAL/MOL
REMARK 924 INTRA-LIGAND FREE ENERGY PREDICTED BY IDOCK:   -0.47 KCAL/MOL
REMARK 927      BINDING AFFINITY PREDICTED BY RF-SCORE:    0.00 PKD
ROOT
HETATM    1  C   UNL     1     -12.126  14.586  64.244  1.00  0.00    -0.448 C  
HETATM    2  C   UNL     1     -11.428  14.117  65.538  1.00  0.00    -0.324 C  
HETATM    3  C   UNL     1     -12.509  13.385  66.379  1.00  0.00    -0.297 C  
ENDROOT
BRANCH   2   4
HETATM    4  C   UNL     1     -10.880  15.246  66.409  1.00  0.00    -0.317 A  
HETATM    5  C   UNL     1      -9.934  17.200  68.108  1.00  0.00    -0.297 A  
HETATM    6  C   UNL     1      -9.948  16.191  65.951  1.00  0.00    -0.384 A  
HETATM    7  C   UNL     1     -11.293  15.380  67.740  1.00  0.00    -0.306 A  
HETATM    8  C   UNL     1      -9.464  17.175  66.810  1.00  0.00    -0.278 A  
HETATM    9  N   UNL     1     -10.839  16.324  68.592  1.00  0.00    -0.303 NA 
ENDBRANCH   2   4
BRANCH   2  10
HETATM   10  C   UNL     1     -10.335  13.092  65.128  1.00  0.00    -0.311 C  
HETATM   11  O   UNL     1      -9.986  12.958  63.953  1.00  0.00    -0.324 OA 
BRANCH  10  12
HETATM   12  C   UNL     1      -9.588  12.291  66.142  1.00  0.00    -0.248 A  
HETATM   13  C   UNL     1      -8.727  12.830  67.088  1.00  0.00    -0.202 A  
HETATM   14  C   UNL     1      -8.272  10.767  68.017  1.00  0.00    -0.115 A  
HETATM   15  C   UNL     1      -9.126  10.131  67.133  1.00  0.00    -0.149 A  
HETATM   16  N   UNL     1      -8.055  12.098  68.013  1.00  0.00    -0.145 NA 
HETATM   17  C   UNL     1      -9.793  10.907  66.185  1.00  0.00    -0.268 A  
ENDBRANCH  10  12
ENDBRANCH   2  10
TORSDOF 3
ENDMDL
MODEL      128
REMARK 921   NORMALIZED FREE ENERGY PREDICTED BY IDOCK:   -4.21 KCAL/MOL
REMARK 922        TOTAL FREE ENERGY PREDICTED BY IDOCK:   -5.17 KCAL/MOL
REMARK 923 INTER-LIGAND FREE ENERGY PREDICTED BY IDOCK:   -4.71 KCAL/MOL
REMARK 924 INTRA-LIGAND FREE ENERGY PREDICTED BY IDOCK:   -0.46 KCAL/MOL
REMARK 927      BINDING AFFINITY PREDICTED BY RF-SCORE:    0.00 PKD
ROOT
HETATM    1  C   UNL     1     -11.940   9.815  71.371  1.00  0.00    -0.493 C  
HETATM    2  C   UNL     1     -11.390   8.379  71.237  1.00  0.00    -0.314 C  
HETATM    3  C   UNL     1     -12.620   7.432  71.286  1.00  0.00    -0.376 C  
ENDROOT
BRANCH   2   4
HETATM    4  C   UNL     1     -10.455   7.949  72.365  1.00  0.00    -0.339 A  
HETATM    5  C   UNL     1      -8.861   7.048  74.427  1.00  0.00    -0.201 A  
HETATM    6  C   UNL     1      -9.127   8.392  72.479  1.00  0.00    -0.326 A  
HETATM    7  C   UNL     1     -10.898   7.063  73.354  1.00  0.00    -0.299 A  
HETATM    8  C   UNL     1      -8.319   7.933  73.516  1.00  0.00    -0.271 A  
HETATM    9  N   UNL     1     -10.134   6.603  74.369  1.00  0.00    -0.357 NA 
ENDBRANCH   2   4
BRANCH   2  10
HETATM   10  C   UNL     1     -10.729   8.267  69.835  1.00  0.00    -0.234 C  
HETATM   11  O   UNL     1     -10.606   7.181  69.265  1.00  0.00    -0.213 OA 
BRANCH  10  12
HETATM   12  C   UNL     1     -10.300   9.475  69.070  1.00  0.00    -0.219 A  
HETATM   13  C   UNL     1      -9.122  10.172  69.299  1.00  0.00    -0.198 A  
HETATM   14  C   UNL     1      -9.541  11.670  67.595  1.00  0.00    -0.181 A  
HETATM   15  C   UNL     1     -10.727  11.035  67.268  1.00  0.00    -0.312 A  
HETATM   16  N   UNL     1      -8.733  11.266  68.595  1.00  0.00    -0.154 NA 
HETATM   17  C   UNL     1     -11.108   9.922  68.017  1.00  0.00    -0.220 A  
ENDBRANCH  10  12
ENDBRANCH   2  10
TORSDOF 3
ENDMDL
MODEL      129
REMARK 921   NORMALIZED FREE ENERGY PREDICTED BY IDOCK:   -4.20 KCAL/MOL
REMARK 922        TOTAL FREE ENERGY PREDICTED BY IDOCK:   -5.15 KCAL/MOL
REMARK 923 INTER-LIGAND FREE ENERGY PREDICTED BY IDOCK:   -4.60 KCAL/MOL
REMARK 924 INTRA-LIGAND FREE ENERGY PREDICTED BY IDOCK:   -0.55 KCAL/MOL
REMARK 927      BINDING AFFINITY PREDICTED BY RF-SCORE:    0.00 PKD
ROOT
HETATM    1  C   UNL     1      -8.487  11.209  68.020  1.00  0.00    -0.135 C  
HETATM    2  C   UNL     1      -9.672  10.227  68.144  1.00  0.00    -0.158 C  
HETATM    3  C   UNL     1      -9.905  10.010  69.664  1.00  0.00    -0.261 C  
ENDROOT
BRANCH   2   4
HETATM    4  C   UNL     1      -9.421   8.849  67.534  1.00  0.00    -0.172 A  
HETATM    5  C   UNL     1      -9.126   6.348  66.411  1.00  0.00    -0.154 A  
HETATM    6  C   UNL     1      -8.176   8.443  67.028  1.00  0.00    -0.107 A  
HETATM    7  C   UNL     1     -10.459   7.913  67.447  1.00  0.00    -0.290 A  
HETATM    8  C   UNL     1      -8.026   7.183  66.455  1.00  0.00    -0.112 A  
HETATM    9  N   UNL     1     -10.340   6.686  66.895  1.00  0.00    -0.242 NA 
ENDBRANCH   2   4
BRANCH   2  10
HETATM   10  C   UNL     1     -10.919  10.931  67.542  1.00  0.00    -0.293 C  
HETATM   11  O   UNL     1     -11.973  11.027  68.174  1.00  0.00    -0.610 OA 
BRANCH  10  12
HETATM   12  C   UNL     1     -10.874  11.609  66.213  1.00  0.00    -0.333 A  
HETATM   13  C   UNL     1     -11.172  12.949  66.005  1.00  0.00    -0.293 A  
HETATM   14  C   UNL     1     -10.729  12.815  63.744  1.00  0.00    -0.361 A  
HETATM   15  C   UNL     1     -10.389  11.478  63.844  1.00  0.00    -0.422 A  
HETATM   16  N   UNL     1     -11.123  13.563  64.795  1.00  0.00    -0.341 NA 
HETATM   17  C   UNL     1     -10.462  10.870  65.097  1.00  0.00    -0.316 A  
ENDBRANCH  10  12
ENDBRANCH   2  10
TORSDOF 3
ENDMDL
MODEL      130
REMARK 921   NORMALIZED FREE ENERGY PREDICTED BY IDOCK:   -4.18 KCAL/MOL
REMARK 922        TOTAL FREE ENERGY PREDICTED BY IDOCK:   -5.12 KCAL/MOL
REMARK 923 INTER-LIGAND FREE ENERGY PREDICTED BY IDOCK:   -4.57 KCAL/MOL
REMARK 924 INTRA-LIGAND FREE ENERGY PREDICTED BY IDOCK:   -0.56 KCAL/MOL
REMARK 927      BINDING AFFINITY PREDICTED BY RF-SCORE:    0.00 PKD
ROOT
HETATM    1  C   UNL     1     -10.482  16.628  69.417  1.00  0.00    -0.320 C  
HETATM    2  C   UNL     1     -10.076  16.738  67.932  1.00  0.00    -0.284 C  
HETATM    3  C   UNL     1     -10.495  18.160  67.467  1.00  0.00    -0.425 C  
ENDROOT
BRANCH   2   4
HETATM    4  C   UNL     1     -10.777  15.746  67.006  1.00  0.00    -0.306 A  
HETATM    5  C   UNL     1     -12.139  13.920  65.453  1.00  0.00    -0.408 A  
HETATM    6  C   UNL     1     -10.672  15.790  65.606  1.00  0.00    -0.360 A  
HETATM    7  C   UNL     1     -11.579  14.728  67.534  1.00  0.00    -0.361 A  
HETATM    8  C   UNL     1     -11.365  14.872  64.820  1.00  0.00    -0.400 A  
HETATM    9  N   UNL     1     -12.262  13.828  66.794  1.00  0.00    -0.420 NA 
ENDBRANCH   2   4
BRANCH   2  10
HETATM   10  C   UNL     1      -8.528  16.627  67.867  1.00  0.00    -0.194 C  
HETATM   11  O   UNL     1      -7.831  17.561  67.464  1.00  0.00    -0.195 OA 
BRANCH  10  12
HETATM   12  C   UNL     1      -7.804  15.427  68.381  1.00  0.00    -0.129 A  
HETATM   13  C   UNL     1      -7.051  15.404  69.546  1.00  0.00    -0.200 A  
HETATM   14  C   UNL     1      -6.528  13.170  69.300  1.00  0.00    -0.107 A  
HETATM   15  C   UNL     1      -7.271  13.078  68.137  1.00  0.00    -0.116 A  
HETATM   16  N   UNL     1      -6.400  14.307  70.013  1.00  0.00    -0.153 NA 
HETATM   17  C   UNL     1      -7.918  14.223  67.674  1.00  0.00    -0.191 A  
ENDBRANCH  10  12
ENDBRANCH   2  10
TORSDOF 3
ENDMDL
MODEL      131
REMARK 921   NORMALIZED FREE ENERGY PREDICTED BY IDOCK:   -4.17 KCAL/MOL
REMARK 922        TOTAL FREE ENERGY PREDICTED BY IDOCK:   -5.12 KCAL/MOL
REMARK 923 INTER-LIGAND FREE ENERGY PREDICTED BY IDOCK:   -4.71 KCAL/MOL
REMARK 924 INTRA-LIGAND FREE ENERGY PREDICTED BY IDOCK:   -0.41 KCAL/MOL
REMARK 927      BINDING AFFINITY PREDICTED BY RF-SCORE:    0.00 PKD
ROOT
HETATM    1  C   UNL     1      -8.072  14.796  66.830  1.00  0.00    -0.083 C  
HETATM    2  C   UNL     1      -9.588  15.075  66.738  1.00  0.00    -0.260 C  
HETATM    3  C   UNL     1      -9.741  16.408  65.956  1.00  0.00    -0.356 C  
ENDROOT
BRANCH   2   4
HETATM    4  C   UNL     1     -10.282  15.270  68.084  1.00  0.00    -0.230 A  
HETATM    5  C   UNL     1     -11.393  15.655  70.578  1.00  0.00    -0.367 A  
HETATM    6  C   UNL     1     -11.659  15.508  68.216  1.00  0.00    -0.344 A  
HETATM    7  C   UNL     1      -9.546  15.223  69.274  1.00  0.00    -0.249 A  
HETATM    8  C   UNL     1     -12.221  15.709  69.474  1.00  0.00    -0.231 A  
HETATM    9  N   UNL     1     -10.067  15.416  70.506  1.00  0.00     0.038 NA 
ENDBRANCH   2   4
BRANCH   2  10
HETATM   10  C   UNL     1     -10.217  13.928  65.900  1.00  0.00    -0.315 C  
HETATM   11  O   UNL     1     -10.508  14.083  64.711  1.00  0.00    -0.413 OA 
BRANCH  10  12
HETATM   12  C   UNL     1     -10.410  12.559  66.461  1.00  0.00    -0.254 A  
HETATM   13  C   UNL     1     -11.493  12.176  67.240  1.00  0.00    -0.345 A  
HETATM   14  C   UNL     1     -10.734  10.005  67.431  1.00  0.00    -0.274 A  
HETATM   15  C   UNL     1      -9.627  10.275  66.646  1.00  0.00    -0.220 A  
HETATM   16  N   UNL     1     -11.668  10.926  67.743  1.00  0.00    -0.565 NA 
HETATM   17  C   UNL     1      -9.467  11.570  66.154  1.00  0.00    -0.239 A  
ENDBRANCH  10  12
ENDBRANCH   2  10
TORSDOF 3
ENDMDL
MODEL      132
REMARK 921   NORMALIZED FREE ENERGY PREDICTED BY IDOCK:   -4.17 KCAL/MOL
REMARK 922        TOTAL FREE ENERGY PREDICTED BY IDOCK:   -5.11 KCAL/MOL
REMARK 923 INTER-LIGAND FREE ENERGY PREDICTED BY IDOCK:   -4.93 KCAL/MOL
REMARK 924 INTRA-LIGAND FREE ENERGY PREDICTED BY IDOCK:   -0.19 KCAL/MOL
REMARK 927      BINDING AFFINITY PREDICTED BY RF-SCORE:    0.00 PKD
ROOT
HETATM    1  C   UNL     1     -11.513  11.437  68.288  1.00  0.00    -0.369 C  
HETATM    2  C   UNL     1     -10.533  11.889  67.183  1.00  0.00    -0.249 C  
HETATM    3  C   UNL     1      -9.338  12.567  67.907  1.00  0.00    -0.200 C  
ENDROOT
BRANCH   2   4
HETATM    4  C   UNL     1     -11.103  12.918  66.210  1.00  0.00    -0.317 A  
HETATM    5  C   UNL     1     -12.265  14.690  64.447  1.00  0.00    -0.452 A  
HETATM    6  C   UNL     1     -10.596  14.221  66.079  1.00  0.00    -0.302 A  
HETATM    7  C   UNL     1     -12.191  12.593  65.391  1.00  0.00    -0.459 A  
HETATM    8  C   UNL     1     -11.186  15.120  65.193  1.00  0.00    -0.392 A  
HETATM    9  N   UNL     1     -12.781  13.446  64.526  1.00  0.00    -0.659 NA 
ENDBRANCH   2   4
BRANCH   2  10
HETATM   10  C   UNL     1     -10.021  10.607  66.469  1.00  0.00    -0.215 C  
HETATM   11  O   UNL     1      -9.613  10.637  65.306  1.00  0.00    -0.205 OA 
BRANCH  10  12
HETATM   12  C   UNL     1      -9.908   9.301  67.183  1.00  0.00    -0.251 A  
HETATM   13  C   UNL     1      -9.088   9.076  68.280  1.00  0.00    -0.133 A  
HETATM   14  C   UNL     1      -9.775   6.882  68.486  1.00  0.00    -0.138 A  
HETATM   15  C   UNL     1     -10.642   7.006  67.415  1.00  0.00    -0.372 A  
HETATM   16  N   UNL     1      -8.994   7.887  68.931  1.00  0.00    -0.142 NA 
HETATM   17  C   UNL     1     -10.709   8.234  66.758  1.00  0.00    -0.072 A  
ENDBRANCH  10  12
ENDBRANCH   2  10
TORSDOF 3
ENDMDL
MODEL      133
REMARK 921   NORMALIZED FREE ENERGY PREDICTED BY IDOCK:   -4.16 KCAL/MOL
REMARK 922        TOTAL FREE ENERGY PREDICTED BY IDOCK:   -5.10 KCAL/MOL
REMARK 923 INTER-LIGAND FREE ENERGY PREDICTED BY IDOCK:   -4.78 KCAL/MOL
REMARK 924 INTRA-LIGAND FREE ENERGY PREDICTED BY IDOCK:   -0.32 KCAL/MOL
REMARK 927      BINDING AFFINITY PREDICTED BY RF-SCORE:    0.00 PKD
ROOT
HETATM    1  C   UNL     1      -9.745  14.308  66.400  1.00  0.00    -0.315 C  
HETATM    2  C   UNL     1      -9.273  14.809  67.782  1.00  0.00    -0.194 C  
HETATM    3  C   UNL     1      -8.254  13.759  68.304  1.00  0.00    -0.156 C  
ENDROOT
BRANCH   2   4
HETATM    4  C   UNL     1     -10.377  14.914  68.832  1.00  0.00    -0.244 A  
HETATM    5  C   UNL     1     -12.446  14.985  70.653  1.00  0.00    -0.365 A  
HETATM    6  C   UNL     1     -10.202  15.537  70.078  1.00  0.00    -0.286 A  
HETATM    7  C   UNL     1     -11.644  14.371  68.585  1.00  0.00    -0.314 A  
HETATM    8  C   UNL     1     -11.243  15.568  71.002  1.00  0.00    -0.419 A  
HETATM    9  N   UNL     1     -12.669  14.387  69.464  1.00  0.00     0.006 NA 
ENDBRANCH   2   4
BRANCH   2  10
HETATM   10  C   UNL     1      -8.531  16.155  67.556  1.00  0.00    -0.162 C  
HETATM   11  O   UNL     1      -7.309  16.199  67.393  1.00  0.00    -0.143 OA 
BRANCH  10  12
HETATM   12  C   UNL     1      -9.268  17.447  67.428  1.00  0.00    -0.236 A  
HETATM   13  C   UNL     1      -9.345  18.408  68.426  1.00  0.00    -0.329 A  
HETATM   14  C   UNL     1     -10.606  19.831  67.117  1.00  0.00    -0.449 A  
HETATM   15  C   UNL     1     -10.573  18.950  66.050  1.00  0.00    -0.470 A  
HETATM   16  N   UNL     1     -10.011  19.586  68.302  1.00  0.00    -0.407 NA 
HETATM   17  C   UNL     1      -9.893  17.743  66.210  1.00  0.00    -0.301 A  
ENDBRANCH  10  12
ENDBRANCH   2  10
TORSDOF 3
ENDMDL
MODEL      134
REMARK 921   NORMALIZED FREE ENERGY PREDICTED BY IDOCK:   -4.15 KCAL/MOL
REMARK 922        TOTAL FREE ENERGY PREDICTED BY IDOCK:   -5.10 KCAL/MOL
REMARK 923 INTER-LIGAND FREE ENERGY PREDICTED BY IDOCK:   -4.77 KCAL/MOL
REMARK 924 INTRA-LIGAND FREE ENERGY PREDICTED BY IDOCK:   -0.33 KCAL/MOL
REMARK 927      BINDING AFFINITY PREDICTED BY RF-SCORE:    0.00 PKD
ROOT
HETATM    1  C   UNL     1     -13.355   7.194  71.743  1.00  0.00    -0.347 C  
HETATM    2  C   UNL     1     -11.985   7.872  71.531  1.00  0.00    -0.333 C  
HETATM    3  C   UNL     1     -11.262   7.840  72.905  1.00  0.00    -0.434 C  
ENDROOT
BRANCH   2   4
HETATM    4  C   UNL     1     -12.059   9.337  71.104  1.00  0.00    -0.389 A  
HETATM    5  C   UNL     1     -12.254  12.014  70.477  1.00  0.00    -0.325 A  
HETATM    6  C   UNL     1     -11.314   9.870  70.040  1.00  0.00    -0.303 A  
HETATM    7  C   UNL     1     -12.895  10.231  71.783  1.00  0.00    -0.460 A  
HETATM    8  C   UNL     1     -11.406  11.224  69.726  1.00  0.00    -0.348 A  
HETATM    9  N   UNL     1     -13.001  11.548  71.499  1.00  0.00    -0.430 NA 
ENDBRANCH   2   4
BRANCH   2  10
HETATM   10  C   UNL     1     -11.187   6.995  70.526  1.00  0.00    -0.295 C  
HETATM   11  O   UNL     1     -11.697   6.589  69.479  1.00  0.00    -0.329 OA 
BRANCH  10  12
HETATM   12  C   UNL     1      -9.742   6.684  70.730  1.00  0.00    -0.190 A  
HETATM   13  C   UNL     1      -8.708   7.585  70.520  1.00  0.00    -0.146 A  
HETATM   14  C   UNL     1      -7.097   6.064  71.165  1.00  0.00    -0.073 A  
HETATM   15  C   UNL     1      -8.051   5.097  71.426  1.00  0.00    -0.114 A  
HETATM   16  N   UNL     1      -7.394   7.299  70.714  1.00  0.00    -0.070 NA 
HETATM   17  C   UNL     1      -9.391   5.414  71.206  1.00  0.00    -0.182 A  
ENDBRANCH  10  12
ENDBRANCH   2  10
TORSDOF 3
ENDMDL
MODEL      135
REMARK 921   NORMALIZED FREE ENERGY PREDICTED BY IDOCK:   -4.15 KCAL/MOL
REMARK 922        TOTAL FREE ENERGY PREDICTED BY IDOCK:   -5.10 KCAL/MOL
REMARK 923 INTER-LIGAND FREE ENERGY PREDICTED BY IDOCK:   -4.78 KCAL/MOL
REMARK 924 INTRA-LIGAND FREE ENERGY PREDICTED BY IDOCK:   -0.32 KCAL/MOL
REMARK 927      BINDING AFFINITY PREDICTED BY RF-SCORE:    0.00 PKD
ROOT
HETATM    1  C   UNL     1     -10.303   8.619  72.385  1.00  0.00    -0.317 C  
HETATM    2  C   UNL     1     -11.070   8.212  71.108  1.00  0.00    -0.279 C  
HETATM    3  C   UNL     1     -11.325   6.684  71.218  1.00  0.00    -0.346 C  
ENDROOT
BRANCH   2   4
HETATM    4  C   UNL     1     -10.305   8.440  69.807  1.00  0.00    -0.216 A  
HETATM    5  C   UNL     1      -8.792   8.873  67.543  1.00  0.00    -0.130 A  
HETATM    6  C   UNL     1     -10.772   8.019  68.551  1.00  0.00    -0.065 A  
HETATM    7  C   UNL     1      -9.066   9.093  69.817  1.00  0.00    -0.167 A  
HETATM    8  C   UNL     1     -10.006   8.231  67.408  1.00  0.00    -0.271 A  
HETATM    9  N   UNL     1      -8.304   9.310  68.723  1.00  0.00    -0.116 NA 
ENDBRANCH   2   4
BRANCH   2  10
HETATM   10  C   UNL     1     -12.437   8.950  71.136  1.00  0.00    -0.214 C  
HETATM   11  O   UNL     1     -13.498   8.337  71.273  1.00  0.00    -0.239 OA 
BRANCH  10  12
HETATM   12  C   UNL     1     -12.527  10.440  71.099  1.00  0.00    -0.509 A  
HETATM   13  C   UNL     1     -13.190  11.210  72.044  1.00  0.00    -0.323 A  
HETATM   14  C   UNL     1     -12.621  13.187  71.000  1.00  0.00    -0.312 A  
HETATM   15  C   UNL     1     -11.914  12.517  70.017  1.00  0.00    -0.372 A  
HETATM   16  N   UNL     1     -13.263  12.566  72.009  1.00  0.00    -0.466 NA 
HETATM   17  C   UNL     1     -11.867  11.124  70.071  1.00  0.00    -0.441 A  
ENDBRANCH  10  12
ENDBRANCH   2  10
TORSDOF 3
ENDMDL
MODEL      136
REMARK 921   NORMALIZED FREE ENERGY PREDICTED BY IDOCK:   -4.14 KCAL/MOL
REMARK 922        TOTAL FREE ENERGY PREDICTED BY IDOCK:   -5.08 KCAL/MOL
REMARK 923 INTER-LIGAND FREE ENERGY PREDICTED BY IDOCK:   -4.55 KCAL/MOL
REMARK 924 INTRA-LIGAND FREE ENERGY PREDICTED BY IDOCK:   -0.53 KCAL/MOL
REMARK 927      BINDING AFFINITY PREDICTED BY RF-SCORE:    0.00 PKD
ROOT
HETATM    1  C   UNL     1     -10.135  15.326  65.688  1.00  0.00    -0.401 C  
HETATM    2  C   UNL     1      -9.388  15.950  66.886  1.00  0.00    -0.244 C  
HETATM    3  C   UNL     1      -8.473  17.061  66.302  1.00  0.00    -0.304 C  
ENDROOT
BRANCH   2   4
HETATM    4  C   UNL     1      -8.481  14.983  67.644  1.00  0.00    -0.170 A  
HETATM    5  C   UNL     1      -6.828  13.348  69.125  1.00  0.00    -0.076 A  
HETATM    6  C   UNL     1      -8.472  13.597  67.421  1.00  0.00    -0.206 A  
HETATM    7  C   UNL     1      -7.603  15.456  68.626  1.00  0.00    -0.129 A  
HETATM    8  C   UNL     1      -7.642  12.768  68.172  1.00  0.00    -0.134 A  
HETATM    9  N   UNL     1      -6.789  14.674  69.369  1.00  0.00    -0.149 NA 
ENDBRANCH   2   4
BRANCH   2  10
HETATM   10  C   UNL     1     -10.456  16.612  67.801  1.00  0.00    -0.316 C  
HETATM   11  O   UNL     1     -10.830  17.773  67.620  1.00  0.00    -0.363 OA 
BRANCH  10  12
HETATM   12  C   UNL     1     -11.150  15.847  68.878  1.00  0.00    -0.316 A  
HETATM   13  C   UNL     1     -11.872  14.680  68.671  1.00  0.00    -0.311 A  
HETATM   14  C   UNL     1     -12.373  14.456  70.913  1.00  0.00    -0.349 A  
HETATM   15  C   UNL     1     -11.660  15.598  71.232  1.00  0.00    -0.485 A  
HETATM   16  N   UNL     1     -12.496  13.983  69.656  1.00  0.00    -0.252 NA 
HETATM   17  C   UNL     1     -11.040  16.300  70.199  1.00  0.00    -0.346 A  
ENDBRANCH  10  12
ENDBRANCH   2  10
TORSDOF 3
ENDMDL
MODEL      137
REMARK 921   NORMALIZED FREE ENERGY PREDICTED BY IDOCK:   -4.13 KCAL/MOL
REMARK 922        TOTAL FREE ENERGY PREDICTED BY IDOCK:   -5.07 KCAL/MOL
REMARK 923 INTER-LIGAND FREE ENERGY PREDICTED BY IDOCK:   -4.53 KCAL/MOL
REMARK 924 INTRA-LIGAND FREE ENERGY PREDICTED BY IDOCK:   -0.55 KCAL/MOL
REMARK 927      BINDING AFFINITY PREDICTED BY RF-SCORE:    0.00 PKD
ROOT
HETATM    1  C   UNL     1      -9.873   5.957  70.049  1.00  0.00    -0.225 C  
HETATM    2  C   UNL     1     -10.320   7.418  69.825  1.00  0.00    -0.226 C  
HETATM    3  C   UNL     1      -9.145   8.314  70.302  1.00  0.00    -0.150 C  
ENDROOT
BRANCH   2   4
HETATM    4  C   UNL     1     -11.550   7.836  70.628  1.00  0.00    -0.233 A  
HETATM    5  C   UNL     1     -13.729   8.743  72.054  1.00  0.00    -0.443 A  
HETATM    6  C   UNL     1     -12.650   6.993  70.853  1.00  0.00    -0.273 A  
HETATM    7  C   UNL     1     -11.632   9.119  71.182  1.00  0.00    -0.317 A  
HETATM    8  C   UNL     1     -13.754   7.451  71.567  1.00  0.00    -0.467 A  
HETATM    9  N   UNL     1     -12.692   9.588  71.877  1.00  0.00    -0.392 NA 
ENDBRANCH   2   4
BRANCH   2  10
HETATM   10  C   UNL     1     -10.509   7.614  68.295  1.00  0.00    -0.174 C  
HETATM   11  O   UNL     1     -11.051   6.754  67.597  1.00  0.00    -0.274 OA 
BRANCH  10  12
HETATM   12  C   UNL     1     -10.133   8.888  67.614  1.00  0.00    -0.274 A  
HETATM   13  C   UNL     1      -8.999   9.053  66.831  1.00  0.00    -0.123 A  
HETATM   14  C   UNL     1      -9.516  11.249  66.345  1.00  0.00    -0.200 A  
HETATM   15  C   UNL     1     -10.684  11.185  67.084  1.00  0.00    -0.305 A  
HETATM   16  N   UNL     1      -8.665  10.213  66.207  1.00  0.00    -0.139 NA 
HETATM   17  C   UNL     1     -10.995   9.986  67.725  1.00  0.00    -0.310 A  
ENDBRANCH  10  12
ENDBRANCH   2  10
TORSDOF 3
ENDMDL
MODEL      138
REMARK 921   NORMALIZED FREE ENERGY PREDICTED BY IDOCK:   -4.13 KCAL/MOL
REMARK 922        TOTAL FREE ENERGY PREDICTED BY IDOCK:   -5.07 KCAL/MOL
REMARK 923 INTER-LIGAND FREE ENERGY PREDICTED BY IDOCK:   -4.92 KCAL/MOL
REMARK 924 INTRA-LIGAND FREE ENERGY PREDICTED BY IDOCK:   -0.15 KCAL/MOL
REMARK 927      BINDING AFFINITY PREDICTED BY RF-SCORE:    0.00 PKD
ROOT
HETATM    1  C   UNL     1     -10.371  12.966  65.421  1.00  0.00    -0.310 C  
HETATM    2  C   UNL     1     -10.769  13.722  66.706  1.00  0.00    -0.276 C  
HETATM    3  C   UNL     1     -12.279  14.057  66.568  1.00  0.00    -0.485 C  
ENDROOT
BRANCH   2   4
HETATM    4  C   UNL     1     -10.039  15.046  66.917  1.00  0.00    -0.249 A  
HETATM    5  C   UNL     1      -8.583  17.360  67.275  1.00  0.00    -0.212 A  
HETATM    6  C   UNL     1     -10.661  16.299  66.796  1.00  0.00    -0.204 A  
HETATM    7  C   UNL     1      -8.677  15.061  67.243  1.00  0.00    -0.203 A  
HETATM    8  C   UNL     1      -9.926  17.469  66.970  1.00  0.00    -0.311 A  
HETATM    9  N   UNL     1      -7.942  16.181  67.415  1.00  0.00    -0.149 NA 
ENDBRANCH   2   4
BRANCH   2  10
HETATM   10  C   UNL     1     -10.583  12.739  67.895  1.00  0.00    -0.221 C  
HETATM   11  O   UNL     1      -9.705  11.873  67.885  1.00  0.00    -0.181 OA 
BRANCH  10  12
HETATM   12  C   UNL     1     -11.390  12.856  69.146  1.00  0.00    -0.329 A  
HETATM   13  C   UNL     1     -11.821  11.778  69.905  1.00  0.00    -0.348 A  
HETATM   14  C   UNL     1     -12.838  13.138  71.468  1.00  0.00    -0.307 A  
HETATM   15  C   UNL     1     -12.439  14.281  70.799  1.00  0.00    -0.428 A  
HETATM   16  N   UNL     1     -12.549  11.890  71.047  1.00  0.00    -0.340 NA 
HETATM   17  C   UNL     1     -11.704  14.135  69.623  1.00  0.00    -0.372 A  
ENDBRANCH  10  12
ENDBRANCH   2  10
TORSDOF 3
ENDMDL
MODEL      139
REMARK 921   NORMALIZED FREE ENERGY PREDICTED BY IDOCK:   -4.12 KCAL/MOL
REMARK 922        TOTAL FREE ENERGY PREDICTED BY IDOCK:   -5.06 KCAL/MOL
REMARK 923 INTER-LIGAND FREE ENERGY PREDICTED BY IDOCK:   -4.55 KCAL/MOL
REMARK 924 INTRA-LIGAND FREE ENERGY PREDICTED BY IDOCK:   -0.51 KCAL/MOL
REMARK 927      BINDING AFFINITY PREDICTED BY RF-SCORE:    0.00 PKD
ROOT
HETATM    1  C   UNL     1     -12.914   7.190  71.620  1.00  0.00    -0.415 C  
HETATM    2  C   UNL     1     -11.416   7.544  71.497  1.00  0.00    -0.293 C  
HETATM    3  C   UNL     1     -11.306   9.074  71.738  1.00  0.00    -0.447 C  
ENDROOT
BRANCH   2   4
HETATM    4  C   UNL     1     -10.808   7.267  70.124  1.00  0.00    -0.274 A  
HETATM    5  C   UNL     1      -9.577   6.838  67.694  1.00  0.00    -0.125 A  
HETATM    6  C   UNL     1     -11.308   6.299  69.238  1.00  0.00    -0.411 A  
HETATM    7  C   UNL     1      -9.690   7.987  69.685  1.00  0.00    -0.169 A  
HETATM    8  C   UNL     1     -10.684   6.076  68.013  1.00  0.00    -0.359 A  
HETATM    9  N   UNL     1      -9.066   7.789  68.504  1.00  0.00    -0.133 NA 
ENDBRANCH   2   4
BRANCH   2  10
HETATM   10  C   UNL     1     -10.672   6.802  72.642  1.00  0.00    -0.240 C  
HETATM   11  O   UNL     1     -10.305   7.392  73.661  1.00  0.00    -0.351 OA 
BRANCH  10  12
HETATM   12  C   UNL     1     -10.451   5.326  72.609  1.00  0.00    -0.265 A  
HETATM   13  C   UNL     1      -9.406   4.704  71.940  1.00  0.00    -0.140 A  
HETATM   14  C   UNL     1     -10.070   2.602  72.622  1.00  0.00    -0.156 A  
HETATM   15  C   UNL     1     -11.132   3.121  73.341  1.00  0.00    -0.283 A  
HETATM   16  N   UNL     1      -9.205   3.361  71.919  1.00  0.00    -0.110 NA 
HETATM   17  C   UNL     1     -11.322   4.503  73.333  1.00  0.00    -0.376 A  
ENDBRANCH  10  12
ENDBRANCH   2  10
TORSDOF 3
ENDMDL
MODEL      140
REMARK 921   NORMALIZED FREE ENERGY PREDICTED BY IDOCK:   -4.11 KCAL/MOL
REMARK 922        TOTAL FREE ENERGY PREDICTED BY IDOCK:   -5.05 KCAL/MOL
REMARK 923 INTER-LIGAND FREE ENERGY PREDICTED BY IDOCK:   -4.39 KCAL/MOL
REMARK 924 INTRA-LIGAND FREE ENERGY PREDICTED BY IDOCK:   -0.66 KCAL/MOL
REMARK 927      BINDING AFFINITY PREDICTED BY RF-SCORE:    0.00 PKD
ROOT
HETATM    1  C   UNL     1     -10.260  10.499  66.272  1.00  0.00    -0.296 C  
HETATM    2  C   UNL     1      -9.265   9.750  67.184  1.00  0.00    -0.159 C  
HETATM    3  C   UNL     1      -7.870   9.883  66.514  1.00  0.00    -0.110 C  
ENDROOT
BRANCH   2   4
HETATM    4  C   UNL     1      -9.542   8.256  67.336  1.00  0.00    -0.205 A  
HETATM    5  C   UNL     1      -9.916   5.550  67.706  1.00  0.00    -0.155 A  
HETATM    6  C   UNL     1     -10.785   7.668  67.053  1.00  0.00    -0.340 A  
HETATM    7  C   UNL     1      -8.537   7.390  67.784  1.00  0.00    -0.120 A  
HETATM    8  C   UNL     1     -10.978   6.303  67.245  1.00  0.00    -0.455 A  
HETATM    9  N   UNL     1      -8.699   6.064  67.979  1.00  0.00    -0.113 NA 
ENDBRANCH   2   4
BRANCH   2  10
HETATM   10  C   UNL     1      -9.238  10.496  68.547  1.00  0.00    -0.168 C  
HETATM   11  O   UNL     1      -8.409  11.378  68.783  1.00  0.00    -0.150 OA 
BRANCH  10  12
HETATM   12  C   UNL     1     -10.270  10.251  69.597  1.00  0.00    -0.268 A  
HETATM   13  C   UNL     1     -11.547  10.793  69.583  1.00  0.00    -0.316 A  
HETATM   14  C   UNL     1     -12.145   9.727  71.541  1.00  0.00    -0.409 A  
HETATM   15  C   UNL     1     -10.907   9.118  71.640  1.00  0.00    -0.442 A  
HETATM   16  N   UNL     1     -12.486  10.561  70.537  1.00  0.00    -0.335 NA 
HETATM   17  C   UNL     1      -9.959   9.384  70.652  1.00  0.00    -0.349 A  
ENDBRANCH  10  12
ENDBRANCH   2  10
TORSDOF 3
ENDMDL
MODEL      141
REMARK 921   NORMALIZED FREE ENERGY PREDICTED BY IDOCK:   -4.09 KCAL/MOL
REMARK 922        TOTAL FREE ENERGY PREDICTED BY IDOCK:   -5.02 KCAL/MOL
REMARK 923 INTER-LIGAND FREE ENERGY PREDICTED BY IDOCK:   -5.75 KCAL/MOL
REMARK 924 INTRA-LIGAND FREE ENERGY PREDICTED BY IDOCK:    0.74 KCAL/MOL
REMARK 927      BINDING AFFINITY PREDICTED BY RF-SCORE:    0.00 PKD
ROOT
HETATM    1  C   UNL     1     -11.645  15.145  69.156  1.00  0.00    -0.343 C  
HETATM    2  C   UNL     1     -10.827  14.266  68.185  1.00  0.00    -0.253 C  
HETATM    3  C   UNL     1      -9.410  14.897  68.111  1.00  0.00    -0.193 C  
ENDROOT
BRANCH   2   4
HETATM    4  C   UNL     1     -11.368  14.225  66.757  1.00  0.00    -0.357 A  
HETATM    5  C   UNL     1     -12.227  14.248  64.137  1.00  0.00    -0.378 A  
HETATM    6  C   UNL     1     -12.213  13.210  66.280  1.00  0.00    -0.423 A  
HETATM    7  C   UNL     1     -11.025  15.225  65.840  1.00  0.00    -0.325 A  
HETATM    8  C   UNL     1     -12.643  13.217  64.956  1.00  0.00    -0.499 A  
HETATM    9  N   UNL     1     -11.427  15.253  64.550  1.00  0.00    -0.362 NA 
ENDBRANCH   2   4
BRANCH   2  10
HETATM   10  C   UNL     1     -10.714  12.855  68.824  1.00  0.00    -0.218 C  
HETATM   11  O   UNL     1      -9.805  12.079  68.518  1.00  0.00    -0.209 OA 
BRANCH  10  12
HETATM   12  C   UNL     1     -11.638  12.406  69.906  1.00  0.00    -0.260 A  
HETATM   13  C   UNL     1     -12.414  13.258  70.680  1.00  0.00    -0.298 A  
HETATM   14  C   UNL     1     -13.359  11.515  71.859  1.00  0.00    -0.303 A  
HETATM   15  C   UNL     1     -12.648  10.577  71.131  1.00  0.00    -0.520 A  
HETATM   16  N   UNL     1     -13.259  12.844  71.659  1.00  0.00    -0.371 NA 
HETATM   17  C   UNL     1     -11.778  11.032  70.140  1.00  0.00    -0.442 A  
ENDBRANCH  10  12
ENDBRANCH   2  10
TORSDOF 3
ENDMDL
MODEL      142
REMARK 921   NORMALIZED FREE ENERGY PREDICTED BY IDOCK:   -4.03 KCAL/MOL
REMARK 922        TOTAL FREE ENERGY PREDICTED BY IDOCK:   -4.96 KCAL/MOL
REMARK 923 INTER-LIGAND FREE ENERGY PREDICTED BY IDOCK:   -4.65 KCAL/MOL
REMARK 924 INTRA-LIGAND FREE ENERGY PREDICTED BY IDOCK:   -0.31 KCAL/MOL
REMARK 927      BINDING AFFINITY PREDICTED BY RF-SCORE:    0.00 PKD
ROOT
HETATM    1  C   UNL     1     -12.827   7.073  70.896  1.00  0.00    -0.172 C  
HETATM    2  C   UNL     1     -12.163   8.191  71.728  1.00  0.00    -0.358 C  
HETATM    3  C   UNL     1     -13.194   8.600  72.815  1.00  0.00    -0.161 C  
ENDROOT
BRANCH   2   4
HETATM    4  C   UNL     1     -11.826   9.455  70.940  1.00  0.00    -0.365 A  
HETATM    5  C   UNL     1     -11.158  11.644  69.403  1.00  0.00    -0.206 A  
HETATM    6  C   UNL     1     -12.427  10.701  71.184  1.00  0.00    -0.523 A  
HETATM    7  C   UNL     1     -10.880   9.416  69.909  1.00  0.00    -0.236 A  
HETATM    8  C   UNL     1     -12.096  11.806  70.404  1.00  0.00    -0.440 A  
HETATM    9  N   UNL     1     -10.542  10.473  69.139  1.00  0.00    -0.214 NA 
ENDBRANCH   2   4
BRANCH   2  10
HETATM   10  C   UNL     1     -10.921   7.571  72.426  1.00  0.00    -0.286 C  
HETATM   11  O   UNL     1     -10.130   8.264  73.071  1.00  0.00    -0.271 OA 
BRANCH  10  12
HETATM   12  C   UNL     1     -10.677   6.098  72.433  1.00  0.00    -0.267 A  
HETATM   13  C   UNL     1     -11.131   5.232  73.418  1.00  0.00    -0.303 A  
HETATM   14  C   UNL     1     -10.233   3.384  72.367  1.00  0.00    -0.129 A  
HETATM   15  C   UNL     1      -9.755   4.154  71.322  1.00  0.00    -0.255 A  
HETATM   16  N   UNL     1     -10.913   3.892  73.416  1.00  0.00    -0.224 NA 
HETATM   17  C   UNL     1      -9.983   5.530  71.358  1.00  0.00    -0.241 A  
ENDBRANCH  10  12
ENDBRANCH   2  10
TORSDOF 3
ENDMDL
MODEL      143
REMARK 921   NORMALIZED FREE ENERGY PREDICTED BY IDOCK:   -4.03 KCAL/MOL
REMARK 922        TOTAL FREE ENERGY PREDICTED BY IDOCK:   -4.95 KCAL/MOL
REMARK 923 INTER-LIGAND FREE ENERGY PREDICTED BY IDOCK:   -4.59 KCAL/MOL
REMARK 924 INTRA-LIGAND FREE ENERGY PREDICTED BY IDOCK:   -0.37 KCAL/MOL
REMARK 927      BINDING AFFINITY PREDICTED BY RF-SCORE:    0.00 PKD
ROOT
HETATM    1  C   UNL     1     -11.878  11.051  67.644  1.00  0.00     0.078 C  
HETATM    2  C   UNL     1     -10.859  11.869  68.465  1.00  0.00    -0.257 C  
HETATM    3  C   UNL     1     -10.309  10.913  69.558  1.00  0.00    -0.136 C  
ENDROOT
BRANCH   2   4
HETATM    4  C   UNL     1     -11.449  13.077  69.190  1.00  0.00    -0.353 A  
HETATM    5  C   UNL     1     -12.510  15.173  70.632  1.00  0.00    -0.388 A  
HETATM    6  C   UNL     1     -11.397  14.384  68.680  1.00  0.00    -0.298 A  
HETATM    7  C   UNL     1     -12.076  12.922  70.431  1.00  0.00    -0.306 A  
HETATM    8  C   UNL     1     -11.927  15.445  69.410  1.00  0.00    -0.351 A  
HETATM    9  N   UNL     1     -12.596  13.934  71.159  1.00  0.00    -0.353 NA 
ENDBRANCH   2   4
BRANCH   2  10
HETATM   10  C   UNL     1      -9.697  12.253  67.507  1.00  0.00    -0.190 C  
HETATM   11  O   UNL     1      -8.628  12.695  67.934  1.00  0.00    -0.160 OA 
BRANCH  10  12
HETATM   12  C   UNL     1      -9.781  12.017  66.036  1.00  0.00    -0.256 A  
HETATM   13  C   UNL     1      -9.295  10.886  65.394  1.00  0.00    -0.208 A  
HETATM   14  C   UNL     1     -10.005  11.616  63.323  1.00  0.00    -0.419 A  
HETATM   15  C   UNL     1     -10.544  12.770  63.865  1.00  0.00    -0.427 A  
HETATM   16  N   UNL     1      -9.381  10.672  64.055  1.00  0.00    -0.243 NA 
HETATM   17  C   UNL     1     -10.430  12.969  65.240  1.00  0.00    -0.318 A  
ENDBRANCH  10  12
ENDBRANCH   2  10
TORSDOF 3
ENDMDL
MODEL      144
REMARK 921   NORMALIZED FREE ENERGY PREDICTED BY IDOCK:   -4.02 KCAL/MOL
REMARK 922        TOTAL FREE ENERGY PREDICTED BY IDOCK:   -4.94 KCAL/MOL
REMARK 923 INTER-LIGAND FREE ENERGY PREDICTED BY IDOCK:   -4.45 KCAL/MOL
REMARK 924 INTRA-LIGAND FREE ENERGY PREDICTED BY IDOCK:   -0.49 KCAL/MOL
REMARK 927      BINDING AFFINITY PREDICTED BY RF-SCORE:    0.00 PKD
ROOT
HETATM    1  C   UNL     1     -10.536   8.706  68.806  1.00  0.00    -0.209 C  
HETATM    2  C   UNL     1      -9.667   7.869  69.770  1.00  0.00    -0.176 C  
HETATM    3  C   UNL     1      -8.227   8.443  69.672  1.00  0.00    -0.117 C  
ENDROOT
BRANCH   2   4
HETATM    4  C   UNL     1      -9.577   6.385  69.418  1.00  0.00    -0.152 A  
HETATM    5  C   UNL     1      -9.343   3.748  68.648  1.00  0.00    -0.163 A  
HETATM    6  C   UNL     1      -9.677   5.358  70.370  1.00  0.00    -0.254 A  
HETATM    7  C   UNL     1      -9.377   5.982  68.092  1.00  0.00    -0.115 A  
HETATM    8  C   UNL     1      -9.553   4.026  69.984  1.00  0.00    -0.274 A  
HETATM    9  N   UNL     1      -9.252   4.697  67.692  1.00  0.00    -0.122 NA 
ENDBRANCH   2   4
BRANCH   2  10
HETATM   10  C   UNL     1     -10.206   8.112  71.206  1.00  0.00    -0.195 C  
HETATM   11  O   UNL     1      -9.444   8.241  72.168  1.00  0.00    -0.205 OA 
BRANCH  10  12
HETATM   12  C   UNL     1     -11.662   8.298  71.479  1.00  0.00    -0.337 A  
HETATM   13  C   UNL     1     -12.257   9.520  71.760  1.00  0.00    -0.387 A  
HETATM   14  C   UNL     1     -14.360   8.586  71.929  1.00  0.00    -0.448 A  
HETATM   15  C   UNL     1     -13.873   7.325  71.635  1.00  0.00    -0.461 A  
HETATM   16  N   UNL     1     -13.584   9.685  72.000  1.00  0.00    -0.405 NA 
HETATM   17  C   UNL     1     -12.505   7.182  71.406  1.00  0.00    -0.427 A  
ENDBRANCH  10  12
ENDBRANCH   2  10
TORSDOF 3
ENDMDL
MODEL      145
REMARK 921   NORMALIZED FREE ENERGY PREDICTED BY IDOCK:   -4.00 KCAL/MOL
REMARK 922        TOTAL FREE ENERGY PREDICTED BY IDOCK:   -4.92 KCAL/MOL
REMARK 923 INTER-LIGAND FREE ENERGY PREDICTED BY IDOCK:   -4.58 KCAL/MOL
REMARK 924 INTRA-LIGAND FREE ENERGY PREDICTED BY IDOCK:   -0.34 KCAL/MOL
REMARK 927      BINDING AFFINITY PREDICTED BY RF-SCORE:    0.00 PKD
ROOT
HETATM    1  C   UNL     1     -12.291  14.727  69.392  1.00  0.00    -0.184 C  
HETATM    2  C   UNL     1     -11.265  14.676  68.240  1.00  0.00    -0.301 C  
HETATM    3  C   UNL     1     -11.948  15.341  67.014  1.00  0.00     0.224 C  
ENDROOT
BRANCH   2   4
HETATM    4  C   UNL     1     -10.860  13.267  67.811  1.00  0.00    -0.268 A  
HETATM    5  C   UNL     1     -10.284  10.684  67.040  1.00  0.00    -0.220 A  
HETATM    6  C   UNL     1      -9.630  12.968  67.203  1.00  0.00    -0.230 A  
HETATM    7  C   UNL     1     -11.731  12.189  68.008  1.00  0.00    -0.344 A  
HETATM    8  C   UNL     1      -9.340  11.665  66.807  1.00  0.00    -0.193 A  
HETATM    9  N   UNL     1     -11.474  10.917  67.632  1.00  0.00    -0.518 NA 
ENDBRANCH   2   4
BRANCH   2  10
HETATM   10  C   UNL     1     -10.049  15.545  68.667  1.00  0.00    -0.210 C  
HETATM   11  O   UNL     1      -9.333  15.228  69.620  1.00  0.00    -0.238 OA 
BRANCH  10  12
HETATM   12  C   UNL     1      -9.630  16.747  67.888  1.00  0.00    -0.236 A  
HETATM   13  C   UNL     1      -8.926  16.702  66.693  1.00  0.00    -0.255 A  
HETATM   14  C   UNL     1      -8.925  18.999  66.473  1.00  0.00    -0.330 A  
HETATM   15  C   UNL     1      -9.647  19.156  67.643  1.00  0.00    -0.375 A  
HETATM   16  N   UNL     1      -8.553  17.799  65.984  1.00  0.00    -0.520 NA 
HETATM   17  C   UNL     1     -10.004  18.013  68.357  1.00  0.00    -0.382 A  
ENDBRANCH  10  12
ENDBRANCH   2  10
TORSDOF 3
ENDMDL
MODEL      146
REMARK 921   NORMALIZED FREE ENERGY PREDICTED BY IDOCK:   -4.00 KCAL/MOL
REMARK 922        TOTAL FREE ENERGY PREDICTED BY IDOCK:   -4.91 KCAL/MOL
REMARK 923 INTER-LIGAND FREE ENERGY PREDICTED BY IDOCK:   -4.51 KCAL/MOL
REMARK 924 INTRA-LIGAND FREE ENERGY PREDICTED BY IDOCK:   -0.40 KCAL/MOL
REMARK 927      BINDING AFFINITY PREDICTED BY RF-SCORE:    0.00 PKD
ROOT
HETATM    1  C   UNL     1      -7.775   8.385  71.813  1.00  0.00    -0.147 C  
HETATM    2  C   UNL     1      -9.191   7.797  71.993  1.00  0.00    -0.189 C  
HETATM    3  C   UNL     1      -9.493   7.838  73.516  1.00  0.00    -0.346 C  
ENDROOT
BRANCH   2   4
HETATM    4  C   UNL     1      -9.336   6.342  71.551  1.00  0.00    -0.152 A  
HETATM    5  C   UNL     1      -9.663   3.684  70.895  1.00  0.00    -0.159 A  
HETATM    6  C   UNL     1      -9.296   5.935  70.208  1.00  0.00    -0.181 A  
HETATM    7  C   UNL     1      -9.527   5.329  72.499  1.00  0.00    -0.145 A  
HETATM    8  C   UNL     1      -9.467   4.594  69.874  1.00  0.00    -0.237 A  
HETATM    9  N   UNL     1      -9.697   4.023  72.201  1.00  0.00    -0.149 NA 
ENDBRANCH   2   4
BRANCH   2  10
HETATM   10  C   UNL     1     -10.181   8.746  71.262  1.00  0.00    -0.262 C  
HETATM   11  O   UNL     1      -9.795   9.546  70.407  1.00  0.00    -0.239 OA 
BRANCH  10  12
HETATM   12  C   UNL     1     -11.655   8.668  71.486  1.00  0.00    -0.368 A  
HETATM   13  C   UNL     1     -12.452   9.748  71.840  1.00  0.00    -0.366 A  
HETATM   14  C   UNL     1     -14.376   8.473  71.842  1.00  0.00    -0.448 A  
HETATM   15  C   UNL     1     -13.678   7.338  71.468  1.00  0.00    -0.451 A  
HETATM   16  N   UNL     1     -13.794   9.673  72.036  1.00  0.00    -0.295 NA 
HETATM   17  C   UNL     1     -12.299   7.441  71.287  1.00  0.00    -0.380 A  
ENDBRANCH  10  12
ENDBRANCH   2  10
TORSDOF 3
ENDMDL
MODEL      147
REMARK 921   NORMALIZED FREE ENERGY PREDICTED BY IDOCK:   -3.99 KCAL/MOL
REMARK 922        TOTAL FREE ENERGY PREDICTED BY IDOCK:   -4.90 KCAL/MOL
REMARK 923 INTER-LIGAND FREE ENERGY PREDICTED BY IDOCK:   -4.74 KCAL/MOL
REMARK 924 INTRA-LIGAND FREE ENERGY PREDICTED BY IDOCK:   -0.16 KCAL/MOL
REMARK 927      BINDING AFFINITY PREDICTED BY RF-SCORE:    0.00 PKD
ROOT
HETATM    1  C   UNL     1     -12.213  12.731  65.908  1.00  0.00    -0.422 C  
HETATM    2  C   UNL     1     -11.315  12.575  67.155  1.00  0.00    -0.381 C  
HETATM    3  C   UNL     1     -11.611  11.165  67.735  1.00  0.00    -0.303 C  
ENDROOT
BRANCH   2   4
HETATM    4  C   UNL     1     -11.597  13.580  68.270  1.00  0.00    -0.381 A  
HETATM    5  C   UNL     1     -12.067  15.282  70.388  1.00  0.00    -0.348 A  
HETATM    6  C   UNL     1     -11.616  14.970  68.070  1.00  0.00    -0.356 A  
HETATM    7  C   UNL     1     -11.846  13.140  69.575  1.00  0.00    -0.322 A  
HETATM    8  C   UNL     1     -11.847  15.831  69.140  1.00  0.00    -0.367 A  
HETATM    9  N   UNL     1     -12.072  13.954  70.629  1.00  0.00    -0.348 NA 
ENDBRANCH   2   4
BRANCH   2  10
HETATM   10  C   UNL     1      -9.840  12.617  66.669  1.00  0.00    -0.244 C  
HETATM   11  O   UNL     1      -9.138  13.619  66.825  1.00  0.00    -0.247 OA 
BRANCH  10  12
HETATM   12  C   UNL     1      -9.172  11.418  66.081  1.00  0.00    -0.223 A  
HETATM   13  C   UNL     1      -9.465  10.892  64.831  1.00  0.00    -0.235 A  
HETATM   14  C   UNL     1      -7.875   9.232  65.030  1.00  0.00    -0.111 A  
HETATM   15  C   UNL     1      -7.490   9.689  66.278  1.00  0.00    -0.098 A  
HETATM   16  N   UNL     1      -8.850   9.805  64.296  1.00  0.00    -0.212 NA 
HETATM   17  C   UNL     1      -8.148  10.798  66.807  1.00  0.00    -0.137 A  
ENDBRANCH  10  12
ENDBRANCH   2  10
TORSDOF 3
ENDMDL
MODEL      148
REMARK 921   NORMALIZED FREE ENERGY PREDICTED BY IDOCK:   -3.93 KCAL/MOL
REMARK 922        TOTAL FREE ENERGY PREDICTED BY IDOCK:   -4.84 KCAL/MOL
REMARK 923 INTER-LIGAND FREE ENERGY PREDICTED BY IDOCK:   -4.22 KCAL/MOL
REMARK 924 INTRA-LIGAND FREE ENERGY PREDICTED BY IDOCK:   -0.61 KCAL/MOL
REMARK 927      BINDING AFFINITY PREDICTED BY RF-SCORE:    0.00 PKD
ROOT
HETATM    1  C   UNL     1     -11.706   9.570  71.409  1.00  0.00    -0.465 C  
HETATM    2  C   UNL     1     -10.769   8.350  71.273  1.00  0.00    -0.286 C  
HETATM    3  C   UNL     1      -9.777   8.425  72.465  1.00  0.00    -0.359 C  
ENDROOT
BRANCH   2   4
HETATM    4  C   UNL     1      -9.929   8.334  69.998  1.00  0.00    -0.188 A  
HETATM    5  C   UNL     1      -8.290   8.248  67.782  1.00  0.00    -0.128 A  
HETATM    6  C   UNL     1     -10.482   8.352  68.707  1.00  0.00    -0.202 A  
HETATM    7  C   UNL     1      -8.531   8.292  70.070  1.00  0.00    -0.123 A  
HETATM    8  C   UNL     1      -9.656   8.302  67.587  1.00  0.00    -0.187 A  
HETATM    9  N   UNL     1      -7.709   8.242  69.000  1.00  0.00    -0.096 NA 
ENDBRANCH   2   4
BRANCH   2  10
HETATM   10  C   UNL     1     -11.645   7.076  71.429  1.00  0.00    -0.292 C  
HETATM   11  O   UNL     1     -12.841   7.075  71.129  1.00  0.00    -0.374 OA 
BRANCH  10  12
HETATM   12  C   UNL     1     -11.062   5.770  71.857  1.00  0.00    -0.308 A  
HETATM   13  C   UNL     1     -11.317   5.159  73.077  1.00  0.00    -0.309 A  
HETATM   14  C   UNL     1      -9.993   3.338  72.571  1.00  0.00    -0.157 A  
HETATM   15  C   UNL     1      -9.691   3.848  71.321  1.00  0.00    -0.247 A  
HETATM   16  N   UNL     1     -10.790   3.967  73.458  1.00  0.00    -0.220 NA 
HETATM   17  C   UNL     1     -10.236   5.080  70.961  1.00  0.00    -0.283 A  
ENDBRANCH  10  12
ENDBRANCH   2  10
TORSDOF 3
ENDMDL
MODEL      149
REMARK 921   NORMALIZED FREE ENERGY PREDICTED BY IDOCK:   -3.93 KCAL/MOL
REMARK 922        TOTAL FREE ENERGY PREDICTED BY IDOCK:   -4.84 KCAL/MOL
REMARK 923 INTER-LIGAND FREE ENERGY PREDICTED BY IDOCK:   -4.54 KCAL/MOL
REMARK 924 INTRA-LIGAND FREE ENERGY PREDICTED BY IDOCK:   -0.30 KCAL/MOL
REMARK 927      BINDING AFFINITY PREDICTED BY RF-SCORE:    0.00 PKD
ROOT
HETATM    1  C   UNL     1      -8.873  11.387  67.767  1.00  0.00    -0.143 C  
HETATM    2  C   UNL     1     -10.160  10.549  67.923  1.00  0.00    -0.204 C  
HETATM    3  C   UNL     1     -11.346  11.510  67.636  1.00  0.00    -0.358 C  
ENDROOT
BRANCH   2   4
HETATM    4  C   UNL     1     -10.381   9.979  69.323  1.00  0.00    -0.237 A  
HETATM    5  C   UNL     1     -10.624   8.935  71.863  1.00  0.00    -0.349 A  
HETATM    6  C   UNL     1     -11.566  10.164  70.054  1.00  0.00    -0.323 A  
HETATM    7  C   UNL     1      -9.378   9.232  69.951  1.00  0.00    -0.198 A  
HETATM    8  C   UNL     1     -11.688   9.643  71.340  1.00  0.00    -0.478 A  
HETATM    9  N   UNL     1      -9.471   8.717  71.196  1.00  0.00    -0.216 NA 
ENDBRANCH   2   4
BRANCH   2  10
HETATM   10  C   UNL     1     -10.131   9.450  66.826  1.00  0.00    -0.256 C  
HETATM   11  O   UNL     1     -10.653   8.347  67.004  1.00  0.00    -0.314 OA 
BRANCH  10  12
HETATM   12  C   UNL     1      -9.558   9.706  65.472  1.00  0.00    -0.351 A  
HETATM   13  C   UNL     1     -10.157  10.500  64.504  1.00  0.00    -0.332 A  
HETATM   14  C   UNL     1      -8.430  10.178  63.007  1.00  0.00    -0.180 A  
HETATM   15  C   UNL     1      -7.738   9.388  63.907  1.00  0.00    -0.121 A  
HETATM   16  N   UNL     1      -9.628  10.737  63.275  1.00  0.00    -0.317 NA 
HETATM   17  C   UNL     1      -8.311   9.152  65.156  1.00  0.00    -0.160 A  
ENDBRANCH  10  12
ENDBRANCH   2  10
TORSDOF 3
ENDMDL
MODEL      150
REMARK 921   NORMALIZED FREE ENERGY PREDICTED BY IDOCK:   -3.92 KCAL/MOL
REMARK 922        TOTAL FREE ENERGY PREDICTED BY IDOCK:   -4.82 KCAL/MOL
REMARK 923 INTER-LIGAND FREE ENERGY PREDICTED BY IDOCK:   -4.52 KCAL/MOL
REMARK 924 INTRA-LIGAND FREE ENERGY PREDICTED BY IDOCK:   -0.30 KCAL/MOL
REMARK 927      BINDING AFFINITY PREDICTED BY RF-SCORE:    0.00 PKD
ROOT
HETATM    1  C   UNL     1     -11.622   6.464  69.672  1.00  0.00    -0.351 C  
HETATM    2  C   UNL     1     -10.216   6.528  70.306  1.00  0.00    -0.227 C  
HETATM    3  C   UNL     1      -9.388   5.389  69.652  1.00  0.00    -0.178 C  
ENDROOT
BRANCH   2   4
HETATM    4  C   UNL     1     -10.187   6.288  71.814  1.00  0.00    -0.224 A  
HETATM    5  C   UNL     1     -10.134   6.011  74.556  1.00  0.00    -0.314 A  
HETATM    6  C   UNL     1     -10.566   5.075  72.410  1.00  0.00    -0.275 A  
HETATM    7  C   UNL     1      -9.774   7.303  72.685  1.00  0.00    -0.159 A  
HETATM    8  C   UNL     1     -10.546   4.935  73.796  1.00  0.00    -0.331 A  
HETATM    9  N   UNL     1      -9.747   7.193  74.031  1.00  0.00    -0.285 NA 
ENDBRANCH   2   4
BRANCH   2  10
HETATM   10  C   UNL     1      -9.592   7.893  69.904  1.00  0.00    -0.168 C  
HETATM   11  O   UNL     1      -8.390   8.003  69.652  1.00  0.00    -0.122 OA 
BRANCH  10  12
HETATM   12  C   UNL     1     -10.429   9.114  69.709  1.00  0.00    -0.234 A  
HETATM   13  C   UNL     1     -11.065   9.800  70.734  1.00  0.00    -0.345 A  
HETATM   14  C   UNL     1     -11.924  11.385  69.293  1.00  0.00    -0.332 A  
HETATM   15  C   UNL     1     -11.314  10.790  68.203  1.00  0.00    -0.377 A  
HETATM   16  N   UNL     1     -11.821  10.915  70.552  1.00  0.00    -0.338 NA 
HETATM   17  C   UNL     1     -10.555   9.640  68.418  1.00  0.00    -0.264 A  
ENDBRANCH  10  12
ENDBRANCH   2  10
TORSDOF 3
ENDMDL
MODEL      151
REMARK 921   NORMALIZED FREE ENERGY PREDICTED BY IDOCK:   -3.88 KCAL/MOL
REMARK 922        TOTAL FREE ENERGY PREDICTED BY IDOCK:   -4.78 KCAL/MOL
REMARK 923 INTER-LIGAND FREE ENERGY PREDICTED BY IDOCK:   -4.35 KCAL/MOL
REMARK 924 INTRA-LIGAND FREE ENERGY PREDICTED BY IDOCK:   -0.43 KCAL/MOL
REMARK 927      BINDING AFFINITY PREDICTED BY RF-SCORE:    0.00 PKD
ROOT
HETATM    1  C   UNL     1     -12.020   9.406  71.147  1.00  0.00    -0.413 C  
HETATM    2  C   UNL     1     -11.056   8.228  70.889  1.00  0.00    -0.289 C  
HETATM    3  C   UNL     1      -9.717   8.597  71.586  1.00  0.00    -0.348 C  
ENDROOT
BRANCH   2   4
HETATM    4  C   UNL     1     -10.735   7.979  69.417  1.00  0.00    -0.167 A  
HETATM    5  C   UNL     1     -10.040   7.638  66.771  1.00  0.00    -0.255 A  
HETATM    6  C   UNL     1     -11.132   6.824  68.724  1.00  0.00    -0.234 A  
HETATM    7  C   UNL     1     -10.004   8.920  68.682  1.00  0.00    -0.177 A  
HETATM    8  C   UNL     1     -10.776   6.647  67.389  1.00  0.00    -0.409 A  
HETATM    9  N   UNL     1      -9.646   8.772  67.388  1.00  0.00    -0.155 NA 
ENDBRANCH   2   4
BRANCH   2  10
HETATM   10  C   UNL     1     -11.656   6.979  71.590  1.00  0.00    -0.285 C  
HETATM   11  O   UNL     1     -12.865   6.737  71.553  1.00  0.00    -0.346 OA 
BRANCH  10  12
HETATM   12  C   UNL     1     -10.792   5.961  72.258  1.00  0.00    -0.292 A  
HETATM   13  C   UNL     1     -10.618   5.859  73.631  1.00  0.00    -0.272 A  
HETATM   14  C   UNL     1      -9.221   4.033  73.434  1.00  0.00    -0.101 A  
HETATM   15  C   UNL     1      -9.343   4.032  72.056  1.00  0.00    -0.187 A  
HETATM   16  N   UNL     1      -9.837   4.926  74.234  1.00  0.00    -0.156 NA 
HETATM   17  C   UNL     1     -10.142   5.009  71.463  1.00  0.00    -0.263 A  
ENDBRANCH  10  12
ENDBRANCH   2  10
TORSDOF 3
ENDMDL
MODEL      152
REMARK 921   NORMALIZED FREE ENERGY PREDICTED BY IDOCK:   -3.85 KCAL/MOL
REMARK 922        TOTAL FREE ENERGY PREDICTED BY IDOCK:   -4.74 KCAL/MOL
REMARK 923 INTER-LIGAND FREE ENERGY PREDICTED BY IDOCK:   -4.18 KCAL/MOL
REMARK 924 INTRA-LIGAND FREE ENERGY PREDICTED BY IDOCK:   -0.56 KCAL/MOL
REMARK 927      BINDING AFFINITY PREDICTED BY RF-SCORE:    0.00 PKD
ROOT
HETATM    1  C   UNL     1      -8.683  11.664  67.798  1.00  0.00    -0.152 C  
HETATM    2  C   UNL     1      -9.990  10.873  68.018  1.00  0.00    -0.188 C  
HETATM    3  C   UNL     1     -11.142  11.914  67.995  1.00  0.00    -0.293 C  
ENDROOT
BRANCH   2   4
HETATM    4  C   UNL     1     -10.076  10.147  69.360  1.00  0.00    -0.250 A  
HETATM    5  C   UNL     1     -10.076   8.866  71.801  1.00  0.00    -0.337 A  
HETATM    6  C   UNL     1     -11.282   9.934  70.047  1.00  0.00    -0.327 A  
HETATM    7  C   UNL     1      -8.918   9.658  69.976  1.00  0.00    -0.237 A  
HETATM    8  C   UNL     1     -11.283   9.293  71.283  1.00  0.00    -0.425 A  
HETATM    9  N   UNL     1      -8.892   9.035  71.174  1.00  0.00    -0.223 NA 
ENDBRANCH   2   4
BRANCH   2  10
HETATM   10  C   UNL     1     -10.159   9.914  66.807  1.00  0.00    -0.230 C  
HETATM   11  O   UNL     1     -10.499  10.331  65.697  1.00  0.00    -0.200 OA 
BRANCH  10  12
HETATM   12  C   UNL     1      -9.824   8.462  66.901  1.00  0.00    -0.313 A  
HETATM   13  C   UNL     1      -8.555   7.936  66.707  1.00  0.00    -0.131 A  
HETATM   14  C   UNL     1      -9.259   5.780  67.132  1.00  0.00    -0.115 A  
HETATM   15  C   UNL     1     -10.556   6.202  67.367  1.00  0.00    -0.352 A  
HETATM   16  N   UNL     1      -8.254   6.615  66.801  1.00  0.00    -0.112 NA 
HETATM   17  C   UNL     1     -10.839   7.563  67.251  1.00  0.00    -0.297 A  
ENDBRANCH  10  12
ENDBRANCH   2  10
TORSDOF 3
ENDMDL
MODEL      153
REMARK 921   NORMALIZED FREE ENERGY PREDICTED BY IDOCK:   -3.84 KCAL/MOL
REMARK 922        TOTAL FREE ENERGY PREDICTED BY IDOCK:   -4.73 KCAL/MOL
REMARK 923 INTER-LIGAND FREE ENERGY PREDICTED BY IDOCK:   -4.12 KCAL/MOL
REMARK 924 INTRA-LIGAND FREE ENERGY PREDICTED BY IDOCK:   -0.60 KCAL/MOL
REMARK 927      BINDING AFFINITY PREDICTED BY RF-SCORE:    0.00 PKD
ROOT
HETATM    1  C   UNL     1      -9.896  10.492  67.174  1.00  0.00    -0.213 C  
HETATM    2  C   UNL     1      -9.545   9.628  68.405  1.00  0.00    -0.154 C  
HETATM    3  C   UNL     1      -8.057   9.922  68.737  1.00  0.00    -0.102 C  
ENDROOT
BRANCH   2   4
HETATM    4  C   UNL     1      -9.658   8.122  68.177  1.00  0.00    -0.162 A  
HETATM    5  C   UNL     1      -9.969   5.433  67.652  1.00  0.00    -0.162 A  
HETATM    6  C   UNL     1      -8.681   7.202  68.591  1.00  0.00    -0.127 A  
HETATM    7  C   UNL     1     -10.772   7.586  67.520  1.00  0.00    -0.226 A  
HETATM    8  C   UNL     1      -8.834   5.845  68.322  1.00  0.00    -0.110 A  
HETATM    9  N   UNL     1     -10.943   6.275  67.245  1.00  0.00    -0.366 NA 
ENDBRANCH   2   4
BRANCH   2  10
HETATM   10  C   UNL     1     -10.427  10.123  69.583  1.00  0.00    -0.252 C  
HETATM   11  O   UNL     1     -11.002  11.214  69.545  1.00  0.00    -0.242 OA 
BRANCH  10  12
HETATM   12  C   UNL     1     -10.702   9.266  70.774  1.00  0.00    -0.350 A  
HETATM   13  C   UNL     1     -11.935   8.701  71.066  1.00  0.00    -0.243 A  
HETATM   14  C   UNL     1     -11.136   7.656  72.963  1.00  0.00    -0.381 A  
HETATM   15  C   UNL     1      -9.861   8.152  72.752  1.00  0.00    -0.353 A  
HETATM   16  N   UNL     1     -12.178   7.915  72.148  1.00  0.00    -0.316 NA 
HETATM   17  C   UNL     1      -9.644   8.966  71.641  1.00  0.00    -0.363 A  
ENDBRANCH  10  12
ENDBRANCH   2  10
TORSDOF 3
ENDMDL
MODEL      154
REMARK 921   NORMALIZED FREE ENERGY PREDICTED BY IDOCK:   -3.83 KCAL/MOL
REMARK 922        TOTAL FREE ENERGY PREDICTED BY IDOCK:   -4.71 KCAL/MOL
REMARK 923 INTER-LIGAND FREE ENERGY PREDICTED BY IDOCK:   -4.57 KCAL/MOL
REMARK 924 INTRA-LIGAND FREE ENERGY PREDICTED BY IDOCK:   -0.14 KCAL/MOL
REMARK 927      BINDING AFFINITY PREDICTED BY RF-SCORE:    0.00 PKD
ROOT
HETATM    1  C   UNL     1     -10.722  16.108  66.321  1.00  0.00    -0.213 C  
HETATM    2  C   UNL     1      -9.944  15.455  67.484  1.00  0.00    -0.226 C  
HETATM    3  C   UNL     1      -8.974  14.427  66.840  1.00  0.00    -0.263 C  
ENDROOT
BRANCH   2   4
HETATM    4  C   UNL     1     -10.812  14.684  68.475  1.00  0.00    -0.256 A  
HETATM    5  C   UNL     1     -12.282  13.167  70.248  1.00  0.00    -0.306 A  
HETATM    6  C   UNL     1     -11.691  15.304  69.378  1.00  0.00    -0.361 A  
HETATM    7  C   UNL     1     -10.757  13.286  68.528  1.00  0.00    -0.262 A  
HETATM    8  C   UNL     1     -12.429  14.540  70.278  1.00  0.00    -0.405 A  
HETATM    9  N   UNL     1     -11.461  12.523  69.392  1.00  0.00    -0.275 NA 
ENDBRANCH   2   4
BRANCH   2  10
HETATM   10  C   UNL     1      -9.107  16.574  68.164  1.00  0.00    -0.207 C  
HETATM   11  O   UNL     1      -8.844  16.541  69.368  1.00  0.00    -0.142 OA 
BRANCH  10  12
HETATM   12  C   UNL     1      -8.500  17.689  67.378  1.00  0.00    -0.227 A  
HETATM   13  C   UNL     1      -9.101  18.924  67.177  1.00  0.00    -0.287 A  
HETATM   14  C   UNL     1      -7.311  19.723  65.958  1.00  0.00    -0.307 A  
HETATM   15  C   UNL     1      -6.616  18.537  66.118  1.00  0.00    -0.267 A  
HETATM   16  N   UNL     1      -8.541  19.938  66.467  1.00  0.00    -0.336 NA 
HETATM   17  C   UNL     1      -7.220  17.509  66.840  1.00  0.00    -0.232 A  
ENDBRANCH  10  12
ENDBRANCH   2  10
TORSDOF 3
ENDMDL
MODEL      155
REMARK 921   NORMALIZED FREE ENERGY PREDICTED BY IDOCK:   -3.81 KCAL/MOL
REMARK 922        TOTAL FREE ENERGY PREDICTED BY IDOCK:   -4.69 KCAL/MOL
REMARK 923 INTER-LIGAND FREE ENERGY PREDICTED BY IDOCK:   -4.24 KCAL/MOL
REMARK 924 INTRA-LIGAND FREE ENERGY PREDICTED BY IDOCK:   -0.45 KCAL/MOL
REMARK 927      BINDING AFFINITY PREDICTED BY RF-SCORE:    0.00 PKD
ROOT
HETATM    1  C   UNL     1     -10.739   9.519  67.084  1.00  0.00    -0.252 C  
HETATM    2  C   UNL     1     -10.094  10.894  66.806  1.00  0.00    -0.259 C  
HETATM    3  C   UNL     1     -10.162  11.688  68.139  1.00  0.00    -0.206 C  
ENDROOT
BRANCH   2   4
HETATM    4  C   UNL     1     -10.815  11.733  65.754  1.00  0.00    -0.341 A  
HETATM    5  C   UNL     1     -12.142  13.358  63.964  1.00  0.00    -0.449 A  
HETATM    6  C   UNL     1     -10.657  11.541  64.371  1.00  0.00    -0.392 A  
HETATM    7  C   UNL     1     -11.683  12.761  66.140  1.00  0.00    -0.403 A  
HETATM    8  C   UNL     1     -11.321  12.365  63.466  1.00  0.00    -0.553 A  
HETATM    9  N   UNL     1     -12.338  13.574  65.282  1.00  0.00    -0.439 NA 
ENDBRANCH   2   4
BRANCH   2  10
HETATM   10  C   UNL     1      -8.603  10.640  66.451  1.00  0.00    -0.149 C  
HETATM   11  O   UNL     1      -7.747  11.516  66.597  1.00  0.00    -0.151 OA 
BRANCH  10  12
HETATM   12  C   UNL     1      -8.117   9.300  66.010  1.00  0.00    -0.110 A  
HETATM   13  C   UNL     1      -7.553   8.353  66.854  1.00  0.00    -0.091 A  
HETATM   14  C   UNL     1      -7.279   6.826  65.146  1.00  0.00    -0.074 A  
HETATM   15  C   UNL     1      -7.847   7.687  64.224  1.00  0.00    -0.135 A  
HETATM   16  N   UNL     1      -7.119   7.131  66.450  1.00  0.00    -0.075 NA 
HETATM   17  C   UNL     1      -8.272   8.940  64.666  1.00  0.00    -0.163 A  
ENDBRANCH  10  12
ENDBRANCH   2  10
TORSDOF 3
ENDMDL
MODEL      156
REMARK 921   NORMALIZED FREE ENERGY PREDICTED BY IDOCK:   -3.80 KCAL/MOL
REMARK 922        TOTAL FREE ENERGY PREDICTED BY IDOCK:   -4.68 KCAL/MOL
REMARK 923 INTER-LIGAND FREE ENERGY PREDICTED BY IDOCK:   -4.69 KCAL/MOL
REMARK 924 INTRA-LIGAND FREE ENERGY PREDICTED BY IDOCK:    0.01 KCAL/MOL
REMARK 927      BINDING AFFINITY PREDICTED BY RF-SCORE:    0.00 PKD
ROOT
HETATM    1  C   UNL     1      -8.086  10.504  66.019  1.00  0.00    -0.148 C  
HETATM    2  C   UNL     1      -9.570  10.547  66.443  1.00  0.00    -0.220 C  
HETATM    3  C   UNL     1     -10.095   9.088  66.354  1.00  0.00    -0.351 C  
ENDROOT
BRANCH   2   4
HETATM    4  C   UNL     1     -10.464  11.395  65.540  1.00  0.00    -0.322 A  
HETATM    5  C   UNL     1     -12.000  12.865  63.785  1.00  0.00    -0.512 A  
HETATM    6  C   UNL     1     -11.701  11.918  65.949  1.00  0.00    -0.208 A  
HETATM    7  C   UNL     1     -10.075  11.684  64.227  1.00  0.00    -0.287 A  
HETATM    8  C   UNL     1     -12.481  12.656  65.062  1.00  0.00    -0.556 A  
HETATM    9  N   UNL     1     -10.813  12.396  63.347  1.00  0.00    -0.433 NA 
ENDBRANCH   2   4
BRANCH   2  10
HETATM   10  C   UNL     1      -9.613  11.005  67.927  1.00  0.00    -0.172 C  
HETATM   11  O   UNL     1      -9.436  10.209  68.852  1.00  0.00    -0.163 OA 
BRANCH  10  12
HETATM   12  C   UNL     1      -9.772  12.441  68.303  1.00  0.00    -0.218 A  
HETATM   13  C   UNL     1     -10.914  12.979  68.880  1.00  0.00    -0.230 A  
HETATM   14  C   UNL     1      -9.990  15.089  69.015  1.00  0.00    -0.246 A  
HETATM   15  C   UNL     1      -8.798  14.651  68.466  1.00  0.00    -0.182 A  
HETATM   16  N   UNL     1     -11.051  14.285  69.227  1.00  0.00    -0.263 NA 
HETATM   17  C   UNL     1      -8.690  13.308  68.107  1.00  0.00    -0.179 A  
ENDBRANCH  10  12
ENDBRANCH   2  10
TORSDOF 3
ENDMDL
MODEL      157
REMARK 921   NORMALIZED FREE ENERGY PREDICTED BY IDOCK:   -3.77 KCAL/MOL
REMARK 922        TOTAL FREE ENERGY PREDICTED BY IDOCK:   -4.65 KCAL/MOL
REMARK 923 INTER-LIGAND FREE ENERGY PREDICTED BY IDOCK:   -4.11 KCAL/MOL
REMARK 924 INTRA-LIGAND FREE ENERGY PREDICTED BY IDOCK:   -0.54 KCAL/MOL
REMARK 927      BINDING AFFINITY PREDICTED BY RF-SCORE:    0.00 PKD
ROOT
HETATM    1  C   UNL     1     -11.870   8.108  72.487  1.00  0.00    -0.438 C  
HETATM    2  C   UNL     1     -10.619   7.205  72.544  1.00  0.00    -0.273 C  
HETATM    3  C   UNL     1     -10.335   6.944  74.049  1.00  0.00    -0.355 C  
ENDROOT
BRANCH   2   4
HETATM    4  C   UNL     1      -9.356   7.830  71.957  1.00  0.00    -0.199 A  
HETATM    5  C   UNL     1      -7.155   9.096  70.881  1.00  0.00    -0.105 A  
HETATM    6  C   UNL     1      -8.071   7.295  72.142  1.00  0.00    -0.100 A  
HETATM    7  C   UNL     1      -9.433   9.002  71.194  1.00  0.00    -0.278 A  
HETATM    8  C   UNL     1      -6.958   7.936  71.605  1.00  0.00    -0.066 A  
HETATM    9  N   UNL     1      -8.369   9.643  70.664  1.00  0.00    -0.242 NA 
ENDBRANCH   2   4
BRANCH   2  10
HETATM   10  C   UNL     1     -10.992   5.858  71.866  1.00  0.00    -0.266 C  
HETATM   11  O   UNL     1     -11.632   4.989  72.463  1.00  0.00    -0.095 OA 
BRANCH  10  12
HETATM   12  C   UNL     1     -10.681   5.588  70.431  1.00  0.00    -0.321 A  
HETATM   13  C   UNL     1      -9.861   4.560  69.986  1.00  0.00    -0.226 A  
HETATM   14  C   UNL     1     -10.179   5.113  67.768  1.00  0.00    -0.132 A  
HETATM   15  C   UNL     1     -11.030   6.152  68.102  1.00  0.00    -0.398 A  
HETATM   16  N   UNL     1      -9.586   4.315  68.678  1.00  0.00    -0.157 NA 
HETATM   17  C   UNL     1     -11.283   6.389  69.453  1.00  0.00    -0.459 A  
ENDBRANCH  10  12
ENDBRANCH   2  10
TORSDOF 3
ENDMDL
MODEL      158
REMARK 921   NORMALIZED FREE ENERGY PREDICTED BY IDOCK:   -3.76 KCAL/MOL
REMARK 922        TOTAL FREE ENERGY PREDICTED BY IDOCK:   -4.64 KCAL/MOL
REMARK 923 INTER-LIGAND FREE ENERGY PREDICTED BY IDOCK:   -4.28 KCAL/MOL
REMARK 924 INTRA-LIGAND FREE ENERGY PREDICTED BY IDOCK:   -0.35 KCAL/MOL
REMARK 927      BINDING AFFINITY PREDICTED BY RF-SCORE:    0.00 PKD
ROOT
HETATM    1  C   UNL     1     -10.765   9.725  68.087  1.00  0.00    -0.280 C  
HETATM    2  C   UNL     1      -9.561   8.892  68.577  1.00  0.00    -0.165 C  
HETATM    3  C   UNL     1      -8.299   9.766  68.344  1.00  0.00    -0.110 C  
ENDROOT
BRANCH   2   4
HETATM    4  C   UNL     1      -9.342   7.585  67.817  1.00  0.00    -0.150 A  
HETATM    5  C   UNL     1      -8.809   5.209  66.525  1.00  0.00    -0.117 A  
HETATM    6  C   UNL     1     -10.374   6.882  67.175  1.00  0.00    -0.339 A  
HETATM    7  C   UNL     1      -8.064   7.019  67.735  1.00  0.00    -0.114 A  
HETATM    8  C   UNL     1     -10.108   5.678  66.528  1.00  0.00    -0.225 A  
HETATM    9  N   UNL     1      -7.781   5.853  67.115  1.00  0.00    -0.100 NA 
ENDBRANCH   2   4
BRANCH   2  10
HETATM   10  C   UNL     1      -9.743   8.673  70.104  1.00  0.00    -0.172 C  
HETATM   11  O   UNL     1      -8.777   8.643  70.871  1.00  0.00    -0.148 OA 
BRANCH  10  12
HETATM   12  C   UNL     1     -11.095   8.587  70.731  1.00  0.00    -0.288 A  
HETATM   13  C   UNL     1     -11.767   7.399  70.985  1.00  0.00    -0.297 A  
HETATM   14  C   UNL     1     -13.569   8.489  71.930  1.00  0.00    -0.396 A  
HETATM   15  C   UNL     1     -12.978   9.725  71.741  1.00  0.00    -0.536 A  
HETATM   16  N   UNL     1     -12.995   7.326  71.562  1.00  0.00    -0.380 NA 
HETATM   17  C   UNL     1     -11.723   9.772  71.135  1.00  0.00    -0.465 A  
ENDBRANCH  10  12
ENDBRANCH   2  10
TORSDOF 3
ENDMDL
MODEL      159
REMARK 921   NORMALIZED FREE ENERGY PREDICTED BY IDOCK:   -3.74 KCAL/MOL
REMARK 922        TOTAL FREE ENERGY PREDICTED BY IDOCK:   -4.61 KCAL/MOL
REMARK 923 INTER-LIGAND FREE ENERGY PREDICTED BY IDOCK:   -4.20 KCAL/MOL
REMARK 924 INTRA-LIGAND FREE ENERGY PREDICTED BY IDOCK:   -0.41 KCAL/MOL
REMARK 927      BINDING AFFINITY PREDICTED BY RF-SCORE:    0.00 PKD
ROOT
HETATM    1  C   UNL     1     -10.444   8.936  68.191  1.00  0.00    -0.254 C  
HETATM    2  C   UNL     1     -10.529  10.421  68.604  1.00  0.00    -0.216 C  
HETATM    3  C   UNL     1     -11.410  11.123  67.534  1.00  0.00    -0.351 C  
ENDROOT
BRANCH   2   4
HETATM    4  C   UNL     1      -9.189  11.153  68.623  1.00  0.00    -0.173 A  
HETATM    5  C   UNL     1      -6.699  12.335  68.678  1.00  0.00    -0.083 A  
HETATM    6  C   UNL     1      -9.008  12.447  68.107  1.00  0.00    -0.196 A  
HETATM    7  C   UNL     1      -8.054  10.541  69.168  1.00  0.00    -0.152 A  
HETATM    8  C   UNL     1      -7.750  13.043  68.128  1.00  0.00    -0.143 A  
HETATM    9  N   UNL     1      -6.824  11.097  69.199  1.00  0.00    -0.091 NA 
ENDBRANCH   2   4
BRANCH   2  10
HETATM   10  C   UNL     1     -11.263  10.478  69.972  1.00  0.00    -0.315 C  
HETATM   11  O   UNL     1     -11.915  11.468  70.313  1.00  0.00    -0.333 OA 
BRANCH  10  12
HETATM   12  C   UNL     1     -11.297   9.306  70.895  1.00  0.00    -0.373 A  
HETATM   13  C   UNL     1     -12.401   8.485  71.080  1.00  0.00    -0.206 A  
HETATM   14  C   UNL     1     -11.285   7.130  72.579  1.00  0.00    -0.290 A  
HETATM   15  C   UNL     1     -10.123   7.870  72.452  1.00  0.00    -0.310 A  
HETATM   16  N   UNL     1     -12.425   7.414  71.916  1.00  0.00    -0.312 NA 
HETATM   17  C   UNL     1     -10.132   8.972  71.596  1.00  0.00    -0.405 A  
ENDBRANCH  10  12
ENDBRANCH   2  10
TORSDOF 3
ENDMDL
MODEL      160
REMARK 921   NORMALIZED FREE ENERGY PREDICTED BY IDOCK:   -3.72 KCAL/MOL
REMARK 922        TOTAL FREE ENERGY PREDICTED BY IDOCK:   -4.58 KCAL/MOL
REMARK 923 INTER-LIGAND FREE ENERGY PREDICTED BY IDOCK:   -4.21 KCAL/MOL
REMARK 924 INTRA-LIGAND FREE ENERGY PREDICTED BY IDOCK:   -0.37 KCAL/MOL
REMARK 927      BINDING AFFINITY PREDICTED BY RF-SCORE:    0.00 PKD
ROOT
HETATM    1  C   UNL     1     -11.061   6.099  69.046  1.00  0.00    -0.437 C  
HETATM    2  C   UNL     1     -11.059   6.995  70.304  1.00  0.00    -0.323 C  
HETATM    3  C   UNL     1     -12.396   6.714  71.043  1.00  0.00    -0.289 C  
ENDROOT
BRANCH   2   4
HETATM    4  C   UNL     1     -11.019   8.494  70.017  1.00  0.00    -0.197 A  
HETATM    5  C   UNL     1     -10.965  11.227  69.654  1.00  0.00    -0.151 A  
HETATM    6  C   UNL     1     -10.470   9.042  68.846  1.00  0.00    -0.231 A  
HETATM    7  C   UNL     1     -11.537   9.408  70.943  1.00  0.00    -0.312 A  
HETATM    8  C   UNL     1     -10.436  10.422  68.664  1.00  0.00    -0.216 A  
HETATM    9  N   UNL     1     -11.515  10.750  70.790  1.00  0.00    -0.240 NA 
ENDBRANCH   2   4
BRANCH   2  10
HETATM   10  C   UNL     1      -9.883   6.525  71.204  1.00  0.00    -0.182 C  
HETATM   11  O   UNL     1      -8.777   7.068  71.155  1.00  0.00    -0.135 OA 
BRANCH  10  12
HETATM   12  C   UNL     1     -10.060   5.461  72.236  1.00  0.00    -0.231 A  
HETATM   13  C   UNL     1     -10.392   5.703  73.562  1.00  0.00    -0.233 A  
HETATM   14  C   UNL     1     -10.415   3.455  74.085  1.00  0.00    -0.194 A  
HETATM   15  C   UNL     1     -10.106   3.103  72.783  1.00  0.00    -0.225 A  
HETATM   16  N   UNL     1     -10.559   4.731  74.496  1.00  0.00    -0.358 NA 
HETATM   17  C   UNL     1      -9.928   4.122  71.848  1.00  0.00    -0.253 A  
ENDBRANCH  10  12
ENDBRANCH   2  10
TORSDOF 3
ENDMDL
MODEL      161
REMARK 921   NORMALIZED FREE ENERGY PREDICTED BY IDOCK:   -3.69 KCAL/MOL
REMARK 922        TOTAL FREE ENERGY PREDICTED BY IDOCK:   -4.56 KCAL/MOL
REMARK 923 INTER-LIGAND FREE ENERGY PREDICTED BY IDOCK:   -4.14 KCAL/MOL
REMARK 924 INTRA-LIGAND FREE ENERGY PREDICTED BY IDOCK:   -0.42 KCAL/MOL
REMARK 927      BINDING AFFINITY PREDICTED BY RF-SCORE:    0.00 PKD
ROOT
HETATM    1  C   UNL     1      -9.676   8.151  70.498  1.00  0.00    -0.181 C  
HETATM    2  C   UNL     1      -9.289   7.271  71.706  1.00  0.00    -0.161 C  
HETATM    3  C   UNL     1      -8.042   7.935  72.351  1.00  0.00    -0.167 C  
ENDROOT
BRANCH   2   4
HETATM    4  C   UNL     1      -8.894   5.840  71.349  1.00  0.00    -0.143 A  
HETATM    5  C   UNL     1      -8.033   3.290  70.751  1.00  0.00    -0.049 A  
HETATM    6  C   UNL     1      -9.819   4.790  71.229  1.00  0.00    -0.256 A  
HETATM    7  C   UNL     1      -7.552   5.509  71.129  1.00  0.00    -0.102 A  
HETATM    8  C   UNL     1      -9.385   3.500  70.933  1.00  0.00    -0.217 A  
HETATM    9  N   UNL     1      -7.106   4.266  70.842  1.00  0.00    -0.036 NA 
ENDBRANCH   2   4
BRANCH   2  10
HETATM   10  C   UNL     1     -10.467   7.333  72.717  1.00  0.00    -0.260 C  
HETATM   11  O   UNL     1     -10.291   7.151  73.924  1.00  0.00    -0.358 OA 
BRANCH  10  12
HETATM   12  C   UNL     1     -11.848   7.710  72.294  1.00  0.00    -0.354 A  
HETATM   13  C   UNL     1     -12.798   6.813  71.826  1.00  0.00    -0.259 A  
HETATM   14  C   UNL     1     -14.394   8.460  71.569  1.00  0.00    -0.408 A  
HETATM   15  C   UNL     1     -13.531   9.433  72.043  1.00  0.00    -0.522 A  
HETATM   16  N   UNL     1     -14.056   7.161  71.449  1.00  0.00    -0.341 NA 
HETATM   17  C   UNL     1     -12.242   9.049  72.411  1.00  0.00    -0.322 A  
ENDBRANCH  10  12
ENDBRANCH   2  10
TORSDOF 3
ENDMDL
MODEL      162
REMARK 921   NORMALIZED FREE ENERGY PREDICTED BY IDOCK:   -3.69 KCAL/MOL
REMARK 922        TOTAL FREE ENERGY PREDICTED BY IDOCK:   -4.56 KCAL/MOL
REMARK 923 INTER-LIGAND FREE ENERGY PREDICTED BY IDOCK:   -4.44 KCAL/MOL
REMARK 924 INTRA-LIGAND FREE ENERGY PREDICTED BY IDOCK:   -0.11 KCAL/MOL
REMARK 927      BINDING AFFINITY PREDICTED BY RF-SCORE:    0.00 PKD
ROOT
HETATM    1  C   UNL     1      -8.719  10.319  69.639  1.00  0.00    -0.125 C  
HETATM    2  C   UNL     1      -9.997   9.503  69.933  1.00  0.00    -0.259 C  
HETATM    3  C   UNL     1     -11.165  10.524  69.996  1.00  0.00    -0.386 C  
ENDROOT
BRANCH   2   4
HETATM    4  C   UNL     1      -9.984   8.761  71.268  1.00  0.00    -0.333 A  
HETATM    5  C   UNL     1     -10.112   7.382  73.652  1.00  0.00    -0.325 A  
HETATM    6  C   UNL     1      -8.806   8.356  71.915  1.00  0.00    -0.267 A  
HETATM    7  C   UNL     1     -11.185   8.442  71.913  1.00  0.00    -0.311 A  
HETATM    8  C   UNL     1      -8.869   7.654  73.116  1.00  0.00    -0.231 A  
HETATM    9  N   UNL     1     -11.273   7.762  73.077  1.00  0.00    -0.392 NA 
ENDBRANCH   2   4
BRANCH   2  10
HETATM   10  C   UNL     1     -10.227   8.555  68.724  1.00  0.00    -0.200 C  
HETATM   11  O   UNL     1     -10.764   7.453  68.861  1.00  0.00    -0.200 OA 
BRANCH  10  12
HETATM   12  C   UNL     1      -9.901   8.969  67.327  1.00  0.00    -0.252 A  
HETATM   13  C   UNL     1      -9.020   8.293  66.494  1.00  0.00    -0.156 A  
HETATM   14  C   UNL     1      -9.374   9.756  64.744  1.00  0.00    -0.265 A  
HETATM   15  C   UNL     1     -10.286  10.489  65.482  1.00  0.00    -0.325 A  
HETATM   16  N   UNL     1      -8.732   8.670  65.221  1.00  0.00    -0.183 NA 
HETATM   17  C   UNL     1     -10.552  10.087  66.791  1.00  0.00    -0.229 A  
ENDBRANCH  10  12
ENDBRANCH   2  10
TORSDOF 3
ENDMDL
MODEL      163
REMARK 921   NORMALIZED FREE ENERGY PREDICTED BY IDOCK:   -3.68 KCAL/MOL
REMARK 922        TOTAL FREE ENERGY PREDICTED BY IDOCK:   -4.54 KCAL/MOL
REMARK 923 INTER-LIGAND FREE ENERGY PREDICTED BY IDOCK:   -4.13 KCAL/MOL
REMARK 924 INTRA-LIGAND FREE ENERGY PREDICTED BY IDOCK:   -0.41 KCAL/MOL
REMARK 927      BINDING AFFINITY PREDICTED BY RF-SCORE:    0.00 PKD
ROOT
HETATM    1  C   UNL     1     -10.864   6.592  67.509  1.00  0.00    -0.433 C  
HETATM    2  C   UNL     1      -9.857   7.609  68.086  1.00  0.00    -0.186 C  
HETATM    3  C   UNL     1      -8.466   6.919  68.046  1.00  0.00    -0.124 C  
ENDROOT
BRANCH   2   4
HETATM    4  C   UNL     1     -10.113   8.005  69.538  1.00  0.00    -0.196 A  
HETATM    5  C   UNL     1     -10.449   8.811  72.153  1.00  0.00    -0.314 A  
HETATM    6  C   UNL     1     -11.356   7.849  70.173  1.00  0.00    -0.099 A  
HETATM    7  C   UNL     1      -9.089   8.561  70.314  1.00  0.00    -0.154 A  
HETATM    8  C   UNL     1     -11.529   8.262  71.492  1.00  0.00    -0.325 A  
HETATM    9  N   UNL     1      -9.232   8.970  71.593  1.00  0.00    -0.340 NA 
ENDBRANCH   2   4
BRANCH   2  10
HETATM   10  C   UNL     1      -9.835   8.832  67.127  1.00  0.00    -0.207 C  
HETATM   11  O   UNL     1      -9.724   8.692  65.907  1.00  0.00    -0.209 OA 
BRANCH  10  12
HETATM   12  C   UNL     1     -10.046  10.223  67.624  1.00  0.00    -0.229 A  
HETATM   13  C   UNL     1      -9.029  11.143  67.836  1.00  0.00    -0.143 A  
HETATM   14  C   UNL     1     -10.502  12.792  68.498  1.00  0.00    -0.238 A  
HETATM   15  C   UNL     1     -11.591  11.962  68.298  1.00  0.00    -0.390 A  
HETATM   16  N   UNL     1      -9.227  12.411  68.281  1.00  0.00    -0.202 NA 
HETATM   17  C   UNL     1     -11.357  10.661  67.853  1.00  0.00    -0.342 A  
ENDBRANCH  10  12
ENDBRANCH   2  10
TORSDOF 3
ENDMDL
MODEL      164
REMARK 921   NORMALIZED FREE ENERGY PREDICTED BY IDOCK:   -3.62 KCAL/MOL
REMARK 922        TOTAL FREE ENERGY PREDICTED BY IDOCK:   -4.47 KCAL/MOL
REMARK 923 INTER-LIGAND FREE ENERGY PREDICTED BY IDOCK:   -3.96 KCAL/MOL
REMARK 924 INTRA-LIGAND FREE ENERGY PREDICTED BY IDOCK:   -0.51 KCAL/MOL
REMARK 927      BINDING AFFINITY PREDICTED BY RF-SCORE:    0.00 PKD
ROOT
HETATM    1  C   UNL     1     -12.532   8.224  71.808  1.00  0.00    -0.367 C  
HETATM    2  C   UNL     1     -11.096   7.819  71.411  1.00  0.00    -0.268 C  
HETATM    3  C   UNL     1     -10.171   8.978  71.872  1.00  0.00    -0.342 C  
ENDROOT
BRANCH   2   4
HETATM    4  C   UNL     1     -10.876   7.647  69.910  1.00  0.00    -0.241 A  
HETATM    5  C   UNL     1     -10.577   7.211  67.204  1.00  0.00    -0.347 A  
HETATM    6  C   UNL     1     -10.389   8.668  69.078  1.00  0.00    -0.226 A  
HETATM    7  C   UNL     1     -11.167   6.428  69.286  1.00  0.00    -0.375 A  
HETATM    8  C   UNL     1     -10.243   8.452  67.710  1.00  0.00    -0.283 A  
HETATM    9  N   UNL     1     -11.036   6.193  67.962  1.00  0.00    -0.327 NA 
ENDBRANCH   2   4
BRANCH   2  10
HETATM   10  C   UNL     1     -10.737   6.542  72.220  1.00  0.00    -0.223 C  
HETATM   11  O   UNL     1     -11.586   5.688  72.487  1.00  0.00    -0.300 OA 
BRANCH  10  12
HETATM   12  C   UNL     1      -9.334   6.239  72.628  1.00  0.00    -0.145 A  
HETATM   13  C   UNL     1      -8.829   6.432  73.906  1.00  0.00    -0.127 A  
HETATM   14  C   UNL     1      -6.748   5.618  73.332  1.00  0.00    -0.078 A  
HETATM   15  C   UNL     1      -7.155   5.365  72.034  1.00  0.00    -0.085 A  
HETATM   16  N   UNL     1      -7.553   6.148  74.275  1.00  0.00    -0.093 NA 
HETATM   17  C   UNL     1      -8.467   5.679  71.681  1.00  0.00    -0.131 A  
ENDBRANCH  10  12
ENDBRANCH   2  10
TORSDOF 3
ENDMDL
MODEL      165
REMARK 921   NORMALIZED FREE ENERGY PREDICTED BY IDOCK:   -3.60 KCAL/MOL
REMARK 922        TOTAL FREE ENERGY PREDICTED BY IDOCK:   -4.44 KCAL/MOL
REMARK 923 INTER-LIGAND FREE ENERGY PREDICTED BY IDOCK:   -4.16 KCAL/MOL
REMARK 924 INTRA-LIGAND FREE ENERGY PREDICTED BY IDOCK:   -0.29 KCAL/MOL
REMARK 927      BINDING AFFINITY PREDICTED BY RF-SCORE:    0.00 PKD
ROOT
HETATM    1  C   UNL     1     -10.411  17.228  69.061  1.00  0.00    -0.330 C  
HETATM    2  C   UNL     1      -9.485  16.962  67.854  1.00  0.00    -0.239 C  
HETATM    3  C   UNL     1     -10.198  17.563  66.613  1.00  0.00    -0.332 C  
ENDROOT
BRANCH   2   4
HETATM    4  C   UNL     1      -9.242  15.484  67.553  1.00  0.00    -0.200 A  
HETATM    5  C   UNL     1      -8.752  12.800  67.158  1.00  0.00    -0.202 A  
HETATM    6  C   UNL     1      -9.847  14.804  66.484  1.00  0.00    -0.287 A  
HETATM    7  C   UNL     1      -8.385  14.728  68.361  1.00  0.00    -0.154 A  
HETATM    8  C   UNL     1      -9.606  13.447  66.287  1.00  0.00    -0.245 A  
HETATM    9  N   UNL     1      -8.136  13.411  68.192  1.00  0.00    -0.146 NA 
ENDBRANCH   2   4
BRANCH   2  10
HETATM   10  C   UNL     1      -8.167  17.747  68.103  1.00  0.00    -0.260 C  
HETATM   11  O   UNL     1      -7.518  17.606  69.142  1.00  0.00    -0.204 OA 
BRANCH  10  12
HETATM   12  C   UNL     1      -7.572  18.634  67.059  1.00  0.00    -0.235 A  
HETATM   13  C   UNL     1      -7.669  20.018  67.058  1.00  0.00    -0.294 A  
HETATM   14  C   UNL     1      -6.415  20.219  65.132  1.00  0.00    -0.286 A  
HETATM   15  C   UNL     1      -6.239  18.849  65.050  1.00  0.00    -0.294 A  
HETATM   16  N   UNL     1      -7.120  20.821  66.110  1.00  0.00    -0.116 NA 
HETATM   17  C   UNL     1      -6.825  18.048  66.030  1.00  0.00    -0.332 A  
ENDBRANCH  10  12
ENDBRANCH   2  10
TORSDOF 3
ENDMDL
MODEL      166
REMARK 921   NORMALIZED FREE ENERGY PREDICTED BY IDOCK:   -3.59 KCAL/MOL
REMARK 922        TOTAL FREE ENERGY PREDICTED BY IDOCK:   -4.44 KCAL/MOL
REMARK 923 INTER-LIGAND FREE ENERGY PREDICTED BY IDOCK:   -4.09 KCAL/MOL
REMARK 924 INTRA-LIGAND FREE ENERGY PREDICTED BY IDOCK:   -0.35 KCAL/MOL
REMARK 927      BINDING AFFINITY PREDICTED BY RF-SCORE:    0.00 PKD
ROOT
HETATM    1  C   UNL     1      -8.237   7.419  69.358  1.00  0.00    -0.131 C  
HETATM    2  C   UNL     1      -9.246   7.436  68.190  1.00  0.00    -0.133 C  
HETATM    3  C   UNL     1      -8.506   6.841  66.962  1.00  0.00    -0.114 C  
ENDROOT
BRANCH   2   4
HETATM    4  C   UNL     1      -9.728   8.828  67.786  1.00  0.00    -0.194 A  
HETATM    5  C   UNL     1     -10.538  11.313  66.911  1.00  0.00    -0.257 A  
HETATM    6  C   UNL     1     -10.712   9.540  68.490  1.00  0.00    -0.222 A  
HETATM    7  C   UNL     1      -9.193   9.463  66.659  1.00  0.00    -0.153 A  
HETATM    8  C   UNL     1     -11.127  10.792  68.046  1.00  0.00    -0.359 A  
HETATM    9  N   UNL     1      -9.580  10.676  66.207  1.00  0.00    -0.179 NA 
ENDBRANCH   2   4
BRANCH   2  10
HETATM   10  C   UNL     1     -10.415   6.487  68.577  1.00  0.00    -0.220 C  
HETATM   11  O   UNL     1     -11.091   5.914  67.719  1.00  0.00    -0.246 OA 
BRANCH  10  12
HETATM   12  C   UNL     1     -10.713   6.147  69.999  1.00  0.00    -0.370 A  
HETATM   13  C   UNL     1     -10.053   5.165  70.726  1.00  0.00    -0.233 A  
HETATM   14  C   UNL     1     -11.277   5.594  72.635  1.00  0.00    -0.300 A  
HETATM   15  C   UNL     1     -11.980   6.609  72.010  1.00  0.00    -0.361 A  
HETATM   16  N   UNL     1     -10.323   4.864  72.022  1.00  0.00    -0.202 NA 
HETATM   17  C   UNL     1     -11.691   6.888  70.674  1.00  0.00    -0.417 A  
ENDBRANCH  10  12
ENDBRANCH   2  10
TORSDOF 3
ENDMDL
MODEL      167
REMARK 921   NORMALIZED FREE ENERGY PREDICTED BY IDOCK:   -3.57 KCAL/MOL
REMARK 922        TOTAL FREE ENERGY PREDICTED BY IDOCK:   -4.41 KCAL/MOL
REMARK 923 INTER-LIGAND FREE ENERGY PREDICTED BY IDOCK:   -3.88 KCAL/MOL
REMARK 924 INTRA-LIGAND FREE ENERGY PREDICTED BY IDOCK:   -0.52 KCAL/MOL
REMARK 927      BINDING AFFINITY PREDICTED BY RF-SCORE:    0.00 PKD
ROOT
HETATM    1  C   UNL     1     -11.260  10.297  67.714  1.00  0.00    -0.262 C  
HETATM    2  C   UNL     1     -10.223  10.971  66.791  1.00  0.00    -0.272 C  
HETATM    3  C   UNL     1     -10.076  10.050  65.549  1.00  0.00    -0.325 C  
ENDROOT
BRANCH   2   4
HETATM    4  C   UNL     1      -8.830  11.118  67.400  1.00  0.00    -0.139 A  
HETATM    5  C   UNL     1      -6.273  11.464  68.371  1.00  0.00    -0.045 A  
HETATM    6  C   UNL     1      -8.565  10.956  68.770  1.00  0.00    -0.159 A  
HETATM    7  C   UNL     1      -7.733  11.436  66.592  1.00  0.00    -0.129 A  
HETATM    8  C   UNL     1      -7.276  11.137  69.263  1.00  0.00    -0.112 A  
HETATM    9  N   UNL     1      -6.473  11.618  67.046  1.00  0.00    -0.138 NA 
ENDBRANCH   2   4
BRANCH   2  10
HETATM   10  C   UNL     1     -10.824  12.330  66.336  1.00  0.00    -0.264 C  
HETATM   11  O   UNL     1     -11.237  12.500  65.187  1.00  0.00    -0.289 OA 
BRANCH  10  12
HETATM   12  C   UNL     1     -11.020  13.461  67.291  1.00  0.00    -0.286 A  
HETATM   13  C   UNL     1     -11.977  13.482  68.296  1.00  0.00    -0.342 A  
HETATM   14  C   UNL     1     -11.305  15.557  69.049  1.00  0.00    -0.326 A  
HETATM   15  C   UNL     1     -10.305  15.629  68.096  1.00  0.00    -0.246 A  
HETATM   16  N   UNL     1     -12.147  14.510  69.167  1.00  0.00    -0.294 NA 
HETATM   17  C   UNL     1     -10.162  14.564  67.208  1.00  0.00    -0.255 A  
ENDBRANCH  10  12
ENDBRANCH   2  10
TORSDOF 3
ENDMDL
MODEL      168
REMARK 921   NORMALIZED FREE ENERGY PREDICTED BY IDOCK:   -3.54 KCAL/MOL
REMARK 922        TOTAL FREE ENERGY PREDICTED BY IDOCK:   -4.38 KCAL/MOL
REMARK 923 INTER-LIGAND FREE ENERGY PREDICTED BY IDOCK:   -4.56 KCAL/MOL
REMARK 924 INTRA-LIGAND FREE ENERGY PREDICTED BY IDOCK:    0.18 KCAL/MOL
REMARK 927      BINDING AFFINITY PREDICTED BY RF-SCORE:    0.00 PKD
ROOT
HETATM    1  C   UNL     1      -8.898  13.748  67.342  1.00  0.00    -0.211 C  
HETATM    2  C   UNL     1     -10.050  14.695  67.739  1.00  0.00    -0.228 C  
HETATM    3  C   UNL     1     -11.332  14.131  67.069  1.00  0.00    -0.346 C  
ENDROOT
BRANCH   2   4
HETATM    4  C   UNL     1      -9.890  16.132  67.249  1.00  0.00    -0.241 A  
HETATM    5  C   UNL     1      -9.533  18.670  66.231  1.00  0.00    -0.260 A  
HETATM    6  C   UNL     1     -10.634  17.209  67.757  1.00  0.00    -0.360 A  
HETATM    7  C   UNL     1      -8.971  16.438  66.237  1.00  0.00    -0.333 A  
HETATM    8  C   UNL     1     -10.459  18.491  67.240  1.00  0.00    -0.455 A  
HETATM    9  N   UNL     1      -8.784  17.671  65.718  1.00  0.00    -0.434 NA 
ENDBRANCH   2   4
BRANCH   2  10
HETATM   10  C   UNL     1     -10.211  14.603  69.282  1.00  0.00    -0.147 C  
HETATM   11  O   UNL     1      -9.644  15.395  70.038  1.00  0.00    -0.217 OA 
BRANCH  10  12
HETATM   12  C   UNL     1     -11.134  13.617  69.918  1.00  0.00     0.086 A  
HETATM   13  C   UNL     1     -12.111  13.944  70.848  1.00  0.00    -0.313 A  
HETATM   14  C   UNL     1     -12.835  11.760  71.025  1.00  0.00    -0.215 A  
HETATM   15  C   UNL     1     -11.910  11.330  70.090  1.00  0.00    -0.449 A  
HETATM   16  N   UNL     1     -12.953  13.044  71.420  1.00  0.00    -0.334 NA 
HETATM   17  C   UNL     1     -11.050  12.274  69.529  1.00  0.00    -0.101 A  
ENDBRANCH  10  12
ENDBRANCH   2  10
TORSDOF 3
ENDMDL
MODEL      169
REMARK 921   NORMALIZED FREE ENERGY PREDICTED BY IDOCK:   -3.54 KCAL/MOL
REMARK 922        TOTAL FREE ENERGY PREDICTED BY IDOCK:   -4.37 KCAL/MOL
REMARK 923 INTER-LIGAND FREE ENERGY PREDICTED BY IDOCK:   -4.08 KCAL/MOL
REMARK 924 INTRA-LIGAND FREE ENERGY PREDICTED BY IDOCK:   -0.29 KCAL/MOL
REMARK 927      BINDING AFFINITY PREDICTED BY RF-SCORE:    0.00 PKD
ROOT
HETATM    1  C   UNL     1     -10.200  17.003  69.045  1.00  0.00    -0.313 C  
HETATM    2  C   UNL     1      -9.739  16.368  67.715  1.00  0.00    -0.235 C  
HETATM    3  C   UNL     1     -10.884  16.609  66.694  1.00  0.00    -0.024 C  
ENDROOT
BRANCH   2   4
HETATM    4  C   UNL     1      -9.512  14.859  67.777  1.00  0.00    -0.203 A  
HETATM    5  C   UNL     1      -8.947  12.162  67.874  1.00  0.00    -0.184 A  
HETATM    6  C   UNL     1     -10.453  13.957  68.299  1.00  0.00    -0.252 A  
HETATM    7  C   UNL     1      -8.317  14.302  67.306  1.00  0.00    -0.204 A  
HETATM    8  C   UNL     1     -10.167  12.595  68.355  1.00  0.00    -0.233 A  
HETATM    9  N   UNL     1      -8.015  12.986  67.350  1.00  0.00    -0.176 NA 
ENDBRANCH   2   4
BRANCH   2  10
HETATM   10  C   UNL     1      -8.478  17.144  67.246  1.00  0.00    -0.196 C  
HETATM   11  O   UNL     1      -8.180  17.229  66.052  1.00  0.00    -0.488 OA 
BRANCH  10  12
HETATM   12  C   UNL     1      -7.623  17.906  68.203  1.00  0.00    -0.260 A  
HETATM   13  C   UNL     1      -7.748  19.265  68.457  1.00  0.00    -0.345 A  
HETATM   14  C   UNL     1      -6.044  19.247  70.013  1.00  0.00    -0.230 A  
HETATM   15  C   UNL     1      -5.850  17.887  69.852  1.00  0.00    -0.237 A  
HETATM   16  N   UNL     1      -6.971  19.952  69.334  1.00  0.00    -0.304 NA 
HETATM   17  C   UNL     1      -6.653  17.209  68.935  1.00  0.00    -0.199 A  
ENDBRANCH  10  12
ENDBRANCH   2  10
TORSDOF 3
ENDMDL
MODEL      170
REMARK 921   NORMALIZED FREE ENERGY PREDICTED BY IDOCK:   -3.54 KCAL/MOL
REMARK 922        TOTAL FREE ENERGY PREDICTED BY IDOCK:   -4.37 KCAL/MOL
REMARK 923 INTER-LIGAND FREE ENERGY PREDICTED BY IDOCK:   -3.87 KCAL/MOL
REMARK 924 INTRA-LIGAND FREE ENERGY PREDICTED BY IDOCK:   -0.51 KCAL/MOL
REMARK 927      BINDING AFFINITY PREDICTED BY RF-SCORE:    0.00 PKD
ROOT
HETATM    1  C   UNL     1     -10.013  16.538  69.026  1.00  0.00    -0.275 C  
HETATM    2  C   UNL     1      -9.894  16.991  67.555  1.00  0.00    -0.258 C  
HETATM    3  C   UNL     1     -10.959  18.104  67.352  1.00  0.00    -0.113 C  
ENDROOT
BRANCH   2   4
HETATM    4  C   UNL     1     -10.192  15.901  66.528  1.00  0.00    -0.297 A  
HETATM    5  C   UNL     1     -10.742  14.046  64.564  1.00  0.00    -0.336 A  
HETATM    6  C   UNL     1      -9.858  14.550  66.717  1.00  0.00    -0.271 A  
HETATM    7  C   UNL     1     -10.822  16.219  65.319  1.00  0.00    -0.297 A  
HETATM    8  C   UNL     1     -10.129  13.613  65.723  1.00  0.00    -0.311 A  
HETATM    9  N   UNL     1     -11.095  15.329  64.340  1.00  0.00    -0.218 NA 
ENDBRANCH   2   4
BRANCH   2  10
HETATM   10  C   UNL     1      -8.482  17.613  67.377  1.00  0.00    -0.221 C  
HETATM   11  O   UNL     1      -8.299  18.606  66.667  1.00  0.00    -0.268 OA 
BRANCH  10  12
HETATM   12  C   UNL     1      -7.298  17.103  68.129  1.00  0.00    -0.202 A  
HETATM   13  C   UNL     1      -6.907  17.559  69.380  1.00  0.00    -0.140 A  
HETATM   14  C   UNL     1      -5.129  16.092  69.486  1.00  0.00    -0.109 A  
HETATM   15  C   UNL     1      -5.444  15.550  68.253  1.00  0.00    -0.118 A  
HETATM   16  N   UNL     1      -5.833  17.086  70.064  1.00  0.00    -0.227 NA 
HETATM   17  C   UNL     1      -6.545  16.064  67.568  1.00  0.00    -0.207 A  
ENDBRANCH  10  12
ENDBRANCH   2  10
TORSDOF 3
ENDMDL
MODEL      171
REMARK 921   NORMALIZED FREE ENERGY PREDICTED BY IDOCK:   -3.51 KCAL/MOL
REMARK 922        TOTAL FREE ENERGY PREDICTED BY IDOCK:   -4.35 KCAL/MOL
REMARK 923 INTER-LIGAND FREE ENERGY PREDICTED BY IDOCK:   -3.95 KCAL/MOL
REMARK 924 INTRA-LIGAND FREE ENERGY PREDICTED BY IDOCK:   -0.40 KCAL/MOL
REMARK 927      BINDING AFFINITY PREDICTED BY RF-SCORE:    0.00 PKD
ROOT
HETATM    1  C   UNL     1     -10.912  10.276  68.110  1.00  0.00    -0.328 C  
HETATM    2  C   UNL     1      -9.890   9.956  66.997  1.00  0.00    -0.241 C  
HETATM    3  C   UNL     1     -10.179   8.500  66.542  1.00  0.00    -0.286 C  
ENDROOT
BRANCH   2   4
HETATM    4  C   UNL     1      -8.430   9.998  67.444  1.00  0.00    -0.121 A  
HETATM    5  C   UNL     1      -5.814   9.930  68.312  1.00  0.00    -0.042 A  
HETATM    6  C   UNL     1      -7.476  10.865  66.886  1.00  0.00    -0.128 A  
HETATM    7  C   UNL     1      -7.972   9.143  68.453  1.00  0.00    -0.103 A  
HETATM    8  C   UNL     1      -6.153  10.827  67.319  1.00  0.00    -0.056 A  
HETATM    9  N   UNL     1      -6.695   9.086  68.889  1.00  0.00    -0.052 NA 
ENDBRANCH   2   4
BRANCH   2  10
HETATM   10  C   UNL     1     -10.182  10.918  65.813  1.00  0.00    -0.259 C  
HETATM   11  O   UNL     1      -9.961  10.588  64.645  1.00  0.00    -0.308 OA 
BRANCH  10  12
HETATM   12  C   UNL     1     -10.832  12.246  66.020  1.00  0.00    -0.310 A  
HETATM   13  C   UNL     1     -12.105  12.573  65.575  1.00  0.00    -0.419 A  
HETATM   14  C   UNL     1     -11.995  14.697  66.471  1.00  0.00    -0.268 A  
HETATM   15  C   UNL     1     -10.728  14.467  66.977  1.00  0.00    -0.285 A  
HETATM   16  N   UNL     1     -12.695  13.781  65.772  1.00  0.00    -0.480 NA 
HETATM   17  C   UNL     1     -10.142  13.222  66.748  1.00  0.00    -0.258 A  
ENDBRANCH  10  12
ENDBRANCH   2  10
TORSDOF 3
ENDMDL
MODEL      172
REMARK 921   NORMALIZED FREE ENERGY PREDICTED BY IDOCK:   -3.51 KCAL/MOL
REMARK 922        TOTAL FREE ENERGY PREDICTED BY IDOCK:   -4.34 KCAL/MOL
REMARK 923 INTER-LIGAND FREE ENERGY PREDICTED BY IDOCK:   -3.99 KCAL/MOL
REMARK 924 INTRA-LIGAND FREE ENERGY PREDICTED BY IDOCK:   -0.34 KCAL/MOL
REMARK 927      BINDING AFFINITY PREDICTED BY RF-SCORE:    0.00 PKD
ROOT
HETATM    1  C   UNL     1     -10.942   6.329  68.291  1.00  0.00    -0.408 C  
HETATM    2  C   UNL     1     -10.188   7.296  69.228  1.00  0.00    -0.193 C  
HETATM    3  C   UNL     1     -10.638   8.729  68.833  1.00  0.00    -0.178 C  
ENDROOT
BRANCH   2   4
HETATM    4  C   UNL     1      -8.668   7.256  69.093  1.00  0.00    -0.136 A  
HETATM    5  C   UNL     1      -5.940   7.077  68.735  1.00  0.00    -0.022 A  
HETATM    6  C   UNL     1      -7.824   8.278  69.558  1.00  0.00    -0.103 A  
HETATM    7  C   UNL     1      -8.039   6.169  68.476  1.00  0.00    -0.108 A  
HETATM    8  C   UNL     1      -6.446   8.192  69.372  1.00  0.00    -0.035 A  
HETATM    9  N   UNL     1      -6.706   6.062  68.282  1.00  0.00    -0.058 NA 
ENDBRANCH   2   4
BRANCH   2  10
HETATM   10  C   UNL     1     -10.669   7.003  70.677  1.00  0.00    -0.231 C  
HETATM   11  O   UNL     1     -10.038   6.255  71.427  1.00  0.00    -0.188 OA 
BRANCH  10  12
HETATM   12  C   UNL     1     -11.860   7.687  71.263  1.00  0.00    -0.316 A  
HETATM   13  C   UNL     1     -11.826   8.929  71.881  1.00  0.00    -0.370 A  
HETATM   14  C   UNL     1     -14.098   8.917  72.286  1.00  0.00    -0.442 A  
HETATM   15  C   UNL     1     -14.246   7.687  71.670  1.00  0.00    -0.578 A  
HETATM   16  N   UNL     1     -12.913   9.550  72.406  1.00  0.00    -0.367 NA 
HETATM   17  C   UNL     1     -13.110   7.066  71.151  1.00  0.00    -0.260 A  
ENDBRANCH  10  12
ENDBRANCH   2  10
TORSDOF 3
ENDMDL
MODEL      173
REMARK 921   NORMALIZED FREE ENERGY PREDICTED BY IDOCK:   -3.44 KCAL/MOL
REMARK 922        TOTAL FREE ENERGY PREDICTED BY IDOCK:   -4.26 KCAL/MOL
REMARK 923 INTER-LIGAND FREE ENERGY PREDICTED BY IDOCK:   -3.70 KCAL/MOL
REMARK 924 INTRA-LIGAND FREE ENERGY PREDICTED BY IDOCK:   -0.55 KCAL/MOL
REMARK 927      BINDING AFFINITY PREDICTED BY RF-SCORE:    0.00 PKD
ROOT
HETATM    1  C   UNL     1     -10.657   7.653  66.982  1.00  0.00    -0.406 C  
HETATM    2  C   UNL     1     -10.290   8.119  68.407  1.00  0.00    -0.236 C  
HETATM    3  C   UNL     1     -10.887   7.065  69.380  1.00  0.00    -0.253 C  
ENDROOT
BRANCH   2   4
HETATM    4  C   UNL     1     -10.877   9.471  68.805  1.00  0.00    -0.173 A  
HETATM    5  C   UNL     1     -11.898  11.881  69.674  1.00  0.00    -0.337 A  
HETATM    6  C   UNL     1     -11.076  10.524  67.897  1.00  0.00    -0.367 A  
HETATM    7  C   UNL     1     -11.243   9.722  70.133  1.00  0.00    -0.272 A  
HETATM    8  C   UNL     1     -11.585  11.744  68.336  1.00  0.00    -0.380 A  
HETATM    9  N   UNL     1     -11.738  10.896  70.583  1.00  0.00    -0.340 NA 
ENDBRANCH   2   4
BRANCH   2  10
HETATM   10  C   UNL     1      -8.741   8.081  68.520  1.00  0.00    -0.131 C  
HETATM   11  O   UNL     1      -8.108   7.035  68.361  1.00  0.00    -0.121 OA 
BRANCH  10  12
HETATM   12  C   UNL     1      -7.938   9.322  68.728  1.00  0.00    -0.099 A  
HETATM   13  C   UNL     1      -7.634   9.860  69.970  1.00  0.00    -0.172 A  
HETATM   14  C   UNL     1      -6.414  11.590  69.049  1.00  0.00    -0.076 A  
HETATM   15  C   UNL     1      -6.640  11.125  67.766  1.00  0.00    -0.064 A  
HETATM   16  N   UNL     1      -6.896  10.986  70.154  1.00  0.00    -0.187 NA 
HETATM   17  C   UNL     1      -7.411   9.974  67.606  1.00  0.00    -0.090 A  
ENDBRANCH  10  12
ENDBRANCH   2  10
TORSDOF 3
ENDMDL
MODEL      174
REMARK 921   NORMALIZED FREE ENERGY PREDICTED BY IDOCK:   -3.44 KCAL/MOL
REMARK 922        TOTAL FREE ENERGY PREDICTED BY IDOCK:   -4.25 KCAL/MOL
REMARK 923 INTER-LIGAND FREE ENERGY PREDICTED BY IDOCK:   -4.46 KCAL/MOL
REMARK 924 INTRA-LIGAND FREE ENERGY PREDICTED BY IDOCK:    0.21 KCAL/MOL
REMARK 927      BINDING AFFINITY PREDICTED BY RF-SCORE:    0.00 PKD
ROOT
HETATM    1  C   UNL     1     -11.174  11.130  68.074  1.00  0.00    -0.359 C  
HETATM    2  C   UNL     1     -10.350  11.458  66.811  1.00  0.00    -0.271 C  
HETATM    3  C   UNL     1      -9.004  12.052  67.307  1.00  0.00    -0.180 C  
ENDROOT
BRANCH   2   4
HETATM    4  C   UNL     1     -10.983  12.502  65.893  1.00  0.00    -0.314 A  
HETATM    5  C   UNL     1     -11.982  14.454  64.221  1.00  0.00    -0.410 A  
HETATM    6  C   UNL     1     -12.208  12.310  65.234  1.00  0.00    -0.313 A  
HETATM    7  C   UNL     1     -10.341  13.724  65.661  1.00  0.00    -0.311 A  
HETATM    8  C   UNL     1     -12.711  13.292  64.385  1.00  0.00    -0.188 A  
HETATM    9  N   UNL     1     -10.807  14.692  64.841  1.00  0.00    -0.411 NA 
ENDBRANCH   2   4
BRANCH   2  10
HETATM   10  C   UNL     1     -10.066  10.115  66.084  1.00  0.00    -0.246 C  
HETATM   11  O   UNL     1     -10.502   9.044  66.513  1.00  0.00    -0.234 OA 
BRANCH  10  12
HETATM   12  C   UNL     1      -9.336  10.065  64.782  1.00  0.00    -0.330 A  
HETATM   13  C   UNL     1      -9.340  11.084  63.841  1.00  0.00    -0.211 A  
HETATM   14  C   UNL     1      -7.934   9.932  62.419  1.00  0.00    -0.119 A  
HETATM   15  C   UNL     1      -7.844   8.867  63.298  1.00  0.00    -0.143 A  
HETATM   16  N   UNL     1      -8.669  11.037  62.661  1.00  0.00    -0.266 NA 
HETATM   17  C   UNL     1      -8.555   8.938  64.496  1.00  0.00    -0.155 A  
ENDBRANCH  10  12
ENDBRANCH   2  10
TORSDOF 3
ENDMDL
MODEL      175
REMARK 921   NORMALIZED FREE ENERGY PREDICTED BY IDOCK:   -3.43 KCAL/MOL
REMARK 922        TOTAL FREE ENERGY PREDICTED BY IDOCK:   -4.24 KCAL/MOL
REMARK 923 INTER-LIGAND FREE ENERGY PREDICTED BY IDOCK:   -3.64 KCAL/MOL
REMARK 924 INTRA-LIGAND FREE ENERGY PREDICTED BY IDOCK:   -0.60 KCAL/MOL
REMARK 927      BINDING AFFINITY PREDICTED BY RF-SCORE:    0.00 PKD
ROOT
HETATM    1  C   UNL     1     -11.839   7.379  70.737  1.00  0.00    -0.288 C  
HETATM    2  C   UNL     1     -10.624   6.486  70.407  1.00  0.00    -0.282 C  
HETATM    3  C   UNL     1     -10.835   5.977  68.955  1.00  0.00    -0.412 C  
ENDROOT
BRANCH   2   4
HETATM    4  C   UNL     1     -10.484   5.250  71.294  1.00  0.00    -0.274 A  
HETATM    5  C   UNL     1     -10.345   3.080  72.989  1.00  0.00    -0.159 A  
HETATM    6  C   UNL     1      -9.908   4.047  70.857  1.00  0.00    -0.229 A  
HETATM    7  C   UNL     1     -10.946   5.270  72.615  1.00  0.00    -0.260 A  
HETATM    8  C   UNL     1      -9.843   2.947  71.709  1.00  0.00    -0.218 A  
HETATM    9  N   UNL     1     -10.896   4.218  73.461  1.00  0.00    -0.240 NA 
ENDBRANCH   2   4
BRANCH   2  10
HETATM   10  C   UNL     1      -9.362   7.392  70.441  1.00  0.00    -0.161 C  
HETATM   11  O   UNL     1      -9.064   8.118  69.489  1.00  0.00    -0.150 OA 
BRANCH  10  12
HETATM   12  C   UNL     1      -8.506   7.503  71.658  1.00  0.00    -0.119 A  
HETATM   13  C   UNL     1      -8.794   8.311  72.749  1.00  0.00    -0.239 A  
HETATM   14  C   UNL     1      -6.910   7.631  73.895  1.00  0.00    -0.086 A  
HETATM   15  C   UNL     1      -6.541   6.776  72.872  1.00  0.00    -0.066 A  
HETATM   16  N   UNL     1      -8.015   8.402  73.858  1.00  0.00    -0.372 NA 
HETATM   17  C   UNL     1      -7.353   6.712  71.740  1.00  0.00    -0.086 A  
ENDBRANCH  10  12
ENDBRANCH   2  10
TORSDOF 3
ENDMDL
MODEL      176
REMARK 921   NORMALIZED FREE ENERGY PREDICTED BY IDOCK:   -3.42 KCAL/MOL
REMARK 922        TOTAL FREE ENERGY PREDICTED BY IDOCK:   -4.23 KCAL/MOL
REMARK 923 INTER-LIGAND FREE ENERGY PREDICTED BY IDOCK:   -3.81 KCAL/MOL
REMARK 924 INTRA-LIGAND FREE ENERGY PREDICTED BY IDOCK:   -0.42 KCAL/MOL
REMARK 927      BINDING AFFINITY PREDICTED BY RF-SCORE:    0.00 PKD
ROOT
HETATM    1  C   UNL     1     -10.917   9.216  69.475  1.00  0.00    -0.138 C  
HETATM    2  C   UNL     1      -9.937   8.103  69.047  1.00  0.00    -0.191 C  
HETATM    3  C   UNL     1      -8.774   8.123  70.076  1.00  0.00    -0.131 C  
ENDROOT
BRANCH   2   4
HETATM    4  C   UNL     1      -9.311   8.304  67.668  1.00  0.00    -0.158 A  
HETATM    5  C   UNL     1      -8.100   8.531  65.202  1.00  0.00    -0.142 A  
HETATM    6  C   UNL     1      -9.868   9.131  66.680  1.00  0.00    -0.307 A  
HETATM    7  C   UNL     1      -8.125   7.644  67.325  1.00  0.00    -0.119 A  
HETATM    8  C   UNL     1      -9.262   9.242  65.431  1.00  0.00    -0.284 A  
HETATM    9  N   UNL     1      -7.518   7.734  66.122  1.00  0.00    -0.078 NA 
ENDBRANCH   2   4
BRANCH   2  10
HETATM   10  C   UNL     1     -10.691   6.751  69.171  1.00  0.00    -0.253 C  
HETATM   11  O   UNL     1     -11.166   6.184  68.184  1.00  0.00    -0.314 OA 
BRANCH  10  12
HETATM   12  C   UNL     1     -10.794   6.025  70.472  1.00  0.00    -0.382 A  
HETATM   13  C   UNL     1     -11.633   6.397  71.513  1.00  0.00    -0.310 A  
HETATM   14  C   UNL     1     -10.974   4.621  72.831  1.00  0.00    -0.210 A  
HETATM   15  C   UNL     1     -10.121   4.150  71.848  1.00  0.00    -0.224 A  
HETATM   16  N   UNL     1     -11.728   5.729  72.692  1.00  0.00    -0.266 NA 
HETATM   17  C   UNL     1     -10.033   4.864  70.652  1.00  0.00    -0.305 A  
ENDBRANCH  10  12
ENDBRANCH   2  10
TORSDOF 3
ENDMDL
MODEL      177
REMARK 921   NORMALIZED FREE ENERGY PREDICTED BY IDOCK:   -3.41 KCAL/MOL
REMARK 922        TOTAL FREE ENERGY PREDICTED BY IDOCK:   -4.22 KCAL/MOL
REMARK 923 INTER-LIGAND FREE ENERGY PREDICTED BY IDOCK:   -3.60 KCAL/MOL
REMARK 924 INTRA-LIGAND FREE ENERGY PREDICTED BY IDOCK:   -0.62 KCAL/MOL
REMARK 927      BINDING AFFINITY PREDICTED BY RF-SCORE:    0.00 PKD
ROOT
HETATM    1  C   UNL     1     -10.995   6.739  68.809  1.00  0.00    -0.267 C  
HETATM    2  C   UNL     1     -10.339   7.866  69.635  1.00  0.00    -0.216 C  
HETATM    3  C   UNL     1     -10.508   9.171  68.810  1.00  0.00    -0.236 C  
ENDROOT
BRANCH   2   4
HETATM    4  C   UNL     1      -8.842   7.688  69.879  1.00  0.00    -0.143 A  
HETATM    5  C   UNL     1      -6.143   7.498  70.406  1.00  0.00    -0.030 A  
HETATM    6  C   UNL     1      -8.172   6.465  69.710  1.00  0.00    -0.126 A  
HETATM    7  C   UNL     1      -8.058   8.769  70.300  1.00  0.00    -0.116 A  
HETATM    8  C   UNL     1      -6.810   6.366  69.982  1.00  0.00    -0.054 A  
HETATM    9  N   UNL     1      -6.737   8.698  70.571  1.00  0.00    -0.037 NA 
ENDBRANCH   2   4
BRANCH   2  10
HETATM   10  C   UNL     1     -11.149   8.001  70.954  1.00  0.00    -0.255 C  
HETATM   11  O   UNL     1     -12.038   8.846  71.082  1.00  0.00    -0.291 OA 
BRANCH  10  12
HETATM   12  C   UNL     1     -10.959   7.055  72.093  1.00  0.00    -0.267 A  
HETATM   13  C   UNL     1     -11.363   5.727  72.086  1.00  0.00    -0.258 A  
HETATM   14  C   UNL     1     -10.541   5.346  74.208  1.00  0.00    -0.195 A  
HETATM   15  C   UNL     1     -10.079   6.646  74.311  1.00  0.00    -0.378 A  
HETATM   16  N   UNL     1     -11.181   4.868  73.122  1.00  0.00    -0.317 NA 
HETATM   17  C   UNL     1     -10.291   7.510  73.237  1.00  0.00    -0.412 A  
ENDBRANCH  10  12
ENDBRANCH   2  10
TORSDOF 3
ENDMDL
MODEL      178
REMARK 921   NORMALIZED FREE ENERGY PREDICTED BY IDOCK:   -3.40 KCAL/MOL
REMARK 922        TOTAL FREE ENERGY PREDICTED BY IDOCK:   -4.21 KCAL/MOL
REMARK 923 INTER-LIGAND FREE ENERGY PREDICTED BY IDOCK:   -3.98 KCAL/MOL
REMARK 924 INTRA-LIGAND FREE ENERGY PREDICTED BY IDOCK:   -0.23 KCAL/MOL
REMARK 927      BINDING AFFINITY PREDICTED BY RF-SCORE:    0.00 PKD
ROOT
HETATM    1  C   UNL     1      -9.927   7.631  68.931  1.00  0.00    -0.178 C  
HETATM    2  C   UNL     1     -10.560   7.271  70.292  1.00  0.00    -0.243 C  
HETATM    3  C   UNL     1     -11.395   5.982  70.060  1.00  0.00    -0.354 C  
ENDROOT
BRANCH   2   4
HETATM    4  C   UNL     1     -11.516   8.324  70.847  1.00  0.00    -0.296 A  
HETATM    5  C   UNL     1     -13.216  10.312  71.719  1.00  0.00    -0.430 A  
HETATM    6  C   UNL     1     -12.470   8.054  71.842  1.00  0.00    -0.364 A  
HETATM    7  C   UNL     1     -11.481   9.638  70.365  1.00  0.00    -0.263 A  
HETATM    8  C   UNL     1     -13.333   9.056  72.279  1.00  0.00    -0.523 A  
HETATM    9  N   UNL     1     -12.308  10.626  70.772  1.00  0.00    -0.342 NA 
ENDBRANCH   2   4
BRANCH   2  10
HETATM   10  C   UNL     1      -9.397   6.944  71.269  1.00  0.00    -0.164 C  
HETATM   11  O   UNL     1      -9.439   5.964  72.018  1.00  0.00    -0.151 OA 
BRANCH  10  12
HETATM   12  C   UNL     1      -8.133   7.739  71.281  1.00  0.00    -0.096 A  
HETATM   13  C   UNL     1      -8.073   9.119  71.151  1.00  0.00    -0.085 A  
HETATM   14  C   UNL     1      -5.775   9.154  71.356  1.00  0.00    -0.063 A  
HETATM   15  C   UNL     1      -5.724   7.780  71.518  1.00  0.00    -0.035 A  
HETATM   16  N   UNL     1      -6.921   9.838  71.170  1.00  0.00    -0.330 NA 
HETATM   17  C   UNL     1      -6.921   7.066  71.481  1.00  0.00    -0.065 A  
ENDBRANCH  10  12
ENDBRANCH   2  10
TORSDOF 3
ENDMDL
MODEL      179
REMARK 921   NORMALIZED FREE ENERGY PREDICTED BY IDOCK:   -3.38 KCAL/MOL
REMARK 922        TOTAL FREE ENERGY PREDICTED BY IDOCK:   -4.19 KCAL/MOL
REMARK 923 INTER-LIGAND FREE ENERGY PREDICTED BY IDOCK:   -4.01 KCAL/MOL
REMARK 924 INTRA-LIGAND FREE ENERGY PREDICTED BY IDOCK:   -0.17 KCAL/MOL
REMARK 927      BINDING AFFINITY PREDICTED BY RF-SCORE:    0.00 PKD
ROOT
HETATM    1  C   UNL     1     -11.090   6.393  68.737  1.00  0.00    -0.404 C  
HETATM    2  C   UNL     1     -10.047   7.520  68.576  1.00  0.00    -0.198 C  
HETATM    3  C   UNL     1     -10.649   8.534  67.566  1.00  0.00    -0.284 C  
ENDROOT
BRANCH   2   4
HETATM    4  C   UNL     1      -8.705   7.068  68.003  1.00  0.00    -0.126 A  
HETATM    5  C   UNL     1      -6.249   6.404  66.940  1.00  0.00    -0.040 A  
HETATM    6  C   UNL     1      -8.130   5.816  68.278  1.00  0.00    -0.108 A  
HETATM    7  C   UNL     1      -7.973   7.913  67.162  1.00  0.00    -0.117 A  
HETATM    8  C   UNL     1      -6.887   5.482  67.747  1.00  0.00    -0.064 A  
HETATM    9  N   UNL     1      -6.765   7.613  66.636  1.00  0.00    -0.060 NA 
ENDBRANCH   2   4
BRANCH   2  10
HETATM   10  C   UNL     1      -9.904   8.216  69.958  1.00  0.00    -0.182 C  
HETATM   11  O   UNL     1      -8.894   8.072  70.651  1.00  0.00    -0.139 OA 
BRANCH  10  12
HETATM   12  C   UNL     1     -10.934   9.167  70.469  1.00  0.00    -0.307 A  
HETATM   13  C   UNL     1     -11.046  10.492  70.069  1.00  0.00    -0.308 A  
HETATM   14  C   UNL     1     -12.884  10.862  71.414  1.00  0.00    -0.449 A  
HETATM   15  C   UNL     1     -12.875   9.554  71.863  1.00  0.00    -0.508 A  
HETATM   16  N   UNL     1     -11.991  11.352  70.531  1.00  0.00    -0.365 NA 
HETATM   17  C   UNL     1     -11.887   8.696  71.381  1.00  0.00    -0.352 A  
ENDBRANCH  10  12
ENDBRANCH   2  10
TORSDOF 3
ENDMDL
MODEL      180
REMARK 921   NORMALIZED FREE ENERGY PREDICTED BY IDOCK:   -3.37 KCAL/MOL
REMARK 922        TOTAL FREE ENERGY PREDICTED BY IDOCK:   -4.17 KCAL/MOL
REMARK 923 INTER-LIGAND FREE ENERGY PREDICTED BY IDOCK:   -3.74 KCAL/MOL
REMARK 924 INTRA-LIGAND FREE ENERGY PREDICTED BY IDOCK:   -0.43 KCAL/MOL
REMARK 927      BINDING AFFINITY PREDICTED BY RF-SCORE:    0.00 PKD
ROOT
HETATM    1  C   UNL     1     -10.196   8.957  68.230  1.00  0.00    -0.239 C  
HETATM    2  C   UNL     1     -10.348   8.350  69.641  1.00  0.00    -0.218 C  
HETATM    3  C   UNL     1     -11.397   9.223  70.383  1.00  0.00    -0.283 C  
ENDROOT
BRANCH   2   4
HETATM    4  C   UNL     1      -9.075   8.375  70.485  1.00  0.00    -0.163 A  
HETATM    5  C   UNL     1      -6.864   8.379  72.132  1.00  0.00    -0.086 A  
HETATM    6  C   UNL     1      -7.784   8.298  69.937  1.00  0.00    -0.097 A  
HETATM    7  C   UNL     1      -9.150   8.473  71.879  1.00  0.00    -0.244 A  
HETATM    8  C   UNL     1      -6.666   8.294  70.768  1.00  0.00    -0.038 A  
HETATM    9  N   UNL     1      -8.082   8.469  72.706  1.00  0.00    -0.373 NA 
ENDBRANCH   2   4
BRANCH   2  10
HETATM   10  C   UNL     1     -10.923   6.917  69.468  1.00  0.00    -0.250 C  
HETATM   11  O   UNL     1     -11.887   6.525  70.129  1.00  0.00    -0.416 OA 
BRANCH  10  12
HETATM   12  C   UNL     1     -10.402   5.982  68.427  1.00  0.00    -0.252 A  
HETATM   13  C   UNL     1      -9.386   5.060  68.639  1.00  0.00    -0.130 A  
HETATM   14  C   UNL     1      -9.514   4.252  66.482  1.00  0.00    -0.185 A  
HETATM   15  C   UNL     1     -10.548   5.117  66.171  1.00  0.00    -0.293 A  
HETATM   16  N   UNL     1      -8.920   4.206  67.691  1.00  0.00    -0.114 NA 
HETATM   17  C   UNL     1     -10.997   5.992  67.160  1.00  0.00    -0.360 A  
ENDBRANCH  10  12
ENDBRANCH   2  10
TORSDOF 3
ENDMDL
MODEL      181
REMARK 921   NORMALIZED FREE ENERGY PREDICTED BY IDOCK:   -3.35 KCAL/MOL
REMARK 922        TOTAL FREE ENERGY PREDICTED BY IDOCK:   -4.15 KCAL/MOL
REMARK 923 INTER-LIGAND FREE ENERGY PREDICTED BY IDOCK:   -3.98 KCAL/MOL
REMARK 924 INTRA-LIGAND FREE ENERGY PREDICTED BY IDOCK:   -0.18 KCAL/MOL
REMARK 927      BINDING AFFINITY PREDICTED BY RF-SCORE:    0.00 PKD
ROOT
HETATM    1  C   UNL     1      -8.565  11.639  68.018  1.00  0.00    -0.152 C  
HETATM    2  C   UNL     1      -9.640  10.572  68.315  1.00  0.00    -0.164 C  
HETATM    3  C   UNL     1      -9.494  10.208  69.817  1.00  0.00    -0.201 C  
ENDROOT
BRANCH   2   4
HETATM    4  C   UNL     1      -9.480   9.273  67.527  1.00  0.00    -0.160 A  
HETATM    5  C   UNL     1      -9.281   6.856  66.215  1.00  0.00    -0.120 A  
HETATM    6  C   UNL     1      -9.102   9.230  66.176  1.00  0.00    -0.224 A  
HETATM    7  C   UNL     1      -9.719   8.038  68.141  1.00  0.00    -0.160 A  
HETATM    8  C   UNL     1      -9.007   8.011  65.510  1.00  0.00    -0.046 A  
HETATM    9  N   UNL     1      -9.635   6.843  67.518  1.00  0.00    -0.126 NA 
ENDBRANCH   2   4
BRANCH   2  10
HETATM   10  C   UNL     1     -11.026  11.239  68.094  1.00  0.00    -0.231 C  
HETATM   11  O   UNL     1     -11.772  10.888  67.178  1.00  0.00    -0.393 OA 
BRANCH  10  12
HETATM   12  C   UNL     1     -11.562  12.267  69.035  1.00  0.00    -0.368 A  
HETATM   13  C   UNL     1     -12.243  11.976  70.208  1.00  0.00    -0.266 A  
HETATM   14  C   UNL     1     -12.488  14.206  70.753  1.00  0.00    -0.366 A  
HETATM   15  C   UNL     1     -11.801  14.604  69.620  1.00  0.00    -0.367 A  
HETATM   16  N   UNL     1     -12.723  12.915  71.065  1.00  0.00    -0.305 NA 
HETATM   17  C   UNL     1     -11.331  13.619  68.752  1.00  0.00    -0.326 A  
ENDBRANCH  10  12
ENDBRANCH   2  10
TORSDOF 3
ENDMDL
MODEL      182
REMARK 921   NORMALIZED FREE ENERGY PREDICTED BY IDOCK:   -3.34 KCAL/MOL
REMARK 922        TOTAL FREE ENERGY PREDICTED BY IDOCK:   -4.14 KCAL/MOL
REMARK 923 INTER-LIGAND FREE ENERGY PREDICTED BY IDOCK:   -3.59 KCAL/MOL
REMARK 924 INTRA-LIGAND FREE ENERGY PREDICTED BY IDOCK:   -0.55 KCAL/MOL
REMARK 927      BINDING AFFINITY PREDICTED BY RF-SCORE:    0.00 PKD
ROOT
HETATM    1  C   UNL     1     -11.007   6.790  67.740  1.00  0.00    -0.321 C  
HETATM    2  C   UNL     1     -10.081   8.017  67.884  1.00  0.00    -0.243 C  
HETATM    3  C   UNL     1     -10.139   8.772  66.528  1.00  0.00    -0.349 C  
ENDROOT
BRANCH   2   4
HETATM    4  C   UNL     1      -8.614   7.680  68.140  1.00  0.00    -0.123 A  
HETATM    5  C   UNL     1      -5.994   6.923  68.551  1.00  0.00    -0.025 A  
HETATM    6  C   UNL     1      -7.606   8.651  68.256  1.00  0.00    -0.097 A  
HETATM    7  C   UNL     1      -8.204   6.347  68.266  1.00  0.00    -0.116 A  
HETATM    8  C   UNL     1      -6.282   8.271  68.457  1.00  0.00    -0.053 A  
HETATM    9  N   UNL     1      -6.927   5.952  68.460  1.00  0.00    -0.073 NA 
ENDBRANCH   2   4
BRANCH   2  10
HETATM   10  C   UNL     1     -10.688   8.926  68.989  1.00  0.00    -0.126 C  
HETATM   11  O   UNL     1     -11.201  10.014  68.719  1.00  0.00    -0.205 OA 
BRANCH  10  12
HETATM   12  C   UNL     1     -10.768   8.485  70.413  1.00  0.00    -0.246 A  
HETATM   13  C   UNL     1     -11.787   7.700  70.934  1.00  0.00    -0.250 A  
HETATM   14  C   UNL     1     -10.839   7.666  73.038  1.00  0.00    -0.400 A  
HETATM   15  C   UNL     1      -9.766   8.430  72.616  1.00  0.00    -0.332 A  
HETATM   16  N   UNL     1     -11.852   7.295  72.230  1.00  0.00    -0.272 NA 
HETATM   17  C   UNL     1      -9.732   8.842  71.284  1.00  0.00    -0.359 A  
ENDBRANCH  10  12
ENDBRANCH   2  10
TORSDOF 3
ENDMDL
MODEL      183
REMARK 921   NORMALIZED FREE ENERGY PREDICTED BY IDOCK:   -3.31 KCAL/MOL
REMARK 922        TOTAL FREE ENERGY PREDICTED BY IDOCK:   -4.10 KCAL/MOL
REMARK 923 INTER-LIGAND FREE ENERGY PREDICTED BY IDOCK:   -3.51 KCAL/MOL
REMARK 924 INTRA-LIGAND FREE ENERGY PREDICTED BY IDOCK:   -0.59 KCAL/MOL
REMARK 927      BINDING AFFINITY PREDICTED BY RF-SCORE:    0.00 PKD
ROOT
HETATM    1  C   UNL     1     -11.392   6.281  69.913  1.00  0.00    -0.504 C  
HETATM    2  C   UNL     1     -10.309   6.116  68.826  1.00  0.00    -0.256 C  
HETATM    3  C   UNL     1     -10.989   6.460  67.473  1.00  0.00    -0.454 C  
ENDROOT
BRANCH   2   4
HETATM    4  C   UNL     1      -9.752   4.700  68.693  1.00  0.00    -0.217 A  
HETATM    5  C   UNL     1      -8.669   2.191  68.325  1.00  0.00    -0.093 A  
HETATM    6  C   UNL     1      -9.710   3.784  69.757  1.00  0.00    -0.193 A  
HETATM    7  C   UNL     1      -9.240   4.251  67.470  1.00  0.00    -0.150 A  
HETATM    8  C   UNL     1      -9.157   2.519  69.574  1.00  0.00    -0.185 A  
HETATM    9  N   UNL     1      -8.698   3.030  67.268  1.00  0.00    -0.114 NA 
ENDBRANCH   2   4
BRANCH   2  10
HETATM   10  C   UNL     1      -9.204   7.170  69.112  1.00  0.00    -0.139 C  
HETATM   11  O   UNL     1      -8.713   7.852  68.208  1.00  0.00    -0.130 OA 
BRANCH  10  12
HETATM   12  C   UNL     1      -8.752   7.478  70.501  1.00  0.00    -0.146 A  
HETATM   13  C   UNL     1      -9.206   8.553  71.253  1.00  0.00    -0.200 A  
HETATM   14  C   UNL     1      -7.915   7.970  73.075  1.00  0.00    -0.155 A  
HETATM   15  C   UNL     1      -7.415   6.857  72.421  1.00  0.00    -0.087 A  
HETATM   16  N   UNL     1      -8.797   8.825  72.519  1.00  0.00    -0.389 NA 
HETATM   17  C   UNL     1      -7.843   6.610  71.117  1.00  0.00    -0.102 A  
ENDBRANCH  10  12
ENDBRANCH   2  10
TORSDOF 3
ENDMDL
MODEL      184
REMARK 921   NORMALIZED FREE ENERGY PREDICTED BY IDOCK:   -3.28 KCAL/MOL
REMARK 922        TOTAL FREE ENERGY PREDICTED BY IDOCK:   -4.07 KCAL/MOL
REMARK 923 INTER-LIGAND FREE ENERGY PREDICTED BY IDOCK:   -3.57 KCAL/MOL
REMARK 924 INTRA-LIGAND FREE ENERGY PREDICTED BY IDOCK:   -0.50 KCAL/MOL
REMARK 927      BINDING AFFINITY PREDICTED BY RF-SCORE:    0.00 PKD
ROOT
HETATM    1  C   UNL     1     -10.232   9.061  66.131  1.00  0.00    -0.141 C  
HETATM    2  C   UNL     1      -9.563   9.904  67.237  1.00  0.00    -0.195 C  
HETATM    3  C   UNL     1      -8.315   9.105  67.702  1.00  0.00    -0.116 C  
ENDROOT
BRANCH   2   4
HETATM    4  C   UNL     1     -10.429  10.132  68.475  1.00  0.00    -0.221 A  
HETATM    5  C   UNL     1     -11.866  10.506  70.797  1.00  0.00    -0.365 A  
HETATM    6  C   UNL     1     -11.617  10.879  68.459  1.00  0.00    -0.360 A  
HETATM    7  C   UNL     1     -10.054   9.593  69.711  1.00  0.00    -0.233 A  
HETATM    8  C   UNL     1     -12.341  11.075  69.632  1.00  0.00    -0.303 A  
HETATM    9  N   UNL     1     -10.738   9.768  70.863  1.00  0.00    -0.321 NA 
ENDBRANCH   2   4
BRANCH   2  10
HETATM   10  C   UNL     1      -9.091  11.232  66.584  1.00  0.00    -0.179 C  
HETATM   11  O   UNL     1      -9.225  11.440  65.375  1.00  0.00    -0.210 OA 
BRANCH  10  12
HETATM   12  C   UNL     1      -8.544  12.358  67.398  1.00  0.00    -0.181 A  
HETATM   13  C   UNL     1      -7.220  12.463  67.800  1.00  0.00    -0.119 A  
HETATM   14  C   UNL     1      -7.584  14.481  68.860  1.00  0.00    -0.138 A  
HETATM   15  C   UNL     1      -8.917  14.485  68.492  1.00  0.00    -0.188 A  
HETATM   16  N   UNL     1      -6.725  13.494  68.535  1.00  0.00    -0.087 NA 
HETATM   17  C   UNL     1      -9.401  13.408  67.749  1.00  0.00    -0.211 A  
ENDBRANCH  10  12
ENDBRANCH   2  10
TORSDOF 3
ENDMDL
MODEL      185
REMARK 921   NORMALIZED FREE ENERGY PREDICTED BY IDOCK:   -3.23 KCAL/MOL
REMARK 922        TOTAL FREE ENERGY PREDICTED BY IDOCK:   -4.02 KCAL/MOL
REMARK 923 INTER-LIGAND FREE ENERGY PREDICTED BY IDOCK:   -3.55 KCAL/MOL
REMARK 924 INTRA-LIGAND FREE ENERGY PREDICTED BY IDOCK:   -0.47 KCAL/MOL
REMARK 927      BINDING AFFINITY PREDICTED BY RF-SCORE:    0.00 PKD
ROOT
HETATM    1  C   UNL     1     -11.007   6.297  68.144  1.00  0.00    -0.412 C  
HETATM    2  C   UNL     1     -10.531   6.888  69.488  1.00  0.00    -0.244 C  
HETATM    3  C   UNL     1     -11.244   6.074  70.602  1.00  0.00    -0.347 C  
ENDROOT
BRANCH   2   4
HETATM    4  C   UNL     1     -10.901   8.354  69.705  1.00  0.00    -0.184 A  
HETATM    5  C   UNL     1     -11.575  11.017  69.940  1.00  0.00    -0.337 A  
HETATM    6  C   UNL     1     -11.432   8.846  70.909  1.00  0.00    -0.339 A  
HETATM    7  C   UNL     1     -10.727   9.289  68.678  1.00  0.00    -0.143 A  
HETATM    8  C   UNL     1     -11.779  10.190  71.027  1.00  0.00    -0.470 A  
HETATM    9  N   UNL     1     -11.056  10.596  68.768  1.00  0.00    -0.246 NA 
ENDBRANCH   2   4
BRANCH   2  10
HETATM   10  C   UNL     1      -9.001   6.636  69.587  1.00  0.00    -0.142 C  
HETATM   11  O   UNL     1      -8.333   6.328  68.597  1.00  0.00    -0.111 OA 
BRANCH  10  12
HETATM   12  C   UNL     1      -8.249   6.849  70.859  1.00  0.00    -0.118 A  
HETATM   13  C   UNL     1      -7.625   8.038  71.211  1.00  0.00    -0.081 A  
HETATM   14  C   UNL     1      -6.916   7.196  73.240  1.00  0.00    -0.072 A  
HETATM   15  C   UNL     1      -7.522   5.976  72.997  1.00  0.00    -0.094 A  
HETATM   16  N   UNL     1      -6.948   8.229  72.374  1.00  0.00    -0.087 NA 
HETATM   17  C   UNL     1      -8.199   5.804  71.789  1.00  0.00    -0.119 A  
ENDBRANCH  10  12
ENDBRANCH   2  10
TORSDOF 3
ENDMDL
MODEL      186
REMARK 921   NORMALIZED FREE ENERGY PREDICTED BY IDOCK:   -3.23 KCAL/MOL
REMARK 922        TOTAL FREE ENERGY PREDICTED BY IDOCK:   -4.01 KCAL/MOL
REMARK 923 INTER-LIGAND FREE ENERGY PREDICTED BY IDOCK:   -3.50 KCAL/MOL
REMARK 924 INTRA-LIGAND FREE ENERGY PREDICTED BY IDOCK:   -0.51 KCAL/MOL
REMARK 927      BINDING AFFINITY PREDICTED BY RF-SCORE:    0.00 PKD
ROOT
HETATM    1  C   UNL     1      -9.825   4.300  70.183  1.00  0.00    -0.271 C  
HETATM    2  C   UNL     1      -9.474   5.143  68.938  1.00  0.00    -0.184 C  
HETATM    3  C   UNL     1      -9.554   4.182  67.721  1.00  0.00    -0.208 C  
ENDROOT
BRANCH   2   4
HETATM    4  C   UNL     1      -8.065   5.732  68.946  1.00  0.00    -0.102 A  
HETATM    5  C   UNL     1      -5.476   6.674  69.052  1.00  0.00    -0.017 A  
HETATM    6  C   UNL     1      -7.607   6.651  67.989  1.00  0.00    -0.107 A  
HETATM    7  C   UNL     1      -7.147   5.360  69.935  1.00  0.00    -0.062 A  
HETATM    8  C   UNL     1      -6.298   7.123  68.037  1.00  0.00    -0.044 A  
HETATM    9  N   UNL     1      -5.872   5.803  70.003  1.00  0.00    -0.023 NA 
ENDBRANCH   2   4
BRANCH   2  10
HETATM   10  C   UNL     1     -10.576   6.228  68.792  1.00  0.00    -0.262 C  
HETATM   11  O   UNL     1     -11.215   6.361  67.745  1.00  0.00    -0.323 OA 
BRANCH  10  12
HETATM   12  C   UNL     1     -10.982   7.096  69.936  1.00  0.00    -0.278 A  
HETATM   13  C   UNL     1     -10.327   8.261  70.309  1.00  0.00    -0.209 A  
HETATM   14  C   UNL     1     -11.806   8.679  72.030  1.00  0.00    -0.372 A  
HETATM   15  C   UNL     1     -12.545   7.549  71.730  1.00  0.00    -0.363 A  
HETATM   16  N   UNL     1     -10.705   9.052  71.347  1.00  0.00    -0.303 NA 
HETATM   17  C   UNL     1     -12.126   6.749  70.667  1.00  0.00    -0.371 A  
ENDBRANCH  10  12
ENDBRANCH   2  10
TORSDOF 3
ENDMDL
MODEL      187
REMARK 921   NORMALIZED FREE ENERGY PREDICTED BY IDOCK:   -3.20 KCAL/MOL
REMARK 922        TOTAL FREE ENERGY PREDICTED BY IDOCK:   -3.97 KCAL/MOL
REMARK 923 INTER-LIGAND FREE ENERGY PREDICTED BY IDOCK:   -3.44 KCAL/MOL
REMARK 924 INTRA-LIGAND FREE ENERGY PREDICTED BY IDOCK:   -0.53 KCAL/MOL
REMARK 927      BINDING AFFINITY PREDICTED BY RF-SCORE:    0.00 PKD
ROOT
HETATM    1  C   UNL     1      -8.041   9.491  69.965  1.00  0.00    -0.176 C  
HETATM    2  C   UNL     1      -9.172   9.553  68.916  1.00  0.00    -0.145 C  
HETATM    3  C   UNL     1     -10.494   9.746  69.708  1.00  0.00    -0.278 C  
ENDROOT
BRANCH   2   4
HETATM    4  C   UNL     1      -9.336   8.284  68.082  1.00  0.00    -0.140 A  
HETATM    5  C   UNL     1      -9.780   6.041  66.542  1.00  0.00    -0.149 A  
HETATM    6  C   UNL     1      -8.254   7.527  67.606  1.00  0.00    -0.118 A  
HETATM    7  C   UNL     1     -10.612   7.818  67.745  1.00  0.00    -0.185 A  
HETATM    8  C   UNL     1      -8.476   6.398  66.823  1.00  0.00    -0.112 A  
HETATM    9  N   UNL     1     -10.854   6.727  66.986  1.00  0.00    -0.376 NA 
ENDBRANCH   2   4
BRANCH   2  10
HETATM   10  C   UNL     1      -8.923  10.815  68.044  1.00  0.00    -0.139 C  
HETATM   11  O   UNL     1      -8.331  11.801  68.490  1.00  0.00    -0.156 OA 
BRANCH  10  12
HETATM   12  C   UNL     1      -9.299  10.859  66.600  1.00  0.00    -0.191 A  
HETATM   13  C   UNL     1      -8.441  10.541  65.556  1.00  0.00    -0.173 A  
HETATM   14  C   UNL     1     -10.063  10.916  63.958  1.00  0.00    -0.358 A  
HETATM   15  C   UNL     1     -11.004  11.231  64.922  1.00  0.00    -0.243 A  
HETATM   16  N   UNL     1      -8.790  10.576  64.244  1.00  0.00    -0.193 NA 
HETATM   17  C   UNL     1     -10.614  11.199  66.261  1.00  0.00    -0.309 A  
ENDBRANCH  10  12
ENDBRANCH   2  10
TORSDOF 3
ENDMDL
MODEL      188
REMARK 921   NORMALIZED FREE ENERGY PREDICTED BY IDOCK:   -3.14 KCAL/MOL
REMARK 922        TOTAL FREE ENERGY PREDICTED BY IDOCK:   -3.91 KCAL/MOL
REMARK 923 INTER-LIGAND FREE ENERGY PREDICTED BY IDOCK:   -3.40 KCAL/MOL
REMARK 924 INTRA-LIGAND FREE ENERGY PREDICTED BY IDOCK:   -0.51 KCAL/MOL
REMARK 927      BINDING AFFINITY PREDICTED BY RF-SCORE:    0.00 PKD
ROOT
HETATM    1  C   UNL     1      -9.385   8.824  67.826  1.00  0.00    -0.157 C  
HETATM    2  C   UNL     1      -9.316  10.038  66.875  1.00  0.00    -0.188 C  
HETATM    3  C   UNL     1     -10.510   9.893  65.892  1.00  0.00    -0.072 C  
ENDROOT
BRANCH   2   4
HETATM    4  C   UNL     1      -8.050  10.110  66.025  1.00  0.00    -0.129 A  
HETATM    5  C   UNL     1      -5.853  10.221  64.362  1.00  0.00    -0.139 A  
HETATM    6  C   UNL     1      -6.842  10.661  66.483  1.00  0.00    -0.124 A  
HETATM    7  C   UNL     1      -8.047   9.619  64.714  1.00  0.00    -0.139 A  
HETATM    8  C   UNL     1      -5.734  10.724  65.642  1.00  0.00    -0.128 A  
HETATM    9  N   UNL     1      -6.986   9.669  63.879  1.00  0.00    -0.107 NA 
ENDBRANCH   2   4
BRANCH   2  10
HETATM   10  C   UNL     1      -9.532  11.312  67.737  1.00  0.00    -0.170 C  
HETATM   11  O   UNL     1      -9.160  11.366  68.912  1.00  0.00    -0.127 OA 
BRANCH  10  12
HETATM   12  C   UNL     1     -10.108  12.563  67.162  1.00  0.00    -0.219 A  
HETATM   13  C   UNL     1      -9.394  13.477  66.398  1.00  0.00    -0.176 A  
HETATM   14  C   UNL     1     -11.237  14.831  66.089  1.00  0.00    -0.337 A  
HETATM   15  C   UNL     1     -12.044  13.975  66.817  1.00  0.00    -0.480 A  
HETATM   16  N   UNL     1      -9.925  14.610  65.870  1.00  0.00    -0.311 NA 
HETATM   17  C   UNL     1     -11.469  12.826  67.358  1.00  0.00    -0.396 A  
ENDBRANCH  10  12
ENDBRANCH   2  10
TORSDOF 3
ENDMDL
MODEL      189
REMARK 921   NORMALIZED FREE ENERGY PREDICTED BY IDOCK:   -3.12 KCAL/MOL
REMARK 922        TOTAL FREE ENERGY PREDICTED BY IDOCK:   -3.88 KCAL/MOL
REMARK 923 INTER-LIGAND FREE ENERGY PREDICTED BY IDOCK:   -3.53 KCAL/MOL
REMARK 924 INTRA-LIGAND FREE ENERGY PREDICTED BY IDOCK:   -0.35 KCAL/MOL
REMARK 927      BINDING AFFINITY PREDICTED BY RF-SCORE:    0.00 PKD
ROOT
HETATM    1  C   UNL     1     -10.891   6.538  68.344  1.00  0.00    -0.357 C  
HETATM    2  C   UNL     1     -10.451   7.070  69.725  1.00  0.00    -0.235 C  
HETATM    3  C   UNL     1     -11.083   6.123  70.781  1.00  0.00    -0.375 C  
ENDROOT
BRANCH   2   4
HETATM    4  C   UNL     1     -10.938   8.481  70.047  1.00  0.00    -0.197 A  
HETATM    5  C   UNL     1     -11.800  11.065  70.475  1.00  0.00    -0.367 A  
HETATM    6  C   UNL     1     -11.663   8.802  71.206  1.00  0.00    -0.356 A  
HETATM    7  C   UNL     1     -10.677   9.539  69.168  1.00  0.00    -0.210 A  
HETATM    8  C   UNL     1     -12.105  10.105  71.420  1.00  0.00    -0.475 A  
HETATM    9  N   UNL     1     -11.095  10.810  69.353  1.00  0.00    -0.248 NA 
ENDBRANCH   2   4
BRANCH   2  10
HETATM   10  C   UNL     1      -8.904   6.938  69.798  1.00  0.00    -0.141 C  
HETATM   11  O   UNL     1      -8.259   7.431  70.726  1.00  0.00    -0.109 OA 
BRANCH  10  12
HETATM   12  C   UNL     1      -8.136   6.129  68.806  1.00  0.00    -0.105 A  
HETATM   13  C   UNL     1      -8.074   4.743  68.806  1.00  0.00    -0.083 A  
HETATM   14  C   UNL     1      -6.739   4.690  66.924  1.00  0.00    -0.051 A  
HETATM   15  C   UNL     1      -6.754   6.069  66.820  1.00  0.00    -0.057 A  
HETATM   16  N   UNL     1      -7.379   4.010  67.897  1.00  0.00    -0.066 NA 
HETATM   17  C   UNL     1      -7.465   6.796  67.775  1.00  0.00    -0.098 A  
ENDBRANCH  10  12
ENDBRANCH   2  10
TORSDOF 3
ENDMDL
MODEL      190
REMARK 921   NORMALIZED FREE ENERGY PREDICTED BY IDOCK:   -3.08 KCAL/MOL
REMARK 922        TOTAL FREE ENERGY PREDICTED BY IDOCK:   -3.83 KCAL/MOL
REMARK 923 INTER-LIGAND FREE ENERGY PREDICTED BY IDOCK:   -3.71 KCAL/MOL
REMARK 924 INTRA-LIGAND FREE ENERGY PREDICTED BY IDOCK:   -0.12 KCAL/MOL
REMARK 927      BINDING AFFINITY PREDICTED BY RF-SCORE:    0.00 PKD
ROOT
HETATM    1  C   UNL     1      -8.891   7.683  68.959  1.00  0.00    -0.135 C  
HETATM    2  C   UNL     1     -10.131   6.899  69.442  1.00  0.00    -0.176 C  
HETATM    3  C   UNL     1     -10.878   6.429  68.164  1.00  0.00    -0.386 C  
ENDROOT
BRANCH   2   4
HETATM    4  C   UNL     1     -11.125   7.723  70.258  1.00  0.00    -0.242 A  
HETATM    5  C   UNL     1     -12.965   9.076  71.802  1.00  0.00    -0.377 A  
HETATM    6  C   UNL     1     -11.019   9.112  70.430  1.00  0.00    -0.290 A  
HETATM    7  C   UNL     1     -12.210   7.103  70.889  1.00  0.00    -0.312 A  
HETATM    8  C   UNL     1     -11.944   9.796  71.215  1.00  0.00    -0.471 A  
HETATM    9  N   UNL     1     -13.119   7.743  71.656  1.00  0.00    -0.342 NA 
ENDBRANCH   2   4
BRANCH   2  10
HETATM   10  C   UNL     1      -9.617   5.650  70.208  1.00  0.00    -0.168 C  
HETATM   11  O   UNL     1      -9.786   4.509  69.770  1.00  0.00    -0.182 OA 
BRANCH  10  12
HETATM   12  C   UNL     1      -8.811   5.771  71.459  1.00  0.00    -0.139 A  
HETATM   13  C   UNL     1      -8.713   6.928  72.219  1.00  0.00    -0.126 A  
HETATM   14  C   UNL     1      -7.344   5.922  73.781  1.00  0.00    -0.089 A  
HETATM   15  C   UNL     1      -7.392   4.713  73.110  1.00  0.00    -0.082 A  
HETATM   16  N   UNL     1      -7.983   7.032  73.361  1.00  0.00    -0.096 NA 
HETATM   17  C   UNL     1      -8.138   4.639  71.934  1.00  0.00    -0.101 A  
ENDBRANCH  10  12
ENDBRANCH   2  10
TORSDOF 3
ENDMDL
MODEL      191
REMARK 921   NORMALIZED FREE ENERGY PREDICTED BY IDOCK:   -3.06 KCAL/MOL
REMARK 922        TOTAL FREE ENERGY PREDICTED BY IDOCK:   -3.81 KCAL/MOL
REMARK 923 INTER-LIGAND FREE ENERGY PREDICTED BY IDOCK:   -3.22 KCAL/MOL
REMARK 924 INTRA-LIGAND FREE ENERGY PREDICTED BY IDOCK:   -0.59 KCAL/MOL
REMARK 927      BINDING AFFINITY PREDICTED BY RF-SCORE:    0.00 PKD
ROOT
HETATM    1  C   UNL     1      -8.532   8.023  65.424  1.00  0.00    -0.155 C  
HETATM    2  C   UNL     1      -8.705   7.400  66.826  1.00  0.00    -0.136 C  
HETATM    3  C   UNL     1      -7.477   7.853  67.661  1.00  0.00    -0.097 C  
ENDROOT
BRANCH   2   4
HETATM    4  C   UNL     1      -8.715   5.873  66.846  1.00  0.00    -0.111 A  
HETATM    5  C   UNL     1      -8.659   3.122  67.022  1.00  0.00    -0.113 A  
HETATM    6  C   UNL     1      -9.581   5.095  66.060  1.00  0.00    -0.176 A  
HETATM    7  C   UNL     1      -7.837   5.169  67.679  1.00  0.00    -0.095 A  
HETATM    8  C   UNL     1      -9.559   3.706  66.153  1.00  0.00    -0.142 A  
HETATM    9  N   UNL     1      -7.797   3.823  67.788  1.00  0.00    -0.080 NA 
ENDBRANCH   2   4
BRANCH   2  10
HETATM   10  C   UNL     1      -9.988   8.015  67.450  1.00  0.00    -0.207 C  
HETATM   11  O   UNL     1     -10.761   8.708  66.783  1.00  0.00    -0.221 OA 
BRANCH  10  12
HETATM   12  C   UNL     1     -10.399   7.720  68.854  1.00  0.00    -0.224 A  
HETATM   13  C   UNL     1     -10.156   8.556  69.935  1.00  0.00    -0.195 A  
HETATM   14  C   UNL     1     -11.221   7.141  71.415  1.00  0.00    -0.251 A  
HETATM   15  C   UNL     1     -11.534   6.248  70.406  1.00  0.00    -0.414 A  
HETATM   16  N   UNL     1     -10.538   8.286  71.210  1.00  0.00    -0.213 NA 
HETATM   17  C   UNL     1     -11.117   6.545  69.108  1.00  0.00    -0.387 A  
ENDBRANCH  10  12
ENDBRANCH   2  10
TORSDOF 3
ENDMDL
MODEL      192
REMARK 921   NORMALIZED FREE ENERGY PREDICTED BY IDOCK:   -3.06 KCAL/MOL
REMARK 922        TOTAL FREE ENERGY PREDICTED BY IDOCK:   -3.81 KCAL/MOL
REMARK 923 INTER-LIGAND FREE ENERGY PREDICTED BY IDOCK:   -3.99 KCAL/MOL
REMARK 924 INTRA-LIGAND FREE ENERGY PREDICTED BY IDOCK:    0.19 KCAL/MOL
REMARK 927      BINDING AFFINITY PREDICTED BY RF-SCORE:    0.00 PKD
ROOT
HETATM    1  C   UNL     1      -9.382   8.464  69.559  1.00  0.00    -0.158 C  
HETATM    2  C   UNL     1     -10.471   8.009  70.554  1.00  0.00    -0.217 C  
HETATM    3  C   UNL     1     -11.292   6.907  69.830  1.00  0.00    -0.321 C  
ENDROOT
BRANCH   2   4
HETATM    4  C   UNL     1     -11.458   9.102  70.960  1.00  0.00    -0.372 A  
HETATM    5  C   UNL     1     -13.275  10.988  71.820  1.00  0.00    -0.400 A  
HETATM    6  C   UNL     1     -11.395  10.419  70.475  1.00  0.00    -0.424 A  
HETATM    7  C   UNL     1     -12.490   8.825  71.864  1.00  0.00    -0.372 A  
HETATM    8  C   UNL     1     -12.308  11.374  70.913  1.00  0.00    -0.483 A  
HETATM    9  N   UNL     1     -13.387   9.734  72.305  1.00  0.00    -0.428 NA 
ENDBRANCH   2   4
BRANCH   2  10
HETATM   10  C   UNL     1      -9.746   7.374  71.772  1.00  0.00    -0.153 C  
HETATM   11  O   UNL     1     -10.220   7.436  72.909  1.00  0.00    -0.210 OA 
BRANCH  10  12
HETATM   12  C   UNL     1      -8.495   6.575  71.613  1.00  0.00    -0.124 A  
HETATM   13  C   UNL     1      -7.215   7.112  71.627  1.00  0.00    -0.073 A  
HETATM   14  C   UNL     1      -6.222   5.046  71.361  1.00  0.00    -0.026 A  
HETATM   15  C   UNL     1      -7.450   4.407  71.356  1.00  0.00    -0.060 A  
HETATM   16  N   UNL     1      -6.079   6.380  71.490  1.00  0.00    -0.039 NA 
HETATM   17  C   UNL     1      -8.600   5.185  71.486  1.00  0.00    -0.132 A  
ENDBRANCH  10  12
ENDBRANCH   2  10
TORSDOF 3
ENDMDL
MODEL      193
REMARK 921   NORMALIZED FREE ENERGY PREDICTED BY IDOCK:   -3.04 KCAL/MOL
REMARK 922        TOTAL FREE ENERGY PREDICTED BY IDOCK:   -3.78 KCAL/MOL
REMARK 923 INTER-LIGAND FREE ENERGY PREDICTED BY IDOCK:   -4.15 KCAL/MOL
REMARK 924 INTRA-LIGAND FREE ENERGY PREDICTED BY IDOCK:    0.36 KCAL/MOL
REMARK 927      BINDING AFFINITY PREDICTED BY RF-SCORE:    0.00 PKD
ROOT
HETATM    1  C   UNL     1      -9.503   6.932  71.050  1.00  0.00    -0.163 C  
HETATM    2  C   UNL     1      -9.975   5.736  71.905  1.00  0.00    -0.214 C  
HETATM    3  C   UNL     1      -9.160   5.792  73.226  1.00  0.00    -0.133 C  
ENDROOT
BRANCH   2   4
HETATM    4  C   UNL     1      -9.715   4.367  71.282  1.00  0.00    -0.252 A  
HETATM    5  C   UNL     1      -9.204   1.968  70.023  1.00  0.00    -0.110 A  
HETATM    6  C   UNL     1      -9.501   3.202  72.037  1.00  0.00    -0.203 A  
HETATM    7  C   UNL     1      -9.671   4.218  69.891  1.00  0.00    -0.221 A  
HETATM    8  C   UNL     1      -9.237   1.991  71.403  1.00  0.00    -0.171 A  
HETATM    9  N   UNL     1      -9.416   3.055  69.252  1.00  0.00    -0.143 NA 
ENDBRANCH   2   4
BRANCH   2  10
HETATM   10  C   UNL     1     -11.476   5.969  72.235  1.00  0.00    -0.312 C  
HETATM   11  O   UNL     1     -12.160   5.097  72.776  1.00  0.00    -0.132 OA 
BRANCH  10  12
HETATM   12  C   UNL     1     -12.136   7.288  72.003  1.00  0.00    -0.327 A  
HETATM   13  C   UNL     1     -11.516   8.517  72.181  1.00  0.00    -0.376 A  
HETATM   14  C   UNL     1     -13.391   9.687  71.517  1.00  0.00    -0.388 A  
HETATM   15  C   UNL     1     -14.094   8.518  71.287  1.00  0.00    -0.267 A  
HETATM   16  N   UNL     1     -12.119   9.715  71.962  1.00  0.00    -0.294 NA 
HETATM   17  C   UNL     1     -13.455   7.303  71.533  1.00  0.00    -0.439 A  
ENDBRANCH  10  12
ENDBRANCH   2  10
TORSDOF 3
ENDMDL
MODEL      194
REMARK 921   NORMALIZED FREE ENERGY PREDICTED BY IDOCK:   -3.03 KCAL/MOL
REMARK 922        TOTAL FREE ENERGY PREDICTED BY IDOCK:   -3.78 KCAL/MOL
REMARK 923 INTER-LIGAND FREE ENERGY PREDICTED BY IDOCK:   -3.78 KCAL/MOL
REMARK 924 INTRA-LIGAND FREE ENERGY PREDICTED BY IDOCK:    0.01 KCAL/MOL
REMARK 927      BINDING AFFINITY PREDICTED BY RF-SCORE:    0.00 PKD
ROOT
HETATM    1  C   UNL     1     -10.538  14.477  68.707  1.00  0.00    -0.248 C  
HETATM    2  C   UNL     1     -11.068  13.096  68.264  1.00  0.00    -0.295 C  
HETATM    3  C   UNL     1     -12.310  13.369  67.372  1.00  0.00    -0.113 C  
ENDROOT
BRANCH   2   4
HETATM    4  C   UNL     1     -11.533  12.197  69.408  1.00  0.00    -0.355 A  
HETATM    5  C   UNL     1     -12.463  10.693  71.523  1.00  0.00    -0.366 A  
HETATM    6  C   UNL     1     -11.416  10.798  69.386  1.00  0.00    -0.366 A  
HETATM    7  C   UNL     1     -12.117  12.751  70.553  1.00  0.00    -0.285 A  
HETATM    8  C   UNL     1     -11.891  10.036  70.451  1.00  0.00    -0.343 A  
HETATM    9  N   UNL     1     -12.586  12.035  71.597  1.00  0.00    -0.186 NA 
ENDBRANCH   2   4
BRANCH   2  10
HETATM   10  C   UNL     1      -9.963  12.436  67.394  1.00  0.00    -0.202 C  
HETATM   11  O   UNL     1     -10.240  11.800  66.374  1.00  0.00    -0.207 OA 
BRANCH  10  12
HETATM   12  C   UNL     1      -8.512  12.620  67.693  1.00  0.00    -0.173 A  
HETATM   13  C   UNL     1      -7.666  11.609  68.126  1.00  0.00    -0.122 A  
HETATM   14  C   UNL     1      -5.834  13.010  68.185  1.00  0.00    -0.093 A  
HETATM   15  C   UNL     1      -6.584  14.083  67.736  1.00  0.00    -0.188 A  
HETATM   16  N   UNL     1      -6.345  11.779  68.389  1.00  0.00    -0.050 NA 
HETATM   17  C   UNL     1      -7.941  13.882  67.486  1.00  0.00    -0.190 A  
ENDBRANCH  10  12
ENDBRANCH   2  10
TORSDOF 3
ENDMDL
MODEL      195
REMARK 921   NORMALIZED FREE ENERGY PREDICTED BY IDOCK:   -3.01 KCAL/MOL
REMARK 922        TOTAL FREE ENERGY PREDICTED BY IDOCK:   -3.75 KCAL/MOL
REMARK 923 INTER-LIGAND FREE ENERGY PREDICTED BY IDOCK:   -3.85 KCAL/MOL
REMARK 924 INTRA-LIGAND FREE ENERGY PREDICTED BY IDOCK:    0.10 KCAL/MOL
REMARK 927      BINDING AFFINITY PREDICTED BY RF-SCORE:    0.00 PKD
ROOT
HETATM    1  C   UNL     1     -10.278   9.854  65.856  1.00  0.00    -0.264 C  
HETATM    2  C   UNL     1      -9.961   9.836  67.367  1.00  0.00    -0.239 C  
HETATM    3  C   UNL     1      -8.647  10.644  67.549  1.00  0.00    -0.122 C  
ENDROOT
BRANCH   2   4
HETATM    4  C   UNL     1      -9.710   8.445  67.947  1.00  0.00    -0.189 A  
HETATM    5  C   UNL     1      -9.362   5.878  68.891  1.00  0.00    -0.126 A  
HETATM    6  C   UNL     1      -8.567   8.115  68.693  1.00  0.00    -0.127 A  
HETATM    7  C   UNL     1     -10.636   7.415  67.746  1.00  0.00    -0.210 A  
HETATM    8  C   UNL     1      -8.386   6.817  69.165  1.00  0.00    -0.125 A  
HETATM    9  N   UNL     1     -10.483   6.149  68.191  1.00  0.00    -0.202 NA 
ENDBRANCH   2   4
BRANCH   2  10
HETATM   10  C   UNL     1     -11.114  10.587  68.089  1.00  0.00    -0.287 C  
HETATM   11  O   UNL     1     -11.885  10.003  68.854  1.00  0.00     0.083 OA 
BRANCH  10  12
HETATM   12  C   UNL     1     -11.285  12.065  67.969  1.00  0.00    -0.316 A  
HETATM   13  C   UNL     1     -11.312  12.757  66.766  1.00  0.00    -0.313 A  
HETATM   14  C   UNL     1     -11.648  14.787  67.810  1.00  0.00    -0.357 A  
HETATM   15  C   UNL     1     -11.659  14.194  69.060  1.00  0.00    -0.342 A  
HETATM   16  N   UNL     1     -11.475  14.101  66.663  1.00  0.00    -0.350 NA 
HETATM   17  C   UNL     1     -11.476  12.813  69.137  1.00  0.00    -0.361 A  
ENDBRANCH  10  12
ENDBRANCH   2  10
TORSDOF 3
ENDMDL
MODEL      196
REMARK 921   NORMALIZED FREE ENERGY PREDICTED BY IDOCK:   -2.87 KCAL/MOL
REMARK 922        TOTAL FREE ENERGY PREDICTED BY IDOCK:   -3.59 KCAL/MOL
REMARK 923 INTER-LIGAND FREE ENERGY PREDICTED BY IDOCK:   -2.97 KCAL/MOL
REMARK 924 INTRA-LIGAND FREE ENERGY PREDICTED BY IDOCK:   -0.62 KCAL/MOL
REMARK 927      BINDING AFFINITY PREDICTED BY RF-SCORE:    0.00 PKD
ROOT
HETATM    1  C   UNL     1     -10.868   6.148  68.462  1.00  0.00    -0.389 C  
HETATM    2  C   UNL     1     -10.095   7.433  68.097  1.00  0.00    -0.210 C  
HETATM    3  C   UNL     1     -10.688   7.935  66.752  1.00  0.00    -0.097 C  
ENDROOT
BRANCH   2   4
HETATM    4  C   UNL     1      -8.598   7.233  67.874  1.00  0.00    -0.120 A  
HETATM    5  C   UNL     1      -5.904   6.738  67.555  1.00  0.00    -0.020 A  
HETATM    6  C   UNL     1      -7.878   7.867  66.848  1.00  0.00    -0.104 A  
HETATM    7  C   UNL     1      -7.865   6.378  68.705  1.00  0.00    -0.109 A  
HETATM    8  C   UNL     1      -6.519   7.613  66.681  1.00  0.00    -0.053 A  
HETATM    9  N   UNL     1      -6.548   6.114  68.564  1.00  0.00    -0.056 NA 
ENDBRANCH   2   4
BRANCH   2  10
HETATM   10  C   UNL     1     -10.401   8.484  69.200  1.00  0.00    -0.217 C  
HETATM   11  O   UNL     1     -10.384   8.186  70.397  1.00  0.00    -0.200 OA 
BRANCH  10  12
HETATM   12  C   UNL     1     -10.634   9.922  68.873  1.00  0.00    -0.239 A  
HETATM   13  C   UNL     1     -11.882  10.530  68.855  1.00  0.00    -0.066 A  
HETATM   14  C   UNL     1     -10.996  12.589  68.307  1.00  0.00    -0.240 A  
HETATM   15  C   UNL     1      -9.707  12.088  68.319  1.00  0.00    -0.205 A  
HETATM   16  N   UNL     1     -12.088  11.840  68.564  1.00  0.00    -0.455 NA 
HETATM   17  C   UNL     1      -9.526  10.736  68.608  1.00  0.00    -0.188 A  
ENDBRANCH  10  12
ENDBRANCH   2  10
TORSDOF 3
ENDMDL
MODEL      197
REMARK 921   NORMALIZED FREE ENERGY PREDICTED BY IDOCK:   -2.87 KCAL/MOL
REMARK 922        TOTAL FREE ENERGY PREDICTED BY IDOCK:   -3.58 KCAL/MOL
REMARK 923 INTER-LIGAND FREE ENERGY PREDICTED BY IDOCK:   -3.20 KCAL/MOL
REMARK 924 INTRA-LIGAND FREE ENERGY PREDICTED BY IDOCK:   -0.38 KCAL/MOL
REMARK 927      BINDING AFFINITY PREDICTED BY RF-SCORE:    0.00 PKD
ROOT
HETATM    1  C   UNL     1      -7.885   6.608  67.971  1.00  0.00    -0.113 C  
HETATM    2  C   UNL     1      -9.237   7.287  67.666  1.00  0.00    -0.130 C  
HETATM    3  C   UNL     1      -8.977   8.277  66.498  1.00  0.00    -0.189 C  
ENDROOT
BRANCH   2   4
HETATM    4  C   UNL     1      -9.813   8.104  68.820  1.00  0.00    -0.181 A  
HETATM    5  C   UNL     1     -10.904   9.686  70.797  1.00  0.00    -0.330 A  
HETATM    6  C   UNL     1     -10.079   7.567  70.090  1.00  0.00    -0.195 A  
HETATM    7  C   UNL     1     -10.114   9.460  68.647  1.00  0.00    -0.190 A  
HETATM    8  C   UNL     1     -10.635   8.363  71.088  1.00  0.00    -0.266 A  
HETATM    9  N   UNL     1     -10.655  10.253  69.598  1.00  0.00    -0.240 NA 
ENDBRANCH   2   4
BRANCH   2  10
HETATM   10  C   UNL     1     -10.209   6.179  67.173  1.00  0.00    -0.199 C  
HETATM   11  O   UNL     1     -11.421   6.382  67.072  1.00  0.00    -0.196 OA 
BRANCH  10  12
HETATM   12  C   UNL     1      -9.714   4.850  66.706  1.00  0.00    -0.195 A  
HETATM   13  C   UNL     1      -9.280   4.584  65.415  1.00  0.00    -0.154 A  
HETATM   14  C   UNL     1      -8.769   2.390  65.915  1.00  0.00    -0.122 A  
HETATM   15  C   UNL     1      -9.156   2.554  67.234  1.00  0.00    -0.187 A  
HETATM   16  N   UNL     1      -8.824   3.375  64.996  1.00  0.00    -0.117 NA 
HETATM   17  C   UNL     1      -9.633   3.802  67.632  1.00  0.00    -0.199 A  
ENDBRANCH  10  12
ENDBRANCH   2  10
TORSDOF 3
ENDMDL
MODEL      198
REMARK 921   NORMALIZED FREE ENERGY PREDICTED BY IDOCK:   -2.80 KCAL/MOL
REMARK 922        TOTAL FREE ENERGY PREDICTED BY IDOCK:   -3.51 KCAL/MOL
REMARK 923 INTER-LIGAND FREE ENERGY PREDICTED BY IDOCK:   -3.25 KCAL/MOL
REMARK 924 INTRA-LIGAND FREE ENERGY PREDICTED BY IDOCK:   -0.26 KCAL/MOL
REMARK 927      BINDING AFFINITY PREDICTED BY RF-SCORE:    0.00 PKD
ROOT
HETATM    1  C   UNL     1     -11.825   6.375  70.391  1.00  0.00    -0.303 C  
HETATM    2  C   UNL     1     -10.725   7.123  69.606  1.00  0.00    -0.256 C  
HETATM    3  C   UNL     1     -11.025   6.890  68.101  1.00  0.00    -0.220 C  
ENDROOT
BRANCH   2   4
HETATM    4  C   UNL     1      -9.307   6.616  69.859  1.00  0.00    -0.153 A  
HETATM    5  C   UNL     1      -6.732   5.677  70.160  1.00  0.00    -0.048 A  
HETATM    6  C   UNL     1      -8.581   6.903  71.027  1.00  0.00    -0.135 A  
HETATM    7  C   UNL     1      -8.655   5.828  68.904  1.00  0.00    -0.106 A  
HETATM    8  C   UNL     1      -7.278   6.435  71.178  1.00  0.00    -0.079 A  
HETATM    9  N   UNL     1      -7.393   5.363  69.026  1.00  0.00    -0.068 NA 
ENDBRANCH   2   4
BRANCH   2  10
HETATM   10  C   UNL     1     -10.885   8.637  69.918  1.00  0.00    -0.208 C  
HETATM   11  O   UNL     1     -11.225   9.033  71.036  1.00  0.00    -0.257 OA 
BRANCH  10  12
HETATM   12  C   UNL     1     -10.541   9.687  68.915  1.00  0.00    -0.239 A  
HETATM   13  C   UNL     1      -9.388   9.686  68.142  1.00  0.00    -0.132 A  
HETATM   14  C   UNL     1      -9.983  11.628  67.047  1.00  0.00    -0.204 A  
HETATM   15  C   UNL     1     -11.172  11.713  67.749  1.00  0.00    -0.333 A  
HETATM   16  N   UNL     1      -9.083  10.640  67.224  1.00  0.00    -0.143 NA 
HETATM   17  C   UNL     1     -11.453  10.727  68.694  1.00  0.00    -0.365 A  
ENDBRANCH  10  12
ENDBRANCH   2  10
TORSDOF 3
ENDMDL
MODEL      199
REMARK 921   NORMALIZED FREE ENERGY PREDICTED BY IDOCK:   -2.70 KCAL/MOL
REMARK 922        TOTAL FREE ENERGY PREDICTED BY IDOCK:   -3.39 KCAL/MOL
REMARK 923 INTER-LIGAND FREE ENERGY PREDICTED BY IDOCK:   -2.84 KCAL/MOL
REMARK 924 INTRA-LIGAND FREE ENERGY PREDICTED BY IDOCK:   -0.56 KCAL/MOL
REMARK 927      BINDING AFFINITY PREDICTED BY RF-SCORE:    0.00 PKD
ROOT
HETATM    1  C   UNL     1     -10.708   8.405  67.730  1.00  0.00    -0.165 C  
HETATM    2  C   UNL     1      -9.829   9.648  67.473  1.00  0.00    -0.213 C  
HETATM    3  C   UNL     1     -10.621  10.549  66.488  1.00  0.00    -0.240 C  
ENDROOT
BRANCH   2   4
HETATM    4  C   UNL     1      -8.483   9.350  66.816  1.00  0.00    -0.129 A  
HETATM    5  C   UNL     1      -6.019   8.966  65.639  1.00  0.00    -0.051 A  
HETATM    6  C   UNL     1      -7.904   8.071  66.787  1.00  0.00    -0.103 A  
HETATM    7  C   UNL     1      -7.750  10.374  66.206  1.00  0.00    -0.129 A  
HETATM    8  C   UNL     1      -6.657   7.876  66.198  1.00  0.00    -0.050 A  
HETATM    9  N   UNL     1      -6.539  10.212  65.630  1.00  0.00    -0.104 NA 
ENDBRANCH   2   4
BRANCH   2  10
HETATM   10  C   UNL     1      -9.682  10.396  68.827  1.00  0.00    -0.183 C  
HETATM   11  O   UNL     1     -10.295  11.441  69.057  1.00  0.00    -0.201 OA 
BRANCH  10  12
HETATM   12  C   UNL     1      -8.871   9.838  69.949  1.00  0.00    -0.248 A  
HETATM   13  C   UNL     1      -7.524  10.106  70.153  1.00  0.00    -0.133 A  
HETATM   14  C   UNL     1      -7.438   8.816  72.064  1.00  0.00     0.025 A  
HETATM   15  C   UNL     1      -8.783   8.503  71.967  1.00  0.00    -0.265 A  
HETATM   16  N   UNL     1      -6.792   9.602  71.180  1.00  0.00    -0.317 NA 
HETATM   17  C   UNL     1      -9.506   9.024  70.895  1.00  0.00    -0.331 A  
ENDBRANCH  10  12
ENDBRANCH   2  10
TORSDOF 3
ENDMDL
MODEL      200
REMARK 921   NORMALIZED FREE ENERGY PREDICTED BY IDOCK:   -2.45 KCAL/MOL
REMARK 922        TOTAL FREE ENERGY PREDICTED BY IDOCK:   -3.10 KCAL/MOL
REMARK 923 INTER-LIGAND FREE ENERGY PREDICTED BY IDOCK:   -3.42 KCAL/MOL
REMARK 924 INTRA-LIGAND FREE ENERGY PREDICTED BY IDOCK:    0.32 KCAL/MOL
REMARK 927      BINDING AFFINITY PREDICTED BY RF-SCORE:    0.00 PKD
ROOT
HETATM    1  C   UNL     1      -9.960  13.860  68.459  1.00  0.00    -0.221 C  
HETATM    2  C   UNL     1     -10.573  12.559  67.897  1.00  0.00    -0.233 C  
HETATM    3  C   UNL     1     -12.071  12.862  67.624  1.00  0.00    -0.239 C  
ENDROOT
BRANCH   2   4
HETATM    4  C   UNL     1     -10.530  11.371  68.856  1.00  0.00    -0.219 A  
HETATM    5  C   UNL     1     -10.609   9.239  70.602  1.00  0.00    -0.262 A  
HETATM    6  C   UNL     1      -9.465  10.456  68.905  1.00  0.00    -0.190 A  
HETATM    7  C   UNL     1     -11.586  11.138  69.744  1.00  0.00    -0.334 A  
HETATM    8  C   UNL     1      -9.507   9.375  69.782  1.00  0.00    -0.216 A  
HETATM    9  N   UNL     1     -11.651  10.097  70.603  1.00  0.00    -0.318 NA 
ENDBRANCH   2   4
BRANCH   2  10
HETATM   10  C   UNL     1      -9.867  12.263  66.545  1.00  0.00    -0.229 C  
HETATM   11  O   UNL     1     -10.450  12.409  65.468  1.00  0.00    -0.261 OA 
BRANCH  10  12
HETATM   12  C   UNL     1      -8.425  11.883  66.477  1.00  0.00    -0.097 A  
HETATM   13  C   UNL     1      -7.390  12.634  67.018  1.00  0.00     0.055 A  
HETATM   14  C   UNL     1      -5.788  11.109  66.359  1.00  0.00    -0.148 A  
HETATM   15  C   UNL     1      -6.744  10.275  65.807  1.00  0.00    -0.120 A  
HETATM   16  N   UNL     1      -6.080  12.280  66.959  1.00  0.00    -0.227 NA 
HETATM   17  C   UNL     1      -8.080  10.670  65.869  1.00  0.00    -0.159 A  
ENDBRANCH  10  12
ENDBRANCH   2  10
TORSDOF 3
ENDMDL
MODEL      201
REMARK 921   NORMALIZED FREE ENERGY PREDICTED BY IDOCK:   -2.45 KCAL/MOL
REMARK 922        TOTAL FREE ENERGY PREDICTED BY IDOCK:   -3.09 KCAL/MOL
REMARK 923 INTER-LIGAND FREE ENERGY PREDICTED BY IDOCK:   -2.70 KCAL/MOL
REMARK 924 INTRA-LIGAND FREE ENERGY PREDICTED BY IDOCK:   -0.39 KCAL/MOL
REMARK 927      BINDING AFFINITY PREDICTED BY RF-SCORE:    0.00 PKD
ROOT
HETATM    1  C   UNL     1      -6.857   8.814  70.721  1.00  0.00    -0.056 C  
HETATM    2  C   UNL     1      -8.279   8.563  70.175  1.00  0.00    -0.121 C  
HETATM    3  C   UNL     1      -8.797   9.932  69.656  1.00  0.00    -0.224 C  
ENDROOT
BRANCH   2   4
HETATM    4  C   UNL     1      -9.283   8.075  71.216  1.00  0.00    -0.180 A  
HETATM    5  C   UNL     1     -11.200   7.171  72.980  1.00  0.00    -0.239 A  
HETATM    6  C   UNL     1      -8.915   7.633  72.497  1.00  0.00    -0.191 A  
HETATM    7  C   UNL     1     -10.651   8.043  70.922  1.00  0.00    -0.213 A  
HETATM    8  C   UNL     1      -9.881   7.170  73.387  1.00  0.00    -0.301 A  
HETATM    9  N   UNL     1     -11.607   7.598  71.766  1.00  0.00    -0.261 NA 
ENDBRANCH   2   4
BRANCH   2  10
HETATM   10  C   UNL     1      -8.145   7.591  68.970  1.00  0.00    -0.127 C  
HETATM   11  O   UNL     1      -8.245   6.370  69.113  1.00  0.00    -0.110 OA 
BRANCH  10  12
HETATM   12  C   UNL     1      -7.988   8.089  67.572  1.00  0.00    -0.122 A  
HETATM   13  C   UNL     1      -9.018   8.159  66.644  1.00  0.00    -0.152 A  
HETATM   14  C   UNL     1      -7.647   9.059  65.020  1.00  0.00    -0.103 A  
HETATM   15  C   UNL     1      -6.557   9.052  65.873  1.00  0.00    -0.064 A  
HETATM   16  N   UNL     1      -8.872   8.620  65.374  1.00  0.00    -0.178 NA 
HETATM   17  C   UNL     1      -6.734   8.562  67.166  1.00  0.00    -0.063 A  
ENDBRANCH  10  12
ENDBRANCH   2  10
TORSDOF 3
ENDMDL
MODEL      202
REMARK 921   NORMALIZED FREE ENERGY PREDICTED BY IDOCK:   -2.31 KCAL/MOL
REMARK 922        TOTAL FREE ENERGY PREDICTED BY IDOCK:   -2.93 KCAL/MOL
REMARK 923 INTER-LIGAND FREE ENERGY PREDICTED BY IDOCK:   -2.77 KCAL/MOL
REMARK 924 INTRA-LIGAND FREE ENERGY PREDICTED BY IDOCK:   -0.16 KCAL/MOL
REMARK 927      BINDING AFFINITY PREDICTED BY RF-SCORE:    0.00 PKD
ROOT
HETATM    1  C   UNL     1     -10.254  11.258  67.740  1.00  0.00    -0.203 C  
HETATM    2  C   UNL     1      -9.902  12.735  67.460  1.00  0.00    -0.211 C  
HETATM    3  C   UNL     1     -10.551  13.565  68.601  1.00  0.00    -0.259 C  
ENDROOT
BRANCH   2   4
HETATM    4  C   UNL     1     -10.453  13.282  66.145  1.00  0.00    -0.296 A  
HETATM    5  C   UNL     1     -11.490  14.121  63.733  1.00  0.00     0.302 A  
HETATM    6  C   UNL     1     -10.784  14.632  65.949  1.00  0.00    -0.312 A  
HETATM    7  C   UNL     1     -10.662  12.429  65.055  1.00  0.00    -0.294 A  
HETATM    8  C   UNL     1     -11.314  15.057  64.733  1.00  0.00    -0.409 A  
HETATM    9  N   UNL     1     -11.175  12.816  63.867  1.00  0.00    -0.412 NA 
ENDBRANCH   2   4
BRANCH   2  10
HETATM   10  C   UNL     1      -8.357  12.868  67.563  1.00  0.00    -0.183 C  
HETATM   11  O   UNL     1      -7.779  13.917  67.270  1.00  0.00    -0.164 OA 
BRANCH  10  12
HETATM   12  C   UNL     1      -7.509  11.770  68.113  1.00  0.00    -0.098 A  
HETATM   13  C   UNL     1      -7.569  11.312  69.422  1.00  0.00     0.050 A  
HETATM   14  C   UNL     1      -5.949   9.709  69.058  1.00  0.00    -0.038 A  
HETATM   15  C   UNL     1      -5.825  10.073  67.729  1.00  0.00    -0.042 A  
HETATM   16  N   UNL     1      -6.800  10.307  69.916  1.00  0.00    -0.117 NA 
HETATM   17  C   UNL     1      -6.618  11.116  67.253  1.00  0.00    -0.083 A  
ENDBRANCH  10  12
ENDBRANCH   2  10
TORSDOF 3
ENDMDL
MODEL      203
REMARK 921   NORMALIZED FREE ENERGY PREDICTED BY IDOCK:   -1.27 KCAL/MOL
REMARK 922        TOTAL FREE ENERGY PREDICTED BY IDOCK:   -1.71 KCAL/MOL
REMARK 923 INTER-LIGAND FREE ENERGY PREDICTED BY IDOCK:   -1.40 KCAL/MOL
REMARK 924 INTRA-LIGAND FREE ENERGY PREDICTED BY IDOCK:   -0.31 KCAL/MOL
REMARK 927      BINDING AFFINITY PREDICTED BY RF-SCORE:    0.00 PKD
ROOT
HETATM    1  C   UNL     1      -6.112  10.168  68.721  1.00  0.00    -0.047 C  
HETATM    2  C   UNL     1      -7.107   9.013  68.473  1.00  0.00    -0.072 C  
HETATM    3  C   UNL     1      -8.499   9.670  68.266  1.00  0.00    -0.118 C  
ENDROOT
BRANCH   2   4
HETATM    4  C   UNL     1      -7.248   8.033  69.636  1.00  0.00    -0.066 A  
HETATM    5  C   UNL     1      -7.376   6.334  71.803  1.00  0.00    -0.093 A  
HETATM    6  C   UNL     1      -8.430   7.328  69.913  1.00  0.00    -0.140 A  
HETATM    7  C   UNL     1      -6.172   7.800  70.500  1.00  0.00    -0.037 A  
HETATM    8  C   UNL     1      -8.499   6.474  71.011  1.00  0.00    -0.127 A  
HETATM    9  N   UNL     1      -6.213   6.979  71.572  1.00  0.00    -0.037 NA 
ENDBRANCH   2   4
BRANCH   2  10
HETATM   10  C   UNL     1      -6.683   8.316  67.151  1.00  0.00    -0.063 C  
HETATM   11  O   UNL     1      -6.156   7.201  67.149  1.00  0.00    -0.037 OA 
BRANCH  10  12
HETATM   12  C   UNL     1      -6.979   8.915  65.816  1.00  0.00    -0.080 A  
HETATM   13  C   UNL     1      -8.028   8.523  64.995  1.00  0.00    -0.131 A  
HETATM   14  C   UNL     1      -7.503  10.089  63.383  1.00  0.00    -0.139 A  
HETATM   15  C   UNL     1      -6.445  10.572  64.133  1.00  0.00     0.062 A  
HETATM   16  N   UNL     1      -8.298   9.076  63.784  1.00  0.00    -0.178 NA 
HETATM   17  C   UNL     1      -6.183   9.976  65.366  1.00  0.00    -0.095 A  
ENDBRANCH  10  12
ENDBRANCH   2  10
TORSDOF 3
ENDMDL
