MODEL        1
REMARK 921   NORMALIZED FREE ENERGY PREDICTED BY IDOCK:   -5.04 KCAL/MOL
REMARK 922        TOTAL FREE ENERGY PREDICTED BY IDOCK:   -6.10 KCAL/MOL
REMARK 923 INTER-LIGAND FREE ENERGY PREDICTED BY IDOCK:   -5.92 KCAL/MOL
REMARK 924 INTRA-LIGAND FREE ENERGY PREDICTED BY IDOCK:   -0.18 KCAL/MOL
REMARK 927      BINDING AFFINITY PREDICTED BY RF-SCORE:    0.00 PKD
ROOT
HETATM    1  C   UNL     1     -12.357  11.975  63.642  1.00  0.00    -0.648 C  
HETATM    2  C   UNL     1     -11.918  13.277  64.296  1.00  0.00    -0.421 C  
HETATM    3  N   UNL     1     -12.407  14.439  63.550  1.00  0.00    -1.114 NA 
HETATM    4  H2  UNL     1     -13.419  14.406  63.426  1.00  0.00     0.000 HD 
HETATM    5  H1  UNL     1     -12.112  15.312  63.987  1.00  0.00     0.000 HD 
ENDROOT
BRANCH   2   6
HETATM    6  C   UNL     1     -12.299  13.343  65.786  1.00  0.00    -0.460 C  
BRANCH   6   7
HETATM    7  O   UNL     1     -11.237  13.133  66.708  1.00  0.00    -0.282 OA 
BRANCH   7   8
HETATM    8  C   UNL     1     -11.587  12.933  68.032  1.00  0.00    -0.342 A  
HETATM    9  C   UNL     1     -11.953  13.900  69.006  1.00  0.00    -0.402 A  
HETATM   10  C   UNL     1     -12.284  13.460  70.310  1.00  0.00    -0.405 A  
HETATM   11  C   UNL     1     -11.947  15.408  68.912  1.00  0.00    -0.298 C  
HETATM   12  C   UNL     1     -12.280  12.115  70.663  1.00  0.00    -0.392 A  
HETATM   13  C   UNL     1     -11.901  11.172  69.721  1.00  0.00    -0.422 A  
HETATM   14  C   UNL     1     -11.550  11.560  68.415  1.00  0.00    -0.375 A  
HETATM   15  C   UNL     1     -11.109  10.474  67.455  1.00  0.00    -0.358 C  
ENDBRANCH   7   8
ENDBRANCH   6   7
ENDBRANCH   2   6
TORSDOF 3
ENDMDL
MODEL        2
REMARK 921   NORMALIZED FREE ENERGY PREDICTED BY IDOCK:   -5.02 KCAL/MOL
REMARK 922        TOTAL FREE ENERGY PREDICTED BY IDOCK:   -6.08 KCAL/MOL
REMARK 923 INTER-LIGAND FREE ENERGY PREDICTED BY IDOCK:   -5.87 KCAL/MOL
REMARK 924 INTRA-LIGAND FREE ENERGY PREDICTED BY IDOCK:   -0.21 KCAL/MOL
REMARK 927      BINDING AFFINITY PREDICTED BY RF-SCORE:    0.00 PKD
ROOT
HETATM    1  C   UNL     1     -12.091  14.343  65.144  1.00  0.00    -0.395 C  
HETATM    2  C   UNL     1     -10.991  15.321  64.755  1.00  0.00    -0.386 C  
HETATM    3  N   UNL     1     -11.519  16.420  63.943  1.00  0.00    -1.618 NA 
HETATM    4  H2  UNL     1     -12.292  16.893  64.411  1.00  0.00     0.000 HD 
HETATM    5  H1  UNL     1     -10.782  17.075  63.682  1.00  0.00     0.000 HD 
ENDROOT
BRANCH   2   6
HETATM    6  C   UNL     1     -10.201  15.829  65.975  1.00  0.00    -0.333 C  
BRANCH   6   7
HETATM    7  O   UNL     1      -9.069  16.640  65.686  1.00  0.00    -0.477 OA 
BRANCH   7   8
HETATM    8  C   UNL     1      -8.819  17.696  66.546  1.00  0.00    -0.263 A  
HETATM    9  C   UNL     1      -9.520  18.925  66.665  1.00  0.00    -0.357 A  
HETATM   10  C   UNL     1      -9.087  19.864  67.631  1.00  0.00    -0.431 A  
HETATM   11  C   UNL     1     -10.645  19.475  65.818  1.00  0.00    -0.522 C  
HETATM   12  C   UNL     1      -8.012  19.616  68.477  1.00  0.00    -0.350 A  
HETATM   13  C   UNL     1      -7.313  18.427  68.348  1.00  0.00    -0.289 A  
HETATM   14  C   UNL     1      -7.695  17.468  67.394  1.00  0.00    -0.213 A  
HETATM   15  C   UNL     1      -6.855  16.211  67.287  1.00  0.00    -0.236 C  
ENDBRANCH   7   8
ENDBRANCH   6   7
ENDBRANCH   2   6
TORSDOF 3
ENDMDL
MODEL        3
REMARK 921   NORMALIZED FREE ENERGY PREDICTED BY IDOCK:   -5.00 KCAL/MOL
REMARK 922        TOTAL FREE ENERGY PREDICTED BY IDOCK:   -6.05 KCAL/MOL
REMARK 923 INTER-LIGAND FREE ENERGY PREDICTED BY IDOCK:   -5.75 KCAL/MOL
REMARK 924 INTRA-LIGAND FREE ENERGY PREDICTED BY IDOCK:   -0.30 KCAL/MOL
REMARK 927      BINDING AFFINITY PREDICTED BY RF-SCORE:    0.00 PKD
ROOT
HETATM    1  C   UNL     1     -10.705  15.013  64.883  1.00  0.00    -0.420 C  
HETATM    2  C   UNL     1     -12.097  14.409  64.782  1.00  0.00    -0.452 C  
HETATM    3  N   UNL     1     -12.393  13.978  63.413  1.00  0.00    -1.154 NA 
HETATM    4  H2  UNL     1     -11.680  13.339  63.060  1.00  0.00     0.000 HD 
HETATM    5  H1  UNL     1     -13.326  13.573  63.345  1.00  0.00     0.000 HD 
ENDROOT
BRANCH   2   6
HETATM    6  C   UNL     1     -12.322  13.281  65.805  1.00  0.00    -0.447 C  
BRANCH   6   7
HETATM    7  O   UNL     1     -11.265  13.066  66.733  1.00  0.00    -0.279 OA 
BRANCH   7   8
HETATM    8  C   UNL     1     -11.610  13.012  68.073  1.00  0.00    -0.343 A  
HETATM    9  C   UNL     1     -11.940  14.083  68.946  1.00  0.00    -0.387 A  
HETATM   10  C   UNL     1     -12.272  13.787  70.289  1.00  0.00    -0.429 A  
HETATM   11  C   UNL     1     -11.891  15.573  68.698  1.00  0.00    -0.318 C  
HETATM   12  C   UNL     1     -12.303  12.485  70.777  1.00  0.00    -0.376 A  
HETATM   13  C   UNL     1     -11.960  11.441  69.933  1.00  0.00    -0.434 A  
HETATM   14  C   UNL     1     -11.609  11.684  68.593  1.00  0.00    -0.373 A  
HETATM   15  C   UNL     1     -11.207  10.494  67.746  1.00  0.00    -0.344 C  
ENDBRANCH   7   8
ENDBRANCH   6   7
ENDBRANCH   2   6
TORSDOF 3
ENDMDL
MODEL        4
REMARK 921   NORMALIZED FREE ENERGY PREDICTED BY IDOCK:   -4.98 KCAL/MOL
REMARK 922        TOTAL FREE ENERGY PREDICTED BY IDOCK:   -6.04 KCAL/MOL
REMARK 923 INTER-LIGAND FREE ENERGY PREDICTED BY IDOCK:   -5.89 KCAL/MOL
REMARK 924 INTRA-LIGAND FREE ENERGY PREDICTED BY IDOCK:   -0.15 KCAL/MOL
REMARK 927      BINDING AFFINITY PREDICTED BY RF-SCORE:    0.00 PKD
ROOT
HETATM    1  C   UNL     1     -11.937   8.428  72.330  1.00  0.00    -0.455 C  
HETATM    2  C   UNL     1     -13.359   8.901  72.067  1.00  0.00    -0.421 C  
HETATM    3  N   UNL     1     -14.165   8.870  73.291  1.00  0.00    -1.237 NA 
HETATM    4  H2  UNL     1     -13.726   9.402  74.042  1.00  0.00     0.000 HD 
HETATM    5  H1  UNL     1     -15.118   9.187  73.115  1.00  0.00     0.000 HD 
ENDROOT
BRANCH   2   6
HETATM    6  C   UNL     1     -13.401  10.278  71.381  1.00  0.00    -0.304 C  
BRANCH   6   7
HETATM    7  O   UNL     1     -12.148  10.935  71.232  1.00  0.00    -0.311 OA 
BRANCH   7   8
HETATM    8  C   UNL     1     -12.166  12.198  70.664  1.00  0.00    -0.300 A  
HETATM    9  C   UNL     1     -12.612  13.418  71.237  1.00  0.00    -0.411 A  
HETATM   10  C   UNL     1     -12.528  14.602  70.465  1.00  0.00    -0.408 A  
HETATM   11  C   UNL     1     -13.296  13.664  72.562  1.00  0.00    -0.638 C  
HETATM   12  C   UNL     1     -12.009  14.612  69.176  1.00  0.00    -0.329 A  
HETATM   13  C   UNL     1     -11.594  13.419  68.607  1.00  0.00    -0.362 A  
HETATM   14  C   UNL     1     -11.670  12.213  69.327  1.00  0.00    -0.386 A  
HETATM   15  C   UNL     1     -11.235  10.945  68.621  1.00  0.00    -0.326 C  
ENDBRANCH   7   8
ENDBRANCH   6   7
ENDBRANCH   2   6
TORSDOF 3
ENDMDL
MODEL        5
REMARK 921   NORMALIZED FREE ENERGY PREDICTED BY IDOCK:   -4.97 KCAL/MOL
REMARK 922        TOTAL FREE ENERGY PREDICTED BY IDOCK:   -6.02 KCAL/MOL
REMARK 923 INTER-LIGAND FREE ENERGY PREDICTED BY IDOCK:   -5.84 KCAL/MOL
REMARK 924 INTRA-LIGAND FREE ENERGY PREDICTED BY IDOCK:   -0.19 KCAL/MOL
REMARK 927      BINDING AFFINITY PREDICTED BY RF-SCORE:    0.00 PKD
ROOT
HETATM    1  C   UNL     1     -10.178  16.445  65.875  1.00  0.00    -0.379 C  
HETATM    2  C   UNL     1     -11.104  15.584  65.029  1.00  0.00    -0.401 C  
HETATM    3  N   UNL     1     -11.602  16.322  63.866  1.00  0.00    -1.573 NA 
HETATM    4  H2  UNL     1     -10.837  16.706  63.311  1.00  0.00     0.000 HD 
HETATM    5  H1  UNL     1     -12.223  15.744  63.299  1.00  0.00     0.000 HD 
ENDROOT
BRANCH   2   6
HETATM    6  C   UNL     1     -10.458  14.244  64.633  1.00  0.00    -0.298 C  
BRANCH   6   7
HETATM    7  O   UNL     1     -11.325  13.116  64.624  1.00  0.00    -0.310 OA 
BRANCH   7   8
HETATM    8  C   UNL     1     -11.022  12.087  65.501  1.00  0.00    -0.298 A  
HETATM    9  C   UNL     1     -11.292  12.003  66.892  1.00  0.00    -0.400 A  
HETATM   10  C   UNL     1     -10.895  10.839  67.592  1.00  0.00    -0.332 A  
HETATM   11  C   UNL     1     -11.867  13.045  67.824  1.00  0.00    -0.395 C  
HETATM   12  C   UNL     1     -10.267   9.771  66.961  1.00  0.00    -0.292 A  
HETATM   13  C   UNL     1      -9.983   9.861  65.608  1.00  0.00    -0.353 A  
HETATM   14  C   UNL     1     -10.344  11.002  64.871  1.00  0.00    -0.378 A  
HETATM   15  C   UNL     1      -9.963  11.041  63.405  1.00  0.00    -0.428 C  
ENDBRANCH   7   8
ENDBRANCH   6   7
ENDBRANCH   2   6
TORSDOF 3
ENDMDL
MODEL        6
REMARK 921   NORMALIZED FREE ENERGY PREDICTED BY IDOCK:   -4.96 KCAL/MOL
REMARK 922        TOTAL FREE ENERGY PREDICTED BY IDOCK:   -6.01 KCAL/MOL
REMARK 923 INTER-LIGAND FREE ENERGY PREDICTED BY IDOCK:   -5.89 KCAL/MOL
REMARK 924 INTRA-LIGAND FREE ENERGY PREDICTED BY IDOCK:   -0.12 KCAL/MOL
REMARK 927      BINDING AFFINITY PREDICTED BY RF-SCORE:    0.00 PKD
ROOT
HETATM    1  C   UNL     1     -12.124  14.453  65.344  1.00  0.00    -0.364 C  
HETATM    2  C   UNL     1     -11.037  15.392  64.839  1.00  0.00    -0.423 C  
HETATM    3  N   UNL     1     -11.569  16.346  63.864  1.00  0.00    -1.602 NA 
HETATM    4  H2  UNL     1     -12.364  16.862  64.240  1.00  0.00     0.000 HD 
HETATM    5  H1  UNL     1     -10.841  16.975  63.526  1.00  0.00     0.000 HD 
ENDROOT
BRANCH   2   6
HETATM    6  C   UNL     1     -10.290  16.093  65.988  1.00  0.00    -0.358 C  
BRANCH   6   7
HETATM    7  O   UNL     1      -9.402  17.136  65.604  1.00  0.00    -0.515 OA 
BRANCH   7   8
HETATM    8  C   UNL     1      -8.809  17.861  66.625  1.00  0.00    -0.268 A  
HETATM    9  C   UNL     1      -7.788  17.452  67.522  1.00  0.00    -0.209 A  
HETATM   10  C   UNL     1      -7.325  18.374  68.491  1.00  0.00    -0.302 A  
HETATM   11  C   UNL     1      -7.151  16.092  67.698  1.00  0.00    -0.170 C  
HETATM   12  C   UNL     1      -7.823  19.669  68.581  1.00  0.00    -0.349 A  
HETATM   13  C   UNL     1      -8.835  20.063  67.720  1.00  0.00    -0.379 A  
HETATM   14  C   UNL     1      -9.339  19.179  66.750  1.00  0.00    -0.364 A  
HETATM   15  C   UNL     1     -10.474  19.671  65.874  1.00  0.00    -0.591 C  
ENDBRANCH   7   8
ENDBRANCH   6   7
ENDBRANCH   2   6
TORSDOF 3
ENDMDL
MODEL        7
REMARK 921   NORMALIZED FREE ENERGY PREDICTED BY IDOCK:   -4.94 KCAL/MOL
REMARK 922        TOTAL FREE ENERGY PREDICTED BY IDOCK:   -5.99 KCAL/MOL
REMARK 923 INTER-LIGAND FREE ENERGY PREDICTED BY IDOCK:   -5.85 KCAL/MOL
REMARK 924 INTRA-LIGAND FREE ENERGY PREDICTED BY IDOCK:   -0.14 KCAL/MOL
REMARK 927      BINDING AFFINITY PREDICTED BY RF-SCORE:    0.00 PKD
ROOT
HETATM    1  C   UNL     1     -12.117   8.012  72.230  1.00  0.00    -0.392 C  
HETATM    2  C   UNL     1     -13.477   8.648  71.983  1.00  0.00    -0.403 C  
HETATM    3  N   UNL     1     -14.171   8.927  73.242  1.00  0.00    -1.237 NA 
HETATM    4  H2  UNL     1     -13.600   9.495  73.867  1.00  0.00     0.000 HD 
HETATM    5  H1  UNL     1     -15.083   9.353  73.076  1.00  0.00     0.000 HD 
ENDROOT
BRANCH   2   6
HETATM    6  C   UNL     1     -13.385   9.895  71.084  1.00  0.00    -0.301 C  
BRANCH   6   7
HETATM    7  O   UNL     1     -12.590  10.963  71.584  1.00  0.00    -0.375 OA 
BRANCH   7   8
HETATM    8  C   UNL     1     -12.278  11.980  70.697  1.00  0.00    -0.316 A  
HETATM    9  C   UNL     1     -11.576  11.896  69.466  1.00  0.00    -0.394 A  
HETATM   10  C   UNL     1     -11.379  13.078  68.714  1.00  0.00    -0.332 A  
HETATM   11  C   UNL     1     -10.873  10.713  68.841  1.00  0.00    -0.272 C  
HETATM   12  C   UNL     1     -11.865  14.312  69.130  1.00  0.00    -0.368 A  
HETATM   13  C   UNL     1     -12.531  14.400  70.342  1.00  0.00    -0.420 A  
HETATM   14  C   UNL     1     -12.740  13.257  71.133  1.00  0.00    -0.404 A  
HETATM   15  C   UNL     1     -13.441  13.443  72.463  1.00  0.00    -0.640 C  
ENDBRANCH   7   8
ENDBRANCH   6   7
ENDBRANCH   2   6
TORSDOF 3
ENDMDL
MODEL        8
REMARK 921   NORMALIZED FREE ENERGY PREDICTED BY IDOCK:   -4.82 KCAL/MOL
REMARK 922        TOTAL FREE ENERGY PREDICTED BY IDOCK:   -5.84 KCAL/MOL
REMARK 923 INTER-LIGAND FREE ENERGY PREDICTED BY IDOCK:   -5.52 KCAL/MOL
REMARK 924 INTRA-LIGAND FREE ENERGY PREDICTED BY IDOCK:   -0.33 KCAL/MOL
REMARK 927      BINDING AFFINITY PREDICTED BY RF-SCORE:    0.00 PKD
ROOT
HETATM    1  C   UNL     1     -10.506  15.086  64.859  1.00  0.00    -0.367 C  
HETATM    2  C   UNL     1     -11.975  14.689  64.866  1.00  0.00    -0.400 C  
HETATM    3  N   UNL     1     -12.375  14.110  63.581  1.00  0.00    -1.092 NA 
HETATM    4  H2  UNL     1     -11.777  13.326  63.321  1.00  0.00     0.000 HD 
HETATM    5  H1  UNL     1     -13.360  13.845  63.585  1.00  0.00     0.000 HD 
ENDROOT
BRANCH   2   6
HETATM    6  C   UNL     1     -12.328  13.772  66.050  1.00  0.00    -0.457 C  
BRANCH   6   7
HETATM    7  O   UNL     1     -11.313  13.609  67.033  1.00  0.00    -0.303 OA 
BRANCH   7   8
HETATM    8  C   UNL     1     -11.605  14.046  68.314  1.00  0.00    -0.329 A  
HETATM    9  C   UNL     1     -11.628  15.375  68.812  1.00  0.00    -0.382 A  
HETATM   10  C   UNL     1     -11.967  15.587  70.169  1.00  0.00    -0.389 A  
HETATM   11  C   UNL     1     -11.228  16.663  68.129  1.00  0.00    -0.202 C  
HETATM   12  C   UNL     1     -12.295  14.542  71.025  1.00  0.00    -0.417 A  
HETATM   13  C   UNL     1     -12.252  13.242  70.547  1.00  0.00    -0.416 A  
HETATM   14  C   UNL     1     -11.907  12.977  69.210  1.00  0.00    -0.370 A  
HETATM   15  C   UNL     1     -11.843  11.527  68.775  1.00  0.00    -0.394 C  
ENDBRANCH   7   8
ENDBRANCH   6   7
ENDBRANCH   2   6
TORSDOF 3
ENDMDL
MODEL        9
REMARK 921   NORMALIZED FREE ENERGY PREDICTED BY IDOCK:   -4.81 KCAL/MOL
REMARK 922        TOTAL FREE ENERGY PREDICTED BY IDOCK:   -5.83 KCAL/MOL
REMARK 923 INTER-LIGAND FREE ENERGY PREDICTED BY IDOCK:   -5.67 KCAL/MOL
REMARK 924 INTRA-LIGAND FREE ENERGY PREDICTED BY IDOCK:   -0.16 KCAL/MOL
REMARK 927      BINDING AFFINITY PREDICTED BY RF-SCORE:    0.00 PKD
ROOT
HETATM    1  C   UNL     1     -10.215  11.931  66.646  1.00  0.00    -0.236 C  
HETATM    2  C   UNL     1     -11.553  11.907  67.369  1.00  0.00    -0.297 C  
HETATM    3  N   UNL     1     -11.747  10.646  68.089  1.00  0.00    -0.747 NA 
HETATM    4  H2  UNL     1     -10.974  10.455  68.726  1.00  0.00     0.000 HD 
HETATM    5  H1  UNL     1     -12.645  10.630  68.573  1.00  0.00     0.000 HD 
ENDROOT
BRANCH   2   6
HETATM    6  C   UNL     1     -11.747  13.131  68.283  1.00  0.00    -0.349 C  
BRANCH   6   7
HETATM    7  O   UNL     1     -11.441  12.933  69.658  1.00  0.00    -0.250 OA 
BRANCH   7   8
HETATM    8  C   UNL     1     -12.161  13.682  70.574  1.00  0.00    -0.368 A  
HETATM    9  C   UNL     1     -12.209  15.093  70.720  1.00  0.00    -0.392 A  
HETATM   10  C   UNL     1     -13.030  15.645  71.731  1.00  0.00    -0.541 A  
HETATM   11  C   UNL     1     -11.407  16.160  70.009  1.00  0.00    -0.332 C  
HETATM   12  C   UNL     1     -13.803  14.854  72.573  1.00  0.00    -0.564 A  
HETATM   13  C   UNL     1     -13.742  13.475  72.447  1.00  0.00    -0.704 A  
HETATM   14  C   UNL     1     -12.930  12.878  71.467  1.00  0.00    -0.388 A  
HETATM   15  C   UNL     1     -12.885  11.364  71.419  1.00  0.00    -0.502 C  
ENDBRANCH   7   8
ENDBRANCH   6   7
ENDBRANCH   2   6
TORSDOF 3
ENDMDL
MODEL       10
REMARK 921   NORMALIZED FREE ENERGY PREDICTED BY IDOCK:   -4.79 KCAL/MOL
REMARK 922        TOTAL FREE ENERGY PREDICTED BY IDOCK:   -5.81 KCAL/MOL
REMARK 923 INTER-LIGAND FREE ENERGY PREDICTED BY IDOCK:   -5.58 KCAL/MOL
REMARK 924 INTRA-LIGAND FREE ENERGY PREDICTED BY IDOCK:   -0.23 KCAL/MOL
REMARK 927      BINDING AFFINITY PREDICTED BY RF-SCORE:    0.00 PKD
ROOT
HETATM    1  C   UNL     1     -12.534  12.020  63.458  1.00  0.00    -0.654 C  
HETATM    2  C   UNL     1     -11.985  13.242  64.179  1.00  0.00    -0.447 C  
HETATM    3  N   UNL     1     -12.455  14.483  63.558  1.00  0.00    -1.063 NA 
HETATM    4  H2  UNL     1     -13.473  14.510  63.499  1.00  0.00     0.000 HD 
HETATM    5  H1  UNL     1     -12.086  15.301  64.042  1.00  0.00     0.000 HD 
ENDROOT
BRANCH   2   6
HETATM    6  C   UNL     1     -12.270  13.206  65.692  1.00  0.00    -0.466 C  
BRANCH   6   7
HETATM    7  O   UNL     1     -11.131  13.290  66.539  1.00  0.00    -0.287 OA 
BRANCH   7   8
HETATM    8  C   UNL     1     -11.103  14.335  67.448  1.00  0.00    -0.304 A  
HETATM    9  C   UNL     1     -10.826  15.707  67.209  1.00  0.00    -0.298 A  
HETATM   10  C   UNL     1     -10.862  16.607  68.301  1.00  0.00    -0.356 A  
HETATM   11  C   UNL     1     -10.373  16.389  65.939  1.00  0.00    -0.378 C  
HETATM   12  C   UNL     1     -11.175  16.197  69.592  1.00  0.00    -0.331 A  
HETATM   13  C   UNL     1     -11.423  14.855  69.830  1.00  0.00    -0.321 A  
HETATM   14  C   UNL     1     -11.386  13.918  68.782  1.00  0.00    -0.310 A  
HETATM   15  C   UNL     1     -11.628  12.464  69.131  1.00  0.00    -0.369 C  
ENDBRANCH   7   8
ENDBRANCH   6   7
ENDBRANCH   2   6
TORSDOF 3
ENDMDL
MODEL       11
REMARK 921   NORMALIZED FREE ENERGY PREDICTED BY IDOCK:   -4.78 KCAL/MOL
REMARK 922        TOTAL FREE ENERGY PREDICTED BY IDOCK:   -5.81 KCAL/MOL
REMARK 923 INTER-LIGAND FREE ENERGY PREDICTED BY IDOCK:   -5.60 KCAL/MOL
REMARK 924 INTRA-LIGAND FREE ENERGY PREDICTED BY IDOCK:   -0.21 KCAL/MOL
REMARK 927      BINDING AFFINITY PREDICTED BY RF-SCORE:    0.00 PKD
ROOT
HETATM    1  C   UNL     1     -10.286  13.607  66.377  1.00  0.00    -0.292 C  
HETATM    2  C   UNL     1     -11.728  13.304  66.757  1.00  0.00    -0.385 C  
HETATM    3  N   UNL     1     -12.448  12.672  65.649  1.00  0.00    -0.620 NA 
HETATM    4  H2  UNL     1     -11.966  11.837  65.316  1.00  0.00     0.000 HD 
HETATM    5  H1  UNL     1     -13.415  12.470  65.903  1.00  0.00     0.000 HD 
ENDROOT
BRANCH   2   6
HETATM    6  C   UNL     1     -11.832  12.486  68.057  1.00  0.00    -0.325 C  
BRANCH   6   7
HETATM    7  O   UNL     1     -11.263  13.087  69.214  1.00  0.00    -0.250 OA 
BRANCH   7   8
HETATM    8  C   UNL     1     -12.133  13.421  70.238  1.00  0.00    -0.349 A  
HETATM    9  C   UNL     1     -12.800  12.560  71.148  1.00  0.00    -0.303 A  
HETATM   10  C   UNL     1     -13.646  13.130  72.129  1.00  0.00    -0.637 A  
HETATM   11  C   UNL     1     -12.847  11.049  71.183  1.00  0.00    -0.491 C  
HETATM   12  C   UNL     1     -13.830  14.504  72.242  1.00  0.00    -0.587 A  
HETATM   13  C   UNL     1     -13.198  15.345  71.341  1.00  0.00    -0.578 A  
HETATM   14  C   UNL     1     -12.359  14.826  70.339  1.00  0.00    -0.402 A  
HETATM   15  C   UNL     1     -11.736  15.807  69.367  1.00  0.00    -0.379 C  
ENDBRANCH   7   8
ENDBRANCH   6   7
ENDBRANCH   2   6
TORSDOF 3
ENDMDL
MODEL       12
REMARK 921   NORMALIZED FREE ENERGY PREDICTED BY IDOCK:   -4.76 KCAL/MOL
REMARK 922        TOTAL FREE ENERGY PREDICTED BY IDOCK:   -5.77 KCAL/MOL
REMARK 923 INTER-LIGAND FREE ENERGY PREDICTED BY IDOCK:   -5.46 KCAL/MOL
REMARK 924 INTRA-LIGAND FREE ENERGY PREDICTED BY IDOCK:   -0.31 KCAL/MOL
REMARK 927      BINDING AFFINITY PREDICTED BY RF-SCORE:    0.00 PKD
ROOT
HETATM    1  C   UNL     1     -10.994  15.157  64.867  1.00  0.00    -0.434 C  
HETATM    2  C   UNL     1     -12.283  14.390  64.611  1.00  0.00    -0.464 C  
HETATM    3  N   UNL     1     -12.402  14.005  63.203  1.00  0.00    -1.094 NA 
HETATM    4  H2  UNL     1     -11.586  13.481  62.887  1.00  0.00     0.000 HD 
HETATM    5  H1  UNL     1     -13.267  13.492  63.031  1.00  0.00     0.000 HD 
ENDROOT
BRANCH   2   6
HETATM    6  C   UNL     1     -12.446  13.187  65.557  1.00  0.00    -0.458 C  
BRANCH   6   7
HETATM    7  O   UNL     1     -11.341  12.915  66.410  1.00  0.00    -0.293 OA 
BRANCH   7   8
HETATM    8  C   UNL     1     -10.822  11.631  66.372  1.00  0.00    -0.287 A  
HETATM    9  C   UNL     1     -10.158  10.977  65.301  1.00  0.00    -0.332 A  
HETATM   10  C   UNL     1      -9.700   9.652  65.493  1.00  0.00    -0.372 A  
HETATM   11  C   UNL     1      -9.939  11.442  63.880  1.00  0.00    -0.357 C  
HETATM   12  C   UNL     1      -9.862   8.978  66.699  1.00  0.00    -0.316 A  
HETATM   13  C   UNL     1     -10.529   9.606  67.737  1.00  0.00    -0.309 A  
HETATM   14  C   UNL     1     -11.016  10.917  67.592  1.00  0.00    -0.350 A  
HETATM   15  C   UNL     1     -11.771  11.520  68.759  1.00  0.00    -0.397 C  
ENDBRANCH   7   8
ENDBRANCH   6   7
ENDBRANCH   2   6
TORSDOF 3
ENDMDL
MODEL       13
REMARK 921   NORMALIZED FREE ENERGY PREDICTED BY IDOCK:   -4.75 KCAL/MOL
REMARK 922        TOTAL FREE ENERGY PREDICTED BY IDOCK:   -5.76 KCAL/MOL
REMARK 923 INTER-LIGAND FREE ENERGY PREDICTED BY IDOCK:   -5.60 KCAL/MOL
REMARK 924 INTRA-LIGAND FREE ENERGY PREDICTED BY IDOCK:   -0.16 KCAL/MOL
REMARK 927      BINDING AFFINITY PREDICTED BY RF-SCORE:    0.00 PKD
ROOT
HETATM    1  C   UNL     1     -12.125  12.641  63.671  1.00  0.00    -0.632 C  
HETATM    2  C   UNL     1     -11.738  13.843  64.520  1.00  0.00    -0.410 C  
HETATM    3  N   UNL     1     -12.099  15.100  63.859  1.00  0.00    -0.957 NA 
HETATM    4  H2  UNL     1     -13.087  15.121  63.609  1.00  0.00     0.000 HD 
HETATM    5  H1  UNL     1     -11.839  15.905  64.428  1.00  0.00     0.000 HD 
ENDROOT
BRANCH   2   6
HETATM    6  C   UNL     1     -12.305  13.757  65.949  1.00  0.00    -0.476 C  
BRANCH   6   7
HETATM    7  O   UNL     1     -11.350  13.844  67.000  1.00  0.00    -0.303 OA 
BRANCH   7   8
HETATM    8  C   UNL     1     -11.621  13.126  68.153  1.00  0.00    -0.339 A  
HETATM    9  C   UNL     1     -11.550  11.723  68.358  1.00  0.00    -0.380 A  
HETATM   10  C   UNL     1     -11.867  11.205  69.636  1.00  0.00    -0.419 A  
HETATM   11  C   UNL     1     -11.281  10.619  67.361  1.00  0.00    -0.280 C  
HETATM   12  C   UNL     1     -12.227  12.025  70.700  1.00  0.00    -0.409 A  
HETATM   13  C   UNL     1     -12.319  13.392  70.496  1.00  0.00    -0.401 A  
HETATM   14  C   UNL     1     -12.028  13.954  69.241  1.00  0.00    -0.402 A  
HETATM   15  C   UNL     1     -12.191  15.452  69.087  1.00  0.00    -0.192 C  
ENDBRANCH   7   8
ENDBRANCH   6   7
ENDBRANCH   2   6
TORSDOF 3
ENDMDL
MODEL       14
REMARK 921   NORMALIZED FREE ENERGY PREDICTED BY IDOCK:   -4.73 KCAL/MOL
REMARK 922        TOTAL FREE ENERGY PREDICTED BY IDOCK:   -5.74 KCAL/MOL
REMARK 923 INTER-LIGAND FREE ENERGY PREDICTED BY IDOCK:   -5.45 KCAL/MOL
REMARK 924 INTRA-LIGAND FREE ENERGY PREDICTED BY IDOCK:   -0.29 KCAL/MOL
REMARK 927      BINDING AFFINITY PREDICTED BY RF-SCORE:    0.00 PKD
ROOT
HETATM    1  C   UNL     1     -12.150  13.741  64.098  1.00  0.00    -0.478 C  
HETATM    2  C   UNL     1     -11.251  14.860  64.603  1.00  0.00    -0.341 C  
HETATM    3  N   UNL     1     -11.605  16.144  63.994  1.00  0.00    -1.417 NA 
HETATM    4  H2  UNL     1     -12.591  16.365  64.133  1.00  0.00     0.000 HD 
HETATM    5  H1  UNL     1     -11.002  16.893  64.332  1.00  0.00     0.000 HD 
ENDROOT
BRANCH   2   6
HETATM    6  C   UNL     1     -11.219  14.937  66.141  1.00  0.00    -0.325 C  
BRANCH   6   7
HETATM    7  O   UNL     1     -10.399  13.975  66.793  1.00  0.00    -0.266 OA 
BRANCH   7   8
HETATM    8  C   UNL     1     -10.971  13.270  67.839  1.00  0.00    -0.249 A  
HETATM    9  C   UNL     1     -11.385  13.753  69.108  1.00  0.00    -0.329 A  
HETATM   10  C   UNL     1     -11.958  12.842  70.027  1.00  0.00    -0.380 A  
HETATM   11  C   UNL     1     -11.212  15.125  69.717  1.00  0.00    -0.298 C  
HETATM   12  C   UNL     1     -12.145  11.499  69.723  1.00  0.00    -0.374 A  
HETATM   13  C   UNL     1     -11.722  11.021  68.493  1.00  0.00    -0.348 A  
HETATM   14  C   UNL     1     -11.133  11.883  67.550  1.00  0.00    -0.332 A  
HETATM   15  C   UNL     1     -10.659  11.277  66.245  1.00  0.00    -0.315 C  
ENDBRANCH   7   8
ENDBRANCH   6   7
ENDBRANCH   2   6
TORSDOF 3
ENDMDL
MODEL       15
REMARK 921   NORMALIZED FREE ENERGY PREDICTED BY IDOCK:   -4.70 KCAL/MOL
REMARK 922        TOTAL FREE ENERGY PREDICTED BY IDOCK:   -5.71 KCAL/MOL
REMARK 923 INTER-LIGAND FREE ENERGY PREDICTED BY IDOCK:   -5.49 KCAL/MOL
REMARK 924 INTRA-LIGAND FREE ENERGY PREDICTED BY IDOCK:   -0.21 KCAL/MOL
REMARK 927      BINDING AFFINITY PREDICTED BY RF-SCORE:    0.00 PKD
ROOT
HETATM    1  C   UNL     1     -11.042  14.966  66.504  1.00  0.00    -0.341 C  
HETATM    2  C   UNL     1     -12.249  14.050  66.646  1.00  0.00    -0.428 C  
HETATM    3  N   UNL     1     -12.916  13.844  65.358  1.00  0.00    -0.748 NA 
HETATM    4  H2  UNL     1     -12.266  13.501  64.650  1.00  0.00     0.000 HD 
HETATM    5  H1  UNL     1     -13.725  13.231  65.454  1.00  0.00     0.000 HD 
ENDROOT
BRANCH   2   6
HETATM    6  C   UNL     1     -11.895  12.719  67.334  1.00  0.00    -0.342 C  
BRANCH   6   7
HETATM    7  O   UNL     1     -11.158  12.824  68.546  1.00  0.00    -0.238 OA 
BRANCH   7   8
HETATM    8  C   UNL     1     -11.890  12.909  69.719  1.00  0.00    -0.310 A  
HETATM    9  C   UNL     1     -12.435  14.065  70.339  1.00  0.00    -0.418 A  
HETATM   10  C   UNL     1     -13.162  13.910  71.543  1.00  0.00    -0.425 A  
HETATM   11  C   UNL     1     -12.272  15.521  69.969  1.00  0.00    -0.380 C  
HETATM   12  C   UNL     1     -13.375  12.667  72.128  1.00  0.00    -0.570 A  
HETATM   13  C   UNL     1     -12.826  11.541  71.536  1.00  0.00    -0.485 A  
HETATM   14  C   UNL     1     -12.083  11.643  70.346  1.00  0.00    -0.462 A  
HETATM   15  C   UNL     1     -11.480  10.372  69.784  1.00  0.00    -0.348 C  
ENDBRANCH   7   8
ENDBRANCH   6   7
ENDBRANCH   2   6
TORSDOF 3
ENDMDL
MODEL       16
REMARK 921   NORMALIZED FREE ENERGY PREDICTED BY IDOCK:   -4.67 KCAL/MOL
REMARK 922        TOTAL FREE ENERGY PREDICTED BY IDOCK:   -5.67 KCAL/MOL
REMARK 923 INTER-LIGAND FREE ENERGY PREDICTED BY IDOCK:   -5.35 KCAL/MOL
REMARK 924 INTRA-LIGAND FREE ENERGY PREDICTED BY IDOCK:   -0.33 KCAL/MOL
REMARK 927      BINDING AFFINITY PREDICTED BY RF-SCORE:    0.00 PKD
ROOT
HETATM    1  C   UNL     1     -12.249  15.683  72.228  1.00  0.00    -0.531 C  
HETATM    2  C   UNL     1     -13.346  14.737  71.761  1.00  0.00    -0.356 C  
HETATM    3  N   UNL     1     -14.334  15.435  70.934  1.00  0.00    -0.853 NA 
HETATM    4  H2  UNL     1     -13.893  15.914  70.149  1.00  0.00     0.000 HD 
HETATM    5  H1  UNL     1     -15.069  14.802  70.622  1.00  0.00     0.000 HD 
ENDROOT
BRANCH   2   6
HETATM    6  C   UNL     1     -12.783  13.488  71.060  1.00  0.00    -0.322 C  
BRANCH   6   7
HETATM    7  O   UNL     1     -11.602  13.686  70.293  1.00  0.00    -0.216 OA 
BRANCH   7   8
HETATM    8  C   UNL     1     -11.674  13.382  68.943  1.00  0.00    -0.328 A  
HETATM    9  C   UNL     1     -11.692  12.104  68.325  1.00  0.00    -0.401 A  
HETATM   10  C   UNL     1     -11.779  12.033  66.914  1.00  0.00    -0.342 A  
HETATM   11  C   UNL     1     -11.518  10.735  68.942  1.00  0.00    -0.362 C  
HETATM   12  C   UNL     1     -11.866  13.169  66.117  1.00  0.00    -0.453 A  
HETATM   13  C   UNL     1     -11.826  14.417  66.717  1.00  0.00    -0.431 A  
HETATM   14  C   UNL     1     -11.726  14.541  68.115  1.00  0.00    -0.369 A  
HETATM   15  C   UNL     1     -11.647  15.940  68.691  1.00  0.00    -0.383 C  
ENDBRANCH   7   8
ENDBRANCH   6   7
ENDBRANCH   2   6
TORSDOF 3
ENDMDL
MODEL       17
REMARK 921   NORMALIZED FREE ENERGY PREDICTED BY IDOCK:   -4.65 KCAL/MOL
REMARK 922        TOTAL FREE ENERGY PREDICTED BY IDOCK:   -5.64 KCAL/MOL
REMARK 923 INTER-LIGAND FREE ENERGY PREDICTED BY IDOCK:   -5.29 KCAL/MOL
REMARK 924 INTRA-LIGAND FREE ENERGY PREDICTED BY IDOCK:   -0.36 KCAL/MOL
REMARK 927      BINDING AFFINITY PREDICTED BY RF-SCORE:    0.00 PKD
ROOT
HETATM    1  C   UNL     1      -8.941  16.235  68.917  1.00  0.00    -0.248 C  
HETATM    2  C   UNL     1     -10.387  16.690  69.051  1.00  0.00    -0.317 C  
HETATM    3  N   UNL     1     -11.153  16.392  67.839  1.00  0.00    -0.297 NA 
HETATM    4  H2  UNL     1     -11.094  15.404  67.592  1.00  0.00     0.000 HD 
HETATM    5  H1  UNL     1     -12.122  16.698  67.928  1.00  0.00     0.000 HD 
ENDROOT
BRANCH   2   6
HETATM    6  C   UNL     1     -11.062  16.131  70.316  1.00  0.00    -0.369 C  
BRANCH   6   7
HETATM    7  O   UNL     1     -12.347  15.550  70.128  1.00  0.00    -0.373 OA 
BRANCH   7   8
HETATM    8  C   UNL     1     -12.516  14.249  70.570  1.00  0.00    -0.361 A  
HETATM    9  C   UNL     1     -11.951  13.056  70.047  1.00  0.00    -0.383 A  
HETATM   10  C   UNL     1     -12.261  11.825  70.674  1.00  0.00    -0.443 A  
HETATM   11  C   UNL     1     -11.114  12.854  68.805  1.00  0.00    -0.305 C  
HETATM   12  C   UNL     1     -13.084  11.748  71.791  1.00  0.00    -0.480 A  
HETATM   13  C   UNL     1     -13.655  12.908  72.290  1.00  0.00    -0.611 A  
HETATM   14  C   UNL     1     -13.389  14.154  71.694  1.00  0.00    -0.440 A  
HETATM   15  C   UNL     1     -14.083  15.370  72.273  1.00  0.00    -0.660 C  
ENDBRANCH   7   8
ENDBRANCH   6   7
ENDBRANCH   2   6
TORSDOF 3
ENDMDL
MODEL       18
REMARK 921   NORMALIZED FREE ENERGY PREDICTED BY IDOCK:   -4.62 KCAL/MOL
REMARK 922        TOTAL FREE ENERGY PREDICTED BY IDOCK:   -5.61 KCAL/MOL
REMARK 923 INTER-LIGAND FREE ENERGY PREDICTED BY IDOCK:   -5.44 KCAL/MOL
REMARK 924 INTRA-LIGAND FREE ENERGY PREDICTED BY IDOCK:   -0.17 KCAL/MOL
REMARK 927      BINDING AFFINITY PREDICTED BY RF-SCORE:    0.00 PKD
ROOT
HETATM    1  C   UNL     1     -12.421  11.984  63.440  1.00  0.00    -0.625 C  
HETATM    2  C   UNL     1     -11.843  13.216  64.120  1.00  0.00    -0.429 C  
HETATM    3  N   UNL     1     -12.428  14.446  63.579  1.00  0.00    -1.090 NA 
HETATM    4  H2  UNL     1     -13.447  14.431  63.633  1.00  0.00     0.000 HD 
HETATM    5  H1  UNL     1     -12.041  15.272  64.034  1.00  0.00     0.000 HD 
ENDROOT
BRANCH   2   6
HETATM    6  C   UNL     1     -11.957  13.147  65.654  1.00  0.00    -0.415 C  
BRANCH   6   7
HETATM    7  O   UNL     1     -10.810  13.568  66.380  1.00  0.00    -0.287 OA 
BRANCH   7   8
HETATM    8  C   UNL     1     -11.033  14.324  67.520  1.00  0.00    -0.289 A  
HETATM    9  C   UNL     1     -11.474  13.888  68.797  1.00  0.00    -0.327 A  
HETATM   10  C   UNL     1     -11.625  14.847  69.827  1.00  0.00    -0.339 A  
HETATM   11  C   UNL     1     -11.935  12.518  69.239  1.00  0.00    -0.304 C  
HETATM   12  C   UNL     1     -11.340  16.194  69.635  1.00  0.00    -0.316 A  
HETATM   13  C   UNL     1     -10.931  16.624  68.383  1.00  0.00    -0.345 A  
HETATM   14  C   UNL     1     -10.779  15.713  67.323  1.00  0.00    -0.305 A  
HETATM   15  C   UNL     1     -10.367  16.268  65.975  1.00  0.00    -0.363 C  
ENDBRANCH   7   8
ENDBRANCH   6   7
ENDBRANCH   2   6
TORSDOF 3
ENDMDL
MODEL       19
REMARK 921   NORMALIZED FREE ENERGY PREDICTED BY IDOCK:   -4.61 KCAL/MOL
REMARK 922        TOTAL FREE ENERGY PREDICTED BY IDOCK:   -5.60 KCAL/MOL
REMARK 923 INTER-LIGAND FREE ENERGY PREDICTED BY IDOCK:   -5.43 KCAL/MOL
REMARK 924 INTRA-LIGAND FREE ENERGY PREDICTED BY IDOCK:   -0.17 KCAL/MOL
REMARK 927      BINDING AFFINITY PREDICTED BY RF-SCORE:    0.00 PKD
ROOT
HETATM    1  C   UNL     1     -10.744  10.183  67.266  1.00  0.00    -0.316 C  
HETATM    2  C   UNL     1     -11.220  10.598  68.650  1.00  0.00    -0.278 C  
HETATM    3  N   UNL     1     -10.135  10.526  69.630  1.00  0.00    -0.388 NA 
HETATM    4  H2  UNL     1      -9.325  11.072  69.334  1.00  0.00     0.000 HD 
HETATM    5  H1  UNL     1     -10.454  10.804  70.558  1.00  0.00     0.000 HD 
ENDROOT
BRANCH   2   6
HETATM    6  C   UNL     1     -11.906  11.976  68.644  1.00  0.00    -0.311 C  
BRANCH   6   7
HETATM    7  O   UNL     1     -11.403  12.923  69.579  1.00  0.00    -0.230 OA 
BRANCH   7   8
HETATM    8  C   UNL     1     -12.303  13.432  70.500  1.00  0.00    -0.329 A  
HETATM    9  C   UNL     1     -13.029  12.738  71.504  1.00  0.00    -0.388 A  
HETATM   10  C   UNL     1     -13.895  13.473  72.347  1.00  0.00    -0.687 A  
HETATM   11  C   UNL     1     -13.119  11.253  71.770  1.00  0.00    -0.527 C  
HETATM   12  C   UNL     1     -14.045  14.851  72.237  1.00  0.00    -0.600 A  
HETATM   13  C   UNL     1     -13.354  15.527  71.245  1.00  0.00    -0.588 A  
HETATM   14  C   UNL     1     -12.492  14.840  70.372  1.00  0.00    -0.405 A  
HETATM   15  C   UNL     1     -11.804  15.643  69.287  1.00  0.00    -0.378 C  
ENDBRANCH   7   8
ENDBRANCH   6   7
ENDBRANCH   2   6
TORSDOF 3
ENDMDL
MODEL       20
REMARK 921   NORMALIZED FREE ENERGY PREDICTED BY IDOCK:   -4.61 KCAL/MOL
REMARK 922        TOTAL FREE ENERGY PREDICTED BY IDOCK:   -5.60 KCAL/MOL
REMARK 923 INTER-LIGAND FREE ENERGY PREDICTED BY IDOCK:   -5.50 KCAL/MOL
REMARK 924 INTRA-LIGAND FREE ENERGY PREDICTED BY IDOCK:   -0.10 KCAL/MOL
REMARK 927      BINDING AFFINITY PREDICTED BY RF-SCORE:    0.00 PKD
ROOT
HETATM    1  C   UNL     1     -12.086  11.993  63.513  1.00  0.00    -0.628 C  
HETATM    2  C   UNL     1     -11.724  13.223  64.332  1.00  0.00    -0.388 C  
HETATM    3  N   UNL     1     -12.307  14.436  63.756  1.00  0.00    -1.079 NA 
HETATM    4  H2  UNL     1     -13.317  14.348  63.640  1.00  0.00     0.000 HD 
HETATM    5  H1  UNL     1     -12.065  15.261  64.305  1.00  0.00     0.000 HD 
ENDROOT
BRANCH   2   6
HETATM    6  C   UNL     1     -12.079  13.059  65.821  1.00  0.00    -0.454 C  
BRANCH   6   7
HETATM    7  O   UNL     1     -11.039  13.360  66.743  1.00  0.00    -0.284 OA 
BRANCH   7   8
HETATM    8  C   UNL     1     -11.417  13.631  68.047  1.00  0.00    -0.310 A  
HETATM    9  C   UNL     1     -11.726  12.715  69.087  1.00  0.00    -0.375 A  
HETATM   10  C   UNL     1     -12.084  13.225  70.358  1.00  0.00    -0.401 A  
HETATM   11  C   UNL     1     -11.847  11.210  69.036  1.00  0.00    -0.418 C  
HETATM   12  C   UNL     1     -12.126  14.589  70.626  1.00  0.00    -0.392 A  
HETATM   13  C   UNL     1     -11.846  15.484  69.607  1.00  0.00    -0.384 A  
HETATM   14  C   UNL     1     -11.499  15.028  68.323  1.00  0.00    -0.349 A  
HETATM   15  C   UNL     1     -11.248  16.071  67.252  1.00  0.00    -0.041 C  
ENDBRANCH   7   8
ENDBRANCH   6   7
ENDBRANCH   2   6
TORSDOF 3
ENDMDL
MODEL       21
REMARK 921   NORMALIZED FREE ENERGY PREDICTED BY IDOCK:   -4.60 KCAL/MOL
REMARK 922        TOTAL FREE ENERGY PREDICTED BY IDOCK:   -5.58 KCAL/MOL
REMARK 923 INTER-LIGAND FREE ENERGY PREDICTED BY IDOCK:   -5.31 KCAL/MOL
REMARK 924 INTRA-LIGAND FREE ENERGY PREDICTED BY IDOCK:   -0.27 KCAL/MOL
REMARK 927      BINDING AFFINITY PREDICTED BY RF-SCORE:    0.00 PKD
ROOT
HETATM    1  C   UNL     1     -14.153   7.257  71.456  1.00  0.00    -0.515 C  
HETATM    2  C   UNL     1     -13.558   8.544  72.009  1.00  0.00    -0.392 C  
HETATM    3  N   UNL     1     -14.272   8.988  73.208  1.00  0.00    -1.188 NA 
HETATM    4  H2  UNL     1     -14.304   8.255  73.918  1.00  0.00     0.000 HD 
HETATM    5  H1  UNL     1     -13.873   9.850  73.578  1.00  0.00     0.000 HD 
ENDROOT
BRANCH   2   6
HETATM    6  C   UNL     1     -12.041   8.434  72.244  1.00  0.00    -0.392 C  
BRANCH   6   7
HETATM    7  O   UNL     1     -11.263   9.538  71.801  1.00  0.00    -0.363 OA 
BRANCH   7   8
HETATM    8  C   UNL     1     -11.181   9.737  70.433  1.00  0.00    -0.300 A  
HETATM    9  C   UNL     1     -10.533   8.932  69.459  1.00  0.00    -0.229 A  
HETATM   10  C   UNL     1     -10.587   9.330  68.102  1.00  0.00    -0.248 A  
HETATM   11  C   UNL     1      -9.659   7.713  69.648  1.00  0.00    -0.160 C  
HETATM   12  C   UNL     1     -11.267  10.470  67.690  1.00  0.00    -0.338 A  
HETATM   13  C   UNL     1     -11.881  11.269  68.640  1.00  0.00    -0.369 A  
HETATM   14  C   UNL     1     -11.844  10.925  70.003  1.00  0.00    -0.428 A  
HETATM   15  C   UNL     1     -12.504  11.871  70.985  1.00  0.00    -0.390 C  
ENDBRANCH   7   8
ENDBRANCH   6   7
ENDBRANCH   2   6
TORSDOF 3
ENDMDL
MODEL       22
REMARK 921   NORMALIZED FREE ENERGY PREDICTED BY IDOCK:   -4.58 KCAL/MOL
REMARK 922        TOTAL FREE ENERGY PREDICTED BY IDOCK:   -5.57 KCAL/MOL
REMARK 923 INTER-LIGAND FREE ENERGY PREDICTED BY IDOCK:   -5.20 KCAL/MOL
REMARK 924 INTRA-LIGAND FREE ENERGY PREDICTED BY IDOCK:   -0.37 KCAL/MOL
REMARK 927      BINDING AFFINITY PREDICTED BY RF-SCORE:    0.00 PKD
ROOT
HETATM    1  C   UNL     1     -10.535  12.117  63.669  1.00  0.00    -0.495 C  
HETATM    2  C   UNL     1     -12.005  12.502  63.754  1.00  0.00    -0.517 C  
HETATM    3  N   UNL     1     -12.839  11.593  62.964  1.00  0.00    -0.889 NA 
HETATM    4  H2  UNL     1     -12.691  10.620  63.232  1.00  0.00     0.000 HD 
HETATM    5  H1  UNL     1     -13.824  11.851  63.021  1.00  0.00     0.000 HD 
ENDROOT
BRANCH   2   6
HETATM    6  C   UNL     1     -12.495  12.623  65.208  1.00  0.00    -0.416 C  
BRANCH   6   7
HETATM    7  O   UNL     1     -12.607  13.946  65.716  1.00  0.00    -0.491 OA 
BRANCH   7   8
HETATM    8  C   UNL     1     -11.561  14.407  66.499  1.00  0.00    -0.378 A  
HETATM    9  C   UNL     1     -11.166  13.972  67.791  1.00  0.00    -0.302 A  
HETATM   10  C   UNL     1     -10.048  14.588  68.403  1.00  0.00    -0.241 A  
HETATM   11  C   UNL     1     -11.835  12.984  68.719  1.00  0.00    -0.355 C  
HETATM   12  C   UNL     1      -9.316  15.590  67.775  1.00  0.00    -0.195 A  
HETATM   13  C   UNL     1      -9.714  16.030  66.523  1.00  0.00    -0.284 A  
HETATM   14  C   UNL     1     -10.826  15.460  65.879  1.00  0.00    -0.328 A  
HETATM   15  C   UNL     1     -11.222  16.025  64.530  1.00  0.00    -0.309 C  
ENDBRANCH   7   8
ENDBRANCH   6   7
ENDBRANCH   2   6
TORSDOF 3
ENDMDL
MODEL       23
REMARK 921   NORMALIZED FREE ENERGY PREDICTED BY IDOCK:   -4.56 KCAL/MOL
REMARK 922        TOTAL FREE ENERGY PREDICTED BY IDOCK:   -5.54 KCAL/MOL
REMARK 923 INTER-LIGAND FREE ENERGY PREDICTED BY IDOCK:   -5.25 KCAL/MOL
REMARK 924 INTRA-LIGAND FREE ENERGY PREDICTED BY IDOCK:   -0.28 KCAL/MOL
REMARK 927      BINDING AFFINITY PREDICTED BY RF-SCORE:    0.00 PKD
ROOT
HETATM    1  C   UNL     1     -12.179  12.058  63.623  1.00  0.00    -0.642 C  
HETATM    2  C   UNL     1     -10.896  11.403  64.113  1.00  0.00    -0.365 C  
HETATM    3  N   UNL     1      -9.739  11.849  63.332  1.00  0.00    -0.561 NA 
HETATM    4  H2  UNL     1      -9.661  12.866  63.326  1.00  0.00     0.000 HD 
HETATM    5  H1  UNL     1      -8.880  11.409  63.660  1.00  0.00     0.000 HD 
ENDROOT
BRANCH   2   6
HETATM    6  C   UNL     1     -10.682  11.592  65.626  1.00  0.00    -0.267 C  
BRANCH   6   7
HETATM    7  O   UNL     1     -11.841  11.930  66.378  1.00  0.00    -0.561 OA 
BRANCH   7   8
HETATM    8  C   UNL     1     -11.719  12.973  67.280  1.00  0.00    -0.375 A  
HETATM    9  C   UNL     1     -11.516  14.353  67.015  1.00  0.00    -0.376 A  
HETATM   10  C   UNL     1     -11.430  15.250  68.106  1.00  0.00    -0.357 A  
HETATM   11  C   UNL     1     -11.258  15.050  65.699  1.00  0.00    -0.327 C  
HETATM   12  C   UNL     1     -11.554  14.828  69.425  1.00  0.00    -0.342 A  
HETATM   13  C   UNL     1     -11.729  13.479  69.687  1.00  0.00    -0.378 A  
HETATM   14  C   UNL     1     -11.808  12.546  68.638  1.00  0.00    -0.340 A  
HETATM   15  C   UNL     1     -11.959  11.085  69.009  1.00  0.00    -0.364 C  
ENDBRANCH   7   8
ENDBRANCH   6   7
ENDBRANCH   2   6
TORSDOF 3
ENDMDL
MODEL       24
REMARK 921   NORMALIZED FREE ENERGY PREDICTED BY IDOCK:   -4.55 KCAL/MOL
REMARK 922        TOTAL FREE ENERGY PREDICTED BY IDOCK:   -5.53 KCAL/MOL
REMARK 923 INTER-LIGAND FREE ENERGY PREDICTED BY IDOCK:   -5.42 KCAL/MOL
REMARK 924 INTRA-LIGAND FREE ENERGY PREDICTED BY IDOCK:   -0.12 KCAL/MOL
REMARK 927      BINDING AFFINITY PREDICTED BY RF-SCORE:    0.00 PKD
ROOT
HETATM    1  C   UNL     1     -13.241  15.748  73.341  1.00  0.00    -0.653 C  
HETATM    2  C   UNL     1     -13.024  15.810  71.836  1.00  0.00    -0.442 C  
HETATM    3  N   UNL     1     -11.701  16.349  71.511  1.00  0.00    -0.653 NA 
HETATM    4  H2  UNL     1     -10.959  15.825  71.975  1.00  0.00     0.000 HD 
HETATM    5  H1  UNL     1     -11.556  16.391  70.503  1.00  0.00     0.000 HD 
ENDROOT
BRANCH   2   6
HETATM    6  C   UNL     1     -13.283  14.456  71.151  1.00  0.00    -0.350 C  
BRANCH   6   7
HETATM    7  O   UNL     1     -12.168  13.577  71.075  1.00  0.00    -0.353 OA 
BRANCH   7   8
HETATM    8  C   UNL     1     -11.920  12.984  69.848  1.00  0.00    -0.311 A  
HETATM    9  C   UNL     1     -11.635  13.610  68.605  1.00  0.00    -0.364 A  
HETATM   10  C   UNL     1     -11.404  12.795  67.472  1.00  0.00    -0.361 A  
HETATM   11  C   UNL     1     -11.639  15.078  68.246  1.00  0.00    -0.355 C  
HETATM   12  C   UNL     1     -11.431  11.407  67.537  1.00  0.00    -0.336 A  
HETATM   13  C   UNL     1     -11.731  10.795  68.744  1.00  0.00    -0.315 A  
HETATM   14  C   UNL     1     -11.982  11.560  69.896  1.00  0.00    -0.426 A  
HETATM   15  C   UNL     1     -12.344  10.818  71.167  1.00  0.00    -0.498 C  
ENDBRANCH   7   8
ENDBRANCH   6   7
ENDBRANCH   2   6
TORSDOF 3
ENDMDL
MODEL       25
REMARK 921   NORMALIZED FREE ENERGY PREDICTED BY IDOCK:   -4.54 KCAL/MOL
REMARK 922        TOTAL FREE ENERGY PREDICTED BY IDOCK:   -5.52 KCAL/MOL
REMARK 923 INTER-LIGAND FREE ENERGY PREDICTED BY IDOCK:   -5.26 KCAL/MOL
REMARK 924 INTRA-LIGAND FREE ENERGY PREDICTED BY IDOCK:   -0.25 KCAL/MOL
REMARK 927      BINDING AFFINITY PREDICTED BY RF-SCORE:    0.00 PKD
ROOT
HETATM    1  C   UNL     1      -9.922  13.481  66.342  1.00  0.00    -0.296 C  
HETATM    2  C   UNL     1     -11.438  13.547  66.231  1.00  0.00    -0.326 C  
HETATM    3  N   UNL     1     -12.000  12.255  65.830  1.00  0.00    -0.597 NA 
HETATM    4  H2  UNL     1     -11.703  11.507  66.457  1.00  0.00     0.000 HD 
HETATM    5  H1  UNL     1     -13.016  12.299  65.755  1.00  0.00     0.000 HD 
ENDROOT
BRANCH   2   6
HETATM    6  C   UNL     1     -12.096  14.092  67.511  1.00  0.00    -0.328 C  
BRANCH   6   7
HETATM    7  O   UNL     1     -11.342  13.941  68.708  1.00  0.00    -0.244 OA 
BRANCH   7   8
HETATM    8  C   UNL     1     -11.928  13.211  69.729  1.00  0.00    -0.314 A  
HETATM    9  C   UNL     1     -11.984  11.801  69.888  1.00  0.00    -0.405 A  
HETATM   10  C   UNL     1     -12.635  11.271  71.027  1.00  0.00    -0.495 A  
HETATM   11  C   UNL     1     -11.535  10.709  68.943  1.00  0.00    -0.334 C  
HETATM   12  C   UNL     1     -13.204  12.082  72.002  1.00  0.00    -0.481 A  
HETATM   13  C   UNL     1     -13.170  13.457  71.837  1.00  0.00    -0.522 A  
HETATM   14  C   UNL     1     -12.547  14.033  70.716  1.00  0.00    -0.431 A  
HETATM   15  C   UNL     1     -12.588  15.542  70.588  1.00  0.00    -0.493 C  
ENDBRANCH   7   8
ENDBRANCH   6   7
ENDBRANCH   2   6
TORSDOF 3
ENDMDL
MODEL       26
REMARK 921   NORMALIZED FREE ENERGY PREDICTED BY IDOCK:   -4.54 KCAL/MOL
REMARK 922        TOTAL FREE ENERGY PREDICTED BY IDOCK:   -5.52 KCAL/MOL
REMARK 923 INTER-LIGAND FREE ENERGY PREDICTED BY IDOCK:   -5.24 KCAL/MOL
REMARK 924 INTRA-LIGAND FREE ENERGY PREDICTED BY IDOCK:   -0.28 KCAL/MOL
REMARK 927      BINDING AFFINITY PREDICTED BY RF-SCORE:    0.00 PKD
ROOT
HETATM    1  C   UNL     1     -12.197  11.976  63.382  1.00  0.00    -0.627 C  
HETATM    2  C   UNL     1     -10.887  11.518  64.008  1.00  0.00    -0.387 C  
HETATM    3  N   UNL     1      -9.756  12.303  63.508  1.00  0.00    -0.665 NA 
HETATM    4  H2  UNL     1      -9.905  13.303  63.643  1.00  0.00     0.000 HD 
HETATM    5  H1  UNL     1      -8.878  11.995  63.927  1.00  0.00     0.000 HD 
ENDROOT
BRANCH   2   6
HETATM    6  C   UNL     1     -10.947  11.501  65.546  1.00  0.00    -0.229 C  
BRANCH   6   7
HETATM    7  O   UNL     1     -12.098  12.100  66.128  1.00  0.00    -0.621 OA 
BRANCH   7   8
HETATM    8  C   UNL     1     -11.900  12.856  67.271  1.00  0.00    -0.356 A  
HETATM    9  C   UNL     1     -11.756  12.411  68.612  1.00  0.00    -0.372 A  
HETATM   10  C   UNL     1     -11.551  13.373  69.629  1.00  0.00    -0.334 A  
HETATM   11  C   UNL     1     -11.896  11.018  69.182  1.00  0.00    -0.407 C  
HETATM   12  C   UNL     1     -11.470  14.734  69.358  1.00  0.00    -0.330 A  
HETATM   13  C   UNL     1     -11.633  15.173  68.054  1.00  0.00    -0.345 A  
HETATM   14  C   UNL     1     -11.852  14.257  67.009  1.00  0.00    -0.455 A  
HETATM   15  C   UNL     1     -12.061  14.818  65.617  1.00  0.00    -0.114 C  
ENDBRANCH   7   8
ENDBRANCH   6   7
ENDBRANCH   2   6
TORSDOF 3
ENDMDL
MODEL       27
REMARK 921   NORMALIZED FREE ENERGY PREDICTED BY IDOCK:   -4.54 KCAL/MOL
REMARK 922        TOTAL FREE ENERGY PREDICTED BY IDOCK:   -5.52 KCAL/MOL
REMARK 923 INTER-LIGAND FREE ENERGY PREDICTED BY IDOCK:   -5.46 KCAL/MOL
REMARK 924 INTRA-LIGAND FREE ENERGY PREDICTED BY IDOCK:   -0.06 KCAL/MOL
REMARK 927      BINDING AFFINITY PREDICTED BY RF-SCORE:    0.00 PKD
ROOT
HETATM    1  C   UNL     1     -12.833  11.847  63.537  1.00  0.00    -0.435 C  
HETATM    2  C   UNL     1     -11.824  12.957  63.281  1.00  0.00    -0.398 C  
HETATM    3  N   UNL     1     -12.397  14.274  63.568  1.00  0.00    -1.122 NA 
HETATM    4  H2  UNL     1     -12.772  14.321  64.516  1.00  0.00     0.000 HD 
HETATM    5  H1  UNL     1     -11.720  15.017  63.396  1.00  0.00     0.000 HD 
ENDROOT
BRANCH   2   6
HETATM    6  C   UNL     1     -10.498  12.726  64.029  1.00  0.00    -0.406 C  
BRANCH   6   7
HETATM    7  O   UNL     1     -10.440  13.230  65.357  1.00  0.00    -0.283 OA 
BRANCH   7   8
HETATM    8  C   UNL     1     -10.697  12.332  66.380  1.00  0.00    -0.251 A  
HETATM    9  C   UNL     1     -10.337  10.961  66.465  1.00  0.00    -0.299 A  
HETATM   10  C   UNL     1     -10.703  10.233  67.622  1.00  0.00    -0.339 A  
HETATM   11  C   UNL     1      -9.687  10.073  65.429  1.00  0.00    -0.368 C  
HETATM   12  C   UNL     1     -11.386  10.818  68.682  1.00  0.00    -0.356 A  
HETATM   13  C   UNL     1     -11.758  12.150  68.591  1.00  0.00    -0.382 A  
HETATM   14  C   UNL     1     -11.430  12.913  67.457  1.00  0.00    -0.386 A  
HETATM   15  C   UNL     1     -11.908  14.350  67.416  1.00  0.00    -0.430 C  
ENDBRANCH   7   8
ENDBRANCH   6   7
ENDBRANCH   2   6
TORSDOF 3
ENDMDL
MODEL       28
REMARK 921   NORMALIZED FREE ENERGY PREDICTED BY IDOCK:   -4.48 KCAL/MOL
REMARK 922        TOTAL FREE ENERGY PREDICTED BY IDOCK:   -5.45 KCAL/MOL
REMARK 923 INTER-LIGAND FREE ENERGY PREDICTED BY IDOCK:   -5.19 KCAL/MOL
REMARK 924 INTRA-LIGAND FREE ENERGY PREDICTED BY IDOCK:   -0.26 KCAL/MOL
REMARK 927      BINDING AFFINITY PREDICTED BY RF-SCORE:    0.00 PKD
ROOT
HETATM    1  C   UNL     1      -9.908  14.838  65.706  1.00  0.00    -0.373 C  
HETATM    2  C   UNL     1     -11.400  15.037  65.483  1.00  0.00    -0.312 C  
HETATM    3  N   UNL     1     -11.717  15.127  64.055  1.00  0.00    -0.829 NA 
HETATM    4  H2  UNL     1     -11.366  14.318  63.542  1.00  0.00     0.000 HD 
HETATM    5  H1  UNL     1     -12.717  15.261  63.906  1.00  0.00     0.000 HD 
ENDROOT
BRANCH   2   6
HETATM    6  C   UNL     1     -12.247  13.969  66.198  1.00  0.00    -0.465 C  
BRANCH   6   7
HETATM    7  O   UNL     1     -12.346  12.712  65.539  1.00  0.00    -0.563 OA 
BRANCH   7   8
HETATM    8  C   UNL     1     -11.417  11.747  65.890  1.00  0.00    -0.207 A  
HETATM    9  C   UNL     1     -11.143  11.209  67.175  1.00  0.00    -0.352 A  
HETATM   10  C   UNL     1     -10.145  10.213  67.296  1.00  0.00    -0.254 A  
HETATM   11  C   UNL     1     -11.690  11.617  68.523  1.00  0.00    -0.378 C  
HETATM   12  C   UNL     1      -9.439   9.732  66.200  1.00  0.00    -0.261 A  
HETATM   13  C   UNL     1      -9.690  10.271  64.948  1.00  0.00    -0.385 A  
HETATM   14  C   UNL     1     -10.662  11.273  64.777  1.00  0.00    -0.352 A  
HETATM   15  C   UNL     1     -10.848  11.839  63.384  1.00  0.00    -0.460 C  
ENDBRANCH   7   8
ENDBRANCH   6   7
ENDBRANCH   2   6
TORSDOF 3
ENDMDL
MODEL       29
REMARK 921   NORMALIZED FREE ENERGY PREDICTED BY IDOCK:   -4.45 KCAL/MOL
REMARK 922        TOTAL FREE ENERGY PREDICTED BY IDOCK:   -5.41 KCAL/MOL
REMARK 923 INTER-LIGAND FREE ENERGY PREDICTED BY IDOCK:   -5.16 KCAL/MOL
REMARK 924 INTRA-LIGAND FREE ENERGY PREDICTED BY IDOCK:   -0.24 KCAL/MOL
REMARK 927      BINDING AFFINITY PREDICTED BY RF-SCORE:    0.00 PKD
ROOT
HETATM    1  C   UNL     1     -10.259  15.483  68.118  1.00  0.00    -0.227 C  
HETATM    2  C   UNL     1     -11.490  14.590  68.177  1.00  0.00    -0.312 C  
HETATM    3  N   UNL     1     -12.524  15.166  69.040  1.00  0.00    -0.575 NA 
HETATM    4  H2  UNL     1     -12.763  16.116  68.755  1.00  0.00     0.000 HD 
HETATM    5  H1  UNL     1     -13.348  14.567  69.080  1.00  0.00     0.000 HD 
ENDROOT
BRANCH   2   6
HETATM    6  C   UNL     1     -12.030  14.245  66.777  1.00  0.00    -0.436 C  
BRANCH   6   7
HETATM    7  O   UNL     1     -12.402  12.887  66.574  1.00  0.00    -0.440 OA 
BRANCH   7   8
HETATM    8  C   UNL     1     -11.546  12.110  65.811  1.00  0.00    -0.355 A  
HETATM    9  C   UNL     1     -11.274  12.199  64.421  1.00  0.00    -0.400 A  
HETATM   10  C   UNL     1     -10.346  11.295  63.851  1.00  0.00    -0.439 A  
HETATM   11  C   UNL     1     -11.920  13.072  63.370  1.00  0.00    -0.592 C  
HETATM   12  C   UNL     1      -9.681  10.338  64.608  1.00  0.00    -0.398 A  
HETATM   13  C   UNL     1      -9.961  10.235  65.961  1.00  0.00    -0.308 A  
HETATM   14  C   UNL     1     -10.886  11.100  66.572  1.00  0.00    -0.302 A  
HETATM   15  C   UNL     1     -11.169  10.897  68.047  1.00  0.00    -0.378 C  
ENDBRANCH   7   8
ENDBRANCH   6   7
ENDBRANCH   2   6
TORSDOF 3
ENDMDL
MODEL       30
REMARK 921   NORMALIZED FREE ENERGY PREDICTED BY IDOCK:   -4.44 KCAL/MOL
REMARK 922        TOTAL FREE ENERGY PREDICTED BY IDOCK:   -5.41 KCAL/MOL
REMARK 923 INTER-LIGAND FREE ENERGY PREDICTED BY IDOCK:   -5.16 KCAL/MOL
REMARK 924 INTRA-LIGAND FREE ENERGY PREDICTED BY IDOCK:   -0.25 KCAL/MOL
REMARK 927      BINDING AFFINITY PREDICTED BY RF-SCORE:    0.00 PKD
ROOT
HETATM    1  C   UNL     1     -11.821  11.967  70.057  1.00  0.00    -0.392 C  
HETATM    2  C   UNL     1     -11.169  10.682  69.568  1.00  0.00    -0.272 C  
HETATM    3  N   UNL     1     -11.846   9.502  70.112  1.00  0.00    -0.466 NA 
HETATM    4  H2  UNL     1     -12.845   9.516  69.908  1.00  0.00     0.000 HD 
HETATM    5  H1  UNL     1     -11.409   8.641  69.785  1.00  0.00     0.000 HD 
ENDROOT
BRANCH   2   6
HETATM    6  C   UNL     1     -11.056  10.629  68.034  1.00  0.00    -0.301 C  
BRANCH   6   7
HETATM    7  O   UNL     1     -10.574  11.812  67.407  1.00  0.00    -0.212 OA 
BRANCH   7   8
HETATM    8  C   UNL     1     -10.913  11.997  66.077  1.00  0.00    -0.304 A  
HETATM    9  C   UNL     1     -10.534  11.219  64.951  1.00  0.00    -0.375 A  
HETATM   10  C   UNL     1     -11.011  11.596  63.673  1.00  0.00    -0.507 A  
HETATM   11  C   UNL     1      -9.571  10.058  64.866  1.00  0.00    -0.375 C  
HETATM   12  C   UNL     1     -11.850  12.689  63.486  1.00  0.00    -0.619 A  
HETATM   13  C   UNL     1     -12.203  13.462  64.580  1.00  0.00    -0.456 A  
HETATM   14  C   UNL     1     -11.743  13.138  65.869  1.00  0.00    -0.427 A  
HETATM   15  C   UNL     1     -12.140  14.056  67.007  1.00  0.00    -0.455 C  
ENDBRANCH   7   8
ENDBRANCH   6   7
ENDBRANCH   2   6
TORSDOF 3
ENDMDL
MODEL       31
REMARK 921   NORMALIZED FREE ENERGY PREDICTED BY IDOCK:   -4.39 KCAL/MOL
REMARK 922        TOTAL FREE ENERGY PREDICTED BY IDOCK:   -5.34 KCAL/MOL
REMARK 923 INTER-LIGAND FREE ENERGY PREDICTED BY IDOCK:   -5.20 KCAL/MOL
REMARK 924 INTRA-LIGAND FREE ENERGY PREDICTED BY IDOCK:   -0.15 KCAL/MOL
REMARK 927      BINDING AFFINITY PREDICTED BY RF-SCORE:    0.00 PKD
ROOT
HETATM    1  C   UNL     1     -12.238  15.890  72.797  1.00  0.00    -0.604 C  
HETATM    2  C   UNL     1     -12.463  15.339  71.396  1.00  0.00    -0.361 C  
HETATM    3  N   UNL     1     -13.868  15.457  70.997  1.00  0.00    -0.797 NA 
HETATM    4  H2  UNL     1     -14.201  16.418  71.080  1.00  0.00     0.000 HD 
HETATM    5  H1  UNL     1     -14.018  15.087  70.059  1.00  0.00     0.000 HD 
ENDROOT
BRANCH   2   6
HETATM    6  C   UNL     1     -11.512  15.965  70.360  1.00  0.00    -0.378 C  
BRANCH   6   7
HETATM    7  O   UNL     1     -11.966  15.950  69.013  1.00  0.00    -0.378 OA 
BRANCH   7   8
HETATM    8  C   UNL     1     -11.001  16.056  68.025  1.00  0.00    -0.341 A  
HETATM    9  C   UNL     1     -10.325  17.219  67.571  1.00  0.00    -0.346 A  
HETATM   10  C   UNL     1      -9.360  17.087  66.544  1.00  0.00    -0.291 A  
HETATM   11  C   UNL     1     -10.549  18.667  67.943  1.00  0.00    -0.397 C  
HETATM   12  C   UNL     1      -9.040  15.857  65.980  1.00  0.00    -0.363 A  
HETATM   13  C   UNL     1      -9.714  14.725  66.407  1.00  0.00    -0.311 A  
HETATM   14  C   UNL     1     -10.691  14.805  67.414  1.00  0.00    -0.281 A  
HETATM   15  C   UNL     1     -11.412  13.529  67.796  1.00  0.00    -0.349 C  
ENDBRANCH   7   8
ENDBRANCH   6   7
ENDBRANCH   2   6
TORSDOF 3
ENDMDL
MODEL       32
REMARK 921   NORMALIZED FREE ENERGY PREDICTED BY IDOCK:   -4.38 KCAL/MOL
REMARK 922        TOTAL FREE ENERGY PREDICTED BY IDOCK:   -5.34 KCAL/MOL
REMARK 923 INTER-LIGAND FREE ENERGY PREDICTED BY IDOCK:   -5.07 KCAL/MOL
REMARK 924 INTRA-LIGAND FREE ENERGY PREDICTED BY IDOCK:   -0.26 KCAL/MOL
REMARK 927      BINDING AFFINITY PREDICTED BY RF-SCORE:    0.00 PKD
ROOT
HETATM    1  C   UNL     1     -10.504   9.088  67.808  1.00  0.00    -0.305 C  
HETATM    2  C   UNL     1     -11.099  10.489  67.799  1.00  0.00    -0.317 C  
HETATM    3  N   UNL     1     -12.194  10.608  68.765  1.00  0.00    -0.808 NA 
HETATM    4  H2  UNL     1     -11.898  10.334  69.702  1.00  0.00     0.000 HD 
HETATM    5  H1  UNL     1     -12.593  11.547  68.758  1.00  0.00     0.000 HD 
ENDROOT
BRANCH   2   6
HETATM    6  C   UNL     1     -10.031  11.580  67.995  1.00  0.00    -0.189 C  
BRANCH   6   7
HETATM    7  O   UNL     1      -9.491  12.140  66.805  1.00  0.00    -0.200 OA 
BRANCH   7   8
HETATM    8  C   UNL     1     -10.390  12.472  65.805  1.00  0.00    -0.265 A  
HETATM    9  C   UNL     1     -11.418  13.451  65.830  1.00  0.00    -0.344 A  
HETATM   10  C   UNL     1     -12.219  13.625  64.677  1.00  0.00    -0.448 A  
HETATM   11  C   UNL     1     -11.897  14.312  66.976  1.00  0.00    -0.455 C  
HETATM   12  C   UNL     1     -12.021  12.884  63.517  1.00  0.00    -0.629 A  
HETATM   13  C   UNL     1     -11.033  11.913  63.498  1.00  0.00    -0.505 A  
HETATM   14  C   UNL     1     -10.220  11.692  64.624  1.00  0.00    -0.327 A  
HETATM   15  C   UNL     1      -9.189  10.585  64.538  1.00  0.00    -0.278 C  
ENDBRANCH   7   8
ENDBRANCH   6   7
ENDBRANCH   2   6
TORSDOF 3
ENDMDL
MODEL       33
REMARK 921   NORMALIZED FREE ENERGY PREDICTED BY IDOCK:   -4.33 KCAL/MOL
REMARK 922        TOTAL FREE ENERGY PREDICTED BY IDOCK:   -5.28 KCAL/MOL
REMARK 923 INTER-LIGAND FREE ENERGY PREDICTED BY IDOCK:   -5.39 KCAL/MOL
REMARK 924 INTRA-LIGAND FREE ENERGY PREDICTED BY IDOCK:    0.12 KCAL/MOL
REMARK 927      BINDING AFFINITY PREDICTED BY RF-SCORE:    0.00 PKD
ROOT
HETATM    1  C   UNL     1     -13.835   7.262  71.363  1.00  0.00    -0.416 C  
HETATM    2  C   UNL     1     -13.200   8.458  72.056  1.00  0.00    -0.346 C  
HETATM    3  N   UNL     1     -13.994   8.888  73.209  1.00  0.00    -1.217 NA 
HETATM    4  H2  UNL     1     -14.155   8.120  73.861  1.00  0.00     0.000 HD 
HETATM    5  H1  UNL     1     -13.569   9.690  73.673  1.00  0.00     0.000 HD 
ENDROOT
BRANCH   2   6
HETATM    6  C   UNL     1     -11.728   8.206  72.427  1.00  0.00    -0.399 C  
BRANCH   6   7
HETATM    7  O   UNL     1     -10.803   9.200  72.003  1.00  0.00    -0.352 OA 
BRANCH   7   8
HETATM    8  C   UNL     1     -11.015   9.761  70.755  1.00  0.00    -0.336 A  
HETATM    9  C   UNL     1     -11.810  10.887  70.415  1.00  0.00    -0.449 A  
HETATM   10  C   UNL     1     -11.874  11.291  69.060  1.00  0.00    -0.421 A  
HETATM   11  C   UNL     1     -12.734  11.709  71.285  1.00  0.00    -0.444 C  
HETATM   12  C   UNL     1     -11.171  10.634  68.056  1.00  0.00    -0.373 A  
HETATM   13  C   UNL     1     -10.412   9.521  68.383  1.00  0.00    -0.261 A  
HETATM   14  C   UNL     1     -10.328   9.072  69.712  1.00  0.00    -0.219 A  
HETATM   15  C   UNL     1      -9.511   7.825  69.982  1.00  0.00    -0.161 C  
ENDBRANCH   7   8
ENDBRANCH   6   7
ENDBRANCH   2   6
TORSDOF 3
ENDMDL
MODEL       34
REMARK 921   NORMALIZED FREE ENERGY PREDICTED BY IDOCK:   -4.32 KCAL/MOL
REMARK 922        TOTAL FREE ENERGY PREDICTED BY IDOCK:   -5.25 KCAL/MOL
REMARK 923 INTER-LIGAND FREE ENERGY PREDICTED BY IDOCK:   -5.01 KCAL/MOL
REMARK 924 INTRA-LIGAND FREE ENERGY PREDICTED BY IDOCK:   -0.25 KCAL/MOL
REMARK 927      BINDING AFFINITY PREDICTED BY RF-SCORE:    0.00 PKD
ROOT
HETATM    1  C   UNL     1      -9.980  17.940  68.619  1.00  0.00    -0.387 C  
HETATM    2  C   UNL     1     -10.625  17.208  67.452  1.00  0.00    -0.297 C  
HETATM    3  N   UNL     1     -10.138  17.721  66.168  1.00  0.00    -0.470 NA 
HETATM    4  H2  UNL     1      -9.120  17.688  66.114  1.00  0.00     0.000 HD 
HETATM    5  H1  UNL     1     -10.571  17.230  65.386  1.00  0.00     0.000 HD 
ENDROOT
BRANCH   2   6
HETATM    6  C   UNL     1     -10.472  15.680  67.561  1.00  0.00    -0.285 C  
BRANCH   6   7
HETATM    7  O   UNL     1     -11.683  14.934  67.561  1.00  0.00    -0.360 OA 
BRANCH   7   8
HETATM    8  C   UNL     1     -11.876  14.055  68.614  1.00  0.00    -0.361 A  
HETATM    9  C   UNL     1     -12.157  14.352  69.974  1.00  0.00    -0.401 A  
HETATM   10  C   UNL     1     -12.326  13.281  70.883  1.00  0.00    -0.413 A  
HETATM   11  C   UNL     1     -12.203  15.690  70.675  1.00  0.00    -0.446 C  
HETATM   12  C   UNL     1     -12.246  11.951  70.486  1.00  0.00    -0.426 A  
HETATM   13  C   UNL     1     -11.950  11.659  69.164  1.00  0.00    -0.378 A  
HETATM   14  C   UNL     1     -11.759  12.688  68.225  1.00  0.00    -0.389 A  
HETATM   15  C   UNL     1     -11.399  12.289  66.809  1.00  0.00    -0.395 C  
ENDBRANCH   7   8
ENDBRANCH   6   7
ENDBRANCH   2   6
TORSDOF 3
ENDMDL
MODEL       35
REMARK 921   NORMALIZED FREE ENERGY PREDICTED BY IDOCK:   -4.30 KCAL/MOL
REMARK 922        TOTAL FREE ENERGY PREDICTED BY IDOCK:   -5.24 KCAL/MOL
REMARK 923 INTER-LIGAND FREE ENERGY PREDICTED BY IDOCK:   -4.97 KCAL/MOL
REMARK 924 INTRA-LIGAND FREE ENERGY PREDICTED BY IDOCK:   -0.27 KCAL/MOL
REMARK 927      BINDING AFFINITY PREDICTED BY RF-SCORE:    0.00 PKD
ROOT
HETATM    1  C   UNL     1     -12.432  12.095  63.639  1.00  0.00    -0.658 C  
HETATM    2  C   UNL     1     -11.988  13.387  64.309  1.00  0.00    -0.430 C  
HETATM    3  N   UNL     1     -12.307  14.553  63.481  1.00  0.00    -1.090 NA 
HETATM    4  H2  UNL     1     -13.297  14.579  63.236  1.00  0.00     0.000 HD 
HETATM    5  H1  UNL     1     -12.009  15.419  63.929  1.00  0.00     0.000 HD 
ENDROOT
BRANCH   2   6
HETATM    6  C   UNL     1     -12.539  13.525  65.739  1.00  0.00    -0.434 C  
BRANCH   6   7
HETATM    7  O   UNL     1     -11.758  14.311  66.632  1.00  0.00    -0.367 OA 
BRANCH   7   8
HETATM    8  C   UNL     1     -10.586  13.744  67.104  1.00  0.00    -0.277 A  
HETATM    9  C   UNL     1     -10.425  12.575  67.894  1.00  0.00    -0.226 A  
HETATM   10  C   UNL     1      -9.117  12.175  68.256  1.00  0.00    -0.191 A  
HETATM   11  C   UNL     1     -11.474  11.697  68.536  1.00  0.00    -0.358 C  
HETATM   12  C   UNL     1      -7.987  12.876  67.850  1.00  0.00    -0.156 A  
HETATM   13  C   UNL     1      -8.143  14.029  67.099  1.00  0.00    -0.121 A  
HETATM   14  C   UNL     1      -9.423  14.477  66.725  1.00  0.00    -0.284 A  
HETATM   15  C   UNL     1      -9.513  15.768  65.938  1.00  0.00    -0.377 C  
ENDBRANCH   7   8
ENDBRANCH   6   7
ENDBRANCH   2   6
TORSDOF 3
ENDMDL
MODEL       36
REMARK 921   NORMALIZED FREE ENERGY PREDICTED BY IDOCK:   -4.30 KCAL/MOL
REMARK 922        TOTAL FREE ENERGY PREDICTED BY IDOCK:   -5.24 KCAL/MOL
REMARK 923 INTER-LIGAND FREE ENERGY PREDICTED BY IDOCK:   -5.03 KCAL/MOL
REMARK 924 INTRA-LIGAND FREE ENERGY PREDICTED BY IDOCK:   -0.21 KCAL/MOL
REMARK 927      BINDING AFFINITY PREDICTED BY RF-SCORE:    0.00 PKD
ROOT
HETATM    1  C   UNL     1     -10.002  10.297  69.196  1.00  0.00    -0.235 C  
HETATM    2  C   UNL     1     -11.273  10.267  68.360  1.00  0.00    -0.224 C  
HETATM    3  N   UNL     1     -12.447  10.619  69.163  1.00  0.00    -0.737 NA 
HETATM    4  H2  UNL     1     -12.326  11.519  69.628  1.00  0.00     0.000 HD 
HETATM    5  H1  UNL     1     -13.298  10.599  68.602  1.00  0.00     0.000 HD 
ENDROOT
BRANCH   2   6
HETATM    6  C   UNL     1     -11.159  11.131  67.090  1.00  0.00    -0.287 C  
BRANCH   6   7
HETATM    7  O   UNL     1     -12.107  12.184  66.970  1.00  0.00    -0.591 OA 
BRANCH   7   8
HETATM    8  C   UNL     1     -11.669  13.357  66.377  1.00  0.00    -0.368 A  
HETATM    9  C   UNL     1     -11.606  13.680  64.996  1.00  0.00    -0.345 A  
HETATM   10  C   UNL     1     -11.126  14.956  64.618  1.00  0.00    -0.335 A  
HETATM   11  C   UNL     1     -11.880  12.807  63.793  1.00  0.00    -0.572 C  
HETATM   12  C   UNL     1     -10.731  15.907  65.551  1.00  0.00    -0.386 A  
HETATM   13  C   UNL     1     -10.770  15.586  66.898  1.00  0.00    -0.317 A  
HETATM   14  C   UNL     1     -11.227  14.326  67.325  1.00  0.00    -0.330 A  
HETATM   15  C   UNL     1     -11.201  14.037  68.812  1.00  0.00    -0.298 C  
ENDBRANCH   7   8
ENDBRANCH   6   7
ENDBRANCH   2   6
TORSDOF 3
ENDMDL
MODEL       37
REMARK 921   NORMALIZED FREE ENERGY PREDICTED BY IDOCK:   -4.29 KCAL/MOL
REMARK 922        TOTAL FREE ENERGY PREDICTED BY IDOCK:   -5.23 KCAL/MOL
REMARK 923 INTER-LIGAND FREE ENERGY PREDICTED BY IDOCK:   -4.96 KCAL/MOL
REMARK 924 INTRA-LIGAND FREE ENERGY PREDICTED BY IDOCK:   -0.27 KCAL/MOL
REMARK 927      BINDING AFFINITY PREDICTED BY RF-SCORE:    0.00 PKD
ROOT
HETATM    1  C   UNL     1     -10.924   7.389  69.989  1.00  0.00    -0.264 C  
HETATM    2  C   UNL     1     -10.369   8.443  69.043  1.00  0.00    -0.218 C  
HETATM    3  N   UNL     1     -10.998   8.358  67.723  1.00  0.00    -0.489 NA 
HETATM    4  H2  UNL     1     -12.015   8.412  67.788  1.00  0.00     0.000 HD 
HETATM    5  H1  UNL     1     -10.626   9.064  67.089  1.00  0.00     0.000 HD 
ENDROOT
BRANCH   2   6
HETATM    6  C   UNL     1     -10.453   9.863  69.634  1.00  0.00    -0.249 C  
BRANCH   6   7
HETATM    7  O   UNL     1     -11.554  10.651  69.200  1.00  0.00    -0.274 OA 
BRANCH   7   8
HETATM    8  C   UNL     1     -12.139  11.483  70.140  1.00  0.00    -0.351 A  
HETATM    9  C   UNL     1     -12.838  11.126  71.323  1.00  0.00    -0.515 A  
HETATM   10  C   UNL     1     -13.348  12.156  72.148  1.00  0.00    -0.438 A  
HETATM   11  C   UNL     1     -13.245   9.759  71.823  1.00  0.00    -0.532 C  
HETATM   12  C   UNL     1     -13.172  13.502  71.850  1.00  0.00    -0.510 A  
HETATM   13  C   UNL     1     -12.508  13.852  70.685  1.00  0.00    -0.436 A  
HETATM   14  C   UNL     1     -11.995  12.866  69.824  1.00  0.00    -0.365 A  
HETATM   15  C   UNL     1     -11.319  13.329  68.550  1.00  0.00    -0.319 C  
ENDBRANCH   7   8
ENDBRANCH   6   7
ENDBRANCH   2   6
TORSDOF 3
ENDMDL
MODEL       38
REMARK 921   NORMALIZED FREE ENERGY PREDICTED BY IDOCK:   -4.28 KCAL/MOL
REMARK 922        TOTAL FREE ENERGY PREDICTED BY IDOCK:   -5.21 KCAL/MOL
REMARK 923 INTER-LIGAND FREE ENERGY PREDICTED BY IDOCK:   -5.01 KCAL/MOL
REMARK 924 INTRA-LIGAND FREE ENERGY PREDICTED BY IDOCK:   -0.20 KCAL/MOL
REMARK 927      BINDING AFFINITY PREDICTED BY RF-SCORE:    0.00 PKD
ROOT
HETATM    1  C   UNL     1     -10.384  16.921  66.053  1.00  0.00    -0.335 C  
HETATM    2  C   UNL     1     -11.226  15.963  65.224  1.00  0.00    -0.153 C  
HETATM    3  N   UNL     1     -11.417  16.465  63.861  1.00  0.00    -1.618 NA 
HETATM    4  H2  UNL     1     -10.526  16.668  63.408  1.00  0.00     0.000 HD 
HETATM    5  H1  UNL     1     -11.982  15.823  63.306  1.00  0.00     0.000 HD 
ENDROOT
BRANCH   2   6
HETATM    6  C   UNL     1     -10.667  14.528  65.240  1.00  0.00    -0.376 C  
BRANCH   6   7
HETATM    7  O   UNL     1     -11.490  13.549  65.861  1.00  0.00    -0.310 OA 
BRANCH   7   8
HETATM    8  C   UNL     1     -10.862  12.407  66.327  1.00  0.00    -0.266 A  
HETATM    9  C   UNL     1     -10.358  11.308  65.582  1.00  0.00    -0.310 A  
HETATM   10  C   UNL     1      -9.739  10.242  66.278  1.00  0.00    -0.263 A  
HETATM   11  C   UNL     1     -10.470  11.018  64.103  1.00  0.00    -0.434 C  
HETATM   12  C   UNL     1      -9.593  10.243  67.660  1.00  0.00    -0.173 A  
HETATM   13  C   UNL     1     -10.103  11.304  68.391  1.00  0.00    -0.202 A  
HETATM   14  C   UNL     1     -10.740  12.381  67.748  1.00  0.00    -0.247 A  
HETATM   15  C   UNL     1     -11.307  13.482  68.619  1.00  0.00    -0.323 C  
ENDBRANCH   7   8
ENDBRANCH   6   7
ENDBRANCH   2   6
TORSDOF 3
ENDMDL
MODEL       39
REMARK 921   NORMALIZED FREE ENERGY PREDICTED BY IDOCK:   -4.27 KCAL/MOL
REMARK 922        TOTAL FREE ENERGY PREDICTED BY IDOCK:   -5.20 KCAL/MOL
REMARK 923 INTER-LIGAND FREE ENERGY PREDICTED BY IDOCK:   -4.94 KCAL/MOL
REMARK 924 INTRA-LIGAND FREE ENERGY PREDICTED BY IDOCK:   -0.27 KCAL/MOL
REMARK 927      BINDING AFFINITY PREDICTED BY RF-SCORE:    0.00 PKD
ROOT
HETATM    1  C   UNL     1     -12.363  14.179  70.194  1.00  0.00    -0.413 C  
HETATM    2  C   UNL     1     -11.460  15.178  69.485  1.00  0.00    -0.296 C  
HETATM    3  N   UNL     1     -10.140  15.244  70.117  1.00  0.00    -0.500 NA 
HETATM    4  H2  UNL     1      -9.706  14.323  70.175  1.00  0.00     0.000 HD 
HETATM    5  H1  UNL     1      -9.536  15.914  69.642  1.00  0.00     0.000 HD 
ENDROOT
BRANCH   2   6
HETATM    6  C   UNL     1     -11.365  14.910  67.972  1.00  0.00    -0.324 C  
BRANCH   6   7
HETATM    7  O   UNL     1     -12.179  13.853  67.477  1.00  0.00    -0.366 OA 
BRANCH   7   8
HETATM    8  C   UNL     1     -11.677  13.122  66.413  1.00  0.00    -0.379 A  
HETATM    9  C   UNL     1     -11.605  13.490  65.044  1.00  0.00    -0.345 A  
HETATM   10  C   UNL     1     -11.039  12.576  64.124  1.00  0.00    -0.426 A  
HETATM   11  C   UNL     1     -12.157  14.712  64.347  1.00  0.00    -0.481 C  
HETATM   12  C   UNL     1     -10.535  11.342  64.518  1.00  0.00    -0.396 A  
HETATM   13  C   UNL     1     -10.624  10.972  65.850  1.00  0.00    -0.270 A  
HETATM   14  C   UNL     1     -11.191  11.839  66.801  1.00  0.00    -0.388 A  
HETATM   15  C   UNL     1     -11.290  11.345  68.230  1.00  0.00    -0.354 C  
ENDBRANCH   7   8
ENDBRANCH   6   7
ENDBRANCH   2   6
TORSDOF 3
ENDMDL
MODEL       40
REMARK 921   NORMALIZED FREE ENERGY PREDICTED BY IDOCK:   -4.26 KCAL/MOL
REMARK 922        TOTAL FREE ENERGY PREDICTED BY IDOCK:   -5.19 KCAL/MOL
REMARK 923 INTER-LIGAND FREE ENERGY PREDICTED BY IDOCK:   -5.04 KCAL/MOL
REMARK 924 INTRA-LIGAND FREE ENERGY PREDICTED BY IDOCK:   -0.15 KCAL/MOL
REMARK 927      BINDING AFFINITY PREDICTED BY RF-SCORE:    0.00 PKD
ROOT
HETATM    1  C   UNL     1      -9.537  17.795  66.754  1.00  0.00    -0.301 C  
HETATM    2  C   UNL     1     -10.575  16.707  66.522  1.00  0.00    -0.203 C  
HETATM    3  N   UNL     1     -10.424  16.100  65.197  1.00  0.00    -0.608 NA 
HETATM    4  H2  UNL     1      -9.477  15.751  65.051  1.00  0.00     0.000 HD 
HETATM    5  H1  UNL     1     -11.120  15.371  65.042  1.00  0.00     0.000 HD 
ENDROOT
BRANCH   2   6
HETATM    6  C   UNL     1     -10.579  15.653  67.645  1.00  0.00    -0.294 C  
BRANCH   6   7
HETATM    7  O   UNL     1     -11.860  15.202  68.067  1.00  0.00    -0.331 OA 
BRANCH   7   8
HETATM    8  C   UNL     1     -11.920  13.949  68.654  1.00  0.00    -0.366 A  
HETATM    9  C   UNL     1     -11.733  12.678  68.049  1.00  0.00    -0.402 A  
HETATM   10  C   UNL     1     -11.834  11.520  68.855  1.00  0.00    -0.406 A  
HETATM   11  C   UNL     1     -11.539  12.328  66.592  1.00  0.00    -0.438 C  
HETATM   12  C   UNL     1     -12.092  11.585  70.220  1.00  0.00    -0.444 A  
HETATM   13  C   UNL     1     -12.297  12.823  70.808  1.00  0.00    -0.375 A  
HETATM   14  C   UNL     1     -12.221  14.003  70.047  1.00  0.00    -0.414 A  
HETATM   15  C   UNL     1     -12.497  15.313  70.756  1.00  0.00    -0.457 C  
ENDBRANCH   7   8
ENDBRANCH   6   7
ENDBRANCH   2   6
TORSDOF 3
ENDMDL
MODEL       41
REMARK 921   NORMALIZED FREE ENERGY PREDICTED BY IDOCK:   -4.25 KCAL/MOL
REMARK 922        TOTAL FREE ENERGY PREDICTED BY IDOCK:   -5.17 KCAL/MOL
REMARK 923 INTER-LIGAND FREE ENERGY PREDICTED BY IDOCK:   -4.94 KCAL/MOL
REMARK 924 INTRA-LIGAND FREE ENERGY PREDICTED BY IDOCK:   -0.23 KCAL/MOL
REMARK 927      BINDING AFFINITY PREDICTED BY RF-SCORE:    0.00 PKD
ROOT
HETATM    1  C   UNL     1     -13.886  15.256  71.993  1.00  0.00    -0.626 C  
HETATM    2  C   UNL     1     -12.679  15.706  71.182  1.00  0.00    -0.465 C  
HETATM    3  N   UNL     1     -11.866  16.669  71.929  1.00  0.00    -0.598 NA 
HETATM    4  H2  UNL     1     -11.589  16.300  72.838  1.00  0.00     0.000 HD 
HETATM    5  H1  UNL     1     -11.058  16.971  71.385  1.00  0.00     0.000 HD 
ENDROOT
BRANCH   2   6
HETATM    6  C   UNL     1     -11.845  14.520  70.666  1.00  0.00    -0.303 C  
BRANCH   6   7
HETATM    7  O   UNL     1     -12.578  13.467  70.052  1.00  0.00    -0.212 OA 
BRANCH   7   8
HETATM    8  C   UNL     1     -11.913  12.267  69.864  1.00  0.00    -0.306 A  
HETATM    9  C   UNL     1     -11.001  11.913  68.835  1.00  0.00    -0.285 A  
HETATM   10  C   UNL     1     -10.431  10.618  68.849  1.00  0.00    -0.232 A  
HETATM   11  C   UNL     1     -10.596  12.687  67.602  1.00  0.00    -0.232 C  
HETATM   12  C   UNL     1     -10.718   9.690  69.845  1.00  0.00    -0.283 A  
HETATM   13  C   UNL     1     -11.624  10.027  70.837  1.00  0.00    -0.463 A  
HETATM   14  C   UNL     1     -12.230  11.296  70.859  1.00  0.00    -0.460 A  
HETATM   15  C   UNL     1     -13.240  11.572  71.954  1.00  0.00    -0.479 C  
ENDBRANCH   7   8
ENDBRANCH   6   7
ENDBRANCH   2   6
TORSDOF 3
ENDMDL
MODEL       42
REMARK 921   NORMALIZED FREE ENERGY PREDICTED BY IDOCK:   -4.23 KCAL/MOL
REMARK 922        TOTAL FREE ENERGY PREDICTED BY IDOCK:   -5.16 KCAL/MOL
REMARK 923 INTER-LIGAND FREE ENERGY PREDICTED BY IDOCK:   -5.04 KCAL/MOL
REMARK 924 INTRA-LIGAND FREE ENERGY PREDICTED BY IDOCK:   -0.12 KCAL/MOL
REMARK 927      BINDING AFFINITY PREDICTED BY RF-SCORE:    0.00 PKD
ROOT
HETATM    1  C   UNL     1      -9.320  17.431  68.630  1.00  0.00    -0.267 C  
HETATM    2  C   UNL     1     -10.658  16.769  68.334  1.00  0.00    -0.354 C  
HETATM    3  N   UNL     1     -10.605  15.992  67.093  1.00  0.00    -0.309 NA 
HETATM    4  H2  UNL     1      -9.846  15.311  67.110  1.00  0.00     0.000 HD 
HETATM    5  H1  UNL     1     -11.502  15.550  66.894  1.00  0.00     0.000 HD 
ENDROOT
BRANCH   2   6
HETATM    6  C   UNL     1     -11.173  15.932  69.519  1.00  0.00    -0.325 C  
BRANCH   6   7
HETATM    7  O   UNL     1     -12.172  14.969  69.210  1.00  0.00    -0.261 OA 
BRANCH   7   8
HETATM    8  C   UNL     1     -12.527  14.089  70.220  1.00  0.00    -0.338 A  
HETATM    9  C   UNL     1     -13.240  14.359  71.418  1.00  0.00    -0.418 A  
HETATM   10  C   UNL     1     -13.499  13.291  72.309  1.00  0.00    -0.679 A  
HETATM   11  C   UNL     1     -13.701  15.682  71.983  1.00  0.00    -0.534 C  
HETATM   12  C   UNL     1     -13.097  11.987  72.044  1.00  0.00    -0.456 A  
HETATM   13  C   UNL     1     -12.382  11.726  70.886  1.00  0.00    -0.420 A  
HETATM   14  C   UNL     1     -12.086  12.755  69.974  1.00  0.00    -0.355 A  
HETATM   15  C   UNL     1     -11.265  12.396  68.753  1.00  0.00    -0.318 C  
ENDBRANCH   7   8
ENDBRANCH   6   7
ENDBRANCH   2   6
TORSDOF 3
ENDMDL
MODEL       43
REMARK 921   NORMALIZED FREE ENERGY PREDICTED BY IDOCK:   -4.22 KCAL/MOL
REMARK 922        TOTAL FREE ENERGY PREDICTED BY IDOCK:   -5.15 KCAL/MOL
REMARK 923 INTER-LIGAND FREE ENERGY PREDICTED BY IDOCK:   -4.83 KCAL/MOL
REMARK 924 INTRA-LIGAND FREE ENERGY PREDICTED BY IDOCK:   -0.31 KCAL/MOL
REMARK 927      BINDING AFFINITY PREDICTED BY RF-SCORE:    0.00 PKD
ROOT
HETATM    1  C   UNL     1     -12.085  10.875  69.605  1.00  0.00    -0.400 C  
HETATM    2  C   UNL     1     -10.890  10.447  68.765  1.00  0.00    -0.232 C  
HETATM    3  N   UNL     1     -10.781   8.988  68.700  1.00  0.00    -0.391 NA 
HETATM    4  H2  UNL     1     -11.645   8.562  68.365  1.00  0.00     0.000 HD 
HETATM    5  H1  UNL     1      -9.980   8.701  68.137  1.00  0.00     0.000 HD 
ENDROOT
BRANCH   2   6
HETATM    6  C   UNL     1     -10.898  11.091  67.366  1.00  0.00    -0.274 C  
BRANCH   6   7
HETATM    7  O   UNL     1     -11.941  12.026  67.120  1.00  0.00    -0.601 OA 
BRANCH   7   8
HETATM    8  C   UNL     1     -11.565  13.274  66.650  1.00  0.00    -0.365 A  
HETATM    9  C   UNL     1     -10.994  14.355  67.372  1.00  0.00    -0.303 A  
HETATM   10  C   UNL     1     -10.680  15.546  66.675  1.00  0.00    -0.306 A  
HETATM   11  C   UNL     1     -10.749  14.496  68.856  1.00  0.00    -0.259 C  
HETATM   12  C   UNL     1     -10.894  15.686  65.309  1.00  0.00    -0.420 A  
HETATM   13  C   UNL     1     -11.472  14.640  64.607  1.00  0.00    -0.389 A  
HETATM   14  C   UNL     1     -11.816  13.441  65.256  1.00  0.00    -0.373 A  
HETATM   15  C   UNL     1     -12.480  12.360  64.428  1.00  0.00    -0.520 C  
ENDBRANCH   7   8
ENDBRANCH   6   7
ENDBRANCH   2   6
TORSDOF 3
ENDMDL
MODEL       44
REMARK 921   NORMALIZED FREE ENERGY PREDICTED BY IDOCK:   -4.22 KCAL/MOL
REMARK 922        TOTAL FREE ENERGY PREDICTED BY IDOCK:   -5.15 KCAL/MOL
REMARK 923 INTER-LIGAND FREE ENERGY PREDICTED BY IDOCK:   -4.80 KCAL/MOL
REMARK 924 INTRA-LIGAND FREE ENERGY PREDICTED BY IDOCK:   -0.34 KCAL/MOL
REMARK 927      BINDING AFFINITY PREDICTED BY RF-SCORE:    0.00 PKD
ROOT
HETATM    1  C   UNL     1     -10.746  19.159  67.276  1.00  0.00    -0.585 C  
HETATM    2  C   UNL     1      -9.497  18.447  67.775  1.00  0.00    -0.280 C  
HETATM    3  N   UNL     1      -8.633  19.356  68.532  1.00  0.00    -0.360 NA 
HETATM    4  H2  UNL     1      -9.139  19.804  69.296  1.00  0.00     0.000 HD 
HETATM    5  H1  UNL     1      -7.796  18.879  68.866  1.00  0.00     0.000 HD 
ENDROOT
BRANCH   2   6
HETATM    6  C   UNL     1      -9.828  17.169  68.567  1.00  0.00    -0.297 C  
BRANCH   6   7
HETATM    7  O   UNL     1     -11.148  16.664  68.405  1.00  0.00    -0.359 OA 
BRANCH   7   8
HETATM    8  C   UNL     1     -11.275  15.429  67.792  1.00  0.00    -0.321 A  
HETATM    9  C   UNL     1     -11.054  15.090  66.430  1.00  0.00    -0.329 A  
HETATM   10  C   UNL     1     -11.240  13.747  66.026  1.00  0.00    -0.307 A  
HETATM   11  C   UNL     1     -10.741  15.988  65.256  1.00  0.00    -0.417 C  
HETATM   12  C   UNL     1     -11.613  12.747  66.917  1.00  0.00    -0.428 A  
HETATM   13  C   UNL     1     -11.850  13.080  68.241  1.00  0.00    -0.381 A  
HETATM   14  C   UNL     1     -11.694  14.403  68.690  1.00  0.00    -0.367 A  
HETATM   15  C   UNL     1     -12.012  14.694  70.143  1.00  0.00    -0.372 C  
ENDBRANCH   7   8
ENDBRANCH   6   7
ENDBRANCH   2   6
TORSDOF 3
ENDMDL
MODEL       45
REMARK 921   NORMALIZED FREE ENERGY PREDICTED BY IDOCK:   -4.20 KCAL/MOL
REMARK 922        TOTAL FREE ENERGY PREDICTED BY IDOCK:   -5.12 KCAL/MOL
REMARK 923 INTER-LIGAND FREE ENERGY PREDICTED BY IDOCK:   -4.88 KCAL/MOL
REMARK 924 INTRA-LIGAND FREE ENERGY PREDICTED BY IDOCK:   -0.24 KCAL/MOL
REMARK 927      BINDING AFFINITY PREDICTED BY RF-SCORE:    0.00 PKD
ROOT
HETATM    1  C   UNL     1     -12.000   6.673  71.702  1.00  0.00    -0.395 C  
HETATM    2  C   UNL     1     -13.324   7.388  71.473  1.00  0.00    -0.372 C  
HETATM    3  N   UNL     1     -14.405   6.763  72.240  1.00  0.00    -0.621 NA 
HETATM    4  H2  UNL     1     -14.177   6.708  73.232  1.00  0.00     0.000 HD 
HETATM    5  H1  UNL     1     -15.292   7.242  72.086  1.00  0.00     0.000 HD 
ENDROOT
BRANCH   2   6
HETATM    6  C   UNL     1     -13.226   8.901  71.737  1.00  0.00    -0.378 C  
BRANCH   6   7
HETATM    7  O   UNL     1     -11.933   9.475  71.582  1.00  0.00    -0.362 OA 
BRANCH   7   8
HETATM    8  C   UNL     1     -11.843  10.613  70.798  1.00  0.00    -0.357 A  
HETATM    9  C   UNL     1     -12.380  11.904  71.047  1.00  0.00    -0.362 A  
HETATM   10  C   UNL     1     -12.152  12.928  70.098  1.00  0.00    -0.373 A  
HETATM   11  C   UNL     1     -13.291  12.367  72.160  1.00  0.00    -0.508 C  
HETATM   12  C   UNL     1     -11.408  12.719  68.942  1.00  0.00    -0.344 A  
HETATM   13  C   UNL     1     -10.903  11.454  68.687  1.00  0.00    -0.249 A  
HETATM   14  C   UNL     1     -11.113  10.399  69.592  1.00  0.00    -0.328 A  
HETATM   15  C   UNL     1     -10.563   9.037  69.221  1.00  0.00    -0.226 C  
ENDBRANCH   7   8
ENDBRANCH   6   7
ENDBRANCH   2   6
TORSDOF 3
ENDMDL
MODEL       46
REMARK 921   NORMALIZED FREE ENERGY PREDICTED BY IDOCK:   -4.19 KCAL/MOL
REMARK 922        TOTAL FREE ENERGY PREDICTED BY IDOCK:   -5.11 KCAL/MOL
REMARK 923 INTER-LIGAND FREE ENERGY PREDICTED BY IDOCK:   -4.87 KCAL/MOL
REMARK 924 INTRA-LIGAND FREE ENERGY PREDICTED BY IDOCK:   -0.24 KCAL/MOL
REMARK 927      BINDING AFFINITY PREDICTED BY RF-SCORE:    0.00 PKD
ROOT
HETATM    1  C   UNL     1     -10.307  17.397  65.611  1.00  0.00    -0.161 C  
HETATM    2  C   UNL     1     -11.280  16.321  65.155  1.00  0.00    -0.113 C  
HETATM    3  N   UNL     1     -11.595  16.456  63.731  1.00  0.00    -1.515 NA 
HETATM    4  H2  UNL     1     -10.750  16.463  63.160  1.00  0.00     0.000 HD 
HETATM    5  H1  UNL     1     -12.248  15.735  63.425  1.00  0.00     0.000 HD 
ENDROOT
BRANCH   2   6
HETATM    6  C   UNL     1     -10.793  14.903  65.508  1.00  0.00    -0.356 C  
BRANCH   6   7
HETATM    7  O   UNL     1     -10.107  14.775  66.748  1.00  0.00    -0.248 OA 
BRANCH   7   8
HETATM    8  C   UNL     1     -10.638  13.885  67.667  1.00  0.00    -0.245 A  
HETATM    9  C   UNL     1     -10.627  12.466  67.632  1.00  0.00    -0.236 A  
HETATM   10  C   UNL     1     -11.229  11.755  68.697  1.00  0.00    -0.312 A  
HETATM   11  C   UNL     1     -10.151  11.536  66.540  1.00  0.00    -0.246 C  
HETATM   12  C   UNL     1     -11.813  12.398  69.783  1.00  0.00    -0.387 A  
HETATM   13  C   UNL     1     -11.844  13.783  69.808  1.00  0.00    -0.394 A  
HETATM   14  C   UNL     1     -11.272  14.535  68.767  1.00  0.00    -0.281 A  
HETATM   15  C   UNL     1     -11.382  16.044  68.848  1.00  0.00    -0.370 C  
ENDBRANCH   7   8
ENDBRANCH   6   7
ENDBRANCH   2   6
TORSDOF 3
ENDMDL
MODEL       47
REMARK 921   NORMALIZED FREE ENERGY PREDICTED BY IDOCK:   -4.18 KCAL/MOL
REMARK 922        TOTAL FREE ENERGY PREDICTED BY IDOCK:   -5.10 KCAL/MOL
REMARK 923 INTER-LIGAND FREE ENERGY PREDICTED BY IDOCK:   -4.78 KCAL/MOL
REMARK 924 INTRA-LIGAND FREE ENERGY PREDICTED BY IDOCK:   -0.32 KCAL/MOL
REMARK 927      BINDING AFFINITY PREDICTED BY RF-SCORE:    0.00 PKD
ROOT
HETATM    1  C   UNL     1     -11.695  12.516  67.431  1.00  0.00    -0.432 C  
HETATM    2  C   UNL     1     -11.559  13.331  68.709  1.00  0.00    -0.312 C  
HETATM    3  N   UNL     1     -12.292  14.596  68.615  1.00  0.00    -0.593 NA 
HETATM    4  H2  UNL     1     -13.271  14.444  68.370  1.00  0.00     0.000 HD 
HETATM    5  H1  UNL     1     -12.201  15.141  69.471  1.00  0.00     0.000 HD 
ENDROOT
BRANCH   2   6
HETATM    6  C   UNL     1     -11.952  12.525  69.961  1.00  0.00    -0.299 C  
BRANCH   6   7
HETATM    7  O   UNL     1     -12.214  11.143  69.752  1.00  0.00    -0.315 OA 
BRANCH   7   8
HETATM    8  C   UNL     1     -11.383  10.243  70.398  1.00  0.00    -0.332 A  
HETATM    9  C   UNL     1     -10.047   9.887  70.078  1.00  0.00    -0.308 A  
HETATM   10  C   UNL     1      -9.382   8.940  70.893  1.00  0.00    -0.295 A  
HETATM   11  C   UNL     1      -9.204  10.289  68.890  1.00  0.00    -0.176 C  
HETATM   12  C   UNL     1      -9.986   8.362  72.004  1.00  0.00    -0.354 A  
HETATM   13  C   UNL     1     -11.298   8.692  72.305  1.00  0.00    -0.411 A  
HETATM   14  C   UNL     1     -12.007   9.617  71.518  1.00  0.00    -0.485 A  
HETATM   15  C   UNL     1     -13.449   9.894  71.888  1.00  0.00    -0.467 C  
ENDBRANCH   7   8
ENDBRANCH   6   7
ENDBRANCH   2   6
TORSDOF 3
ENDMDL
MODEL       48
REMARK 921   NORMALIZED FREE ENERGY PREDICTED BY IDOCK:   -4.17 KCAL/MOL
REMARK 922        TOTAL FREE ENERGY PREDICTED BY IDOCK:   -5.08 KCAL/MOL
REMARK 923 INTER-LIGAND FREE ENERGY PREDICTED BY IDOCK:   -4.70 KCAL/MOL
REMARK 924 INTRA-LIGAND FREE ENERGY PREDICTED BY IDOCK:   -0.38 KCAL/MOL
REMARK 927      BINDING AFFINITY PREDICTED BY RF-SCORE:    0.00 PKD
ROOT
HETATM    1  C   UNL     1     -10.431   7.916  67.222  1.00  0.00    -0.390 C  
HETATM    2  C   UNL     1     -10.040   9.174  67.983  1.00  0.00    -0.196 C  
HETATM    3  N   UNL     1      -8.650   9.550  67.713  1.00  0.00    -0.116 NA 
HETATM    4  H2  UNL     1      -8.477   9.649  66.712  1.00  0.00     0.000 HD 
HETATM    5  H1  UNL     1      -8.388  10.393  68.223  1.00  0.00     0.000 HD 
ENDROOT
BRANCH   2   6
HETATM    6  C   UNL     1     -11.015  10.339  67.730  1.00  0.00    -0.300 C  
BRANCH   6   7
HETATM    7  O   UNL     1     -10.446  11.510  67.159  1.00  0.00    -0.209 OA 
BRANCH   7   8
HETATM    8  C   UNL     1     -10.880  11.864  65.892  1.00  0.00    -0.297 A  
HETATM    9  C   UNL     1     -10.580  11.245  64.650  1.00  0.00    -0.392 A  
HETATM   10  C   UNL     1     -11.149  11.779  63.469  1.00  0.00    -0.503 A  
HETATM   11  C   UNL     1      -9.621  10.117  64.345  1.00  0.00    -0.366 C  
HETATM   12  C   UNL     1     -12.004  12.875  63.487  1.00  0.00    -0.629 A  
HETATM   13  C   UNL     1     -12.281  13.494  64.696  1.00  0.00    -0.450 A  
HETATM   14  C   UNL     1     -11.728  13.010  65.895  1.00  0.00    -0.442 A  
HETATM   15  C   UNL     1     -12.046  13.766  67.169  1.00  0.00    -0.416 C  
ENDBRANCH   7   8
ENDBRANCH   6   7
ENDBRANCH   2   6
TORSDOF 3
ENDMDL
MODEL       49
REMARK 921   NORMALIZED FREE ENERGY PREDICTED BY IDOCK:   -4.16 KCAL/MOL
REMARK 922        TOTAL FREE ENERGY PREDICTED BY IDOCK:   -5.07 KCAL/MOL
REMARK 923 INTER-LIGAND FREE ENERGY PREDICTED BY IDOCK:   -4.98 KCAL/MOL
REMARK 924 INTRA-LIGAND FREE ENERGY PREDICTED BY IDOCK:   -0.09 KCAL/MOL
REMARK 927      BINDING AFFINITY PREDICTED BY RF-SCORE:    0.00 PKD
ROOT
HETATM    1  C   UNL     1     -11.858  15.964  71.373  1.00  0.00    -0.524 C  
HETATM    2  C   UNL     1     -12.834  14.874  70.958  1.00  0.00    -0.362 C  
HETATM    3  N   UNL     1     -14.196  15.398  70.833  1.00  0.00    -0.857 NA 
HETATM    4  H2  UNL     1     -14.234  16.195  70.198  1.00  0.00     0.000 HD 
HETATM    5  H1  UNL     1     -14.850  14.667  70.556  1.00  0.00     0.000 HD 
ENDROOT
BRANCH   2   6
HETATM    6  C   UNL     1     -12.379  14.133  69.688  1.00  0.00    -0.256 C  
BRANCH   6   7
HETATM    7  O   UNL     1     -11.086  14.472  69.202  1.00  0.00    -0.244 OA 
BRANCH   7   8
HETATM    8  C   UNL     1     -10.982  14.768  67.853  1.00  0.00    -0.278 A  
HETATM    9  C   UNL     1     -11.346  13.965  66.740  1.00  0.00    -0.347 A  
HETATM   10  C   UNL     1     -11.155  14.483  65.437  1.00  0.00    -0.345 A  
HETATM   11  C   UNL     1     -11.829  12.534  66.706  1.00  0.00    -0.416 C  
HETATM   12  C   UNL     1     -10.642  15.755  65.211  1.00  0.00    -0.446 A  
HETATM   13  C   UNL     1     -10.266  16.532  66.295  1.00  0.00    -0.343 A  
HETATM   14  C   UNL     1     -10.422  16.057  67.610  1.00  0.00    -0.292 A  
HETATM   15  C   UNL     1      -9.949  16.950  68.739  1.00  0.00    -0.276 C  
ENDBRANCH   7   8
ENDBRANCH   6   7
ENDBRANCH   2   6
TORSDOF 3
ENDMDL
MODEL       50
REMARK 921   NORMALIZED FREE ENERGY PREDICTED BY IDOCK:   -4.15 KCAL/MOL
REMARK 922        TOTAL FREE ENERGY PREDICTED BY IDOCK:   -5.06 KCAL/MOL
REMARK 923 INTER-LIGAND FREE ENERGY PREDICTED BY IDOCK:   -4.86 KCAL/MOL
REMARK 924 INTRA-LIGAND FREE ENERGY PREDICTED BY IDOCK:   -0.19 KCAL/MOL
REMARK 927      BINDING AFFINITY PREDICTED BY RF-SCORE:    0.00 PKD
ROOT
HETATM    1  C   UNL     1     -12.419  13.483  65.617  1.00  0.00    -0.528 C  
HETATM    2  C   UNL     1     -11.606  13.653  66.891  1.00  0.00    -0.367 C  
HETATM    3  N   UNL     1     -12.401  14.278  67.951  1.00  0.00    -0.570 NA 
HETATM    4  H2  UNL     1     -13.264  13.764  68.124  1.00  0.00     0.000 HD 
HETATM    5  H1  UNL     1     -11.855  14.393  68.805  1.00  0.00     0.000 HD 
ENDROOT
BRANCH   2   6
HETATM    6  C   UNL     1     -10.959  12.334  67.353  1.00  0.00    -0.253 C  
BRANCH   6   7
HETATM    7  O   UNL     1     -11.839  11.387  67.946  1.00  0.00    -0.588 OA 
BRANCH   7   8
HETATM    8  C   UNL     1     -11.259  10.385  68.706  1.00  0.00    -0.241 A  
HETATM    9  C   UNL     1     -10.509   9.263  68.265  1.00  0.00    -0.260 A  
HETATM   10  C   UNL     1     -10.001   8.363  69.232  1.00  0.00    -0.195 A  
HETATM   11  C   UNL     1     -10.236   8.782  66.858  1.00  0.00    -0.357 C  
HETATM   12  C   UNL     1     -10.196   8.550  70.596  1.00  0.00    -0.230 A  
HETATM   13  C   UNL     1     -10.946   9.632  71.026  1.00  0.00    -0.431 A  
HETATM   14  C   UNL     1     -11.485  10.547  70.105  1.00  0.00    -0.405 A  
HETATM   15  C   UNL     1     -12.328  11.680  70.652  1.00  0.00    -0.437 C  
ENDBRANCH   7   8
ENDBRANCH   6   7
ENDBRANCH   2   6
TORSDOF 3
ENDMDL
MODEL       51
REMARK 921   NORMALIZED FREE ENERGY PREDICTED BY IDOCK:   -4.13 KCAL/MOL
REMARK 922        TOTAL FREE ENERGY PREDICTED BY IDOCK:   -5.04 KCAL/MOL
REMARK 923 INTER-LIGAND FREE ENERGY PREDICTED BY IDOCK:   -4.80 KCAL/MOL
REMARK 924 INTRA-LIGAND FREE ENERGY PREDICTED BY IDOCK:   -0.24 KCAL/MOL
REMARK 927      BINDING AFFINITY PREDICTED BY RF-SCORE:    0.00 PKD
ROOT
HETATM    1  C   UNL     1     -12.000  14.138  66.747  1.00  0.00    -0.475 C  
HETATM    2  C   UNL     1     -10.604  14.658  66.438  1.00  0.00    -0.301 C  
HETATM    3  N   UNL     1      -9.842  13.694  65.639  1.00  0.00    -0.466 NA 
HETATM    4  H2  UNL     1     -10.342  13.435  64.788  1.00  0.00     0.000 HD 
HETATM    5  H1  UNL     1      -8.907  14.042  65.432  1.00  0.00     0.000 HD 
ENDROOT
BRANCH   2   6
HETATM    6  C   UNL     1     -10.629  16.055  65.791  1.00  0.00    -0.353 C  
BRANCH   6   7
HETATM    7  O   UNL     1      -9.362  16.669  65.595  1.00  0.00    -0.502 OA 
BRANCH   7   8
HETATM    8  C   UNL     1      -8.987  17.638  66.510  1.00  0.00    -0.262 A  
HETATM    9  C   UNL     1      -9.558  18.921  66.725  1.00  0.00    -0.354 A  
HETATM   10  C   UNL     1      -9.010  19.749  67.733  1.00  0.00    -0.396 A  
HETATM   11  C   UNL     1     -10.642  19.632  65.947  1.00  0.00    -0.566 C  
HETATM   12  C   UNL     1      -7.946  19.342  68.530  1.00  0.00    -0.395 A  
HETATM   13  C   UNL     1      -7.373  18.101  68.308  1.00  0.00    -0.265 A  
HETATM   14  C   UNL     1      -7.872  17.247  67.308  1.00  0.00    -0.211 A  
HETATM   15  C   UNL     1      -7.165  15.923  67.100  1.00  0.00    -0.254 C  
ENDBRANCH   7   8
ENDBRANCH   6   7
ENDBRANCH   2   6
TORSDOF 3
ENDMDL
MODEL       52
REMARK 921   NORMALIZED FREE ENERGY PREDICTED BY IDOCK:   -4.13 KCAL/MOL
REMARK 922        TOTAL FREE ENERGY PREDICTED BY IDOCK:   -5.04 KCAL/MOL
REMARK 923 INTER-LIGAND FREE ENERGY PREDICTED BY IDOCK:   -4.70 KCAL/MOL
REMARK 924 INTRA-LIGAND FREE ENERGY PREDICTED BY IDOCK:   -0.34 KCAL/MOL
REMARK 927      BINDING AFFINITY PREDICTED BY RF-SCORE:    0.00 PKD
ROOT
HETATM    1  C   UNL     1      -8.972   7.340  67.049  1.00  0.00    -0.140 C  
HETATM    2  C   UNL     1     -10.399   7.851  66.907  1.00  0.00    -0.330 C  
HETATM    3  N   UNL     1     -11.373   6.795  67.191  1.00  0.00    -0.755 NA 
HETATM    4  H2  UNL     1     -11.215   6.375  68.107  1.00  0.00     0.000 HD 
HETATM    5  H1  UNL     1     -12.329   7.137  67.095  1.00  0.00     0.000 HD 
ENDROOT
BRANCH   2   6
HETATM    6  C   UNL     1     -10.654   9.115  67.747  1.00  0.00    -0.227 C  
BRANCH   6   7
HETATM    7  O   UNL     1     -10.200   9.067  69.094  1.00  0.00    -0.194 OA 
BRANCH   7   8
HETATM    8  C   UNL     1     -11.146   9.284  70.082  1.00  0.00    -0.230 A  
HETATM    9  C   UNL     1     -11.894  10.462  70.346  1.00  0.00    -0.418 A  
HETATM   10  C   UNL     1     -12.822  10.453  71.415  1.00  0.00    -0.556 A  
HETATM   11  C   UNL     1     -11.787  11.830  69.713  1.00  0.00    -0.420 C  
HETATM   12  C   UNL     1     -13.037   9.327  72.202  1.00  0.00    -0.520 A  
HETATM   13  C   UNL     1     -12.291   8.184  71.960  1.00  0.00    -0.380 A  
HETATM   14  C   UNL     1     -11.347   8.147  70.919  1.00  0.00    -0.286 A  
HETATM   15  C   UNL     1     -10.544   6.874  70.745  1.00  0.00    -0.245 C  
ENDBRANCH   7   8
ENDBRANCH   6   7
ENDBRANCH   2   6
TORSDOF 3
ENDMDL
MODEL       53
REMARK 921   NORMALIZED FREE ENERGY PREDICTED BY IDOCK:   -4.13 KCAL/MOL
REMARK 922        TOTAL FREE ENERGY PREDICTED BY IDOCK:   -5.04 KCAL/MOL
REMARK 923 INTER-LIGAND FREE ENERGY PREDICTED BY IDOCK:   -4.83 KCAL/MOL
REMARK 924 INTRA-LIGAND FREE ENERGY PREDICTED BY IDOCK:   -0.21 KCAL/MOL
REMARK 927      BINDING AFFINITY PREDICTED BY RF-SCORE:    0.00 PKD
ROOT
HETATM    1  C   UNL     1     -12.178  12.498  70.399  1.00  0.00    -0.368 C  
HETATM    2  C   UNL     1     -11.659  11.961  69.073  1.00  0.00    -0.317 C  
HETATM    3  N   UNL     1     -12.404  10.773  68.652  1.00  0.00    -0.786 NA 
HETATM    4  H2  UNL     1     -13.408  10.953  68.615  1.00  0.00     0.000 HD 
HETATM    5  H1  UNL     1     -12.056  10.413  67.764  1.00  0.00     0.000 HD 
ENDROOT
BRANCH   2   6
HETATM    6  C   UNL     1     -11.623  13.042  67.978  1.00  0.00    -0.343 C  
BRANCH   6   7
HETATM    7  O   UNL     1     -10.481  13.028  67.130  1.00  0.00    -0.241 OA 
BRANCH   7   8
HETATM    8  C   UNL     1     -10.663  12.555  65.841  1.00  0.00    -0.264 A  
HETATM    9  C   UNL     1     -11.440  13.118  64.794  1.00  0.00    -0.355 A  
HETATM   10  C   UNL     1     -11.473  12.458  63.543  1.00  0.00    -0.561 A  
HETATM   11  C   UNL     1     -12.371  14.308  64.822  1.00  0.00    -0.440 C  
HETATM   12  C   UNL     1     -10.759  11.291  63.299  1.00  0.00    -0.278 A  
HETATM   13  C   UNL     1     -10.018  10.728  64.326  1.00  0.00    -0.403 A  
HETATM   14  C   UNL     1      -9.964  11.337  65.593  1.00  0.00    -0.292 A  
HETATM   15  C   UNL     1      -9.166  10.638  66.674  1.00  0.00    -0.184 C  
ENDBRANCH   7   8
ENDBRANCH   6   7
ENDBRANCH   2   6
TORSDOF 3
ENDMDL
MODEL       54
REMARK 921   NORMALIZED FREE ENERGY PREDICTED BY IDOCK:   -4.12 KCAL/MOL
REMARK 922        TOTAL FREE ENERGY PREDICTED BY IDOCK:   -5.03 KCAL/MOL
REMARK 923 INTER-LIGAND FREE ENERGY PREDICTED BY IDOCK:   -4.86 KCAL/MOL
REMARK 924 INTRA-LIGAND FREE ENERGY PREDICTED BY IDOCK:   -0.17 KCAL/MOL
REMARK 927      BINDING AFFINITY PREDICTED BY RF-SCORE:    0.00 PKD
ROOT
HETATM    1  C   UNL     1     -10.152   7.917  69.997  1.00  0.00    -0.199 C  
HETATM    2  C   UNL     1     -10.113   8.947  68.878  1.00  0.00    -0.197 C  
HETATM    3  N   UNL     1     -10.950   8.536  67.747  1.00  0.00    -0.486 NA 
HETATM    4  H2  UNL     1     -11.906   8.338  68.041  1.00  0.00     0.000 HD 
HETATM    5  H1  UNL     1     -10.923   9.226  66.997  1.00  0.00     0.000 HD 
ENDROOT
BRANCH   2   6
HETATM    6  C   UNL     1     -10.462  10.362  69.372  1.00  0.00    -0.238 C  
BRANCH   6   7
HETATM    7  O   UNL     1     -11.849  10.673  69.433  1.00  0.00    -0.283 OA 
BRANCH   7   8
HETATM    8  C   UNL     1     -12.203  11.822  70.121  1.00  0.00    -0.263 A  
HETATM    9  C   UNL     1     -11.953  13.175  69.771  1.00  0.00    -0.382 A  
HETATM   10  C   UNL     1     -12.421  14.197  70.631  1.00  0.00    -0.432 A  
HETATM   11  C   UNL     1     -11.137  13.737  68.630  1.00  0.00    -0.293 C  
HETATM   12  C   UNL     1     -13.131  13.921  71.794  1.00  0.00    -0.458 A  
HETATM   13  C   UNL     1     -13.357  12.601  72.148  1.00  0.00    -0.570 A  
HETATM   14  C   UNL     1     -12.900  11.549  71.335  1.00  0.00    -0.489 A  
HETATM   15  C   UNL     1     -13.151  10.133  71.812  1.00  0.00    -0.568 C  
ENDBRANCH   7   8
ENDBRANCH   6   7
ENDBRANCH   2   6
TORSDOF 3
ENDMDL
MODEL       55
REMARK 921   NORMALIZED FREE ENERGY PREDICTED BY IDOCK:   -4.12 KCAL/MOL
REMARK 922        TOTAL FREE ENERGY PREDICTED BY IDOCK:   -5.02 KCAL/MOL
REMARK 923 INTER-LIGAND FREE ENERGY PREDICTED BY IDOCK:   -4.90 KCAL/MOL
REMARK 924 INTRA-LIGAND FREE ENERGY PREDICTED BY IDOCK:   -0.12 KCAL/MOL
REMARK 927      BINDING AFFINITY PREDICTED BY RF-SCORE:    0.00 PKD
ROOT
HETATM    1  C   UNL     1      -8.639  19.112  68.430  1.00  0.00    -0.387 C  
HETATM    2  C   UNL     1     -10.075  18.618  68.336  1.00  0.00    -0.383 C  
HETATM    3  N   UNL     1     -10.703  19.043  67.083  1.00  0.00    -0.465 NA 
HETATM    4  H2  UNL     1     -10.155  18.754  66.272  1.00  0.00     0.000 HD 
HETATM    5  H1  UNL     1     -11.666  18.713  67.020  1.00  0.00     0.000 HD 
ENDROOT
BRANCH   2   6
HETATM    6  C   UNL     1     -10.188  17.099  68.555  1.00  0.00    -0.346 C  
BRANCH   6   7
HETATM    7  O   UNL     1     -11.502  16.559  68.491  1.00  0.00    -0.317 OA 
BRANCH   7   8
HETATM    8  C   UNL     1     -11.613  15.179  68.503  1.00  0.00    -0.335 A  
HETATM    9  C   UNL     1     -11.407  14.265  67.436  1.00  0.00    -0.349 A  
HETATM   10  C   UNL     1     -11.571  12.881  67.685  1.00  0.00    -0.406 A  
HETATM   11  C   UNL     1     -11.130  14.540  65.976  1.00  0.00    -0.329 C  
HETATM   12  C   UNL     1     -11.909  12.388  68.940  1.00  0.00    -0.350 A  
HETATM   13  C   UNL     1     -12.132  13.279  69.977  1.00  0.00    -0.385 A  
HETATM   14  C   UNL     1     -11.996  14.664  69.777  1.00  0.00    -0.378 A  
HETATM   15  C   UNL     1     -12.297  15.575  70.950  1.00  0.00    -0.474 C  
ENDBRANCH   7   8
ENDBRANCH   6   7
ENDBRANCH   2   6
TORSDOF 3
ENDMDL
MODEL       56
REMARK 921   NORMALIZED FREE ENERGY PREDICTED BY IDOCK:   -4.11 KCAL/MOL
REMARK 922        TOTAL FREE ENERGY PREDICTED BY IDOCK:   -5.01 KCAL/MOL
REMARK 923 INTER-LIGAND FREE ENERGY PREDICTED BY IDOCK:   -4.88 KCAL/MOL
REMARK 924 INTRA-LIGAND FREE ENERGY PREDICTED BY IDOCK:   -0.13 KCAL/MOL
REMARK 927      BINDING AFFINITY PREDICTED BY RF-SCORE:    0.00 PKD
ROOT
HETATM    1  C   UNL     1      -8.964   8.765  66.267  1.00  0.00    -0.211 C  
HETATM    2  C   UNL     1     -10.384   8.943  66.785  1.00  0.00    -0.247 C  
HETATM    3  N   UNL     1     -10.838   7.754  67.511  1.00  0.00    -0.519 NA 
HETATM    4  H2  UNL     1     -10.194   7.506  68.262  1.00  0.00     0.000 HD 
HETATM    5  H1  UNL     1     -11.789   7.874  67.858  1.00  0.00     0.000 HD 
ENDROOT
BRANCH   2   6
HETATM    6  C   UNL     1     -10.547  10.228  67.616  1.00  0.00    -0.263 C  
BRANCH   6   7
HETATM    7  O   UNL     1     -11.717  10.993  67.352  1.00  0.00    -0.539 OA 
BRANCH   7   8
HETATM    8  C   UNL     1     -11.768  12.266  67.894  1.00  0.00    -0.347 A  
HETATM    9  C   UNL     1     -11.859  12.643  69.260  1.00  0.00    -0.358 A  
HETATM   10  C   UNL     1     -11.890  14.020  69.584  1.00  0.00    -0.386 A  
HETATM   11  C   UNL     1     -12.046  11.777  70.484  1.00  0.00    -0.439 C  
HETATM   12  C   UNL     1     -11.815  15.013  68.614  1.00  0.00    -0.325 A  
HETATM   13  C   UNL     1     -11.748  14.648  67.279  1.00  0.00    -0.406 A  
HETATM   14  C   UNL     1     -11.730  13.292  66.904  1.00  0.00    -0.437 A  
HETATM   15  C   UNL     1     -11.697  12.974  65.423  1.00  0.00    -0.401 C  
ENDBRANCH   7   8
ENDBRANCH   6   7
ENDBRANCH   2   6
TORSDOF 3
ENDMDL
MODEL       57
REMARK 921   NORMALIZED FREE ENERGY PREDICTED BY IDOCK:   -4.10 KCAL/MOL
REMARK 922        TOTAL FREE ENERGY PREDICTED BY IDOCK:   -5.00 KCAL/MOL
REMARK 923 INTER-LIGAND FREE ENERGY PREDICTED BY IDOCK:   -4.66 KCAL/MOL
REMARK 924 INTRA-LIGAND FREE ENERGY PREDICTED BY IDOCK:   -0.34 KCAL/MOL
REMARK 927      BINDING AFFINITY PREDICTED BY RF-SCORE:    0.00 PKD
ROOT
HETATM    1  C   UNL     1      -8.039  18.614  66.364  1.00  0.00    -0.300 C  
HETATM    2  C   UNL     1      -9.447  19.149  66.583  1.00  0.00    -0.344 C  
HETATM    3  N   UNL     1      -9.622  20.460  65.954  1.00  0.00    -0.640 NA 
HETATM    4  H2  UNL     1      -9.381  20.435  64.963  1.00  0.00     0.000 HD 
HETATM    5  H1  UNL     1     -10.565  20.819  66.101  1.00  0.00     0.000 HD 
ENDROOT
BRANCH   2   6
HETATM    6  C   UNL     1     -10.529  18.147  66.145  1.00  0.00    -0.364 C  
BRANCH   6   7
HETATM    7  O   UNL     1     -10.068  16.843  65.812  1.00  0.00    -0.502 OA 
BRANCH   7   8
HETATM    8  C   UNL     1     -10.542  15.795  66.585  1.00  0.00    -0.307 A  
HETATM    9  C   UNL     1     -10.229  15.478  67.933  1.00  0.00    -0.238 A  
HETATM   10  C   UNL     1     -10.847  14.352  68.527  1.00  0.00    -0.260 A  
HETATM   11  C   UNL     1      -9.213  16.109  68.857  1.00  0.00    -0.234 C  
HETATM   12  C   UNL     1     -11.762  13.560  67.843  1.00  0.00    -0.392 A  
HETATM   13  C   UNL     1     -12.052  13.855  66.521  1.00  0.00    -0.484 A  
HETATM   14  C   UNL     1     -11.454  14.954  65.881  1.00  0.00    -0.276 A  
HETATM   15  C   UNL     1     -11.792  15.186  64.422  1.00  0.00    -0.314 C  
ENDBRANCH   7   8
ENDBRANCH   6   7
ENDBRANCH   2   6
TORSDOF 3
ENDMDL
MODEL       58
REMARK 921   NORMALIZED FREE ENERGY PREDICTED BY IDOCK:   -4.09 KCAL/MOL
REMARK 922        TOTAL FREE ENERGY PREDICTED BY IDOCK:   -4.99 KCAL/MOL
REMARK 923 INTER-LIGAND FREE ENERGY PREDICTED BY IDOCK:   -4.75 KCAL/MOL
REMARK 924 INTRA-LIGAND FREE ENERGY PREDICTED BY IDOCK:   -0.24 KCAL/MOL
REMARK 927      BINDING AFFINITY PREDICTED BY RF-SCORE:    0.00 PKD
ROOT
HETATM    1  C   UNL     1     -10.675  13.559  64.588  1.00  0.00    -0.429 C  
HETATM    2  C   UNL     1     -11.938  13.269  65.384  1.00  0.00    -0.395 C  
HETATM    3  N   UNL     1     -12.835  12.372  64.651  1.00  0.00    -0.774 NA 
HETATM    4  H2  UNL     1     -12.361  11.512  64.375  1.00  0.00     0.000 HD 
HETATM    5  H1  UNL     1     -13.682  12.178  65.185  1.00  0.00     0.000 HD 
ENDROOT
BRANCH   2   6
HETATM    6  C   UNL     1     -11.631  12.750  66.801  1.00  0.00    -0.370 C  
BRANCH   6   7
HETATM    7  O   UNL     1     -11.855  11.362  67.015  1.00  0.00    -0.530 OA 
BRANCH   7   8
HETATM    8  C   UNL     1     -11.044  10.733  67.945  1.00  0.00    -0.308 A  
HETATM    9  C   UNL     1     -11.088  10.823  69.361  1.00  0.00    -0.324 A  
HETATM   10  C   UNL     1     -10.155  10.077  70.119  1.00  0.00    -0.266 A  
HETATM   11  C   UNL     1     -11.938  11.710  70.241  1.00  0.00    -0.445 C  
HETATM   12  C   UNL     1      -9.211   9.246  69.525  1.00  0.00    -0.168 A  
HETATM   13  C   UNL     1      -9.152   9.174  68.142  1.00  0.00    -0.134 A  
HETATM   14  C   UNL     1     -10.048   9.907  67.344  1.00  0.00    -0.254 A  
HETATM   15  C   UNL     1      -9.893   9.806  65.841  1.00  0.00    -0.352 C  
ENDBRANCH   7   8
ENDBRANCH   6   7
ENDBRANCH   2   6
TORSDOF 3
ENDMDL
MODEL       59
REMARK 921   NORMALIZED FREE ENERGY PREDICTED BY IDOCK:   -4.08 KCAL/MOL
REMARK 922        TOTAL FREE ENERGY PREDICTED BY IDOCK:   -4.98 KCAL/MOL
REMARK 923 INTER-LIGAND FREE ENERGY PREDICTED BY IDOCK:   -4.73 KCAL/MOL
REMARK 924 INTRA-LIGAND FREE ENERGY PREDICTED BY IDOCK:   -0.25 KCAL/MOL
REMARK 927      BINDING AFFINITY PREDICTED BY RF-SCORE:    0.00 PKD
ROOT
HETATM    1  C   UNL     1     -12.299  11.923  63.778  1.00  0.00    -0.541 C  
HETATM    2  C   UNL     1     -11.994  13.331  64.270  1.00  0.00    -0.421 C  
HETATM    3  N   UNL     1     -12.404  14.338  63.287  1.00  0.00    -1.092 NA 
HETATM    4  H2  UNL     1     -13.387  14.234  63.033  1.00  0.00     0.000 HD 
HETATM    5  H1  UNL     1     -12.200  15.281  63.616  1.00  0.00     0.000 HD 
ENDROOT
BRANCH   2   6
HETATM    6  C   UNL     1     -12.587  13.606  65.663  1.00  0.00    -0.484 C  
BRANCH   6   7
HETATM    7  O   UNL     1     -11.916  12.989  66.755  1.00  0.00    -0.391 OA 
BRANCH   7   8
HETATM    8  C   UNL     1     -10.612  13.388  66.994  1.00  0.00    -0.264 A  
HETATM    9  C   UNL     1     -10.127  14.684  67.313  1.00  0.00    -0.236 A  
HETATM   10  C   UNL     1      -8.739  14.858  67.526  1.00  0.00    -0.197 A  
HETATM   11  C   UNL     1     -10.868  16.001  67.363  1.00  0.00    -0.277 C  
HETATM   12  C   UNL     1      -7.839  13.801  67.451  1.00  0.00    -0.167 A  
HETATM   13  C   UNL     1      -8.306  12.540  67.118  1.00  0.00    -0.179 A  
HETATM   14  C   UNL     1      -9.675  12.319  66.883  1.00  0.00    -0.217 A  
HETATM   15  C   UNL     1     -10.101  10.921  66.484  1.00  0.00    -0.269 C  
ENDBRANCH   7   8
ENDBRANCH   6   7
ENDBRANCH   2   6
TORSDOF 3
ENDMDL
MODEL       60
REMARK 921   NORMALIZED FREE ENERGY PREDICTED BY IDOCK:   -4.07 KCAL/MOL
REMARK 922        TOTAL FREE ENERGY PREDICTED BY IDOCK:   -4.97 KCAL/MOL
REMARK 923 INTER-LIGAND FREE ENERGY PREDICTED BY IDOCK:   -4.86 KCAL/MOL
REMARK 924 INTRA-LIGAND FREE ENERGY PREDICTED BY IDOCK:   -0.11 KCAL/MOL
REMARK 927      BINDING AFFINITY PREDICTED BY RF-SCORE:    0.00 PKD
ROOT
HETATM    1  C   UNL     1      -8.730  10.875  62.345  1.00  0.00    -0.355 C  
HETATM    2  C   UNL     1      -9.823  10.654  63.381  1.00  0.00    -0.321 C  
HETATM    3  N   UNL     1      -9.436   9.627  64.351  1.00  0.00    -0.426 NA 
HETATM    4  H2  UNL     1      -8.542   9.844  64.791  1.00  0.00     0.000 HD 
HETATM    5  H1  UNL     1     -10.169   9.479  65.045  1.00  0.00     0.000 HD 
ENDROOT
BRANCH   2   6
HETATM    6  C   UNL     1     -10.254  11.964  64.065  1.00  0.00    -0.361 C  
BRANCH   6   7
HETATM    7  O   UNL     1     -11.512  11.932  64.728  1.00  0.00    -0.313 OA 
BRANCH   7   8
HETATM    8  C   UNL     1     -11.560  12.466  66.005  1.00  0.00    -0.401 A  
HETATM    9  C   UNL     1     -11.292  11.824  67.243  1.00  0.00    -0.379 A  
HETATM   10  C   UNL     1     -11.397  12.578  68.436  1.00  0.00    -0.333 A  
HETATM   11  C   UNL     1     -11.001  10.369  67.526  1.00  0.00    -0.358 C  
HETATM   12  C   UNL     1     -11.735  13.926  68.435  1.00  0.00    -0.391 A  
HETATM   13  C   UNL     1     -12.019  14.549  67.230  1.00  0.00    -0.375 A  
HETATM   14  C   UNL     1     -11.943  13.840  66.018  1.00  0.00    -0.443 A  
HETATM   15  C   UNL     1     -12.307  14.581  64.748  1.00  0.00    -0.403 C  
ENDBRANCH   7   8
ENDBRANCH   6   7
ENDBRANCH   2   6
TORSDOF 3
ENDMDL
MODEL       61
REMARK 921   NORMALIZED FREE ENERGY PREDICTED BY IDOCK:   -4.07 KCAL/MOL
REMARK 922        TOTAL FREE ENERGY PREDICTED BY IDOCK:   -4.96 KCAL/MOL
REMARK 923 INTER-LIGAND FREE ENERGY PREDICTED BY IDOCK:   -4.73 KCAL/MOL
REMARK 924 INTRA-LIGAND FREE ENERGY PREDICTED BY IDOCK:   -0.23 KCAL/MOL
REMARK 927      BINDING AFFINITY PREDICTED BY RF-SCORE:    0.00 PKD
ROOT
HETATM    1  C   UNL     1     -13.557   8.923  71.857  1.00  0.00    -0.474 C  
HETATM    2  C   UNL     1     -12.389   9.882  71.678  1.00  0.00    -0.406 C  
HETATM    3  N   UNL     1     -11.178   9.173  71.256  1.00  0.00    -0.306 NA 
HETATM    4  H2  UNL     1     -11.342   8.621  70.414  1.00  0.00     0.000 HD 
HETATM    5  H1  UNL     1     -10.395   9.815  71.137  1.00  0.00     0.000 HD 
ENDROOT
BRANCH   2   6
HETATM    6  C   UNL     1     -12.731  11.053  70.740  1.00  0.00    -0.323 C  
BRANCH   6   7
HETATM    7  O   UNL     1     -11.622  11.782  70.228  1.00  0.00    -0.260 OA 
BRANCH   7   8
HETATM    8  C   UNL     1     -11.637  12.077  68.875  1.00  0.00    -0.321 A  
HETATM    9  C   UNL     1     -11.381  11.213  67.778  1.00  0.00    -0.364 A  
HETATM   10  C   UNL     1     -11.462  11.737  66.466  1.00  0.00    -0.325 A  
HETATM   11  C   UNL     1     -10.907   9.778  67.777  1.00  0.00    -0.306 C  
HETATM   12  C   UNL     1     -11.802  13.062  66.216  1.00  0.00    -0.466 A  
HETATM   13  C   UNL     1     -12.030  13.912  67.286  1.00  0.00    -0.446 A  
HETATM   14  C   UNL     1     -11.948  13.443  68.609  1.00  0.00    -0.362 A  
HETATM   15  C   UNL     1     -12.171  14.445  69.724  1.00  0.00    -0.370 C  
ENDBRANCH   7   8
ENDBRANCH   6   7
ENDBRANCH   2   6
TORSDOF 3
ENDMDL
MODEL       62
REMARK 921   NORMALIZED FREE ENERGY PREDICTED BY IDOCK:   -4.05 KCAL/MOL
REMARK 922        TOTAL FREE ENERGY PREDICTED BY IDOCK:   -4.94 KCAL/MOL
REMARK 923 INTER-LIGAND FREE ENERGY PREDICTED BY IDOCK:   -4.73 KCAL/MOL
REMARK 924 INTRA-LIGAND FREE ENERGY PREDICTED BY IDOCK:   -0.20 KCAL/MOL
REMARK 927      BINDING AFFINITY PREDICTED BY RF-SCORE:    0.00 PKD
ROOT
HETATM    1  C   UNL     1      -9.254   7.828  66.739  1.00  0.00    -0.202 C  
HETATM    2  C   UNL     1     -10.590   7.459  67.365  1.00  0.00    -0.301 C  
HETATM    3  N   UNL     1     -11.192   6.305  66.692  1.00  0.00    -0.753 NA 
HETATM    4  H2  UNL     1     -10.555   5.509  66.673  1.00  0.00     0.000 HD 
HETATM    5  H1  UNL     1     -12.088   6.058  67.112  1.00  0.00     0.000 HD 
ENDROOT
BRANCH   2   6
HETATM    6  C   UNL     1     -10.488   7.254  68.887  1.00  0.00    -0.206 C  
BRANCH   6   7
HETATM    7  O   UNL     1     -10.089   8.393  69.641  1.00  0.00    -0.190 OA 
BRANCH   7   8
HETATM    8  C   UNL     1     -11.064   9.009  70.407  1.00  0.00    -0.244 A  
HETATM    9  C   UNL     1     -11.803   8.475  71.495  1.00  0.00    -0.353 A  
HETATM   10  C   UNL     1     -12.753   9.300  72.142  1.00  0.00    -0.465 A  
HETATM   11  C   UNL     1     -11.824   7.066  72.041  1.00  0.00    -0.336 C  
HETATM   12  C   UNL     1     -12.973  10.618  71.760  1.00  0.00    -0.577 A  
HETATM   13  C   UNL     1     -12.269  11.135  70.685  1.00  0.00    -0.492 A  
HETATM   14  C   UNL     1     -11.324  10.351  70.000  1.00  0.00    -0.384 A  
HETATM   15  C   UNL     1     -10.625  10.975  68.809  1.00  0.00    -0.232 C  
ENDBRANCH   7   8
ENDBRANCH   6   7
ENDBRANCH   2   6
TORSDOF 3
ENDMDL
MODEL       63
REMARK 921   NORMALIZED FREE ENERGY PREDICTED BY IDOCK:   -4.04 KCAL/MOL
REMARK 922        TOTAL FREE ENERGY PREDICTED BY IDOCK:   -4.93 KCAL/MOL
REMARK 923 INTER-LIGAND FREE ENERGY PREDICTED BY IDOCK:   -4.68 KCAL/MOL
REMARK 924 INTRA-LIGAND FREE ENERGY PREDICTED BY IDOCK:   -0.25 KCAL/MOL
REMARK 927      BINDING AFFINITY PREDICTED BY RF-SCORE:    0.00 PKD
ROOT
HETATM    1  C   UNL     1     -14.326  15.050  71.711  1.00  0.00    -0.674 C  
HETATM    2  C   UNL     1     -13.124  15.695  72.386  1.00  0.00    -0.460 C  
HETATM    3  N   UNL     1     -12.672  14.906  73.534  1.00  0.00    -0.525 NA 
HETATM    4  H2  UNL     1     -12.479  13.939  73.272  1.00  0.00     0.000 HD 
HETATM    5  H1  UNL     1     -11.867  15.339  73.987  1.00  0.00     0.000 HD 
ENDROOT
BRANCH   2   6
HETATM    6  C   UNL     1     -11.982  15.985  71.396  1.00  0.00    -0.449 C  
BRANCH   6   7
HETATM    7  O   UNL     1     -12.255  15.690  70.031  1.00  0.00    -0.367 OA 
BRANCH   7   8
HETATM    8  C   UNL     1     -11.167  15.407  69.222  1.00  0.00    -0.296 A  
HETATM    9  C   UNL     1     -10.279  16.313  68.585  1.00  0.00    -0.254 A  
HETATM   10  C   UNL     1      -9.220  15.791  67.804  1.00  0.00    -0.197 A  
HETATM   11  C   UNL     1     -10.337  17.821  68.509  1.00  0.00    -0.366 C  
HETATM   12  C   UNL     1      -9.011  14.425  67.655  1.00  0.00    -0.192 A  
HETATM   13  C   UNL     1      -9.890  13.539  68.258  1.00  0.00    -0.233 A  
HETATM   14  C   UNL     1     -10.966  14.008  69.033  1.00  0.00    -0.287 A  
HETATM   15  C   UNL     1     -11.905  12.977  69.624  1.00  0.00    -0.385 C  
ENDBRANCH   7   8
ENDBRANCH   6   7
ENDBRANCH   2   6
TORSDOF 3
ENDMDL
MODEL       64
REMARK 921   NORMALIZED FREE ENERGY PREDICTED BY IDOCK:   -4.03 KCAL/MOL
REMARK 922        TOTAL FREE ENERGY PREDICTED BY IDOCK:   -4.92 KCAL/MOL
REMARK 923 INTER-LIGAND FREE ENERGY PREDICTED BY IDOCK:   -4.73 KCAL/MOL
REMARK 924 INTRA-LIGAND FREE ENERGY PREDICTED BY IDOCK:   -0.20 KCAL/MOL
REMARK 927      BINDING AFFINITY PREDICTED BY RF-SCORE:    0.00 PKD
ROOT
HETATM    1  C   UNL     1     -13.191  11.621  71.680  1.00  0.00    -0.376 C  
HETATM    2  C   UNL     1     -12.199  10.872  70.803  1.00  0.00    -0.383 C  
HETATM    3  N   UNL     1     -12.687   9.529  70.476  1.00  0.00    -0.497 NA 
HETATM    4  H2  UNL     1     -13.614   9.560  70.052  1.00  0.00     0.000 HD 
HETATM    5  H1  UNL     1     -12.022   9.027  69.889  1.00  0.00     0.000 HD 
ENDROOT
BRANCH   2   6
HETATM    6  C   UNL     1     -11.812  11.669  69.544  1.00  0.00    -0.348 C  
BRANCH   6   7
HETATM    7  O   UNL     1     -12.197  11.093  68.302  1.00  0.00    -0.613 OA 
BRANCH   7   8
HETATM    8  C   UNL     1     -11.383  11.354  67.212  1.00  0.00    -0.275 A  
HETATM    9  C   UNL     1     -11.317  12.530  66.419  1.00  0.00    -0.379 A  
HETATM   10  C   UNL     1     -10.394  12.576  65.348  1.00  0.00    -0.305 A  
HETATM   11  C   UNL     1     -12.185  13.766  66.461  1.00  0.00    -0.475 C  
HETATM   12  C   UNL     1      -9.539  11.519  65.058  1.00  0.00    -0.222 A  
HETATM   13  C   UNL     1      -9.618  10.362  65.816  1.00  0.00    -0.269 A  
HETATM   14  C   UNL     1     -10.529  10.260  66.883  1.00  0.00    -0.291 A  
HETATM   15  C   UNL     1     -10.582   8.948  67.637  1.00  0.00    -0.292 C  
ENDBRANCH   7   8
ENDBRANCH   6   7
ENDBRANCH   2   6
TORSDOF 3
ENDMDL
MODEL       65
REMARK 921   NORMALIZED FREE ENERGY PREDICTED BY IDOCK:   -4.02 KCAL/MOL
REMARK 922        TOTAL FREE ENERGY PREDICTED BY IDOCK:   -4.91 KCAL/MOL
REMARK 923 INTER-LIGAND FREE ENERGY PREDICTED BY IDOCK:   -4.57 KCAL/MOL
REMARK 924 INTRA-LIGAND FREE ENERGY PREDICTED BY IDOCK:   -0.34 KCAL/MOL
REMARK 927      BINDING AFFINITY PREDICTED BY RF-SCORE:    0.00 PKD
ROOT
HETATM    1  C   UNL     1      -8.323  14.747  67.006  1.00  0.00    -0.228 C  
HETATM    2  C   UNL     1      -8.405  13.593  67.995  1.00  0.00    -0.170 C  
HETATM    3  N   UNL     1      -9.233  13.942  69.152  1.00  0.00    -0.363 NA 
HETATM    4  H2  UNL     1     -10.160  14.257  68.868  1.00  0.00     0.000 HD 
HETATM    5  H1  UNL     1      -9.287  13.169  69.815  1.00  0.00     0.000 HD 
ENDROOT
BRANCH   2   6
HETATM    6  C   UNL     1      -8.862  12.283  67.329  1.00  0.00    -0.190 C  
BRANCH   6   7
HETATM    7  O   UNL     1     -10.268  12.095  67.232  1.00  0.00    -0.201 OA 
BRANCH   7   8
HETATM    8  C   UNL     1     -10.824  12.174  65.966  1.00  0.00    -0.282 A  
HETATM    9  C   UNL     1     -10.573  11.351  64.836  1.00  0.00    -0.368 A  
HETATM   10  C   UNL     1     -11.271  11.615  63.634  1.00  0.00    -0.497 A  
HETATM   11  C   UNL     1      -9.556  10.247  64.659  1.00  0.00    -0.374 C  
HETATM   12  C   UNL     1     -12.205  12.640  63.527  1.00  0.00    -0.638 A  
HETATM   13  C   UNL     1     -12.434  13.459  64.621  1.00  0.00    -0.385 A  
HETATM   14  C   UNL     1     -11.756  13.246  65.835  1.00  0.00    -0.403 A  
HETATM   15  C   UNL     1     -12.032  14.209  66.971  1.00  0.00    -0.471 C  
ENDBRANCH   7   8
ENDBRANCH   6   7
ENDBRANCH   2   6
TORSDOF 3
ENDMDL
MODEL       66
REMARK 921   NORMALIZED FREE ENERGY PREDICTED BY IDOCK:   -4.02 KCAL/MOL
REMARK 922        TOTAL FREE ENERGY PREDICTED BY IDOCK:   -4.91 KCAL/MOL
REMARK 923 INTER-LIGAND FREE ENERGY PREDICTED BY IDOCK:   -4.77 KCAL/MOL
REMARK 924 INTRA-LIGAND FREE ENERGY PREDICTED BY IDOCK:   -0.14 KCAL/MOL
REMARK 927      BINDING AFFINITY PREDICTED BY RF-SCORE:    0.00 PKD
ROOT
HETATM    1  C   UNL     1     -12.130  15.421  69.724  1.00  0.00    -0.373 C  
HETATM    2  C   UNL     1     -11.164  14.283  69.430  1.00  0.00    -0.273 C  
HETATM    3  N   UNL     1     -11.597  13.038  70.071  1.00  0.00    -0.525 NA 
HETATM    4  H2  UNL     1     -12.552  12.795  69.808  1.00  0.00     0.000 HD 
HETATM    5  H1  UNL     1     -10.949  12.276  69.874  1.00  0.00     0.000 HD 
ENDROOT
BRANCH   2   6
HETATM    6  C   UNL     1     -10.912  14.102  67.922  1.00  0.00    -0.251 C  
BRANCH   6   7
HETATM    7  O   UNL     1     -11.904  13.370  67.212  1.00  0.00    -0.352 OA 
BRANCH   7   8
HETATM    8  C   UNL     1     -11.491  12.697  66.075  1.00  0.00    -0.368 A  
HETATM    9  C   UNL     1     -10.732  11.501  65.981  1.00  0.00    -0.332 A  
HETATM   10  C   UNL     1     -10.431  10.985  64.698  1.00  0.00    -0.398 A  
HETATM   11  C   UNL     1     -10.066  10.698  67.075  1.00  0.00    -0.255 C  
HETATM   12  C   UNL     1     -10.868  11.599  63.530  1.00  0.00    -0.497 A  
HETATM   13  C   UNL     1     -11.589  12.779  63.618  1.00  0.00    -0.572 A  
HETATM   14  C   UNL     1     -11.902  13.339  64.869  1.00  0.00    -0.398 A  
HETATM   15  C   UNL     1     -12.659  14.652  64.881  1.00  0.00    -0.175 C  
ENDBRANCH   7   8
ENDBRANCH   6   7
ENDBRANCH   2   6
TORSDOF 3
ENDMDL
MODEL       67
REMARK 921   NORMALIZED FREE ENERGY PREDICTED BY IDOCK:   -4.02 KCAL/MOL
REMARK 922        TOTAL FREE ENERGY PREDICTED BY IDOCK:   -4.91 KCAL/MOL
REMARK 923 INTER-LIGAND FREE ENERGY PREDICTED BY IDOCK:   -4.55 KCAL/MOL
REMARK 924 INTRA-LIGAND FREE ENERGY PREDICTED BY IDOCK:   -0.36 KCAL/MOL
REMARK 927      BINDING AFFINITY PREDICTED BY RF-SCORE:    0.00 PKD
ROOT
HETATM    1  C   UNL     1      -9.725  11.471  67.309  1.00  0.00    -0.197 C  
HETATM    2  C   UNL     1     -11.226  11.364  67.534  1.00  0.00    -0.292 C  
HETATM    3  N   UNL     1     -11.576  10.101  68.189  1.00  0.00    -0.672 NA 
HETATM    4  H2  UNL     1     -11.057   9.972  69.058  1.00  0.00     0.000 HD 
HETATM    5  H1  UNL     1     -12.582  10.028  68.339  1.00  0.00     0.000 HD 
ENDROOT
BRANCH   2   6
HETATM    6  C   UNL     1     -11.794  12.582  68.284  1.00  0.00    -0.309 C  
BRANCH   6   7
HETATM    7  O   UNL     1     -12.404  13.579  67.474  1.00  0.00    -0.259 OA 
BRANCH   7   8
HETATM    8  C   UNL     1     -11.612  14.652  67.099  1.00  0.00    -0.378 A  
HETATM    9  C   UNL     1     -10.986  15.621  67.928  1.00  0.00    -0.319 A  
HETATM   10  C   UNL     1     -10.208  16.634  67.319  1.00  0.00    -0.290 A  
HETATM   11  C   UNL     1     -11.103  15.828  69.420  1.00  0.00    -0.314 C  
HETATM   12  C   UNL     1     -10.021  16.702  65.943  1.00  0.00    -0.320 A  
HETATM   13  C   UNL     1     -10.648  15.771  65.132  1.00  0.00    -0.436 A  
HETATM   14  C   UNL     1     -11.444  14.752  65.687  1.00  0.00    -0.327 A  
HETATM   15  C   UNL     1     -12.129  13.798  64.731  1.00  0.00    -0.438 C  
ENDBRANCH   7   8
ENDBRANCH   6   7
ENDBRANCH   2   6
TORSDOF 3
ENDMDL
MODEL       68
REMARK 921   NORMALIZED FREE ENERGY PREDICTED BY IDOCK:   -3.98 KCAL/MOL
REMARK 922        TOTAL FREE ENERGY PREDICTED BY IDOCK:   -4.86 KCAL/MOL
REMARK 923 INTER-LIGAND FREE ENERGY PREDICTED BY IDOCK:   -4.66 KCAL/MOL
REMARK 924 INTRA-LIGAND FREE ENERGY PREDICTED BY IDOCK:   -0.20 KCAL/MOL
REMARK 927      BINDING AFFINITY PREDICTED BY RF-SCORE:    0.00 PKD
ROOT
HETATM    1  C   UNL     1     -11.283  11.507  67.819  1.00  0.00    -0.343 C  
HETATM    2  C   UNL     1     -11.235  10.139  68.484  1.00  0.00    -0.168 C  
HETATM    3  N   UNL     1     -11.017   9.076  67.499  1.00  0.00    -0.447 NA 
HETATM    4  H2  UNL     1     -10.182   9.250  66.940  1.00  0.00     0.000 HD 
HETATM    5  H1  UNL     1     -10.986   8.160  67.945  1.00  0.00     0.000 HD 
ENDROOT
BRANCH   2   6
HETATM    6  C   UNL     1     -10.213  10.082  69.634  1.00  0.00    -0.239 C  
BRANCH   6   7
HETATM    7  O   UNL     1     -10.760  10.037  70.946  1.00  0.00    -0.300 OA 
BRANCH   7   8
HETATM    8  C   UNL     1     -11.840   9.194  71.146  1.00  0.00    -0.307 A  
HETATM    9  C   UNL     1     -11.913   7.789  70.956  1.00  0.00    -0.281 A  
HETATM   10  C   UNL     1     -13.132   7.127  71.235  1.00  0.00    -0.361 A  
HETATM   11  C   UNL     1     -10.886   6.844  70.376  1.00  0.00    -0.297 C  
HETATM   12  C   UNL     1     -14.253   7.803  71.703  1.00  0.00    -0.572 A  
HETATM   13  C   UNL     1     -14.191   9.177  71.868  1.00  0.00    -0.288 A  
HETATM   14  C   UNL     1     -13.007   9.883  71.592  1.00  0.00    -0.536 A  
HETATM   15  C   UNL     1     -13.032  11.389  71.757  1.00  0.00    -0.519 C  
ENDBRANCH   7   8
ENDBRANCH   6   7
ENDBRANCH   2   6
TORSDOF 3
ENDMDL
MODEL       69
REMARK 921   NORMALIZED FREE ENERGY PREDICTED BY IDOCK:   -3.96 KCAL/MOL
REMARK 922        TOTAL FREE ENERGY PREDICTED BY IDOCK:   -4.84 KCAL/MOL
REMARK 923 INTER-LIGAND FREE ENERGY PREDICTED BY IDOCK:   -4.63 KCAL/MOL
REMARK 924 INTRA-LIGAND FREE ENERGY PREDICTED BY IDOCK:   -0.21 KCAL/MOL
REMARK 927      BINDING AFFINITY PREDICTED BY RF-SCORE:    0.00 PKD
ROOT
HETATM    1  C   UNL     1      -8.456  14.830  67.141  1.00  0.00    -0.247 C  
HETATM    2  C   UNL     1      -8.477  13.512  67.901  1.00  0.00    -0.179 C  
HETATM    3  N   UNL     1      -9.507  13.515  68.943  1.00  0.00    -0.402 NA 
HETATM    4  H2  UNL     1     -10.425  13.741  68.560  1.00  0.00     0.000 HD 
HETATM    5  H1  UNL     1      -9.521  12.632  69.452  1.00  0.00     0.000 HD 
ENDROOT
BRANCH   2   6
HETATM    6  C   UNL     1      -8.603  12.297  66.964  1.00  0.00    -0.191 C  
BRANCH   6   7
HETATM    7  O   UNL     1      -9.888  11.691  66.906  1.00  0.00    -0.194 OA 
BRANCH   7   8
HETATM    8  C   UNL     1     -10.709  12.063  65.854  1.00  0.00    -0.275 A  
HETATM    9  C   UNL     1     -11.667  13.109  65.807  1.00  0.00    -0.415 A  
HETATM   10  C   UNL     1     -12.393  13.313  64.609  1.00  0.00    -0.447 A  
HETATM   11  C   UNL     1     -12.145  14.024  66.911  1.00  0.00    -0.465 C  
HETATM   12  C   UNL     1     -12.186  12.537  63.475  1.00  0.00    -0.652 A  
HETATM   13  C   UNL     1     -11.268  11.501  63.525  1.00  0.00    -0.412 A  
HETATM   14  C   UNL     1     -10.531  11.248  64.697  1.00  0.00    -0.387 A  
HETATM   15  C   UNL     1      -9.577  10.072  64.685  1.00  0.00    -0.363 C  
ENDBRANCH   7   8
ENDBRANCH   6   7
ENDBRANCH   2   6
TORSDOF 3
ENDMDL
MODEL       70
REMARK 921   NORMALIZED FREE ENERGY PREDICTED BY IDOCK:   -3.95 KCAL/MOL
REMARK 922        TOTAL FREE ENERGY PREDICTED BY IDOCK:   -4.83 KCAL/MOL
REMARK 923 INTER-LIGAND FREE ENERGY PREDICTED BY IDOCK:   -4.76 KCAL/MOL
REMARK 924 INTRA-LIGAND FREE ENERGY PREDICTED BY IDOCK:   -0.07 KCAL/MOL
REMARK 927      BINDING AFFINITY PREDICTED BY RF-SCORE:    0.00 PKD
ROOT
HETATM    1  C   UNL     1     -12.084  12.584  70.329  1.00  0.00    -0.373 C  
HETATM    2  C   UNL     1     -11.539  11.900  69.084  1.00  0.00    -0.312 C  
HETATM    3  N   UNL     1     -12.266  10.661  68.795  1.00  0.00    -0.808 NA 
HETATM    4  H2  UNL     1     -13.271  10.825  68.723  1.00  0.00     0.000 HD 
HETATM    5  H1  UNL     1     -11.901  10.203  67.961  1.00  0.00     0.000 HD 
ENDROOT
BRANCH   2   6
HETATM    6  C   UNL     1     -11.497  12.844  67.868  1.00  0.00    -0.318 C  
BRANCH   6   7
HETATM    7  O   UNL     1     -11.860  14.196  68.121  1.00  0.00    -0.331 OA 
BRANCH   7   8
HETATM    8  C   UNL     1     -11.027  15.174  67.604  1.00  0.00    -0.308 A  
HETATM    9  C   UNL     1     -10.575  15.336  66.268  1.00  0.00    -0.312 A  
HETATM   10  C   UNL     1      -9.726  16.427  65.965  1.00  0.00    -0.356 A  
HETATM   11  C   UNL     1     -10.770  14.432  65.072  1.00  0.00    -0.440 C  
HETATM   12  C   UNL     1      -9.337  17.354  66.925  1.00  0.00    -0.271 A  
HETATM   13  C   UNL     1      -9.759  17.185  68.234  1.00  0.00    -0.280 A  
HETATM   14  C   UNL     1     -10.591  16.109  68.589  1.00  0.00    -0.283 A  
HETATM   15  C   UNL     1     -10.976  15.972  70.048  1.00  0.00    -0.365 C  
ENDBRANCH   7   8
ENDBRANCH   6   7
ENDBRANCH   2   6
TORSDOF 3
ENDMDL
MODEL       71
REMARK 921   NORMALIZED FREE ENERGY PREDICTED BY IDOCK:   -3.94 KCAL/MOL
REMARK 922        TOTAL FREE ENERGY PREDICTED BY IDOCK:   -4.82 KCAL/MOL
REMARK 923 INTER-LIGAND FREE ENERGY PREDICTED BY IDOCK:   -4.57 KCAL/MOL
REMARK 924 INTRA-LIGAND FREE ENERGY PREDICTED BY IDOCK:   -0.25 KCAL/MOL
REMARK 927      BINDING AFFINITY PREDICTED BY RF-SCORE:    0.00 PKD
ROOT
HETATM    1  C   UNL     1     -11.389  12.765  67.816  1.00  0.00    -0.342 C  
HETATM    2  C   UNL     1     -11.637  13.282  69.226  1.00  0.00    -0.314 C  
HETATM    3  N   UNL     1     -12.534  14.441  69.217  1.00  0.00    -0.549 NA 
HETATM    4  H2  UNL     1     -13.409  14.234  68.736  1.00  0.00     0.000 HD 
HETATM    5  H1  UNL     1     -12.699  14.788  70.162  1.00  0.00     0.000 HD 
ENDROOT
BRANCH   2   6
HETATM    6  C   UNL     1     -12.128  12.176  70.177  1.00  0.00    -0.290 C  
BRANCH   6   7
HETATM    7  O   UNL     1     -11.914  10.841  69.738  1.00  0.00    -0.294 OA 
BRANCH   7   8
HETATM    8  C   UNL     1     -11.513   9.923  70.695  1.00  0.00    -0.334 A  
HETATM    9  C   UNL     1     -12.261   9.392  71.779  1.00  0.00    -0.465 A  
HETATM   10  C   UNL     1     -11.641   8.450  72.634  1.00  0.00    -0.367 A  
HETATM   11  C   UNL     1     -13.644   9.759  72.263  1.00  0.00    -0.397 C  
HETATM   12  C   UNL     1     -10.335   8.016  72.439  1.00  0.00    -0.355 A  
HETATM   13  C   UNL     1      -9.597   8.550  71.395  1.00  0.00    -0.282 A  
HETATM   14  C   UNL     1     -10.162   9.499  70.526  1.00  0.00    -0.349 A  
HETATM   15  C   UNL     1      -9.277  10.066  69.434  1.00  0.00    -0.229 C  
ENDBRANCH   7   8
ENDBRANCH   6   7
ENDBRANCH   2   6
TORSDOF 3
ENDMDL
MODEL       72
REMARK 921   NORMALIZED FREE ENERGY PREDICTED BY IDOCK:   -3.94 KCAL/MOL
REMARK 922        TOTAL FREE ENERGY PREDICTED BY IDOCK:   -4.82 KCAL/MOL
REMARK 923 INTER-LIGAND FREE ENERGY PREDICTED BY IDOCK:   -4.72 KCAL/MOL
REMARK 924 INTRA-LIGAND FREE ENERGY PREDICTED BY IDOCK:   -0.10 KCAL/MOL
REMARK 927      BINDING AFFINITY PREDICTED BY RF-SCORE:    0.00 PKD
ROOT
HETATM    1  C   UNL     1     -13.700  15.013  71.728  1.00  0.00    -0.551 C  
HETATM    2  C   UNL     1     -12.364  14.864  71.015  1.00  0.00    -0.324 C  
HETATM    3  N   UNL     1     -11.245  15.164  71.912  1.00  0.00    -0.548 NA 
HETATM    4  H2  UNL     1     -11.283  14.597  72.759  1.00  0.00     0.000 HD 
HETATM    5  H1  UNL     1     -10.350  15.064  71.434  1.00  0.00     0.000 HD 
ENDROOT
BRANCH   2   6
HETATM    6  C   UNL     1     -12.212  13.490  70.338  1.00  0.00    -0.356 C  
BRANCH   6   7
HETATM    7  O   UNL     1     -11.041  13.313  69.550  1.00  0.00    -0.157 OA 
BRANCH   7   8
HETATM    8  C   UNL     1     -11.175  13.481  68.182  1.00  0.00    -0.272 A  
HETATM    9  C   UNL     1     -11.114  14.683  67.429  1.00  0.00    -0.331 A  
HETATM   10  C   UNL     1     -11.272  14.613  66.024  1.00  0.00    -0.342 A  
HETATM   11  C   UNL     1     -11.008  16.112  67.908  1.00  0.00    -0.318 C  
HETATM   12  C   UNL     1     -11.468  13.409  65.358  1.00  0.00    -0.322 A  
HETATM   13  C   UNL     1     -11.550  12.238  66.093  1.00  0.00    -0.450 A  
HETATM   14  C   UNL     1     -11.413  12.255  67.493  1.00  0.00    -0.414 A  
HETATM   15  C   UNL     1     -11.556  10.939  68.229  1.00  0.00    -0.335 C  
ENDBRANCH   7   8
ENDBRANCH   6   7
ENDBRANCH   2   6
TORSDOF 3
ENDMDL
MODEL       73
REMARK 921   NORMALIZED FREE ENERGY PREDICTED BY IDOCK:   -3.92 KCAL/MOL
REMARK 922        TOTAL FREE ENERGY PREDICTED BY IDOCK:   -4.79 KCAL/MOL
REMARK 923 INTER-LIGAND FREE ENERGY PREDICTED BY IDOCK:   -4.58 KCAL/MOL
REMARK 924 INTRA-LIGAND FREE ENERGY PREDICTED BY IDOCK:   -0.21 KCAL/MOL
REMARK 927      BINDING AFFINITY PREDICTED BY RF-SCORE:    0.00 PKD
ROOT
HETATM    1  C   UNL     1      -9.710  10.210  65.625  1.00  0.00    -0.322 C  
HETATM    2  C   UNL     1     -10.406  10.738  66.871  1.00  0.00    -0.241 C  
HETATM    3  N   UNL     1     -11.573  11.553  66.525  1.00  0.00    -0.426 NA 
HETATM    4  H2  UNL     1     -12.220  11.044  65.922  1.00  0.00     0.000 HD 
HETATM    5  H1  UNL     1     -12.038  11.907  67.360  1.00  0.00     0.000 HD 
ENDROOT
BRANCH   2   6
HETATM    6  C   UNL     1     -10.757   9.616  67.866  1.00  0.00    -0.247 C  
BRANCH   6   7
HETATM    7  O   UNL     1     -10.309   9.809  69.202  1.00  0.00    -0.191 OA 
BRANCH   7   8
HETATM    8  C   UNL     1     -11.284   9.973  70.172  1.00  0.00    -0.304 A  
HETATM    9  C   UNL     1     -12.077  11.118  70.445  1.00  0.00    -0.475 A  
HETATM   10  C   UNL     1     -13.027  11.054  71.491  1.00  0.00    -0.553 A  
HETATM   11  C   UNL     1     -12.001  12.504  69.845  1.00  0.00    -0.371 C  
HETATM   12  C   UNL     1     -13.222   9.903  72.247  1.00  0.00    -0.434 A  
HETATM   13  C   UNL     1     -12.434   8.791  71.997  1.00  0.00    -0.452 A  
HETATM   14  C   UNL     1     -11.466   8.810  70.977  1.00  0.00    -0.337 A  
HETATM   15  C   UNL     1     -10.616   7.569  70.793  1.00  0.00    -0.227 C  
ENDBRANCH   7   8
ENDBRANCH   6   7
ENDBRANCH   2   6
TORSDOF 3
ENDMDL
MODEL       74
REMARK 921   NORMALIZED FREE ENERGY PREDICTED BY IDOCK:   -3.91 KCAL/MOL
REMARK 922        TOTAL FREE ENERGY PREDICTED BY IDOCK:   -4.77 KCAL/MOL
REMARK 923 INTER-LIGAND FREE ENERGY PREDICTED BY IDOCK:   -4.55 KCAL/MOL
REMARK 924 INTRA-LIGAND FREE ENERGY PREDICTED BY IDOCK:   -0.23 KCAL/MOL
REMARK 927      BINDING AFFINITY PREDICTED BY RF-SCORE:    0.00 PKD
ROOT
HETATM    1  C   UNL     1     -10.281   9.781  66.855  1.00  0.00    -0.310 C  
HETATM    2  C   UNL     1      -9.563  10.626  67.897  1.00  0.00    -0.162 C  
HETATM    3  N   UNL     1      -9.120  11.904  67.334  1.00  0.00    -0.173 NA 
HETATM    4  H2  UNL     1      -9.894  12.413  66.907  1.00  0.00     0.000 HD 
HETATM    5  H1  UNL     1      -8.639  12.469  68.032  1.00  0.00     0.000 HD 
ENDROOT
BRANCH   2   6
HETATM    6  C   UNL     1     -10.400  10.815  69.175  1.00  0.00    -0.217 C  
BRANCH   6   7
HETATM    7  O   UNL     1     -11.713  11.328  68.985  1.00  0.00    -0.286 OA 
BRANCH   7   8
HETATM    8  C   UNL     1     -12.264  12.043  70.036  1.00  0.00    -0.206 A  
HETATM    9  C   UNL     1     -12.798  11.551  71.256  1.00  0.00    -0.463 A  
HETATM   10  C   UNL     1     -13.305  12.478  72.198  1.00  0.00    -0.540 A  
HETATM   11  C   UNL     1     -13.026  10.124  71.699  1.00  0.00    -0.561 C  
HETATM   12  C   UNL     1     -13.282  13.850  71.977  1.00  0.00    -0.503 A  
HETATM   13  C   UNL     1     -12.782  14.330  70.777  1.00  0.00    -0.419 A  
HETATM   14  C   UNL     1     -12.279  13.450  69.803  1.00  0.00    -0.307 A  
HETATM   15  C   UNL     1     -11.787  14.050  68.501  1.00  0.00    -0.399 C  
ENDBRANCH   7   8
ENDBRANCH   6   7
ENDBRANCH   2   6
TORSDOF 3
ENDMDL
MODEL       75
REMARK 921   NORMALIZED FREE ENERGY PREDICTED BY IDOCK:   -3.90 KCAL/MOL
REMARK 922        TOTAL FREE ENERGY PREDICTED BY IDOCK:   -4.76 KCAL/MOL
REMARK 923 INTER-LIGAND FREE ENERGY PREDICTED BY IDOCK:   -4.52 KCAL/MOL
REMARK 924 INTRA-LIGAND FREE ENERGY PREDICTED BY IDOCK:   -0.24 KCAL/MOL
REMARK 927      BINDING AFFINITY PREDICTED BY RF-SCORE:    0.00 PKD
ROOT
HETATM    1  C   UNL     1     -11.544  12.256  65.259  1.00  0.00    -0.405 C  
HETATM    2  C   UNL     1     -11.065  11.527  66.506  1.00  0.00    -0.282 C  
HETATM    3  N   UNL     1      -9.622  11.280  66.456  1.00  0.00    -0.187 NA 
HETATM    4  H2  UNL     1      -9.099  12.142  66.303  1.00  0.00     0.000 HD 
HETATM    5  H1  UNL     1      -9.301  10.791  67.292  1.00  0.00     0.000 HD 
ENDROOT
BRANCH   2   6
HETATM    6  C   UNL     1     -11.486  12.245  67.801  1.00  0.00    -0.329 C  
BRANCH   6   7
HETATM    7  O   UNL     1     -10.794  11.852  68.980  1.00  0.00    -0.222 OA 
BRANCH   7   8
HETATM    8  C   UNL     1     -11.560  11.337  70.013  1.00  0.00    -0.321 A  
HETATM    9  C   UNL     1     -12.470  12.017  70.864  1.00  0.00    -0.384 A  
HETATM   10  C   UNL     1     -13.156  11.278  71.856  1.00  0.00    -0.510 A  
HETATM   11  C   UNL     1     -12.769  13.495  70.964  1.00  0.00    -0.399 C  
HETATM   12  C   UNL     1     -12.981   9.907  72.014  1.00  0.00    -0.518 A  
HETATM   13  C   UNL     1     -12.077   9.245  71.200  1.00  0.00    -0.389 A  
HETATM   14  C   UNL     1     -11.360   9.938  70.208  1.00  0.00    -0.357 A  
HETATM   15  C   UNL     1     -10.360   9.151  69.386  1.00  0.00    -0.220 C  
ENDBRANCH   7   8
ENDBRANCH   6   7
ENDBRANCH   2   6
TORSDOF 3
ENDMDL
MODEL       76
REMARK 921   NORMALIZED FREE ENERGY PREDICTED BY IDOCK:   -3.89 KCAL/MOL
REMARK 922        TOTAL FREE ENERGY PREDICTED BY IDOCK:   -4.76 KCAL/MOL
REMARK 923 INTER-LIGAND FREE ENERGY PREDICTED BY IDOCK:   -4.51 KCAL/MOL
REMARK 924 INTRA-LIGAND FREE ENERGY PREDICTED BY IDOCK:   -0.25 KCAL/MOL
REMARK 927      BINDING AFFINITY PREDICTED BY RF-SCORE:    0.00 PKD
ROOT
HETATM    1  C   UNL     1      -9.559   9.130  65.855  1.00  0.00    -0.343 C  
HETATM    2  C   UNL     1     -10.773   9.014  66.765  1.00  0.00    -0.033 C  
HETATM    3  N   UNL     1     -10.902   7.661  67.311  1.00  0.00    -0.533 NA 
HETATM    4  H2  UNL     1     -10.049   7.366  67.786  1.00  0.00     0.000 HD 
HETATM    5  H1  UNL     1     -11.716   7.583  67.921  1.00  0.00     0.000 HD 
ENDROOT
BRANCH   2   6
HETATM    6  C   UNL     1     -10.783  10.088  67.869  1.00  0.00    -0.272 C  
BRANCH   6   7
HETATM    7  O   UNL     1     -11.956  10.888  67.945  1.00  0.00    -0.585 OA 
BRANCH   7   8
HETATM    8  C   UNL     1     -11.785  12.260  67.872  1.00  0.00    -0.347 A  
HETATM    9  C   UNL     1     -11.409  13.046  66.751  1.00  0.00    -0.365 A  
HETATM   10  C   UNL     1     -11.302  14.448  66.909  1.00  0.00    -0.357 A  
HETATM   11  C   UNL     1     -10.977  12.606  65.371  1.00  0.00    -0.320 C  
HETATM   12  C   UNL     1     -11.570  15.082  68.117  1.00  0.00    -0.360 A  
HETATM   13  C   UNL     1     -11.916  14.315  69.218  1.00  0.00    -0.375 A  
HETATM   14  C   UNL     1     -12.021  12.916  69.116  1.00  0.00    -0.308 A  
HETATM   15  C   UNL     1     -12.363  12.145  70.375  1.00  0.00    -0.315 C  
ENDBRANCH   7   8
ENDBRANCH   6   7
ENDBRANCH   2   6
TORSDOF 3
ENDMDL
MODEL       77
REMARK 921   NORMALIZED FREE ENERGY PREDICTED BY IDOCK:   -3.89 KCAL/MOL
REMARK 922        TOTAL FREE ENERGY PREDICTED BY IDOCK:   -4.76 KCAL/MOL
REMARK 923 INTER-LIGAND FREE ENERGY PREDICTED BY IDOCK:   -4.84 KCAL/MOL
REMARK 924 INTRA-LIGAND FREE ENERGY PREDICTED BY IDOCK:    0.09 KCAL/MOL
REMARK 927      BINDING AFFINITY PREDICTED BY RF-SCORE:    0.00 PKD
ROOT
HETATM    1  C   UNL     1     -10.438  17.485  65.902  1.00  0.00    -0.251 C  
HETATM    2  C   UNL     1     -11.103  16.273  65.266  1.00  0.00    -0.151 C  
HETATM    3  N   UNL     1     -11.486  16.544  63.878  1.00  0.00    -1.599 NA 
HETATM    4  H2  UNL     1     -10.692  16.867  63.326  1.00  0.00     0.000 HD 
HETATM    5  H1  UNL     1     -11.933  15.732  63.452  1.00  0.00     0.000 HD 
ENDROOT
BRANCH   2   6
HETATM    6  C   UNL     1     -10.246  15.000  65.393  1.00  0.00    -0.381 C  
BRANCH   6   7
HETATM    7  O   UNL     1     -10.747  14.002  66.274  1.00  0.00    -0.285 OA 
BRANCH   7   8
HETATM    8  C   UNL     1     -10.257  12.717  66.106  1.00  0.00    -0.258 A  
HETATM    9  C   UNL     1      -9.186  12.083  66.788  1.00  0.00    -0.201 A  
HETATM   10  C   UNL     1      -8.864  10.746  66.454  1.00  0.00    -0.174 A  
HETATM   11  C   UNL     1      -8.210  12.657  67.789  1.00  0.00    -0.171 C  
HETATM   12  C   UNL     1      -9.571  10.029  65.495  1.00  0.00    -0.328 A  
HETATM   13  C   UNL     1     -10.603  10.654  64.813  1.00  0.00    -0.184 A  
HETATM   14  C   UNL     1     -10.952  11.985  65.098  1.00  0.00    -0.359 A  
HETATM   15  C   UNL     1     -12.064  12.610  64.280  1.00  0.00    -0.502 C  
ENDBRANCH   7   8
ENDBRANCH   6   7
ENDBRANCH   2   6
TORSDOF 3
ENDMDL
MODEL       78
REMARK 921   NORMALIZED FREE ENERGY PREDICTED BY IDOCK:   -3.88 KCAL/MOL
REMARK 922        TOTAL FREE ENERGY PREDICTED BY IDOCK:   -4.74 KCAL/MOL
REMARK 923 INTER-LIGAND FREE ENERGY PREDICTED BY IDOCK:   -4.38 KCAL/MOL
REMARK 924 INTRA-LIGAND FREE ENERGY PREDICTED BY IDOCK:   -0.36 KCAL/MOL
REMARK 927      BINDING AFFINITY PREDICTED BY RF-SCORE:    0.00 PKD
ROOT
HETATM    1  C   UNL     1      -7.829   9.186  66.717  1.00  0.00    -0.101 C  
HETATM    2  C   UNL     1      -8.920   9.084  65.661  1.00  0.00    -0.202 C  
HETATM    3  N   UNL     1     -10.045   8.274  66.135  1.00  0.00    -0.445 NA 
HETATM    4  H2  UNL     1     -10.412   8.625  67.020  1.00  0.00     0.000 HD 
HETATM    5  H1  UNL     1     -10.776   8.206  65.427  1.00  0.00     0.000 HD 
ENDROOT
BRANCH   2   6
HETATM    6  C   UNL     1      -9.373  10.464  65.152  1.00  0.00    -0.222 C  
BRANCH   6   7
HETATM    7  O   UNL     1     -10.777  10.688  65.134  1.00  0.00    -0.186 OA 
BRANCH   7   8
HETATM    8  C   UNL     1     -11.247  11.776  65.850  1.00  0.00    -0.290 A  
HETATM    9  C   UNL     1     -11.290  11.956  67.258  1.00  0.00    -0.393 A  
HETATM   10  C   UNL     1     -11.811  13.167  67.772  1.00  0.00    -0.392 A  
HETATM   11  C   UNL     1     -10.954  10.980  68.362  1.00  0.00    -0.281 C  
HETATM   12  C   UNL     1     -12.264  14.191  66.947  1.00  0.00    -0.400 A  
HETATM   13  C   UNL     1     -12.243  14.008  65.574  1.00  0.00    -0.455 A  
HETATM   14  C   UNL     1     -11.749  12.817  65.013  1.00  0.00    -0.391 A  
HETATM   15  C   UNL     1     -11.798  12.677  63.506  1.00  0.00    -0.619 C  
ENDBRANCH   7   8
ENDBRANCH   6   7
ENDBRANCH   2   6
TORSDOF 3
ENDMDL
MODEL       79
REMARK 921   NORMALIZED FREE ENERGY PREDICTED BY IDOCK:   -3.88 KCAL/MOL
REMARK 922        TOTAL FREE ENERGY PREDICTED BY IDOCK:   -4.74 KCAL/MOL
REMARK 923 INTER-LIGAND FREE ENERGY PREDICTED BY IDOCK:   -4.56 KCAL/MOL
REMARK 924 INTRA-LIGAND FREE ENERGY PREDICTED BY IDOCK:   -0.18 KCAL/MOL
REMARK 927      BINDING AFFINITY PREDICTED BY RF-SCORE:    0.00 PKD
ROOT
HETATM    1  C   UNL     1     -11.981  12.382  65.272  1.00  0.00    -0.461 C  
HETATM    2  C   UNL     1     -11.565  13.641  64.526  1.00  0.00    -0.390 C  
HETATM    3  N   UNL     1     -12.302  13.782  63.268  1.00  0.00    -1.124 NA 
HETATM    4  H2  UNL     1     -13.311  13.753  63.419  1.00  0.00     0.000 HD 
HETATM    5  H1  UNL     1     -12.023  14.625  62.768  1.00  0.00     0.000 HD 
ENDROOT
BRANCH   2   6
HETATM    6  C   UNL     1     -11.668  14.902  65.402  1.00  0.00    -0.238 C  
BRANCH   6   7
HETATM    7  O   UNL     1     -10.926  14.876  66.616  1.00  0.00    -0.315 OA 
BRANCH   7   8
HETATM    8  C   UNL     1      -9.768  15.633  66.658  1.00  0.00    -0.249 A  
HETATM    9  C   UNL     1      -9.616  17.030  66.453  1.00  0.00    -0.301 A  
HETATM   10  C   UNL     1      -8.323  17.596  66.554  1.00  0.00    -0.300 A  
HETATM   11  C   UNL     1     -10.639  18.053  66.017  1.00  0.00    -0.258 C  
HETATM   12  C   UNL     1      -7.202  16.834  66.865  1.00  0.00    -0.258 A  
HETATM   13  C   UNL     1      -7.344  15.468  67.043  1.00  0.00    -0.172 A  
HETATM   14  C   UNL     1      -8.606  14.856  66.939  1.00  0.00    -0.269 A  
HETATM   15  C   UNL     1      -8.672  13.351  67.108  1.00  0.00    -0.220 C  
ENDBRANCH   7   8
ENDBRANCH   6   7
ENDBRANCH   2   6
TORSDOF 3
ENDMDL
MODEL       80
REMARK 921   NORMALIZED FREE ENERGY PREDICTED BY IDOCK:   -3.86 KCAL/MOL
REMARK 922        TOTAL FREE ENERGY PREDICTED BY IDOCK:   -4.71 KCAL/MOL
REMARK 923 INTER-LIGAND FREE ENERGY PREDICTED BY IDOCK:   -4.75 KCAL/MOL
REMARK 924 INTRA-LIGAND FREE ENERGY PREDICTED BY IDOCK:    0.04 KCAL/MOL
REMARK 927      BINDING AFFINITY PREDICTED BY RF-SCORE:    0.00 PKD
ROOT
HETATM    1  C   UNL     1     -10.357  17.918  66.339  1.00  0.00    -0.365 C  
HETATM    2  C   UNL     1     -10.496  16.528  65.736  1.00  0.00    -0.329 C  
HETATM    3  N   UNL     1     -11.067  16.587  64.388  1.00  0.00    -1.206 NA 
HETATM    4  H2  UNL     1     -10.530  17.206  63.781  1.00  0.00     0.000 HD 
HETATM    5  H1  UNL     1     -11.160  15.655  63.984  1.00  0.00     0.000 HD 
ENDROOT
BRANCH   2   6
HETATM    6  C   UNL     1      -9.174  15.740  65.772  1.00  0.00    -0.219 C  
BRANCH   6   7
HETATM    7  O   UNL     1      -9.135  14.636  66.668  1.00  0.00    -0.252 OA 
BRANCH   7   8
HETATM    8  C   UNL     1     -10.064  14.630  67.696  1.00  0.00    -0.228 A  
HETATM    9  C   UNL     1     -11.387  14.115  67.690  1.00  0.00    -0.342 A  
HETATM   10  C   UNL     1     -12.159  14.213  68.871  1.00  0.00    -0.339 A  
HETATM   11  C   UNL     1     -12.190  13.544  66.544  1.00  0.00    -0.433 C  
HETATM   12  C   UNL     1     -11.662  14.779  70.039  1.00  0.00    -0.344 A  
HETATM   13  C   UNL     1     -10.379  15.303  70.040  1.00  0.00    -0.240 A  
HETATM   14  C   UNL     1      -9.576  15.242  68.888  1.00  0.00    -0.220 A  
HETATM   15  C   UNL     1      -8.200  15.873  68.957  1.00  0.00    -0.234 C  
ENDBRANCH   7   8
ENDBRANCH   6   7
ENDBRANCH   2   6
TORSDOF 3
ENDMDL
MODEL       81
REMARK 921   NORMALIZED FREE ENERGY PREDICTED BY IDOCK:   -3.82 KCAL/MOL
REMARK 922        TOTAL FREE ENERGY PREDICTED BY IDOCK:   -4.67 KCAL/MOL
REMARK 923 INTER-LIGAND FREE ENERGY PREDICTED BY IDOCK:   -4.47 KCAL/MOL
REMARK 924 INTRA-LIGAND FREE ENERGY PREDICTED BY IDOCK:   -0.20 KCAL/MOL
REMARK 927      BINDING AFFINITY PREDICTED BY RF-SCORE:    0.00 PKD
ROOT
HETATM    1  C   UNL     1      -9.459   5.496  72.025  1.00  0.00    -0.171 C  
HETATM    2  C   UNL     1     -10.954   5.290  72.218  1.00  0.00    -0.185 C  
HETATM    3  N   UNL     1     -11.261   4.863  73.585  1.00  0.00    -0.391 NA 
HETATM    4  H2  UNL     1     -10.880   5.511  74.274  1.00  0.00     0.000 HD 
HETATM    5  H1  UNL     1     -12.263   4.724  73.714  1.00  0.00     0.000 HD 
ENDROOT
BRANCH   2   6
HETATM    6  C   UNL     1     -11.774   6.523  71.799  1.00  0.00    -0.324 C  
BRANCH   6   7
HETATM    7  O   UNL     1     -11.414   7.749  72.425  1.00  0.00    -0.314 OA 
BRANCH   7   8
HETATM    8  C   UNL     1     -11.441   8.887  71.636  1.00  0.00    -0.339 A  
HETATM    9  C   UNL     1     -10.424   9.400  70.789  1.00  0.00    -0.372 A  
HETATM   10  C   UNL     1     -10.679  10.587  70.063  1.00  0.00    -0.282 A  
HETATM   11  C   UNL     1      -9.000   8.928  70.603  1.00  0.00    -0.237 C  
HETATM   12  C   UNL     1     -11.896  11.256  70.136  1.00  0.00    -0.449 A  
HETATM   13  C   UNL     1     -12.882  10.768  70.978  1.00  0.00    -0.480 A  
HETATM   14  C   UNL     1     -12.673   9.600  71.732  1.00  0.00    -0.510 A  
HETATM   15  C   UNL     1     -13.784   9.155  72.660  1.00  0.00    -0.416 C  
ENDBRANCH   7   8
ENDBRANCH   6   7
ENDBRANCH   2   6
TORSDOF 3
ENDMDL
MODEL       82
REMARK 921   NORMALIZED FREE ENERGY PREDICTED BY IDOCK:   -3.81 KCAL/MOL
REMARK 922        TOTAL FREE ENERGY PREDICTED BY IDOCK:   -4.66 KCAL/MOL
REMARK 923 INTER-LIGAND FREE ENERGY PREDICTED BY IDOCK:   -4.47 KCAL/MOL
REMARK 924 INTRA-LIGAND FREE ENERGY PREDICTED BY IDOCK:   -0.20 KCAL/MOL
REMARK 927      BINDING AFFINITY PREDICTED BY RF-SCORE:    0.00 PKD
ROOT
HETATM    1  C   UNL     1      -9.353   5.268  72.290  1.00  0.00    -0.160 C  
HETATM    2  C   UNL     1     -10.856   5.208  72.519  1.00  0.00    -0.223 C  
HETATM    3  N   UNL     1     -11.172   5.000  73.934  1.00  0.00    -0.421 NA 
HETATM    4  H2  UNL     1     -10.731   5.706  74.524  1.00  0.00     0.000 HD 
HETATM    5  H1  UNL     1     -12.179   4.959  74.087  1.00  0.00     0.000 HD 
ENDROOT
BRANCH   2   6
HETATM    6  C   UNL     1     -11.587   6.432  71.937  1.00  0.00    -0.318 C  
BRANCH   6   7
HETATM    7  O   UNL     1     -11.114   7.701  72.372  1.00  0.00    -0.263 OA 
BRANCH   7   8
HETATM    8  C   UNL     1     -11.573   8.811  71.683  1.00  0.00    -0.320 A  
HETATM    9  C   UNL     1     -12.879   9.369  71.675  1.00  0.00    -0.461 A  
HETATM   10  C   UNL     1     -13.119  10.524  70.894  1.00  0.00    -0.390 A  
HETATM   11  C   UNL     1     -14.149   8.851  72.309  1.00  0.00    -0.512 C  
HETATM   12  C   UNL     1     -12.118  11.139  70.150  1.00  0.00    -0.443 A  
HETATM   13  C   UNL     1     -10.849  10.583  70.139  1.00  0.00    -0.291 A  
HETATM   14  C   UNL     1     -10.563   9.427  70.887  1.00  0.00    -0.390 A  
HETATM   15  C   UNL     1      -9.163   8.857  70.790  1.00  0.00    -0.272 C  
ENDBRANCH   7   8
ENDBRANCH   6   7
ENDBRANCH   2   6
TORSDOF 3
ENDMDL
MODEL       83
REMARK 921   NORMALIZED FREE ENERGY PREDICTED BY IDOCK:   -3.81 KCAL/MOL
REMARK 922        TOTAL FREE ENERGY PREDICTED BY IDOCK:   -4.66 KCAL/MOL
REMARK 923 INTER-LIGAND FREE ENERGY PREDICTED BY IDOCK:   -4.44 KCAL/MOL
REMARK 924 INTRA-LIGAND FREE ENERGY PREDICTED BY IDOCK:   -0.23 KCAL/MOL
REMARK 927      BINDING AFFINITY PREDICTED BY RF-SCORE:    0.00 PKD
ROOT
HETATM    1  C   UNL     1      -7.244   9.853  65.388  1.00  0.00    -0.125 C  
HETATM    2  C   UNL     1      -7.258  10.833  66.551  1.00  0.00    -0.139 C  
HETATM    3  N   UNL     1      -6.135  11.771  66.470  1.00  0.00    -0.429 NA 
HETATM    4  H2  UNL     1      -6.116  12.256  65.572  1.00  0.00     0.000 HD 
HETATM    5  H1  UNL     1      -6.145  12.428  67.250  1.00  0.00     0.000 HD 
ENDROOT
BRANCH   2   6
HETATM    6  C   UNL     1      -8.609  11.557  66.691  1.00  0.00    -0.176 C  
BRANCH   6   7
HETATM    7  O   UNL     1      -9.700  10.975  65.987  1.00  0.00    -0.207 OA 
BRANCH   7   8
HETATM    8  C   UNL     1     -10.667  11.841  65.504  1.00  0.00    -0.279 A  
HETATM    9  C   UNL     1     -11.547  12.681  66.236  1.00  0.00    -0.440 A  
HETATM   10  C   UNL     1     -12.458  13.496  65.524  1.00  0.00    -0.538 A  
HETATM   11  C   UNL     1     -11.760  12.780  67.729  1.00  0.00    -0.412 C  
HETATM   12  C   UNL     1     -12.507  13.515  64.134  1.00  0.00    -0.301 A  
HETATM   13  C   UNL     1     -11.665  12.679  63.419  1.00  0.00    -0.571 A  
HETATM   14  C   UNL     1     -10.752  11.840  64.081  1.00  0.00    -0.410 A  
HETATM   15  C   UNL     1      -9.894  10.926  63.229  1.00  0.00    -0.409 C  
ENDBRANCH   7   8
ENDBRANCH   6   7
ENDBRANCH   2   6
TORSDOF 3
ENDMDL
MODEL       84
REMARK 921   NORMALIZED FREE ENERGY PREDICTED BY IDOCK:   -3.79 KCAL/MOL
REMARK 922        TOTAL FREE ENERGY PREDICTED BY IDOCK:   -4.64 KCAL/MOL
REMARK 923 INTER-LIGAND FREE ENERGY PREDICTED BY IDOCK:   -4.47 KCAL/MOL
REMARK 924 INTRA-LIGAND FREE ENERGY PREDICTED BY IDOCK:   -0.17 KCAL/MOL
REMARK 927      BINDING AFFINITY PREDICTED BY RF-SCORE:    0.00 PKD
ROOT
HETATM    1  C   UNL     1      -9.727   4.111  66.988  1.00  0.00    -0.230 C  
HETATM    2  C   UNL     1     -10.434   5.193  66.185  1.00  0.00    -0.250 C  
HETATM    3  N   UNL     1     -11.434   4.617  65.282  1.00  0.00    -1.096 NA 
HETATM    4  H2  UNL     1     -12.099   4.030  65.786  1.00  0.00     0.000 HD 
HETATM    5  H1  UNL     1     -11.908   5.342  64.744  1.00  0.00     0.000 HD 
ENDROOT
BRANCH   2   6
HETATM    6  C   UNL     1     -11.029   6.293  67.083  1.00  0.00    -0.370 C  
BRANCH   6   7
HETATM    7  O   UNL     1     -10.088   7.147  67.722  1.00  0.00    -0.154 OA 
BRANCH   7   8
HETATM    8  C   UNL     1     -10.526   7.833  68.843  1.00  0.00    -0.194 A  
HETATM    9  C   UNL     1     -10.882   7.313  70.115  1.00  0.00    -0.274 A  
HETATM   10  C   UNL     1     -11.297   8.213  71.125  1.00  0.00    -0.299 A  
HETATM   11  C   UNL     1     -10.999   5.876  70.566  1.00  0.00    -0.362 C  
HETATM   12  C   UNL     1     -11.352   9.587  70.919  1.00  0.00    -0.410 A  
HETATM   13  C   UNL     1     -11.027  10.094  69.671  1.00  0.00    -0.305 A  
HETATM   14  C   UNL     1     -10.621   9.240  68.630  1.00  0.00    -0.219 A  
HETATM   15  C   UNL     1     -10.322   9.868  67.284  1.00  0.00    -0.303 C  
ENDBRANCH   7   8
ENDBRANCH   6   7
ENDBRANCH   2   6
TORSDOF 3
ENDMDL
MODEL       85
REMARK 921   NORMALIZED FREE ENERGY PREDICTED BY IDOCK:   -3.79 KCAL/MOL
REMARK 922        TOTAL FREE ENERGY PREDICTED BY IDOCK:   -4.63 KCAL/MOL
REMARK 923 INTER-LIGAND FREE ENERGY PREDICTED BY IDOCK:   -4.45 KCAL/MOL
REMARK 924 INTRA-LIGAND FREE ENERGY PREDICTED BY IDOCK:   -0.19 KCAL/MOL
REMARK 927      BINDING AFFINITY PREDICTED BY RF-SCORE:    0.00 PKD
ROOT
HETATM    1  C   UNL     1     -12.514  13.584  65.548  1.00  0.00    -0.538 C  
HETATM    2  C   UNL     1     -11.682  14.444  64.608  1.00  0.00    -0.430 C  
HETATM    3  N   UNL     1     -12.519  15.400  63.879  1.00  0.00    -0.935 NA 
HETATM    4  H2  UNL     1     -13.075  15.972  64.515  1.00  0.00     0.000 HD 
HETATM    5  H1  UNL     1     -11.961  15.976  63.249  1.00  0.00     0.000 HD 
ENDROOT
BRANCH   2   6
HETATM    6  C   UNL     1     -10.509  15.133  65.329  1.00  0.00    -0.409 C  
BRANCH   6   7
HETATM    7  O   UNL     1     -10.745  15.505  66.681  1.00  0.00    -0.306 OA 
BRANCH   7   8
HETATM    8  C   UNL     1      -9.645  15.905  67.422  1.00  0.00    -0.221 A  
HETATM    9  C   UNL     1      -8.608  15.105  67.968  1.00  0.00    -0.156 A  
HETATM   10  C   UNL     1      -7.569  15.739  68.690  1.00  0.00    -0.150 A  
HETATM   11  C   UNL     1      -8.472  13.600  68.003  1.00  0.00    -0.174 C  
HETATM   12  C   UNL     1      -7.521  17.117  68.866  1.00  0.00    -0.241 A  
HETATM   13  C   UNL     1      -8.544  17.898  68.353  1.00  0.00    -0.296 A  
HETATM   14  C   UNL     1      -9.606  17.314  67.640  1.00  0.00    -0.256 A  
HETATM   15  C   UNL     1     -10.707  18.231  67.146  1.00  0.00    -0.334 C  
ENDBRANCH   7   8
ENDBRANCH   6   7
ENDBRANCH   2   6
TORSDOF 3
ENDMDL
MODEL       86
REMARK 921   NORMALIZED FREE ENERGY PREDICTED BY IDOCK:   -3.79 KCAL/MOL
REMARK 922        TOTAL FREE ENERGY PREDICTED BY IDOCK:   -4.63 KCAL/MOL
REMARK 923 INTER-LIGAND FREE ENERGY PREDICTED BY IDOCK:   -4.34 KCAL/MOL
REMARK 924 INTRA-LIGAND FREE ENERGY PREDICTED BY IDOCK:   -0.29 KCAL/MOL
REMARK 927      BINDING AFFINITY PREDICTED BY RF-SCORE:    0.00 PKD
ROOT
HETATM    1  C   UNL     1      -7.560  16.997  66.249  1.00  0.00    -0.340 C  
HETATM    2  C   UNL     1      -8.860  17.662  66.679  1.00  0.00    -0.263 C  
HETATM    3  N   UNL     1      -8.949  19.033  66.170  1.00  0.00    -0.467 NA 
HETATM    4  H2  UNL     1      -8.829  19.065  65.158  1.00  0.00     0.000 HD 
HETATM    5  H1  UNL     1      -9.820  19.478  66.459  1.00  0.00     0.000 HD 
ENDROOT
BRANCH   2   6
HETATM    6  C   UNL     1     -10.097  16.824  66.308  1.00  0.00    -0.326 C  
BRANCH   6   7
HETATM    7  O   UNL     1      -9.847  15.660  65.530  1.00  0.00    -0.328 OA 
BRANCH   7   8
HETATM    8  C   UNL     1     -10.266  14.451  66.060  1.00  0.00    -0.315 A  
HETATM    9  C   UNL     1      -9.697  13.708  67.129  1.00  0.00    -0.245 A  
HETATM   10  C   UNL     1     -10.306  12.489  67.509  1.00  0.00    -0.225 A  
HETATM   11  C   UNL     1      -8.422  13.960  67.900  1.00  0.00    -0.177 C  
HETATM   12  C   UNL     1     -11.450  12.004  66.886  1.00  0.00    -0.402 A  
HETATM   13  C   UNL     1     -11.994  12.716  65.829  1.00  0.00    -0.503 A  
HETATM   14  C   UNL     1     -11.418  13.926  65.403  1.00  0.00    -0.316 A  
HETATM   15  C   UNL     1     -12.047  14.623  64.214  1.00  0.00    -0.437 C  
ENDBRANCH   7   8
ENDBRANCH   6   7
ENDBRANCH   2   6
TORSDOF 3
ENDMDL
MODEL       87
REMARK 921   NORMALIZED FREE ENERGY PREDICTED BY IDOCK:   -3.78 KCAL/MOL
REMARK 922        TOTAL FREE ENERGY PREDICTED BY IDOCK:   -4.63 KCAL/MOL
REMARK 923 INTER-LIGAND FREE ENERGY PREDICTED BY IDOCK:   -4.29 KCAL/MOL
REMARK 924 INTRA-LIGAND FREE ENERGY PREDICTED BY IDOCK:   -0.34 KCAL/MOL
REMARK 927      BINDING AFFINITY PREDICTED BY RF-SCORE:    0.00 PKD
ROOT
HETATM    1  C   UNL     1     -12.143  14.220  67.433  1.00  0.00    -0.371 C  
HETATM    2  C   UNL     1     -11.754  14.729  68.813  1.00  0.00    -0.323 C  
HETATM    3  N   UNL     1     -10.807  13.823  69.468  1.00  0.00    -0.445 NA 
HETATM    4  H2  UNL     1      -9.986  13.655  68.886  1.00  0.00     0.000 HD 
HETATM    5  H1  UNL     1     -10.547  14.164  70.393  1.00  0.00     0.000 HD 
ENDROOT
BRANCH   2   6
HETATM    6  C   UNL     1     -11.238  16.179  68.778  1.00  0.00    -0.365 C  
BRANCH   6   7
HETATM    7  O   UNL     1     -11.116  16.763  67.487  1.00  0.00    -0.196 OA 
BRANCH   7   8
HETATM    8  C   UNL     1      -9.854  17.191  67.110  1.00  0.00    -0.271 A  
HETATM    9  C   UNL     1      -8.714  16.408  66.789  1.00  0.00    -0.258 A  
HETATM   10  C   UNL     1      -7.519  17.069  66.419  1.00  0.00    -0.336 A  
HETATM   11  C   UNL     1      -8.519  14.912  66.883  1.00  0.00    -0.255 C  
HETATM   12  C   UNL     1      -7.429  18.454  66.342  1.00  0.00    -0.278 A  
HETATM   13  C   UNL     1      -8.534  19.220  66.676  1.00  0.00    -0.329 A  
HETATM   14  C   UNL     1      -9.741  18.612  67.064  1.00  0.00    -0.328 A  
HETATM   15  C   UNL     1     -10.890  19.519  67.454  1.00  0.00    -0.536 C  
ENDBRANCH   7   8
ENDBRANCH   6   7
ENDBRANCH   2   6
TORSDOF 3
ENDMDL
MODEL       88
REMARK 921   NORMALIZED FREE ENERGY PREDICTED BY IDOCK:   -3.78 KCAL/MOL
REMARK 922        TOTAL FREE ENERGY PREDICTED BY IDOCK:   -4.63 KCAL/MOL
REMARK 923 INTER-LIGAND FREE ENERGY PREDICTED BY IDOCK:   -4.55 KCAL/MOL
REMARK 924 INTRA-LIGAND FREE ENERGY PREDICTED BY IDOCK:   -0.08 KCAL/MOL
REMARK 927      BINDING AFFINITY PREDICTED BY RF-SCORE:    0.00 PKD
ROOT
HETATM    1  C   UNL     1      -9.943   4.979  69.461  1.00  0.00    -0.302 C  
HETATM    2  C   UNL     1     -10.562   6.367  69.376  1.00  0.00    -0.257 C  
HETATM    3  N   UNL     1     -11.258   6.563  68.102  1.00  0.00    -0.541 NA 
HETATM    4  H2  UNL     1     -11.952   5.833  67.939  1.00  0.00     0.000 HD 
HETATM    5  H1  UNL     1     -11.672   7.493  68.045  1.00  0.00     0.000 HD 
ENDROOT
BRANCH   2   6
HETATM    6  C   UNL     1     -11.464   6.682  70.584  1.00  0.00    -0.364 C  
BRANCH   6   7
HETATM    7  O   UNL     1     -11.016   7.729  71.436  1.00  0.00    -0.232 OA 
BRANCH   7   8
HETATM    8  C   UNL     1     -11.225   9.026  70.997  1.00  0.00    -0.295 A  
HETATM    9  C   UNL     1     -10.405   9.815  70.147  1.00  0.00    -0.335 A  
HETATM   10  C   UNL     1     -10.827  11.126  69.823  1.00  0.00    -0.152 A  
HETATM   11  C   UNL     1      -9.035   9.515  69.586  1.00  0.00    -0.198 C  
HETATM   12  C   UNL     1     -12.023  11.659  70.292  1.00  0.00    -0.445 A  
HETATM   13  C   UNL     1     -12.813  10.899  71.139  1.00  0.00    -0.508 A  
HETATM   14  C   UNL     1     -12.431   9.595  71.503  1.00  0.00    -0.476 A  
HETATM   15  C   UNL     1     -13.328   8.844  72.465  1.00  0.00    -0.451 C  
ENDBRANCH   7   8
ENDBRANCH   6   7
ENDBRANCH   2   6
TORSDOF 3
ENDMDL
MODEL       89
REMARK 921   NORMALIZED FREE ENERGY PREDICTED BY IDOCK:   -3.78 KCAL/MOL
REMARK 922        TOTAL FREE ENERGY PREDICTED BY IDOCK:   -4.62 KCAL/MOL
REMARK 923 INTER-LIGAND FREE ENERGY PREDICTED BY IDOCK:   -4.62 KCAL/MOL
REMARK 924 INTRA-LIGAND FREE ENERGY PREDICTED BY IDOCK:   -0.00 KCAL/MOL
REMARK 927      BINDING AFFINITY PREDICTED BY RF-SCORE:    0.00 PKD
ROOT
HETATM    1  C   UNL     1      -8.863  15.683  67.273  1.00  0.00    -0.215 C  
HETATM    2  C   UNL     1      -9.417  15.026  68.528  1.00  0.00    -0.203 C  
HETATM    3  N   UNL     1      -8.385  14.889  69.558  1.00  0.00    -0.420 NA 
HETATM    4  H2  UNL     1      -7.944  15.785  69.768  1.00  0.00     0.000 HD 
HETATM    5  H1  UNL     1      -8.756  14.448  70.399  1.00  0.00     0.000 HD 
ENDROOT
BRANCH   2   6
HETATM    6  C   UNL     1     -10.673  15.742  69.058  1.00  0.00    -0.235 C  
BRANCH   6   7
HETATM    7  O   UNL     1     -11.912  15.094  68.799  1.00  0.00    -0.314 OA 
BRANCH   7   8
HETATM    8  C   UNL     1     -11.956  13.725  68.998  1.00  0.00    -0.360 A  
HETATM    9  C   UNL     1     -11.774  12.686  68.047  1.00  0.00    -0.402 A  
HETATM   10  C   UNL     1     -11.856  11.343  68.484  1.00  0.00    -0.364 A  
HETATM   11  C   UNL     1     -11.603  12.775  66.548  1.00  0.00    -0.435 C  
HETATM   12  C   UNL     1     -12.090  11.007  69.813  1.00  0.00    -0.424 A  
HETATM   13  C   UNL     1     -12.290  12.018  70.738  1.00  0.00    -0.403 A  
HETATM   14  C   UNL     1     -12.233  13.369  70.352  1.00  0.00    -0.415 A  
HETATM   15  C   UNL     1     -12.503  14.415  71.414  1.00  0.00    -0.433 C  
ENDBRANCH   7   8
ENDBRANCH   6   7
ENDBRANCH   2   6
TORSDOF 3
ENDMDL
MODEL       90
REMARK 921   NORMALIZED FREE ENERGY PREDICTED BY IDOCK:   -3.78 KCAL/MOL
REMARK 922        TOTAL FREE ENERGY PREDICTED BY IDOCK:   -4.62 KCAL/MOL
REMARK 923 INTER-LIGAND FREE ENERGY PREDICTED BY IDOCK:   -4.38 KCAL/MOL
REMARK 924 INTRA-LIGAND FREE ENERGY PREDICTED BY IDOCK:   -0.24 KCAL/MOL
REMARK 927      BINDING AFFINITY PREDICTED BY RF-SCORE:    0.00 PKD
ROOT
HETATM    1  C   UNL     1      -9.572  17.945  66.292  1.00  0.00    -0.252 C  
HETATM    2  C   UNL     1     -10.282  16.678  65.838  1.00  0.00    -0.340 C  
HETATM    3  N   UNL     1     -11.009  16.895  64.585  1.00  0.00    -0.963 NA 
HETATM    4  H2  UNL     1     -10.397  17.263  63.856  1.00  0.00     0.000 HD 
HETATM    5  H1  UNL     1     -11.485  16.046  64.282  1.00  0.00     0.000 HD 
ENDROOT
BRANCH   2   6
HETATM    6  C   UNL     1      -9.330  15.472  65.754  1.00  0.00    -0.257 C  
BRANCH   6   7
HETATM    7  O   UNL     1      -9.929  14.233  65.393  1.00  0.00    -0.343 OA 
BRANCH   7   8
HETATM    8  C   UNL     1     -10.161  13.328  66.416  1.00  0.00    -0.292 A  
HETATM    9  C   UNL     1      -9.215  12.629  67.210  1.00  0.00    -0.195 A  
HETATM   10  C   UNL     1      -9.687  11.751  68.215  1.00  0.00    -0.199 A  
HETATM   11  C   UNL     1      -7.709  12.581  67.090  1.00  0.00    -0.109 C  
HETATM   12  C   UNL     1     -11.043  11.564  68.460  1.00  0.00    -0.287 A  
HETATM   13  C   UNL     1     -11.968  12.228  67.671  1.00  0.00    -0.218 A  
HETATM   14  C   UNL     1     -11.550  13.101  66.651  1.00  0.00    -0.403 A  
HETATM   15  C   UNL     1     -12.622  13.757  65.805  1.00  0.00    -0.525 C  
ENDBRANCH   7   8
ENDBRANCH   6   7
ENDBRANCH   2   6
TORSDOF 3
ENDMDL
MODEL       91
REMARK 921   NORMALIZED FREE ENERGY PREDICTED BY IDOCK:   -3.74 KCAL/MOL
REMARK 922        TOTAL FREE ENERGY PREDICTED BY IDOCK:   -4.58 KCAL/MOL
REMARK 923 INTER-LIGAND FREE ENERGY PREDICTED BY IDOCK:   -4.37 KCAL/MOL
REMARK 924 INTRA-LIGAND FREE ENERGY PREDICTED BY IDOCK:   -0.22 KCAL/MOL
REMARK 927      BINDING AFFINITY PREDICTED BY RF-SCORE:    0.00 PKD
ROOT
HETATM    1  C   UNL     1      -9.938   7.706  66.890  1.00  0.00    -0.325 C  
HETATM    2  C   UNL     1      -9.751   8.915  67.796  1.00  0.00    -0.160 C  
HETATM    3  N   UNL     1      -8.338   9.285  67.905  1.00  0.00    -0.116 NA 
HETATM    4  H2  UNL     1      -7.919   9.436  66.987  1.00  0.00     0.000 HD 
HETATM    5  H1  UNL     1      -8.212  10.094  68.512  1.00  0.00     0.000 HD 
ENDROOT
BRANCH   2   6
HETATM    6  C   UNL     1     -10.631  10.105  67.373  1.00  0.00    -0.272 C  
BRANCH   6   7
HETATM    7  O   UNL     1      -9.976  11.127  66.631  1.00  0.00    -0.197 OA 
BRANCH   7   8
HETATM    8  C   UNL     1     -10.768  11.904  65.802  1.00  0.00    -0.284 A  
HETATM    9  C   UNL     1     -11.658  12.952  66.157  1.00  0.00    -0.423 A  
HETATM   10  C   UNL     1     -12.365  13.620  65.130  1.00  0.00    -0.486 A  
HETATM   11  C   UNL     1     -12.082  13.430  67.527  1.00  0.00    -0.323 C  
HETATM   12  C   UNL     1     -12.204  13.298  63.787  1.00  0.00    -0.508 A  
HETATM   13  C   UNL     1     -11.353  12.262  63.440  1.00  0.00    -0.508 A  
HETATM   14  C   UNL     1     -10.638  11.557  64.425  1.00  0.00    -0.392 A  
HETATM   15  C   UNL     1      -9.759  10.411  63.969  1.00  0.00    -0.373 C  
ENDBRANCH   7   8
ENDBRANCH   6   7
ENDBRANCH   2   6
TORSDOF 3
ENDMDL
MODEL       92
REMARK 921   NORMALIZED FREE ENERGY PREDICTED BY IDOCK:   -3.73 KCAL/MOL
REMARK 922        TOTAL FREE ENERGY PREDICTED BY IDOCK:   -4.57 KCAL/MOL
REMARK 923 INTER-LIGAND FREE ENERGY PREDICTED BY IDOCK:   -4.32 KCAL/MOL
REMARK 924 INTRA-LIGAND FREE ENERGY PREDICTED BY IDOCK:   -0.25 KCAL/MOL
REMARK 927      BINDING AFFINITY PREDICTED BY RF-SCORE:    0.00 PKD
ROOT
HETATM    1  C   UNL     1      -8.169  18.066  66.394  1.00  0.00    -0.285 C  
HETATM    2  C   UNL     1      -9.674  18.265  66.486  1.00  0.00    -0.343 C  
HETATM    3  N   UNL     1     -10.084  19.525  65.861  1.00  0.00    -0.449 NA 
HETATM    4  H2  UNL     1      -9.755  19.589  64.897  1.00  0.00     0.000 HD 
HETATM    5  H1  UNL     1     -11.093  19.658  65.923  1.00  0.00     0.000 HD 
ENDROOT
BRANCH   2   6
HETATM    6  C   UNL     1     -10.459  17.062  65.931  1.00  0.00    -0.274 C  
BRANCH   6   7
HETATM    7  O   UNL     1      -9.739  15.837  65.850  1.00  0.00    -0.310 OA 
BRANCH   7   8
HETATM    8  C   UNL     1     -10.422  14.685  66.204  1.00  0.00    -0.302 A  
HETATM    9  C   UNL     1     -11.447  14.010  65.490  1.00  0.00    -0.318 A  
HETATM   10  C   UNL     1     -12.000  12.833  66.047  1.00  0.00    -0.491 A  
HETATM   11  C   UNL     1     -12.159  14.414  64.220  1.00  0.00    -0.461 C  
HETATM   12  C   UNL     1     -11.563  12.307  67.257  1.00  0.00    -0.427 A  
HETATM   13  C   UNL     1     -10.579  12.977  67.966  1.00  0.00    -0.246 A  
HETATM   14  C   UNL     1     -10.007  14.158  67.462  1.00  0.00    -0.236 A  
HETATM   15  C   UNL     1      -8.966  14.854  68.316  1.00  0.00    -0.177 C  
ENDBRANCH   7   8
ENDBRANCH   6   7
ENDBRANCH   2   6
TORSDOF 3
ENDMDL
MODEL       93
REMARK 921   NORMALIZED FREE ENERGY PREDICTED BY IDOCK:   -3.72 KCAL/MOL
REMARK 922        TOTAL FREE ENERGY PREDICTED BY IDOCK:   -4.55 KCAL/MOL
REMARK 923 INTER-LIGAND FREE ENERGY PREDICTED BY IDOCK:   -4.51 KCAL/MOL
REMARK 924 INTRA-LIGAND FREE ENERGY PREDICTED BY IDOCK:   -0.04 KCAL/MOL
REMARK 927      BINDING AFFINITY PREDICTED BY RF-SCORE:    0.00 PKD
ROOT
HETATM    1  C   UNL     1     -11.157  15.608  64.794  1.00  0.00    -0.426 C  
HETATM    2  C   UNL     1     -10.520  15.162  66.102  1.00  0.00    -0.312 C  
HETATM    3  N   UNL     1     -10.329  13.710  66.134  1.00  0.00    -0.290 NA 
HETATM    4  H2  UNL     1      -9.795  13.385  65.328  1.00  0.00     0.000 HD 
HETATM    5  H1  UNL     1      -9.903  13.412  67.011  1.00  0.00     0.000 HD 
ENDROOT
BRANCH   2   6
HETATM    6  C   UNL     1      -9.219  15.925  66.410  1.00  0.00    -0.309 C  
BRANCH   6   7
HETATM    7  O   UNL     1      -9.079  17.192  65.780  1.00  0.00    -0.525 OA 
BRANCH   7   8
HETATM    8  C   UNL     1      -8.320  18.141  66.444  1.00  0.00    -0.245 A  
HETATM    9  C   UNL     1      -6.998  18.022  66.948  1.00  0.00    -0.218 A  
HETATM   10  C   UNL     1      -6.413  19.138  67.592  1.00  0.00    -0.225 A  
HETATM   11  C   UNL     1      -6.100  16.808  67.011  1.00  0.00    -0.218 C  
HETATM   12  C   UNL     1      -7.081  20.350  67.731  1.00  0.00    -0.344 A  
HETATM   13  C   UNL     1      -8.379  20.461  67.260  1.00  0.00    -0.398 A  
HETATM   14  C   UNL     1      -9.010  19.376  66.625  1.00  0.00    -0.385 A  
HETATM   15  C   UNL     1     -10.444  19.565  66.175  1.00  0.00    -0.613 C  
ENDBRANCH   7   8
ENDBRANCH   6   7
ENDBRANCH   2   6
TORSDOF 3
ENDMDL
MODEL       94
REMARK 921   NORMALIZED FREE ENERGY PREDICTED BY IDOCK:   -3.71 KCAL/MOL
REMARK 922        TOTAL FREE ENERGY PREDICTED BY IDOCK:   -4.54 KCAL/MOL
REMARK 923 INTER-LIGAND FREE ENERGY PREDICTED BY IDOCK:   -4.41 KCAL/MOL
REMARK 924 INTRA-LIGAND FREE ENERGY PREDICTED BY IDOCK:   -0.13 KCAL/MOL
REMARK 927      BINDING AFFINITY PREDICTED BY RF-SCORE:    0.00 PKD
ROOT
HETATM    1  C   UNL     1     -10.530  14.261  68.720  1.00  0.00    -0.249 C  
HETATM    2  C   UNL     1     -11.698  13.568  68.035  1.00  0.00    -0.359 C  
HETATM    3  N   UNL     1     -12.254  14.397  66.962  1.00  0.00    -0.563 NA 
HETATM    4  H2  UNL     1     -11.536  14.672  66.291  1.00  0.00     0.000 HD 
HETATM    5  H1  UNL     1     -13.037  13.932  66.503  1.00  0.00     0.000 HD 
ENDROOT
BRANCH   2   6
HETATM    6  C   UNL     1     -11.335  12.154  67.545  1.00  0.00    -0.326 C  
BRANCH   6   7
HETATM    7  O   UNL     1     -12.144  11.098  68.046  1.00  0.00    -0.635 OA 
BRANCH   7   8
HETATM    8  C   UNL     1     -11.631  10.361  69.101  1.00  0.00    -0.164 A  
HETATM    9  C   UNL     1     -11.781  10.589  70.494  1.00  0.00    -0.443 A  
HETATM   10  C   UNL     1     -11.168   9.691  71.400  1.00  0.00    -0.426 A  
HETATM   11  C   UNL     1     -12.432  11.747  71.214  1.00  0.00    -0.351 C  
HETATM   12  C   UNL     1     -10.439   8.587  70.971  1.00  0.00    -0.264 A  
HETATM   13  C   UNL     1     -10.272   8.376  69.612  1.00  0.00    -0.209 A  
HETATM   14  C   UNL     1     -10.850   9.247  68.672  1.00  0.00    -0.120 A  
HETATM   15  C   UNL     1     -10.588   8.972  67.206  1.00  0.00    -0.301 C  
ENDBRANCH   7   8
ENDBRANCH   6   7
ENDBRANCH   2   6
TORSDOF 3
ENDMDL
MODEL       95
REMARK 921   NORMALIZED FREE ENERGY PREDICTED BY IDOCK:   -3.68 KCAL/MOL
REMARK 922        TOTAL FREE ENERGY PREDICTED BY IDOCK:   -4.51 KCAL/MOL
REMARK 923 INTER-LIGAND FREE ENERGY PREDICTED BY IDOCK:   -4.47 KCAL/MOL
REMARK 924 INTRA-LIGAND FREE ENERGY PREDICTED BY IDOCK:   -0.04 KCAL/MOL
REMARK 927      BINDING AFFINITY PREDICTED BY RF-SCORE:    0.00 PKD
ROOT
HETATM    1  C   UNL     1     -10.258   5.197  69.714  1.00  0.00    -0.357 C  
HETATM    2  C   UNL     1     -11.250   6.185  69.119  1.00  0.00    -0.339 C  
HETATM    3  N   UNL     1     -12.130   6.742  70.150  1.00  0.00    -0.633 NA 
HETATM    4  H2  UNL     1     -11.596   7.161  70.912  1.00  0.00     0.000 HD 
HETATM    5  H1  UNL     1     -12.795   7.404  69.751  1.00  0.00     0.000 HD 
ENDROOT
BRANCH   2   6
HETATM    6  C   UNL     1     -10.559   7.284  68.292  1.00  0.00    -0.172 C  
BRANCH   6   7
HETATM    7  O   UNL     1     -10.271   8.493  68.985  1.00  0.00    -0.199 OA 
BRANCH   7   8
HETATM    8  C   UNL     1     -10.661   9.673  68.374  1.00  0.00    -0.225 A  
HETATM    9  C   UNL     1     -10.437  10.092  67.035  1.00  0.00    -0.302 A  
HETATM   10  C   UNL     1     -10.940  11.349  66.624  1.00  0.00    -0.341 A  
HETATM   11  C   UNL     1      -9.618   9.435  65.948  1.00  0.00    -0.338 C  
HETATM   12  C   UNL     1     -11.659  12.177  67.478  1.00  0.00    -0.413 A  
HETATM   13  C   UNL     1     -11.859  11.780  68.790  1.00  0.00    -0.380 A  
HETATM   14  C   UNL     1     -11.368  10.546  69.252  1.00  0.00    -0.325 A  
HETATM   15  C   UNL     1     -11.593  10.203  70.711  1.00  0.00    -0.445 C  
ENDBRANCH   7   8
ENDBRANCH   6   7
ENDBRANCH   2   6
TORSDOF 3
ENDMDL
MODEL       96
REMARK 921   NORMALIZED FREE ENERGY PREDICTED BY IDOCK:   -3.66 KCAL/MOL
REMARK 922        TOTAL FREE ENERGY PREDICTED BY IDOCK:   -4.49 KCAL/MOL
REMARK 923 INTER-LIGAND FREE ENERGY PREDICTED BY IDOCK:   -4.27 KCAL/MOL
REMARK 924 INTRA-LIGAND FREE ENERGY PREDICTED BY IDOCK:   -0.22 KCAL/MOL
REMARK 927      BINDING AFFINITY PREDICTED BY RF-SCORE:    0.00 PKD
ROOT
HETATM    1  C   UNL     1      -7.325   9.893  64.509  1.00  0.00    -0.140 C  
HETATM    2  C   UNL     1      -8.663   9.189  64.337  1.00  0.00    -0.153 C  
HETATM    3  N   UNL     1      -8.745   7.990  65.175  1.00  0.00    -0.372 NA 
HETATM    4  H2  UNL     1      -8.558   8.204  66.154  1.00  0.00     0.000 HD 
HETATM    5  H1  UNL     1      -9.642   7.519  65.059  1.00  0.00     0.000 HD 
ENDROOT
BRANCH   2   6
HETATM    6  C   UNL     1      -9.856  10.137  64.563  1.00  0.00    -0.264 C  
BRANCH   6   7
HETATM    7  O   UNL     1      -9.539  11.520  64.659  1.00  0.00    -0.226 OA 
BRANCH   7   8
HETATM    8  C   UNL     1     -10.504  12.346  65.210  1.00  0.00    -0.286 A  
HETATM    9  C   UNL     1     -11.808  12.630  64.725  1.00  0.00    -0.434 A  
HETATM   10  C   UNL     1     -12.633  13.508  65.467  1.00  0.00    -0.531 A  
HETATM   11  C   UNL     1     -12.461  12.214  63.428  1.00  0.00    -0.625 C  
HETATM   12  C   UNL     1     -12.217  14.087  66.661  1.00  0.00    -0.463 A  
HETATM   13  C   UNL     1     -10.937  13.830  67.124  1.00  0.00    -0.299 A  
HETATM   14  C   UNL     1     -10.073  12.975  66.416  1.00  0.00    -0.279 A  
HETATM   15  C   UNL     1      -8.676  12.776  66.966  1.00  0.00    -0.197 C  
ENDBRANCH   7   8
ENDBRANCH   6   7
ENDBRANCH   2   6
TORSDOF 3
ENDMDL
MODEL       97
REMARK 921   NORMALIZED FREE ENERGY PREDICTED BY IDOCK:   -3.65 KCAL/MOL
REMARK 922        TOTAL FREE ENERGY PREDICTED BY IDOCK:   -4.47 KCAL/MOL
REMARK 923 INTER-LIGAND FREE ENERGY PREDICTED BY IDOCK:   -4.13 KCAL/MOL
REMARK 924 INTRA-LIGAND FREE ENERGY PREDICTED BY IDOCK:   -0.34 KCAL/MOL
REMARK 927      BINDING AFFINITY PREDICTED BY RF-SCORE:    0.00 PKD
ROOT
HETATM    1  C   UNL     1      -6.961  14.764  67.633  1.00  0.00    -0.204 C  
HETATM    2  C   UNL     1      -8.352  14.900  68.233  1.00  0.00    -0.148 C  
HETATM    3  N   UNL     1      -8.305  14.877  69.697  1.00  0.00    -0.441 NA 
HETATM    4  H2  UNL     1      -7.669  15.585  70.063  1.00  0.00     0.000 HD 
HETATM    5  H1  UNL     1      -9.238  14.968  70.099  1.00  0.00     0.000 HD 
ENDROOT
BRANCH   2   6
HETATM    6  C   UNL     1      -9.103  16.133  67.697  1.00  0.00    -0.196 C  
BRANCH   6   7
HETATM    7  O   UNL     1      -9.207  17.233  68.593  1.00  0.00    -0.265 OA 
BRANCH   7   8
HETATM    8  C   UNL     1      -8.462  18.361  68.288  1.00  0.00    -0.303 A  
HETATM    9  C   UNL     1      -7.112  18.645  68.623  1.00  0.00    -0.310 A  
HETATM   10  C   UNL     1      -6.549  19.871  68.194  1.00  0.00    -0.302 A  
HETATM   11  C   UNL     1      -6.154  17.867  69.495  1.00  0.00    -0.249 C  
HETATM   12  C   UNL     1      -7.268  20.795  67.443  1.00  0.00    -0.406 A  
HETATM   13  C   UNL     1      -8.592  20.529  67.136  1.00  0.00    -0.364 A  
HETATM   14  C   UNL     1      -9.201  19.332  67.550  1.00  0.00    -0.357 A  
HETATM   15  C   UNL     1     -10.664  19.134  67.209  1.00  0.00    -0.585 C  
ENDBRANCH   7   8
ENDBRANCH   6   7
ENDBRANCH   2   6
TORSDOF 3
ENDMDL
MODEL       98
REMARK 921   NORMALIZED FREE ENERGY PREDICTED BY IDOCK:   -3.64 KCAL/MOL
REMARK 922        TOTAL FREE ENERGY PREDICTED BY IDOCK:   -4.46 KCAL/MOL
REMARK 923 INTER-LIGAND FREE ENERGY PREDICTED BY IDOCK:   -4.15 KCAL/MOL
REMARK 924 INTRA-LIGAND FREE ENERGY PREDICTED BY IDOCK:   -0.32 KCAL/MOL
REMARK 927      BINDING AFFINITY PREDICTED BY RF-SCORE:    0.00 PKD
ROOT
HETATM    1  C   UNL     1      -8.347  15.791  68.078  1.00  0.00    -0.153 C  
HETATM    2  C   UNL     1      -9.221  14.704  68.685  1.00  0.00    -0.194 C  
HETATM    3  N   UNL     1     -10.458  15.262  69.238  1.00  0.00    -0.245 NA 
HETATM    4  H2  UNL     1     -10.967  15.806  68.541  1.00  0.00     0.000 HD 
HETATM    5  H1  UNL     1     -11.043  14.534  69.645  1.00  0.00     0.000 HD 
ENDROOT
BRANCH   2   6
HETATM    6  C   UNL     1      -9.494  13.554  67.699  1.00  0.00    -0.222 C  
BRANCH   6   7
HETATM    7  O   UNL     1      -9.218  13.830  66.332  1.00  0.00    -0.232 OA 
BRANCH   7   8
HETATM    8  C   UNL     1     -10.099  13.311  65.398  1.00  0.00    -0.253 A  
HETATM    9  C   UNL     1     -10.252  11.962  64.981  1.00  0.00    -0.316 A  
HETATM   10  C   UNL     1     -11.234  11.660  64.008  1.00  0.00    -0.448 A  
HETATM   11  C   UNL     1      -9.431  10.746  65.342  1.00  0.00    -0.258 C  
HETATM   12  C   UNL     1     -12.062  12.633  63.461  1.00  0.00    -0.648 A  
HETATM   13  C   UNL     1     -11.899  13.953  63.849  1.00  0.00    -0.315 A  
HETATM   14  C   UNL     1     -10.928  14.307  64.803  1.00  0.00    -0.408 A  
HETATM   15  C   UNL     1     -10.784  15.776  65.145  1.00  0.00    -0.455 C  
ENDBRANCH   7   8
ENDBRANCH   6   7
ENDBRANCH   2   6
TORSDOF 3
ENDMDL
MODEL       99
REMARK 921   NORMALIZED FREE ENERGY PREDICTED BY IDOCK:   -3.64 KCAL/MOL
REMARK 922        TOTAL FREE ENERGY PREDICTED BY IDOCK:   -4.46 KCAL/MOL
REMARK 923 INTER-LIGAND FREE ENERGY PREDICTED BY IDOCK:   -4.28 KCAL/MOL
REMARK 924 INTRA-LIGAND FREE ENERGY PREDICTED BY IDOCK:   -0.18 KCAL/MOL
REMARK 927      BINDING AFFINITY PREDICTED BY RF-SCORE:    0.00 PKD
ROOT
HETATM    1  C   UNL     1      -8.476  10.971  67.191  1.00  0.00    -0.137 C  
HETATM    2  C   UNL     1      -9.767  10.178  67.329  1.00  0.00    -0.167 C  
HETATM    3  N   UNL     1     -10.016   9.356  66.142  1.00  0.00    -0.288 NA 
HETATM    4  H2  UNL     1      -9.223   8.749  65.934  1.00  0.00     0.000 HD 
HETATM    5  H1  UNL     1     -10.881   8.825  66.234  1.00  0.00     0.000 HD 
ENDROOT
BRANCH   2   6
HETATM    6  C   UNL     1      -9.810   9.349  68.626  1.00  0.00    -0.163 C  
BRANCH   6   7
HETATM    7  O   UNL     1      -9.919  10.093  69.833  1.00  0.00    -0.242 OA 
BRANCH   7   8
HETATM    8  C   UNL     1     -10.977   9.778  70.669  1.00  0.00    -0.331 A  
HETATM    9  C   UNL     1     -11.164   8.612  71.458  1.00  0.00    -0.360 A  
HETATM   10  C   UNL     1     -12.332   8.509  72.251  1.00  0.00    -0.450 A  
HETATM   11  C   UNL     1     -10.336   7.349  71.517  1.00  0.00    -0.216 C  
HETATM   12  C   UNL     1     -13.290   9.515  72.297  1.00  0.00    -0.526 A  
HETATM   13  C   UNL     1     -13.120  10.643  71.511  1.00  0.00    -0.527 A  
HETATM   14  C   UNL     1     -11.984  10.788  70.695  1.00  0.00    -0.466 A  
HETATM   15  C   UNL     1     -11.891  12.031  69.835  1.00  0.00    -0.405 C  
ENDBRANCH   7   8
ENDBRANCH   6   7
ENDBRANCH   2   6
TORSDOF 3
ENDMDL
MODEL      100
REMARK 921   NORMALIZED FREE ENERGY PREDICTED BY IDOCK:   -3.63 KCAL/MOL
REMARK 922        TOTAL FREE ENERGY PREDICTED BY IDOCK:   -4.45 KCAL/MOL
REMARK 923 INTER-LIGAND FREE ENERGY PREDICTED BY IDOCK:   -4.36 KCAL/MOL
REMARK 924 INTRA-LIGAND FREE ENERGY PREDICTED BY IDOCK:   -0.09 KCAL/MOL
REMARK 927      BINDING AFFINITY PREDICTED BY RF-SCORE:    0.00 PKD
ROOT
HETATM    1  C   UNL     1      -8.334  18.084  68.087  1.00  0.00    -0.273 C  
HETATM    2  C   UNL     1      -9.452  17.188  68.600  1.00  0.00    -0.275 C  
HETATM    3  N   UNL     1     -10.713  17.925  68.713  1.00  0.00    -0.304 NA 
HETATM    4  H2  UNL     1     -10.967  18.372  67.832  1.00  0.00     0.000 HD 
HETATM    5  H1  UNL     1     -11.463  17.325  69.058  1.00  0.00     0.000 HD 
ENDROOT
BRANCH   2   6
HETATM    6  C   UNL     1      -9.604  15.904  67.764  1.00  0.00    -0.218 C  
BRANCH   6   7
HETATM    7  O   UNL     1     -10.881  15.281  67.813  1.00  0.00    -0.278 OA 
BRANCH   7   8
HETATM    8  C   UNL     1     -11.291  14.604  66.676  1.00  0.00    -0.356 A  
HETATM    9  C   UNL     1     -11.337  15.072  65.336  1.00  0.00    -0.328 A  
HETATM   10  C   UNL     1     -11.788  14.191  64.324  1.00  0.00    -0.420 A  
HETATM   11  C   UNL     1     -11.072  16.457  64.793  1.00  0.00    -0.246 C  
HETATM   12  C   UNL     1     -12.169  12.882  64.595  1.00  0.00    -0.494 A  
HETATM   13  C   UNL     1     -12.146  12.431  65.904  1.00  0.00    -0.352 A  
HETATM   14  C   UNL     1     -11.720  13.271  66.948  1.00  0.00    -0.437 A  
HETATM   15  C   UNL     1     -11.762  12.717  68.357  1.00  0.00    -0.377 C  
ENDBRANCH   7   8
ENDBRANCH   6   7
ENDBRANCH   2   6
TORSDOF 3
ENDMDL
MODEL      101
REMARK 921   NORMALIZED FREE ENERGY PREDICTED BY IDOCK:   -3.61 KCAL/MOL
REMARK 922        TOTAL FREE ENERGY PREDICTED BY IDOCK:   -4.43 KCAL/MOL
REMARK 923 INTER-LIGAND FREE ENERGY PREDICTED BY IDOCK:   -4.20 KCAL/MOL
REMARK 924 INTRA-LIGAND FREE ENERGY PREDICTED BY IDOCK:   -0.23 KCAL/MOL
REMARK 927      BINDING AFFINITY PREDICTED BY RF-SCORE:    0.00 PKD
ROOT
HETATM    1  C   UNL     1      -8.404  16.293  67.579  1.00  0.00    -0.174 C  
HETATM    2  C   UNL     1      -9.244  15.261  68.317  1.00  0.00    -0.189 C  
HETATM    3  N   UNL     1      -8.701  14.987  69.650  1.00  0.00    -0.454 NA 
HETATM    4  H2  UNL     1      -8.596  15.843  70.195  1.00  0.00     0.000 HD 
HETATM    5  H1  UNL     1      -9.263  14.295  70.144  1.00  0.00     0.000 HD 
ENDROOT
BRANCH   2   6
HETATM    6  C   UNL     1     -10.734  15.645  68.366  1.00  0.00    -0.271 C  
BRANCH   6   7
HETATM    7  O   UNL     1     -11.602  14.861  67.557  1.00  0.00    -0.349 OA 
BRANCH   7   8
HETATM    8  C   UNL     1     -11.424  13.488  67.595  1.00  0.00    -0.318 A  
HETATM    9  C   UNL     1     -11.680  12.592  68.666  1.00  0.00    -0.368 A  
HETATM   10  C   UNL     1     -11.428  11.213  68.473  1.00  0.00    -0.371 A  
HETATM   11  C   UNL     1     -12.097  12.889  70.088  1.00  0.00    -0.373 C  
HETATM   12  C   UNL     1     -10.957  10.705  67.267  1.00  0.00    -0.348 A  
HETATM   13  C   UNL     1     -10.685  11.581  66.228  1.00  0.00    -0.321 A  
HETATM   14  C   UNL     1     -10.905  12.962  66.375  1.00  0.00    -0.293 A  
HETATM   15  C   UNL     1     -10.546  13.857  65.207  1.00  0.00    -0.372 C  
ENDBRANCH   7   8
ENDBRANCH   6   7
ENDBRANCH   2   6
TORSDOF 3
ENDMDL
MODEL      102
REMARK 921   NORMALIZED FREE ENERGY PREDICTED BY IDOCK:   -3.61 KCAL/MOL
REMARK 922        TOTAL FREE ENERGY PREDICTED BY IDOCK:   -4.43 KCAL/MOL
REMARK 923 INTER-LIGAND FREE ENERGY PREDICTED BY IDOCK:   -4.26 KCAL/MOL
REMARK 924 INTRA-LIGAND FREE ENERGY PREDICTED BY IDOCK:   -0.17 KCAL/MOL
REMARK 927      BINDING AFFINITY PREDICTED BY RF-SCORE:    0.00 PKD
ROOT
HETATM    1  C   UNL     1      -9.637   4.048  66.755  1.00  0.00    -0.234 C  
HETATM    2  C   UNL     1     -10.464   5.145  66.101  1.00  0.00    -0.250 C  
HETATM    3  N   UNL     1     -11.528   4.583  65.265  1.00  0.00    -1.068 NA 
HETATM    4  H2  UNL     1     -12.115   3.935  65.791  1.00  0.00     0.000 HD 
HETATM    5  H1  UNL     1     -12.082   5.318  64.827  1.00  0.00     0.000 HD 
ENDROOT
BRANCH   2   6
HETATM    6  C   UNL     1     -11.007   6.159  67.125  1.00  0.00    -0.331 C  
BRANCH   6   7
HETATM    7  O   UNL     1     -10.076   6.613  68.100  1.00  0.00    -0.145 OA 
BRANCH   7   8
HETATM    8  C   UNL     1     -10.383   7.793  68.757  1.00  0.00    -0.204 A  
HETATM    9  C   UNL     1     -10.420   9.112  68.233  1.00  0.00    -0.254 A  
HETATM   10  C   UNL     1     -10.772  10.176  69.097  1.00  0.00    -0.254 A  
HETATM   11  C   UNL     1     -10.023   9.614  66.864  1.00  0.00    -0.272 C  
HETATM   12  C   UNL     1     -11.099   9.971  70.433  1.00  0.00    -0.393 A  
HETATM   13  C   UNL     1     -11.042   8.688  70.951  1.00  0.00    -0.310 A  
HETATM   14  C   UNL     1     -10.684   7.598  70.137  1.00  0.00    -0.245 A  
HETATM   15  C   UNL     1     -10.605   6.232  70.788  1.00  0.00    -0.297 C  
ENDBRANCH   7   8
ENDBRANCH   6   7
ENDBRANCH   2   6
TORSDOF 3
ENDMDL
MODEL      103
REMARK 921   NORMALIZED FREE ENERGY PREDICTED BY IDOCK:   -3.57 KCAL/MOL
REMARK 922        TOTAL FREE ENERGY PREDICTED BY IDOCK:   -4.38 KCAL/MOL
REMARK 923 INTER-LIGAND FREE ENERGY PREDICTED BY IDOCK:   -4.07 KCAL/MOL
REMARK 924 INTRA-LIGAND FREE ENERGY PREDICTED BY IDOCK:   -0.30 KCAL/MOL
REMARK 927      BINDING AFFINITY PREDICTED BY RF-SCORE:    0.00 PKD
ROOT
HETATM    1  C   UNL     1      -6.780  15.953  69.399  1.00  0.00    -0.189 C  
HETATM    2  C   UNL     1      -6.443  16.254  67.946  1.00  0.00    -0.140 C  
HETATM    3  N   UNL     1      -5.142  15.691  67.574  1.00  0.00    -0.307 NA 
HETATM    4  H2  UNL     1      -5.097  14.691  67.769  1.00  0.00     0.000 HD 
HETATM    5  H1  UNL     1      -4.916  15.893  66.600  1.00  0.00     0.000 HD 
ENDROOT
BRANCH   2   6
HETATM    6  C   UNL     1      -7.561  15.816  66.983  1.00  0.00    -0.222 C  
BRANCH   6   7
HETATM    7  O   UNL     1      -8.018  16.807  66.072  1.00  0.00    -0.372 OA 
BRANCH   7   8
HETATM    8  C   UNL     1      -8.711  17.880  66.609  1.00  0.00    -0.262 A  
HETATM    9  C   UNL     1      -9.900  17.865  67.385  1.00  0.00    -0.305 A  
HETATM   10  C   UNL     1     -10.430  19.096  67.839  1.00  0.00    -0.492 A  
HETATM   11  C   UNL     1     -10.802  16.705  67.738  1.00  0.00    -0.292 C  
HETATM   12  C   UNL     1      -9.817  20.314  67.567  1.00  0.00    -0.576 A  
HETATM   13  C   UNL     1      -8.669  20.332  66.792  1.00  0.00    -0.353 A  
HETATM   14  C   UNL     1      -8.111  19.137  66.304  1.00  0.00    -0.308 A  
HETATM   15  C   UNL     1      -6.878  19.244  65.430  1.00  0.00    -0.255 C  
ENDBRANCH   7   8
ENDBRANCH   6   7
ENDBRANCH   2   6
TORSDOF 3
ENDMDL
MODEL      104
REMARK 921   NORMALIZED FREE ENERGY PREDICTED BY IDOCK:   -3.56 KCAL/MOL
REMARK 922        TOTAL FREE ENERGY PREDICTED BY IDOCK:   -4.37 KCAL/MOL
REMARK 923 INTER-LIGAND FREE ENERGY PREDICTED BY IDOCK:   -4.36 KCAL/MOL
REMARK 924 INTRA-LIGAND FREE ENERGY PREDICTED BY IDOCK:   -0.01 KCAL/MOL
REMARK 927      BINDING AFFINITY PREDICTED BY RF-SCORE:    0.00 PKD
ROOT
HETATM    1  C   UNL     1     -10.479   7.209  68.816  1.00  0.00    -0.217 C  
HETATM    2  C   UNL     1     -10.365   7.237  67.299  1.00  0.00    -0.279 C  
HETATM    3  N   UNL     1     -11.192   6.196  66.683  1.00  0.00    -0.758 NA 
HETATM    4  H2  UNL     1     -12.164   6.261  66.987  1.00  0.00     0.000 HD 
HETATM    5  H1  UNL     1     -11.115   6.214  65.667  1.00  0.00     0.000 HD 
ENDROOT
BRANCH   2   6
HETATM    6  C   UNL     1     -10.659   8.631  66.715  1.00  0.00    -0.153 C  
BRANCH   6   7
HETATM    7  O   UNL     1     -10.375   9.733  67.568  1.00  0.00    -0.205 OA 
BRANCH   7   8
HETATM    8  C   UNL     1     -10.735  10.989  67.109  1.00  0.00    -0.265 A  
HETATM    9  C   UNL     1     -10.521  11.556  65.825  1.00  0.00    -0.308 A  
HETATM   10  C   UNL     1     -10.988  12.869  65.576  1.00  0.00    -0.301 A  
HETATM   11  C   UNL     1      -9.746  11.008  64.650  1.00  0.00    -0.315 C  
HETATM   12  C   UNL     1     -11.662  13.612  66.538  1.00  0.00    -0.414 A  
HETATM   13  C   UNL     1     -11.851  13.069  67.799  1.00  0.00    -0.395 A  
HETATM   14  C   UNL     1     -11.394  11.774  68.101  1.00  0.00    -0.348 A  
HETATM   15  C   UNL     1     -11.604  11.267  69.513  1.00  0.00    -0.398 C  
ENDBRANCH   7   8
ENDBRANCH   6   7
ENDBRANCH   2   6
TORSDOF 3
ENDMDL
MODEL      105
REMARK 921   NORMALIZED FREE ENERGY PREDICTED BY IDOCK:   -3.55 KCAL/MOL
REMARK 922        TOTAL FREE ENERGY PREDICTED BY IDOCK:   -4.36 KCAL/MOL
REMARK 923 INTER-LIGAND FREE ENERGY PREDICTED BY IDOCK:   -3.99 KCAL/MOL
REMARK 924 INTRA-LIGAND FREE ENERGY PREDICTED BY IDOCK:   -0.37 KCAL/MOL
REMARK 927      BINDING AFFINITY PREDICTED BY RF-SCORE:    0.00 PKD
ROOT
HETATM    1  C   UNL     1      -7.136  11.642  68.554  1.00  0.00    -0.089 C  
HETATM    2  C   UNL     1      -8.323  10.738  68.255  1.00  0.00    -0.125 C  
HETATM    3  N   UNL     1      -9.361  10.866  69.281  1.00  0.00    -0.406 NA 
HETATM    4  H2  UNL     1      -9.652  11.837  69.400  1.00  0.00     0.000 HD 
HETATM    5  H1  UNL     1     -10.156  10.259  69.081  1.00  0.00     0.000 HD 
ENDROOT
BRANCH   2   6
HETATM    6  C   UNL     1      -8.880  10.952  66.836  1.00  0.00    -0.142 C  
BRANCH   6   7
HETATM    7  O   UNL     1      -9.018  12.306  66.423  1.00  0.00    -0.195 OA 
BRANCH   7   8
HETATM    8  C   UNL     1     -10.293  12.732  66.090  1.00  0.00    -0.269 A  
HETATM    9  C   UNL     1     -11.098  12.338  64.988  1.00  0.00    -0.359 A  
HETATM   10  C   UNL     1     -12.387  12.905  64.851  1.00  0.00    -0.532 A  
HETATM   11  C   UNL     1     -10.753  11.448  63.816  1.00  0.00    -0.470 C  
HETATM   12  C   UNL     1     -12.898  13.819  65.767  1.00  0.00    -0.430 A  
HETATM   13  C   UNL     1     -12.106  14.221  66.830  1.00  0.00    -0.446 A  
HETATM   14  C   UNL     1     -10.812  13.698  67.002  1.00  0.00    -0.291 A  
HETATM   15  C   UNL     1      -9.994  14.219  68.166  1.00  0.00    -0.230 C  
ENDBRANCH   7   8
ENDBRANCH   6   7
ENDBRANCH   2   6
TORSDOF 3
ENDMDL
MODEL      106
REMARK 921   NORMALIZED FREE ENERGY PREDICTED BY IDOCK:   -3.55 KCAL/MOL
REMARK 922        TOTAL FREE ENERGY PREDICTED BY IDOCK:   -4.35 KCAL/MOL
REMARK 923 INTER-LIGAND FREE ENERGY PREDICTED BY IDOCK:   -4.45 KCAL/MOL
REMARK 924 INTRA-LIGAND FREE ENERGY PREDICTED BY IDOCK:    0.10 KCAL/MOL
REMARK 927      BINDING AFFINITY PREDICTED BY RF-SCORE:    0.00 PKD
ROOT
HETATM    1  C   UNL     1     -10.868   7.206  70.337  1.00  0.00    -0.269 C  
HETATM    2  C   UNL     1     -11.183   8.418  71.202  1.00  0.00    -0.263 C  
HETATM    3  N   UNL     1     -10.664   8.250  72.562  1.00  0.00    -0.344 NA 
HETATM    4  H2  UNL     1      -9.665   8.043  72.559  1.00  0.00     0.000 HD 
HETATM    5  H1  UNL     1     -10.876   9.062  73.142  1.00  0.00     0.000 HD 
ENDROOT
BRANCH   2   6
HETATM    6  C   UNL     1     -10.711   9.735  70.560  1.00  0.00    -0.317 C  
BRANCH   6   7
HETATM    7  O   UNL     1     -11.722  10.709  70.331  1.00  0.00    -0.299 OA 
BRANCH   7   8
HETATM    8  C   UNL     1     -11.651  11.417  69.143  1.00  0.00    -0.314 A  
HETATM    9  C   UNL     1     -11.279  10.949  67.855  1.00  0.00    -0.387 A  
HETATM   10  C   UNL     1     -11.287  11.860  66.772  1.00  0.00    -0.393 A  
HETATM   11  C   UNL     1     -10.747   9.596  67.442  1.00  0.00    -0.308 C  
HETATM   12  C   UNL     1     -11.662  13.190  66.924  1.00  0.00    -0.441 A  
HETATM   13  C   UNL     1     -12.003  13.655  68.184  1.00  0.00    -0.390 A  
HETATM   14  C   UNL     1     -11.998  12.792  69.294  1.00  0.00    -0.300 A  
HETATM   15  C   UNL     1     -12.343  13.386  70.645  1.00  0.00    -0.423 C  
ENDBRANCH   7   8
ENDBRANCH   6   7
ENDBRANCH   2   6
TORSDOF 3
ENDMDL
MODEL      107
REMARK 921   NORMALIZED FREE ENERGY PREDICTED BY IDOCK:   -3.54 KCAL/MOL
REMARK 922        TOTAL FREE ENERGY PREDICTED BY IDOCK:   -4.34 KCAL/MOL
REMARK 923 INTER-LIGAND FREE ENERGY PREDICTED BY IDOCK:   -4.16 KCAL/MOL
REMARK 924 INTRA-LIGAND FREE ENERGY PREDICTED BY IDOCK:   -0.18 KCAL/MOL
REMARK 927      BINDING AFFINITY PREDICTED BY RF-SCORE:    0.00 PKD
ROOT
HETATM    1  C   UNL     1      -5.247  15.555  69.032  1.00  0.00    -0.095 C  
HETATM    2  C   UNL     1      -6.690  15.080  69.105  1.00  0.00    -0.126 C  
HETATM    3  N   UNL     1      -6.940  14.325  70.336  1.00  0.00    -0.381 NA 
HETATM    4  H2  UNL     1      -6.680  14.862  71.164  1.00  0.00     0.000 HD 
HETATM    5  H1  UNL     1      -7.907  14.006  70.385  1.00  0.00     0.000 HD 
ENDROOT
BRANCH   2   6
HETATM    6  C   UNL     1      -7.696  16.230  68.917  1.00  0.00    -0.219 C  
BRANCH   6   7
HETATM    7  O   UNL     1      -7.390  17.157  67.882  1.00  0.00    -0.171 OA 
BRANCH   7   8
HETATM    8  C   UNL     1      -8.421  17.973  67.449  1.00  0.00    -0.240 A  
HETATM    9  C   UNL     1      -9.564  17.624  66.681  1.00  0.00    -0.301 A  
HETATM   10  C   UNL     1     -10.501  18.634  66.359  1.00  0.00    -0.463 A  
HETATM   11  C   UNL     1      -9.914  16.308  66.025  1.00  0.00    -0.370 C  
HETATM   12  C   UNL     1     -10.350  19.949  66.782  1.00  0.00    -0.599 A  
HETATM   13  C   UNL     1      -9.225  20.297  67.512  1.00  0.00    -0.491 A  
HETATM   14  C   UNL     1      -8.257  19.333  67.846  1.00  0.00    -0.340 A  
HETATM   15  C   UNL     1      -7.036  19.801  68.611  1.00  0.00    -0.366 C  
ENDBRANCH   7   8
ENDBRANCH   6   7
ENDBRANCH   2   6
TORSDOF 3
ENDMDL
MODEL      108
REMARK 921   NORMALIZED FREE ENERGY PREDICTED BY IDOCK:   -3.53 KCAL/MOL
REMARK 922        TOTAL FREE ENERGY PREDICTED BY IDOCK:   -4.33 KCAL/MOL
REMARK 923 INTER-LIGAND FREE ENERGY PREDICTED BY IDOCK:   -4.03 KCAL/MOL
REMARK 924 INTRA-LIGAND FREE ENERGY PREDICTED BY IDOCK:   -0.30 KCAL/MOL
REMARK 927      BINDING AFFINITY PREDICTED BY RF-SCORE:    0.00 PKD
ROOT
HETATM    1  C   UNL     1     -11.076   6.710  71.516  1.00  0.00    -0.297 C  
HETATM    2  C   UNL     1     -10.580   7.984  72.184  1.00  0.00    -0.272 C  
HETATM    3  N   UNL     1      -9.258   8.368  71.683  1.00  0.00    -0.184 NA 
HETATM    4  H2  UNL     1      -9.253   8.452  70.666  1.00  0.00     0.000 HD 
HETATM    5  H1  UNL     1      -8.926   9.222  72.131  1.00  0.00     0.000 HD 
ENDROOT
BRANCH   2   6
HETATM    6  C   UNL     1     -11.597   9.135  72.078  1.00  0.00    -0.301 C  
BRANCH   6   7
HETATM    7  O   UNL     1     -12.132   9.370  70.781  1.00  0.00    -0.276 OA 
BRANCH   7   8
HETATM    8  C   UNL     1     -11.943  10.633  70.246  1.00  0.00    -0.339 A  
HETATM    9  C   UNL     1     -12.380  11.885  70.754  1.00  0.00    -0.416 A  
HETATM   10  C   UNL     1     -12.060  13.060  70.035  1.00  0.00    -0.367 A  
HETATM   11  C   UNL     1     -13.268  12.181  71.941  1.00  0.00    -0.474 C  
HETATM   12  C   UNL     1     -11.318  13.033  68.859  1.00  0.00    -0.333 A  
HETATM   13  C   UNL     1     -10.909  11.811  68.350  1.00  0.00    -0.260 A  
HETATM   14  C   UNL     1     -11.214  10.613  69.020  1.00  0.00    -0.324 A  
HETATM   15  C   UNL     1     -10.767   9.316  68.377  1.00  0.00    -0.192 C  
ENDBRANCH   7   8
ENDBRANCH   6   7
ENDBRANCH   2   6
TORSDOF 3
ENDMDL
MODEL      109
REMARK 921   NORMALIZED FREE ENERGY PREDICTED BY IDOCK:   -3.52 KCAL/MOL
REMARK 922        TOTAL FREE ENERGY PREDICTED BY IDOCK:   -4.32 KCAL/MOL
REMARK 923 INTER-LIGAND FREE ENERGY PREDICTED BY IDOCK:   -4.23 KCAL/MOL
REMARK 924 INTRA-LIGAND FREE ENERGY PREDICTED BY IDOCK:   -0.09 KCAL/MOL
REMARK 927      BINDING AFFINITY PREDICTED BY RF-SCORE:    0.00 PKD
ROOT
HETATM    1  C   UNL     1     -10.188   5.005  69.719  1.00  0.00    -0.336 C  
HETATM    2  C   UNL     1     -10.940   5.806  70.773  1.00  0.00    -0.242 C  
HETATM    3  N   UNL     1     -10.149   5.948  71.998  1.00  0.00    -0.186 NA 
HETATM    4  H2  UNL     1      -9.231   6.350  71.807  1.00  0.00     0.000 HD 
HETATM    5  H1  UNL     1     -10.653   6.484  72.704  1.00  0.00     0.000 HD 
ENDROOT
BRANCH   2   6
HETATM    6  C   UNL     1     -11.428   7.164  70.237  1.00  0.00    -0.247 C  
BRANCH   6   7
HETATM    7  O   UNL     1     -10.722   8.306  70.706  1.00  0.00    -0.211 OA 
BRANCH   7   8
HETATM    8  C   UNL     1     -11.436   9.489  70.802  1.00  0.00    -0.310 A  
HETATM    9  C   UNL     1     -12.553   9.783  71.627  1.00  0.00    -0.509 A  
HETATM   10  C   UNL     1     -13.123  11.077  71.563  1.00  0.00    -0.500 A  
HETATM   11  C   UNL     1     -13.346   8.869  72.532  1.00  0.00    -0.451 C  
HETATM   12  C   UNL     1     -12.615  12.072  70.735  1.00  0.00    -0.312 A  
HETATM   13  C   UNL     1     -11.539  11.780  69.913  1.00  0.00    -0.351 A  
HETATM   14  C   UNL     1     -10.946  10.505  69.929  1.00  0.00    -0.359 A  
HETATM   15  C   UNL     1      -9.800  10.252  68.971  1.00  0.00    -0.215 C  
ENDBRANCH   7   8
ENDBRANCH   6   7
ENDBRANCH   2   6
TORSDOF 3
ENDMDL
MODEL      110
REMARK 921   NORMALIZED FREE ENERGY PREDICTED BY IDOCK:   -3.52 KCAL/MOL
REMARK 922        TOTAL FREE ENERGY PREDICTED BY IDOCK:   -4.32 KCAL/MOL
REMARK 923 INTER-LIGAND FREE ENERGY PREDICTED BY IDOCK:   -4.25 KCAL/MOL
REMARK 924 INTRA-LIGAND FREE ENERGY PREDICTED BY IDOCK:   -0.07 KCAL/MOL
REMARK 927      BINDING AFFINITY PREDICTED BY RF-SCORE:    0.00 PKD
ROOT
HETATM    1  C   UNL     1     -12.590  10.319  71.596  1.00  0.00    -0.534 C  
HETATM    2  C   UNL     1     -12.599   8.807  71.760  1.00  0.00    -0.356 C  
HETATM    3  N   UNL     1     -13.908   8.242  71.422  1.00  0.00    -0.560 NA 
HETATM    4  H2  UNL     1     -14.204   8.519  70.486  1.00  0.00     0.000 HD 
HETATM    5  H1  UNL     1     -13.914   7.229  71.532  1.00  0.00     0.000 HD 
ENDROOT
BRANCH   2   6
HETATM    6  C   UNL     1     -11.456   8.127  70.984  1.00  0.00    -0.279 C  
BRANCH   6   7
HETATM    7  O   UNL     1     -11.786   6.901  70.343  1.00  0.00    -0.342 OA 
BRANCH   7   8
HETATM    8  C   UNL     1     -10.956   5.821  70.592  1.00  0.00    -0.249 A  
HETATM    9  C   UNL     1     -10.602   5.247  71.841  1.00  0.00    -0.274 A  
HETATM   10  C   UNL     1      -9.735   4.129  71.854  1.00  0.00    -0.235 A  
HETATM   11  C   UNL     1     -10.926   5.718  73.241  1.00  0.00    -0.292 C  
HETATM   12  C   UNL     1      -9.234   3.564  70.687  1.00  0.00    -0.207 A  
HETATM   13  C   UNL     1      -9.561   4.136  69.468  1.00  0.00    -0.274 A  
HETATM   14  C   UNL     1     -10.407   5.257  69.402  1.00  0.00    -0.313 A  
HETATM   15  C   UNL     1     -10.684   5.848  68.035  1.00  0.00    -0.332 C  
ENDBRANCH   7   8
ENDBRANCH   6   7
ENDBRANCH   2   6
TORSDOF 3
ENDMDL
MODEL      111
REMARK 921   NORMALIZED FREE ENERGY PREDICTED BY IDOCK:   -3.52 KCAL/MOL
REMARK 922        TOTAL FREE ENERGY PREDICTED BY IDOCK:   -4.32 KCAL/MOL
REMARK 923 INTER-LIGAND FREE ENERGY PREDICTED BY IDOCK:   -4.21 KCAL/MOL
REMARK 924 INTRA-LIGAND FREE ENERGY PREDICTED BY IDOCK:   -0.11 KCAL/MOL
REMARK 927      BINDING AFFINITY PREDICTED BY RF-SCORE:    0.00 PKD
ROOT
HETATM    1  C   UNL     1      -6.768  16.321  69.074  1.00  0.00    -0.182 C  
HETATM    2  C   UNL     1      -6.461  15.986  67.621  1.00  0.00    -0.164 C  
HETATM    3  N   UNL     1      -5.715  14.730  67.511  1.00  0.00    -0.345 NA 
HETATM    4  H2  UNL     1      -6.201  13.964  67.977  1.00  0.00     0.000 HD 
HETATM    5  H1  UNL     1      -5.510  14.506  66.538  1.00  0.00     0.000 HD 
ENDROOT
BRANCH   2   6
HETATM    6  C   UNL     1      -7.724  15.990  66.740  1.00  0.00    -0.235 C  
BRANCH   6   7
HETATM    7  O   UNL     1      -7.860  17.096  65.857  1.00  0.00    -0.477 OA 
BRANCH   7   8
HETATM    8  C   UNL     1      -8.426  18.248  66.379  1.00  0.00    -0.244 A  
HETATM    9  C   UNL     1      -7.774  19.386  66.922  1.00  0.00    -0.270 A  
HETATM   10  C   UNL     1      -8.564  20.461  67.394  1.00  0.00    -0.403 A  
HETATM   11  C   UNL     1      -6.304  19.613  67.193  1.00  0.00    -0.203 C  
HETATM   12  C   UNL     1      -9.952  20.448  67.327  1.00  0.00    -0.564 A  
HETATM   13  C   UNL     1     -10.591  19.329  66.818  1.00  0.00    -0.543 A  
HETATM   14  C   UNL     1      -9.852  18.228  66.350  1.00  0.00    -0.358 A  
HETATM   15  C   UNL     1     -10.625  17.026  65.846  1.00  0.00    -0.221 C  
ENDBRANCH   7   8
ENDBRANCH   6   7
ENDBRANCH   2   6
TORSDOF 3
ENDMDL
MODEL      112
REMARK 921   NORMALIZED FREE ENERGY PREDICTED BY IDOCK:   -3.47 KCAL/MOL
REMARK 922        TOTAL FREE ENERGY PREDICTED BY IDOCK:   -4.26 KCAL/MOL
REMARK 923 INTER-LIGAND FREE ENERGY PREDICTED BY IDOCK:   -3.88 KCAL/MOL
REMARK 924 INTRA-LIGAND FREE ENERGY PREDICTED BY IDOCK:   -0.38 KCAL/MOL
REMARK 927      BINDING AFFINITY PREDICTED BY RF-SCORE:    0.00 PKD
ROOT
HETATM    1  C   UNL     1      -7.797   6.909  70.330  1.00  0.00    -0.109 C  
HETATM    2  C   UNL     1      -8.275   7.767  69.168  1.00  0.00    -0.129 C  
HETATM    3  N   UNL     1      -9.119   6.998  68.250  1.00  0.00    -0.127 NA 
HETATM    4  H2  UNL     1      -9.900   6.559  68.738  1.00  0.00     0.000 HD 
HETATM    5  H1  UNL     1      -9.439   7.573  67.472  1.00  0.00     0.000 HD 
ENDROOT
BRANCH   2   6
HETATM    6  C   UNL     1      -8.963   9.061  69.641  1.00  0.00    -0.153 C  
BRANCH   6   7
HETATM    7  O   UNL     1     -10.315   9.229  69.232  1.00  0.00    -0.202 OA 
BRANCH   7   8
HETATM    8  C   UNL     1     -11.255   9.400  70.235  1.00  0.00    -0.246 A  
HETATM    9  C   UNL     1     -11.748   8.441  71.159  1.00  0.00    -0.315 A  
HETATM   10  C   UNL     1     -12.712   8.848  72.112  1.00  0.00    -0.470 A  
HETATM   11  C   UNL     1     -11.484   6.955  71.233  1.00  0.00    -0.337 C  
HETATM   12  C   UNL     1     -13.177  10.156  72.186  1.00  0.00    -0.463 A  
HETATM   13  C   UNL     1     -12.714  11.088  71.272  1.00  0.00    -0.537 A  
HETATM   14  C   UNL     1     -11.767  10.730  70.295  1.00  0.00    -0.442 A  
HETATM   15  C   UNL     1     -11.341  11.796  69.307  1.00  0.00    -0.348 C  
ENDBRANCH   7   8
ENDBRANCH   6   7
ENDBRANCH   2   6
TORSDOF 3
ENDMDL
MODEL      113
REMARK 921   NORMALIZED FREE ENERGY PREDICTED BY IDOCK:   -3.45 KCAL/MOL
REMARK 922        TOTAL FREE ENERGY PREDICTED BY IDOCK:   -4.23 KCAL/MOL
REMARK 923 INTER-LIGAND FREE ENERGY PREDICTED BY IDOCK:   -4.14 KCAL/MOL
REMARK 924 INTRA-LIGAND FREE ENERGY PREDICTED BY IDOCK:   -0.10 KCAL/MOL
REMARK 927      BINDING AFFINITY PREDICTED BY RF-SCORE:    0.00 PKD
ROOT
HETATM    1  C   UNL     1      -8.690   7.322  72.321  1.00  0.00    -0.136 C  
HETATM    2  C   UNL     1      -9.280   8.527  71.603  1.00  0.00    -0.236 C  
HETATM    3  N   UNL     1      -8.250   9.527  71.308  1.00  0.00    -0.285 NA 
HETATM    4  H2  UNL     1      -7.474   9.123  70.785  1.00  0.00     0.000 HD 
HETATM    5  H1  UNL     1      -8.646  10.335  70.827  1.00  0.00     0.000 HD 
ENDROOT
BRANCH   2   6
HETATM    6  C   UNL     1     -10.076   8.128  70.347  1.00  0.00    -0.194 C  
BRANCH   6   7
HETATM    7  O   UNL     1     -11.452   8.488  70.346  1.00  0.00    -0.233 OA 
BRANCH   7   8
HETATM    8  C   UNL     1     -11.748   9.834  70.488  1.00  0.00    -0.268 A  
HETATM    9  C   UNL     1     -11.234  10.935  69.754  1.00  0.00    -0.351 A  
HETATM   10  C   UNL     1     -11.690  12.236  70.071  1.00  0.00    -0.319 A  
HETATM   11  C   UNL     1     -10.145  10.966  68.706  1.00  0.00    -0.205 C  
HETATM   12  C   UNL     1     -12.636  12.470  71.063  1.00  0.00    -0.350 A  
HETATM   13  C   UNL     1     -13.122  11.399  71.796  1.00  0.00    -0.523 A  
HETATM   14  C   UNL     1     -12.689  10.088  71.529  1.00  0.00    -0.532 A  
HETATM   15  C   UNL     1     -13.237   8.977  72.401  1.00  0.00    -0.507 C  
ENDBRANCH   7   8
ENDBRANCH   6   7
ENDBRANCH   2   6
TORSDOF 3
ENDMDL
MODEL      114
REMARK 921   NORMALIZED FREE ENERGY PREDICTED BY IDOCK:   -3.45 KCAL/MOL
REMARK 922        TOTAL FREE ENERGY PREDICTED BY IDOCK:   -4.23 KCAL/MOL
REMARK 923 INTER-LIGAND FREE ENERGY PREDICTED BY IDOCK:   -4.11 KCAL/MOL
REMARK 924 INTRA-LIGAND FREE ENERGY PREDICTED BY IDOCK:   -0.12 KCAL/MOL
REMARK 927      BINDING AFFINITY PREDICTED BY RF-SCORE:    0.00 PKD
ROOT
HETATM    1  C   UNL     1      -7.861   9.620  64.642  1.00  0.00    -0.133 C  
HETATM    2  C   UNL     1      -7.309  10.427  65.808  1.00  0.00    -0.147 C  
HETATM    3  N   UNL     1      -6.094  11.150  65.427  1.00  0.00    -0.400 NA 
HETATM    4  H2  UNL     1      -6.249  11.736  64.606  1.00  0.00     0.000 HD 
HETATM    5  H1  UNL     1      -5.724  11.691  66.208  1.00  0.00     0.000 HD 
ENDROOT
BRANCH   2   6
HETATM    6  C   UNL     1      -8.367  11.358  66.428  1.00  0.00    -0.140 C  
BRANCH   6   7
HETATM    7  O   UNL     1      -9.713  10.906  66.351  1.00  0.00    -0.190 OA 
BRANCH   7   8
HETATM    8  C   UNL     1     -10.662  11.829  65.943  1.00  0.00    -0.282 A  
HETATM    9  C   UNL     1     -11.077  12.146  64.623  1.00  0.00    -0.366 A  
HETATM   10  C   UNL     1     -12.079  13.129  64.444  1.00  0.00    -0.471 A  
HETATM   11  C   UNL     1     -10.527  11.663  63.301  1.00  0.00    -0.438 C  
HETATM   12  C   UNL     1     -12.682  13.779  65.515  1.00  0.00    -0.530 A  
HETATM   13  C   UNL     1     -12.262  13.487  66.802  1.00  0.00    -0.392 A  
HETATM   14  C   UNL     1     -11.259  12.529  67.033  1.00  0.00    -0.353 A  
HETATM   15  C   UNL     1     -10.827  12.296  68.466  1.00  0.00    -0.267 C  
ENDBRANCH   7   8
ENDBRANCH   6   7
ENDBRANCH   2   6
TORSDOF 3
ENDMDL
MODEL      115
REMARK 921   NORMALIZED FREE ENERGY PREDICTED BY IDOCK:   -3.41 KCAL/MOL
REMARK 922        TOTAL FREE ENERGY PREDICTED BY IDOCK:   -4.18 KCAL/MOL
REMARK 923 INTER-LIGAND FREE ENERGY PREDICTED BY IDOCK:   -3.95 KCAL/MOL
REMARK 924 INTRA-LIGAND FREE ENERGY PREDICTED BY IDOCK:   -0.23 KCAL/MOL
REMARK 927      BINDING AFFINITY PREDICTED BY RF-SCORE:    0.00 PKD
ROOT
HETATM    1  C   UNL     1     -10.714  12.619  64.556  1.00  0.00    -0.368 C  
HETATM    2  C   UNL     1     -11.588  13.056  65.722  1.00  0.00    -0.356 C  
HETATM    3  N   UNL     1     -12.864  13.605  65.254  1.00  0.00    -0.723 NA 
HETATM    4  H2  UNL     1     -13.353  12.949  64.644  1.00  0.00     0.000 HD 
HETATM    5  H1  UNL     1     -13.449  13.898  66.035  1.00  0.00     0.000 HD 
ENDROOT
BRANCH   2   6
HETATM    6  C   UNL     1     -11.786  11.935  66.758  1.00  0.00    -0.202 C  
BRANCH   6   7
HETATM    7  O   UNL     1     -11.419  12.254  68.095  1.00  0.00    -0.270 OA 
BRANCH   7   8
HETATM    8  C   UNL     1     -10.548  11.385  68.730  1.00  0.00    -0.204 A  
HETATM    9  C   UNL     1      -9.182  11.133  68.439  1.00  0.00    -0.175 A  
HETATM   10  C   UNL     1      -8.479  10.198  69.236  1.00  0.00    -0.167 A  
HETATM   11  C   UNL     1      -8.333  11.641  67.296  1.00  0.00    -0.158 C  
HETATM   12  C   UNL     1      -9.075   9.534  70.302  1.00  0.00    -0.296 A  
HETATM   13  C   UNL     1     -10.414   9.762  70.574  1.00  0.00    -0.366 A  
HETATM   14  C   UNL     1     -11.160  10.671  69.802  1.00  0.00    -0.358 A  
HETATM   15  C   UNL     1     -12.629  10.835  70.136  1.00  0.00    -0.309 C  
ENDBRANCH   7   8
ENDBRANCH   6   7
ENDBRANCH   2   6
TORSDOF 3
ENDMDL
MODEL      116
REMARK 921   NORMALIZED FREE ENERGY PREDICTED BY IDOCK:   -3.38 KCAL/MOL
REMARK 922        TOTAL FREE ENERGY PREDICTED BY IDOCK:   -4.16 KCAL/MOL
REMARK 923 INTER-LIGAND FREE ENERGY PREDICTED BY IDOCK:   -4.08 KCAL/MOL
REMARK 924 INTRA-LIGAND FREE ENERGY PREDICTED BY IDOCK:   -0.08 KCAL/MOL
REMARK 927      BINDING AFFINITY PREDICTED BY RF-SCORE:    0.00 PKD
ROOT
HETATM    1  C   UNL     1      -9.492  11.647  66.339  1.00  0.00    -0.232 C  
HETATM    2  C   UNL     1     -10.535  12.411  67.142  1.00  0.00    -0.219 C  
HETATM    3  N   UNL     1     -11.348  13.270  66.277  1.00  0.00    -0.301 NA 
HETATM    4  H2  UNL     1     -11.775  12.740  65.517  1.00  0.00     0.000 HD 
HETATM    5  H1  UNL     1     -12.047  13.782  66.815  1.00  0.00     0.000 HD 
ENDROOT
BRANCH   2   6
HETATM    6  C   UNL     1     -11.400  11.482  68.013  1.00  0.00    -0.298 C  
BRANCH   6   7
HETATM    7  O   UNL     1     -11.155  11.539  69.413  1.00  0.00    -0.247 OA 
BRANCH   7   8
HETATM    8  C   UNL     1     -11.542  10.441  70.162  1.00  0.00    -0.312 A  
HETATM    9  C   UNL     1     -11.145   9.085  70.015  1.00  0.00    -0.197 A  
HETATM   10  C   UNL     1     -11.669   8.123  70.910  1.00  0.00    -0.259 A  
HETATM   11  C   UNL     1     -10.296   8.444  68.942  1.00  0.00    -0.231 C  
HETATM   12  C   UNL     1     -12.542   8.462  71.938  1.00  0.00    -0.389 A  
HETATM   13  C   UNL     1     -12.948   9.780  72.069  1.00  0.00    -0.515 A  
HETATM   14  C   UNL     1     -12.467  10.772  71.196  1.00  0.00    -0.519 A  
HETATM   15  C   UNL     1     -12.990  12.182  71.379  1.00  0.00    -0.357 C  
ENDBRANCH   7   8
ENDBRANCH   6   7
ENDBRANCH   2   6
TORSDOF 3
ENDMDL
MODEL      117
REMARK 921   NORMALIZED FREE ENERGY PREDICTED BY IDOCK:   -3.36 KCAL/MOL
REMARK 922        TOTAL FREE ENERGY PREDICTED BY IDOCK:   -4.14 KCAL/MOL
REMARK 923 INTER-LIGAND FREE ENERGY PREDICTED BY IDOCK:   -4.11 KCAL/MOL
REMARK 924 INTRA-LIGAND FREE ENERGY PREDICTED BY IDOCK:   -0.02 KCAL/MOL
REMARK 927      BINDING AFFINITY PREDICTED BY RF-SCORE:    0.00 PKD
ROOT
HETATM    1  C   UNL     1      -9.802   6.385  70.799  1.00  0.00    -0.206 C  
HETATM    2  C   UNL     1     -10.495   6.871  69.535  1.00  0.00    -0.223 C  
HETATM    3  N   UNL     1     -11.950   6.729  69.638  1.00  0.00    -0.605 NA 
HETATM    4  H2  UNL     1     -12.314   7.197  70.468  1.00  0.00     0.000 HD 
HETATM    5  H1  UNL     1     -12.415   7.054  68.791  1.00  0.00     0.000 HD 
ENDROOT
BRANCH   2   6
HETATM    6  C   UNL     1     -10.078   8.302  69.151  1.00  0.00    -0.202 C  
BRANCH   6   7
HETATM    7  O   UNL     1     -10.733   8.855  68.016  1.00  0.00    -0.200 OA 
BRANCH   7   8
HETATM    8  C   UNL     1     -10.962  10.221  68.028  1.00  0.00    -0.289 A  
HETATM    9  C   UNL     1     -11.482  11.020  69.080  1.00  0.00    -0.368 A  
HETATM   10  C   UNL     1     -11.623  12.413  68.869  1.00  0.00    -0.364 A  
HETATM   11  C   UNL     1     -12.040  10.600  70.420  1.00  0.00    -0.430 C  
HETATM   12  C   UNL     1     -11.253  13.024  67.676  1.00  0.00    -0.315 A  
HETATM   13  C   UNL     1     -10.766  12.242  66.641  1.00  0.00    -0.276 A  
HETATM   14  C   UNL     1     -10.620  10.852  66.796  1.00  0.00    -0.313 A  
HETATM   15  C   UNL     1     -10.119  10.062  65.605  1.00  0.00    -0.321 C  
ENDBRANCH   7   8
ENDBRANCH   6   7
ENDBRANCH   2   6
TORSDOF 3
ENDMDL
MODEL      118
REMARK 921   NORMALIZED FREE ENERGY PREDICTED BY IDOCK:   -3.36 KCAL/MOL
REMARK 922        TOTAL FREE ENERGY PREDICTED BY IDOCK:   -4.13 KCAL/MOL
REMARK 923 INTER-LIGAND FREE ENERGY PREDICTED BY IDOCK:   -3.87 KCAL/MOL
REMARK 924 INTRA-LIGAND FREE ENERGY PREDICTED BY IDOCK:   -0.26 KCAL/MOL
REMARK 927      BINDING AFFINITY PREDICTED BY RF-SCORE:    0.00 PKD
ROOT
HETATM    1  C   UNL     1      -9.136  13.266  67.162  1.00  0.00    -0.231 C  
HETATM    2  C   UNL     1      -9.998  14.270  66.412  1.00  0.00    -0.292 C  
HETATM    3  N   UNL     1     -11.402  14.176  66.820  1.00  0.00    -0.330 NA 
HETATM    4  H2  UNL     1     -11.506  14.275  67.830  1.00  0.00     0.000 HD 
HETATM    5  H1  UNL     1     -11.979  14.849  66.316  1.00  0.00     0.000 HD 
ENDROOT
BRANCH   2   6
HETATM    6  C   UNL     1      -9.456  15.707  66.525  1.00  0.00    -0.274 C  
BRANCH   6   7
HETATM    7  O   UNL     1      -9.772  16.395  67.729  1.00  0.00    -0.231 OA 
BRANCH   7   8
HETATM    8  C   UNL     1      -8.860  17.342  68.166  1.00  0.00    -0.239 A  
HETATM    9  C   UNL     1      -7.584  17.136  68.754  1.00  0.00    -0.259 A  
HETATM   10  C   UNL     1      -6.814  18.265  69.119  1.00  0.00    -0.247 A  
HETATM   11  C   UNL     1      -6.918  15.847  69.176  1.00  0.00    -0.176 C  
HETATM   12  C   UNL     1      -7.256  19.566  68.905  1.00  0.00    -0.397 A  
HETATM   13  C   UNL     1      -8.510  19.769  68.352  1.00  0.00    -0.295 A  
HETATM   14  C   UNL     1      -9.320  18.680  67.985  1.00  0.00    -0.340 A  
HETATM   15  C   UNL     1     -10.694  18.985  67.425  1.00  0.00    -0.559 C  
ENDBRANCH   7   8
ENDBRANCH   6   7
ENDBRANCH   2   6
TORSDOF 3
ENDMDL
MODEL      119
REMARK 921   NORMALIZED FREE ENERGY PREDICTED BY IDOCK:   -3.35 KCAL/MOL
REMARK 922        TOTAL FREE ENERGY PREDICTED BY IDOCK:   -4.12 KCAL/MOL
REMARK 923 INTER-LIGAND FREE ENERGY PREDICTED BY IDOCK:   -4.16 KCAL/MOL
REMARK 924 INTRA-LIGAND FREE ENERGY PREDICTED BY IDOCK:    0.04 KCAL/MOL
REMARK 927      BINDING AFFINITY PREDICTED BY RF-SCORE:    0.00 PKD
ROOT
HETATM    1  C   UNL     1      -6.760  13.663  67.637  1.00  0.00    -0.185 C  
HETATM    2  C   UNL     1      -7.741  13.896  68.776  1.00  0.00    -0.096 C  
HETATM    3  N   UNL     1      -7.057  14.381  69.977  1.00  0.00    -0.393 NA 
HETATM    4  H2  UNL     1      -6.505  15.216  69.782  1.00  0.00     0.000 HD 
HETATM    5  H1  UNL     1      -7.714  14.536  70.741  1.00  0.00     0.000 HD 
ENDROOT
BRANCH   2   6
HETATM    6  C   UNL     1      -8.909  14.811  68.366  1.00  0.00    -0.181 C  
BRANCH   6   7
HETATM    7  O   UNL     1     -10.194  14.202  68.341  1.00  0.00    -0.234 OA 
BRANCH   7   8
HETATM    8  C   UNL     1     -10.798  14.064  67.102  1.00  0.00    -0.286 A  
HETATM    9  C   UNL     1     -10.825  14.987  66.024  1.00  0.00    -0.334 A  
HETATM   10  C   UNL     1     -11.503  14.624  64.836  1.00  0.00    -0.401 A  
HETATM   11  C   UNL     1     -10.314  16.408  65.963  1.00  0.00    -0.365 C  
HETATM   12  C   UNL     1     -12.128  13.392  64.684  1.00  0.00    -0.456 A  
HETATM   13  C   UNL     1     -12.122  12.499  65.743  1.00  0.00    -0.443 A  
HETATM   14  C   UNL     1     -11.474  12.817  66.950  1.00  0.00    -0.396 A  
HETATM   15  C   UNL     1     -11.548  11.805  68.075  1.00  0.00    -0.386 C  
ENDBRANCH   7   8
ENDBRANCH   6   7
ENDBRANCH   2   6
TORSDOF 3
ENDMDL
MODEL      120
REMARK 921   NORMALIZED FREE ENERGY PREDICTED BY IDOCK:   -3.33 KCAL/MOL
REMARK 922        TOTAL FREE ENERGY PREDICTED BY IDOCK:   -4.10 KCAL/MOL
REMARK 923 INTER-LIGAND FREE ENERGY PREDICTED BY IDOCK:   -3.92 KCAL/MOL
REMARK 924 INTRA-LIGAND FREE ENERGY PREDICTED BY IDOCK:   -0.17 KCAL/MOL
REMARK 927      BINDING AFFINITY PREDICTED BY RF-SCORE:    0.00 PKD
ROOT
HETATM    1  C   UNL     1     -11.824  12.820  67.822  1.00  0.00    -0.387 C  
HETATM    2  C   UNL     1     -11.620  12.452  69.284  1.00  0.00    -0.319 C  
HETATM    3  N   UNL     1     -12.356  13.359  70.169  1.00  0.00    -0.287 NA 
HETATM    4  H2  UNL     1     -13.346  13.396  69.927  1.00  0.00     0.000 HD 
HETATM    5  H1  UNL     1     -12.219  13.112  71.149  1.00  0.00     0.000 HD 
ENDROOT
BRANCH   2   6
HETATM    6  C   UNL     1     -11.947  10.975  69.567  1.00  0.00    -0.342 C  
BRANCH   6   7
HETATM    7  O   UNL     1     -10.872  10.186  70.063  1.00  0.00    -0.266 OA 
BRANCH   7   8
HETATM    8  C   UNL     1     -11.033   8.811  70.021  1.00  0.00    -0.209 A  
HETATM    9  C   UNL     1     -11.821   7.986  70.866  1.00  0.00    -0.236 A  
HETATM   10  C   UNL     1     -11.841   6.592  70.628  1.00  0.00    -0.398 A  
HETATM   11  C   UNL     1     -12.602   8.352  72.108  1.00  0.00    -0.412 C  
HETATM   12  C   UNL     1     -11.130   6.006  69.587  1.00  0.00    -0.474 A  
HETATM   13  C   UNL     1     -10.343   6.805  68.775  1.00  0.00    -0.211 A  
HETATM   14  C   UNL     1     -10.278   8.195  68.979  1.00  0.00    -0.228 A  
HETATM   15  C   UNL     1      -9.363   8.995  68.075  1.00  0.00    -0.153 C  
ENDBRANCH   7   8
ENDBRANCH   6   7
ENDBRANCH   2   6
TORSDOF 3
ENDMDL
MODEL      121
REMARK 921   NORMALIZED FREE ENERGY PREDICTED BY IDOCK:   -3.30 KCAL/MOL
REMARK 922        TOTAL FREE ENERGY PREDICTED BY IDOCK:   -4.06 KCAL/MOL
REMARK 923 INTER-LIGAND FREE ENERGY PREDICTED BY IDOCK:   -3.94 KCAL/MOL
REMARK 924 INTRA-LIGAND FREE ENERGY PREDICTED BY IDOCK:   -0.12 KCAL/MOL
REMARK 927      BINDING AFFINITY PREDICTED BY RF-SCORE:    0.00 PKD
ROOT
HETATM    1  C   UNL     1      -7.601  15.448  69.268  1.00  0.00    -0.216 C  
HETATM    2  C   UNL     1      -9.026  15.387  68.737  1.00  0.00    -0.196 C  
HETATM    3  N   UNL     1      -9.241  16.372  67.674  1.00  0.00    -0.199 NA 
HETATM    4  H2  UNL     1      -8.557  16.269  66.924  1.00  0.00     0.000 HD 
HETATM    5  H1  UNL     1     -10.196  16.332  67.319  1.00  0.00     0.000 HD 
ENDROOT
BRANCH   2   6
HETATM    6  C   UNL     1      -9.429  13.967  68.301  1.00  0.00    -0.216 C  
BRANCH   6   7
HETATM    7  O   UNL     1     -10.822  13.744  68.124  1.00  0.00    -0.235 OA 
BRANCH   7   8
HETATM    8  C   UNL     1     -11.486  13.087  69.147  1.00  0.00    -0.299 A  
HETATM    9  C   UNL     1     -11.945  13.612  70.384  1.00  0.00    -0.372 A  
HETATM   10  C   UNL     1     -12.613  12.747  71.282  1.00  0.00    -0.347 A  
HETATM   11  C   UNL     1     -11.737  14.984  70.981  1.00  0.00    -0.379 C  
HETATM   12  C   UNL     1     -12.851  11.409  70.987  1.00  0.00    -0.381 A  
HETATM   13  C   UNL     1     -12.384  10.890  69.791  1.00  0.00    -0.326 A  
HETATM   14  C   UNL     1     -11.702  11.705  68.870  1.00  0.00    -0.397 A  
HETATM   15  C   UNL     1     -11.188  11.053  67.603  1.00  0.00    -0.373 C  
ENDBRANCH   7   8
ENDBRANCH   6   7
ENDBRANCH   2   6
TORSDOF 3
ENDMDL
MODEL      122
REMARK 921   NORMALIZED FREE ENERGY PREDICTED BY IDOCK:   -3.28 KCAL/MOL
REMARK 922        TOTAL FREE ENERGY PREDICTED BY IDOCK:   -4.03 KCAL/MOL
REMARK 923 INTER-LIGAND FREE ENERGY PREDICTED BY IDOCK:   -3.84 KCAL/MOL
REMARK 924 INTRA-LIGAND FREE ENERGY PREDICTED BY IDOCK:   -0.20 KCAL/MOL
REMARK 927      BINDING AFFINITY PREDICTED BY RF-SCORE:    0.00 PKD
ROOT
HETATM    1  C   UNL     1      -6.106  13.894  69.781  1.00  0.00    -0.129 C  
HETATM    2  C   UNL     1      -6.405  15.050  68.838  1.00  0.00    -0.090 C  
HETATM    3  N   UNL     1      -5.578  14.979  67.630  1.00  0.00    -0.325 NA 
HETATM    4  H2  UNL     1      -5.677  14.079  67.161  1.00  0.00     0.000 HD 
HETATM    5  H1  UNL     1      -5.778  15.754  66.999  1.00  0.00     0.000 HD 
ENDROOT
BRANCH   2   6
HETATM    6  C   UNL     1      -7.904  15.165  68.508  1.00  0.00    -0.135 C  
BRANCH   6   7
HETATM    7  O   UNL     1      -8.642  16.094  69.291  1.00  0.00    -0.250 OA 
BRANCH   7   8
HETATM    8  C   UNL     1      -8.941  17.312  68.702  1.00  0.00    -0.265 A  
HETATM    9  C   UNL     1      -8.094  18.437  68.518  1.00  0.00    -0.340 A  
HETATM   10  C   UNL     1      -8.618  19.584  67.876  1.00  0.00    -0.357 A  
HETATM   11  C   UNL     1      -6.685  18.669  69.013  1.00  0.00    -0.296 C  
HETATM   12  C   UNL     1      -9.925  19.639  67.404  1.00  0.00    -0.510 A  
HETATM   13  C   UNL     1     -10.759  18.550  67.602  1.00  0.00    -0.405 A  
HETATM   14  C   UNL     1     -10.290  17.392  68.248  1.00  0.00    -0.374 A  
HETATM   15  C   UNL     1     -11.275  16.261  68.463  1.00  0.00    -0.359 C  
ENDBRANCH   7   8
ENDBRANCH   6   7
ENDBRANCH   2   6
TORSDOF 3
ENDMDL
MODEL      123
REMARK 921   NORMALIZED FREE ENERGY PREDICTED BY IDOCK:   -3.27 KCAL/MOL
REMARK 922        TOTAL FREE ENERGY PREDICTED BY IDOCK:   -4.02 KCAL/MOL
REMARK 923 INTER-LIGAND FREE ENERGY PREDICTED BY IDOCK:   -3.94 KCAL/MOL
REMARK 924 INTRA-LIGAND FREE ENERGY PREDICTED BY IDOCK:   -0.09 KCAL/MOL
REMARK 927      BINDING AFFINITY PREDICTED BY RF-SCORE:    0.00 PKD
ROOT
HETATM    1  C   UNL     1     -10.691  19.779  65.818  1.00  0.00    -0.474 C  
HETATM    2  C   UNL     1     -10.633  18.273  66.031  1.00  0.00    -0.296 C  
HETATM    3  N   UNL     1     -10.935  17.549  64.794  1.00  0.00    -0.763 NA 
HETATM    4  H2  UNL     1     -10.326  17.842  64.030  1.00  0.00     0.000 HD 
HETATM    5  H1  UNL     1     -10.896  16.540  64.937  1.00  0.00     0.000 HD 
ENDROOT
BRANCH   2   6
HETATM    6  C   UNL     1      -9.301  17.821  66.657  1.00  0.00    -0.287 C  
BRANCH   6   7
HETATM    7  O   UNL     1      -9.241  17.853  68.078  1.00  0.00    -0.255 OA 
BRANCH   7   8
HETATM    8  C   UNL     1      -8.021  17.553  68.660  1.00  0.00    -0.268 A  
HETATM    9  C   UNL     1      -6.892  18.397  68.832  1.00  0.00    -0.278 A  
HETATM   10  C   UNL     1      -5.742  17.873  69.469  1.00  0.00    -0.229 A  
HETATM   11  C   UNL     1      -6.658  19.803  68.328  1.00  0.00    -0.303 C  
HETATM   12  C   UNL     1      -5.688  16.569  69.948  1.00  0.00    -0.201 A  
HETATM   13  C   UNL     1      -6.781  15.737  69.761  1.00  0.00    -0.140 A  
HETATM   14  C   UNL     1      -7.942  16.206  69.121  1.00  0.00    -0.233 A  
HETATM   15  C   UNL     1      -9.077  15.224  68.919  1.00  0.00    -0.209 C  
ENDBRANCH   7   8
ENDBRANCH   6   7
ENDBRANCH   2   6
TORSDOF 3
ENDMDL
MODEL      124
REMARK 921   NORMALIZED FREE ENERGY PREDICTED BY IDOCK:   -3.26 KCAL/MOL
REMARK 922        TOTAL FREE ENERGY PREDICTED BY IDOCK:   -4.02 KCAL/MOL
REMARK 923 INTER-LIGAND FREE ENERGY PREDICTED BY IDOCK:   -4.02 KCAL/MOL
REMARK 924 INTRA-LIGAND FREE ENERGY PREDICTED BY IDOCK:    0.00 KCAL/MOL
REMARK 927      BINDING AFFINITY PREDICTED BY RF-SCORE:    0.00 PKD
ROOT
HETATM    1  C   UNL     1      -7.151  14.244  68.592  1.00  0.00    -0.111 C  
HETATM    2  C   UNL     1      -8.495  14.539  67.943  1.00  0.00    -0.161 C  
HETATM    3  N   UNL     1      -8.336  14.910  66.534  1.00  0.00    -0.391 NA 
HETATM    4  H2  UNL     1      -7.818  14.199  66.016  1.00  0.00     0.000 HD 
HETATM    5  H1  UNL     1      -9.237  15.108  66.100  1.00  0.00     0.000 HD 
ENDROOT
BRANCH   2   6
HETATM    6  C   UNL     1      -9.501  13.389  68.129  1.00  0.00    -0.218 C  
BRANCH   6   7
HETATM    7  O   UNL     1     -10.872  13.765  68.164  1.00  0.00    -0.235 OA 
BRANCH   7   8
HETATM    8  C   UNL     1     -11.370  14.206  69.379  1.00  0.00    -0.272 A  
HETATM    9  C   UNL     1     -11.346  15.518  69.921  1.00  0.00    -0.323 A  
HETATM   10  C   UNL     1     -11.929  15.740  71.190  1.00  0.00    -0.469 A  
HETATM   11  C   UNL     1     -10.673  16.764  69.391  1.00  0.00    -0.300 C  
HETATM   12  C   UNL     1     -12.540  14.723  71.915  1.00  0.00    -0.404 A  
HETATM   13  C   UNL     1     -12.545  13.438  71.398  1.00  0.00    -0.374 A  
HETATM   14  C   UNL     1     -11.966  13.162  70.147  1.00  0.00    -0.381 A  
HETATM   15  C   UNL     1     -11.976  11.725  69.669  1.00  0.00    -0.378 C  
ENDBRANCH   7   8
ENDBRANCH   6   7
ENDBRANCH   2   6
TORSDOF 3
ENDMDL
MODEL      125
REMARK 921   NORMALIZED FREE ENERGY PREDICTED BY IDOCK:   -3.24 KCAL/MOL
REMARK 922        TOTAL FREE ENERGY PREDICTED BY IDOCK:   -3.99 KCAL/MOL
REMARK 923 INTER-LIGAND FREE ENERGY PREDICTED BY IDOCK:   -3.78 KCAL/MOL
REMARK 924 INTRA-LIGAND FREE ENERGY PREDICTED BY IDOCK:   -0.21 KCAL/MOL
REMARK 927      BINDING AFFINITY PREDICTED BY RF-SCORE:    0.00 PKD
ROOT
HETATM    1  C   UNL     1      -7.389   6.830  65.732  1.00  0.00    -0.075 C  
HETATM    2  C   UNL     1      -8.043   7.929  64.908  1.00  0.00    -0.144 C  
HETATM    3  N   UNL     1      -8.489   7.424  63.607  1.00  0.00    -0.348 NA 
HETATM    4  H2  UNL     1      -9.103   6.617  63.708  1.00  0.00     0.000 HD 
HETATM    5  H1  UNL     1      -8.927   8.161  63.054  1.00  0.00     0.000 HD 
ENDROOT
BRANCH   2   6
HETATM    6  C   UNL     1      -9.175   8.639  65.673  1.00  0.00    -0.139 C  
BRANCH   6   7
HETATM    7  O   UNL     1      -8.971  10.021  65.940  1.00  0.00    -0.145 OA 
BRANCH   7   8
HETATM    8  C   UNL     1     -10.002  10.882  65.607  1.00  0.00    -0.251 A  
HETATM    9  C   UNL     1     -10.432  11.291  64.317  1.00  0.00    -0.419 A  
HETATM   10  C   UNL     1     -11.526  12.182  64.215  1.00  0.00    -0.437 A  
HETATM   11  C   UNL     1      -9.821  11.003  62.965  1.00  0.00    -0.370 C  
HETATM   12  C   UNL     1     -12.204  12.656  65.333  1.00  0.00    -0.517 A  
HETATM   13  C   UNL     1     -11.772  12.277  66.593  1.00  0.00    -0.417 A  
HETATM   14  C   UNL     1     -10.681  11.404  66.748  1.00  0.00    -0.316 A  
HETATM   15  C   UNL     1     -10.244  11.069  68.160  1.00  0.00    -0.201 C  
ENDBRANCH   7   8
ENDBRANCH   6   7
ENDBRANCH   2   6
TORSDOF 3
ENDMDL
MODEL      126
REMARK 921   NORMALIZED FREE ENERGY PREDICTED BY IDOCK:   -3.23 KCAL/MOL
REMARK 922        TOTAL FREE ENERGY PREDICTED BY IDOCK:   -3.98 KCAL/MOL
REMARK 923 INTER-LIGAND FREE ENERGY PREDICTED BY IDOCK:   -3.89 KCAL/MOL
REMARK 924 INTRA-LIGAND FREE ENERGY PREDICTED BY IDOCK:   -0.08 KCAL/MOL
REMARK 927      BINDING AFFINITY PREDICTED BY RF-SCORE:    0.00 PKD
ROOT
HETATM    1  C   UNL     1      -9.301  10.301  65.760  1.00  0.00    -0.233 C  
HETATM    2  C   UNL     1     -10.709  10.229  66.333  1.00  0.00    -0.033 C  
HETATM    3  N   UNL     1     -10.993   8.901  66.883  1.00  0.00    -0.166 NA 
HETATM    4  H2  UNL     1     -10.294   8.624  67.572  1.00  0.00     0.000 HD 
HETATM    5  H1  UNL     1     -11.936   8.853  67.266  1.00  0.00     0.000 HD 
ENDROOT
BRANCH   2   6
HETATM    6  C   UNL     1     -10.984  11.349  67.352  1.00  0.00    -0.273 C  
BRANCH   6   7
HETATM    7  O   UNL     1     -10.664  11.049  68.705  1.00  0.00    -0.180 OA 
BRANCH   7   8
HETATM    8  C   UNL     1     -11.424  11.670  69.682  1.00  0.00    -0.288 A  
HETATM    9  C   UNL     1     -11.679  13.056  69.855  1.00  0.00    -0.326 A  
HETATM   10  C   UNL     1     -12.502  13.467  70.931  1.00  0.00    -0.439 A  
HETATM   11  C   UNL     1     -11.105  14.239  69.109  1.00  0.00    -0.291 C  
HETATM   12  C   UNL     1     -13.081  12.559  71.810  1.00  0.00    -0.450 A  
HETATM   13  C   UNL     1     -12.816  11.208  71.656  1.00  0.00    -0.524 A  
HETATM   14  C   UNL     1     -11.993  10.751  70.611  1.00  0.00    -0.466 A  
HETATM   15  C   UNL     1     -11.718   9.263  70.535  1.00  0.00    -0.225 C  
ENDBRANCH   7   8
ENDBRANCH   6   7
ENDBRANCH   2   6
TORSDOF 3
ENDMDL
MODEL      127
REMARK 921   NORMALIZED FREE ENERGY PREDICTED BY IDOCK:   -3.23 KCAL/MOL
REMARK 922        TOTAL FREE ENERGY PREDICTED BY IDOCK:   -3.98 KCAL/MOL
REMARK 923 INTER-LIGAND FREE ENERGY PREDICTED BY IDOCK:   -3.77 KCAL/MOL
REMARK 924 INTRA-LIGAND FREE ENERGY PREDICTED BY IDOCK:   -0.21 KCAL/MOL
REMARK 927      BINDING AFFINITY PREDICTED BY RF-SCORE:    0.00 PKD
ROOT
HETATM    1  C   UNL     1     -11.124  15.032  68.784  1.00  0.00    -0.269 C  
HETATM    2  C   UNL     1     -11.959  14.105  67.913  1.00  0.00    -0.343 C  
HETATM    3  N   UNL     1     -11.755  14.386  66.489  1.00  0.00    -0.383 NA 
HETATM    4  H2  UNL     1     -10.767  14.347  66.238  1.00  0.00     0.000 HD 
HETATM    5  H1  UNL     1     -12.315  13.765  65.906  1.00  0.00     0.000 HD 
ENDROOT
BRANCH   2   6
HETATM    6  C   UNL     1     -11.729  12.621  68.249  1.00  0.00    -0.342 C  
BRANCH   6   7
HETATM    7  O   UNL     1     -10.414  12.130  68.021  1.00  0.00    -0.200 OA 
BRANCH   7   8
HETATM    8  C   UNL     1     -10.284  10.770  67.794  1.00  0.00    -0.182 A  
HETATM    9  C   UNL     1     -10.372   9.704  68.728  1.00  0.00    -0.233 A  
HETATM   10  C   UNL     1     -10.213   8.377  68.263  1.00  0.00    -0.244 A  
HETATM   11  C   UNL     1     -10.509   9.755  70.232  1.00  0.00    -0.345 C  
HETATM   12  C   UNL     1      -9.992   8.082  66.923  1.00  0.00    -0.338 A  
HETATM   13  C   UNL     1      -9.883   9.121  66.013  1.00  0.00    -0.342 A  
HETATM   14  C   UNL     1     -10.020  10.458  66.427  1.00  0.00    -0.277 A  
HETATM   15  C   UNL     1      -9.848  11.539  65.379  1.00  0.00    -0.271 C  
ENDBRANCH   7   8
ENDBRANCH   6   7
ENDBRANCH   2   6
TORSDOF 3
ENDMDL
MODEL      128
REMARK 921   NORMALIZED FREE ENERGY PREDICTED BY IDOCK:   -3.21 KCAL/MOL
REMARK 922        TOTAL FREE ENERGY PREDICTED BY IDOCK:   -3.96 KCAL/MOL
REMARK 923 INTER-LIGAND FREE ENERGY PREDICTED BY IDOCK:   -3.90 KCAL/MOL
REMARK 924 INTRA-LIGAND FREE ENERGY PREDICTED BY IDOCK:   -0.05 KCAL/MOL
REMARK 927      BINDING AFFINITY PREDICTED BY RF-SCORE:    0.00 PKD
ROOT
HETATM    1  C   UNL     1      -9.646   4.641  67.761  1.00  0.00    -0.203 C  
HETATM    2  C   UNL     1     -10.120   6.073  67.565  1.00  0.00    -0.159 C  
HETATM    3  N   UNL     1     -11.009   6.186  66.406  1.00  0.00    -0.680 NA 
HETATM    4  H2  UNL     1     -11.794   5.537  66.471  1.00  0.00     0.000 HD 
HETATM    5  H1  UNL     1     -11.326   7.146  66.274  1.00  0.00     0.000 HD 
ENDROOT
BRANCH   2   6
HETATM    6  C   UNL     1     -10.753   6.660  68.840  1.00  0.00    -0.264 C  
BRANCH   6   7
HETATM    7  O   UNL     1     -11.011   5.733  69.887  1.00  0.00    -0.344 OA 
BRANCH   7   8
HETATM    8  C   UNL     1     -10.822   6.183  71.183  1.00  0.00    -0.270 A  
HETATM    9  C   UNL     1     -11.323   7.365  71.790  1.00  0.00    -0.287 A  
HETATM   10  C   UNL     1     -11.005   7.619  73.145  1.00  0.00    -0.411 A  
HETATM   11  C   UNL     1     -12.092   8.510  71.173  1.00  0.00    -0.283 C  
HETATM   12  C   UNL     1     -10.235   6.745  73.904  1.00  0.00    -0.396 A  
HETATM   13  C   UNL     1      -9.727   5.603  73.307  1.00  0.00    -0.158 A  
HETATM   14  C   UNL     1     -10.003   5.312  71.959  1.00  0.00    -0.238 A  
HETATM   15  C   UNL     1      -9.377   4.065  71.368  1.00  0.00    -0.212 C  
ENDBRANCH   7   8
ENDBRANCH   6   7
ENDBRANCH   2   6
TORSDOF 3
ENDMDL
MODEL      129
REMARK 921   NORMALIZED FREE ENERGY PREDICTED BY IDOCK:   -3.20 KCAL/MOL
REMARK 922        TOTAL FREE ENERGY PREDICTED BY IDOCK:   -3.94 KCAL/MOL
REMARK 923 INTER-LIGAND FREE ENERGY PREDICTED BY IDOCK:   -3.72 KCAL/MOL
REMARK 924 INTRA-LIGAND FREE ENERGY PREDICTED BY IDOCK:   -0.23 KCAL/MOL
REMARK 927      BINDING AFFINITY PREDICTED BY RF-SCORE:    0.00 PKD
ROOT
HETATM    1  C   UNL     1      -9.918  20.399  67.168  1.00  0.00    -0.568 C  
HETATM    2  C   UNL     1      -8.718  19.632  66.634  1.00  0.00    -0.349 C  
HETATM    3  N   UNL     1      -7.975  20.424  65.650  1.00  0.00    -0.499 NA 
HETATM    4  H2  UNL     1      -7.701  21.331  66.029  1.00  0.00     0.000 HD 
HETATM    5  H1  UNL     1      -7.171  19.909  65.291  1.00  0.00     0.000 HD 
ENDROOT
BRANCH   2   6
HETATM    6  C   UNL     1      -7.809  19.107  67.760  1.00  0.00    -0.264 C  
BRANCH   6   7
HETATM    7  O   UNL     1      -8.382  18.120  68.609  1.00  0.00    -0.308 OA 
BRANCH   7   8
HETATM    8  C   UNL     1      -8.347  16.811  68.160  1.00  0.00    -0.201 A  
HETATM    9  C   UNL     1      -7.218  16.027  67.806  1.00  0.00    -0.161 A  
HETATM   10  C   UNL     1      -7.423  14.694  67.376  1.00  0.00    -0.212 A  
HETATM   11  C   UNL     1      -5.764  16.427  67.705  1.00  0.00    -0.151 C  
HETATM   12  C   UNL     1      -8.689  14.124  67.306  1.00  0.00    -0.229 A  
HETATM   13  C   UNL     1      -9.794  14.894  67.628  1.00  0.00    -0.217 A  
HETATM   14  C   UNL     1      -9.644  16.228  68.048  1.00  0.00    -0.224 A  
HETATM   15  C   UNL     1     -10.904  17.017  68.343  1.00  0.00    -0.333 C  
ENDBRANCH   7   8
ENDBRANCH   6   7
ENDBRANCH   2   6
TORSDOF 3
ENDMDL
MODEL      130
REMARK 921   NORMALIZED FREE ENERGY PREDICTED BY IDOCK:   -3.20 KCAL/MOL
REMARK 922        TOTAL FREE ENERGY PREDICTED BY IDOCK:   -3.94 KCAL/MOL
REMARK 923 INTER-LIGAND FREE ENERGY PREDICTED BY IDOCK:   -3.61 KCAL/MOL
REMARK 924 INTRA-LIGAND FREE ENERGY PREDICTED BY IDOCK:   -0.33 KCAL/MOL
REMARK 927      BINDING AFFINITY PREDICTED BY RF-SCORE:    0.00 PKD
ROOT
HETATM    1  C   UNL     1      -7.520  18.218  67.271  1.00  0.00    -0.222 C  
HETATM    2  C   UNL     1      -9.000  17.997  66.998  1.00  0.00    -0.258 C  
HETATM    3  N   UNL     1      -9.204  17.141  65.827  1.00  0.00    -0.519 NA 
HETATM    4  H2  UNL     1      -8.705  16.256  65.919  1.00  0.00     0.000 HD 
HETATM    5  H1  UNL     1     -10.197  16.993  65.645  1.00  0.00     0.000 HD 
ENDROOT
BRANCH   2   6
HETATM    6  C   UNL     1      -9.752  17.475  68.236  1.00  0.00    -0.311 C  
BRANCH   6   7
HETATM    7  O   UNL     1      -9.163  16.360  68.894  1.00  0.00    -0.241 OA 
BRANCH   7   8
HETATM    8  C   UNL     1      -9.786  15.135  68.728  1.00  0.00    -0.223 A  
HETATM    9  C   UNL     1     -11.059  14.718  69.200  1.00  0.00    -0.278 A  
HETATM   10  C   UNL     1     -11.500  13.407  68.899  1.00  0.00    -0.347 A  
HETATM   11  C   UNL     1     -12.030  15.438  70.107  1.00  0.00    -0.378 C  
HETATM   12  C   UNL     1     -10.738  12.523  68.144  1.00  0.00    -0.246 A  
HETATM   13  C   UNL     1      -9.486  12.920  67.702  1.00  0.00    -0.197 A  
HETATM   14  C   UNL     1      -8.997  14.207  67.986  1.00  0.00    -0.183 A  
HETATM   15  C   UNL     1      -7.603  14.551  67.502  1.00  0.00    -0.211 C  
ENDBRANCH   7   8
ENDBRANCH   6   7
ENDBRANCH   2   6
TORSDOF 3
ENDMDL
MODEL      131
REMARK 921   NORMALIZED FREE ENERGY PREDICTED BY IDOCK:   -3.19 KCAL/MOL
REMARK 922        TOTAL FREE ENERGY PREDICTED BY IDOCK:   -3.94 KCAL/MOL
REMARK 923 INTER-LIGAND FREE ENERGY PREDICTED BY IDOCK:   -3.67 KCAL/MOL
REMARK 924 INTRA-LIGAND FREE ENERGY PREDICTED BY IDOCK:   -0.27 KCAL/MOL
REMARK 927      BINDING AFFINITY PREDICTED BY RF-SCORE:    0.00 PKD
ROOT
HETATM    1  C   UNL     1     -10.089  17.731  67.498  1.00  0.00    -0.340 C  
HETATM    2  C   UNL     1      -9.062  17.261  66.478  1.00  0.00    -0.265 C  
HETATM    3  N   UNL     1      -8.003  18.255  66.292  1.00  0.00    -0.383 NA 
HETATM    4  H2  UNL     1      -7.563  18.504  67.178  1.00  0.00     0.000 HD 
HETATM    5  H1  UNL     1      -7.315  17.940  65.608  1.00  0.00     0.000 HD 
ENDROOT
BRANCH   2   6
HETATM    6  C   UNL     1      -8.498  15.868  66.814  1.00  0.00    -0.262 C  
BRANCH   6   7
HETATM    7  O   UNL     1      -9.458  14.874  67.148  1.00  0.00    -0.213 OA 
BRANCH   7   8
HETATM    8  C   UNL     1      -9.792  13.967  66.156  1.00  0.00    -0.303 A  
HETATM    9  C   UNL     1     -10.672  14.144  65.055  1.00  0.00    -0.429 A  
HETATM   10  C   UNL     1     -10.856  13.070  64.153  1.00  0.00    -0.433 A  
HETATM   11  C   UNL     1     -11.574  15.311  64.725  1.00  0.00    -0.322 C  
HETATM   12  C   UNL     1     -10.192  11.857  64.297  1.00  0.00    -0.346 A  
HETATM   13  C   UNL     1      -9.351  11.675  65.382  1.00  0.00    -0.143 A  
HETATM   14  C   UNL     1      -9.145  12.707  66.315  1.00  0.00    -0.053 A  
HETATM   15  C   UNL     1      -8.242  12.415  67.496  1.00  0.00    -0.173 C  
ENDBRANCH   7   8
ENDBRANCH   6   7
ENDBRANCH   2   6
TORSDOF 3
ENDMDL
MODEL      132
REMARK 921   NORMALIZED FREE ENERGY PREDICTED BY IDOCK:   -3.19 KCAL/MOL
REMARK 922        TOTAL FREE ENERGY PREDICTED BY IDOCK:   -3.93 KCAL/MOL
REMARK 923 INTER-LIGAND FREE ENERGY PREDICTED BY IDOCK:   -3.81 KCAL/MOL
REMARK 924 INTRA-LIGAND FREE ENERGY PREDICTED BY IDOCK:   -0.12 KCAL/MOL
REMARK 927      BINDING AFFINITY PREDICTED BY RF-SCORE:    0.00 PKD
ROOT
HETATM    1  C   UNL     1     -10.302  17.975  66.163  1.00  0.00    -0.368 C  
HETATM    2  C   UNL     1     -10.692  16.567  65.740  1.00  0.00    -0.225 C  
HETATM    3  N   UNL     1     -11.329  16.565  64.421  1.00  0.00    -1.197 NA 
HETATM    4  H2  UNL     1     -10.742  17.017  63.720  1.00  0.00     0.000 HD 
HETATM    5  H1  UNL     1     -11.592  15.621  64.137  1.00  0.00     0.000 HD 
ENDROOT
BRANCH   2   6
HETATM    6  C   UNL     1      -9.509  15.584  65.813  1.00  0.00    -0.299 C  
BRANCH   6   7
HETATM    7  O   UNL     1      -9.368  14.875  67.038  1.00  0.00    -0.209 OA 
BRANCH   7   8
HETATM    8  C   UNL     1      -8.940  13.560  66.955  1.00  0.00    -0.209 A  
HETATM    9  C   UNL     1      -9.694  12.404  66.621  1.00  0.00    -0.229 A  
HETATM   10  C   UNL     1      -9.038  11.151  66.590  1.00  0.00    -0.180 A  
HETATM   11  C   UNL     1     -11.180  12.262  66.384  1.00  0.00    -0.370 C  
HETATM   12  C   UNL     1      -7.680  11.017  66.856  1.00  0.00    -0.140 A  
HETATM   13  C   UNL     1      -6.947  12.140  67.204  1.00  0.00    -0.117 A  
HETATM   14  C   UNL     1      -7.556  13.406  67.263  1.00  0.00    -0.076 A  
HETATM   15  C   UNL     1      -6.697  14.579  67.691  1.00  0.00    -0.194 C  
ENDBRANCH   7   8
ENDBRANCH   6   7
ENDBRANCH   2   6
TORSDOF 3
ENDMDL
MODEL      133
REMARK 921   NORMALIZED FREE ENERGY PREDICTED BY IDOCK:   -3.19 KCAL/MOL
REMARK 922        TOTAL FREE ENERGY PREDICTED BY IDOCK:   -3.93 KCAL/MOL
REMARK 923 INTER-LIGAND FREE ENERGY PREDICTED BY IDOCK:   -4.15 KCAL/MOL
REMARK 924 INTRA-LIGAND FREE ENERGY PREDICTED BY IDOCK:    0.23 KCAL/MOL
REMARK 927      BINDING AFFINITY PREDICTED BY RF-SCORE:    0.00 PKD
ROOT
HETATM    1  C   UNL     1     -12.783  14.318  70.714  1.00  0.00    -0.419 C  
HETATM    2  C   UNL     1     -12.303  15.698  70.292  1.00  0.00    -0.370 C  
HETATM    3  N   UNL     1     -11.889  16.495  71.449  1.00  0.00    -0.590 NA 
HETATM    4  H2  UNL     1     -11.185  16.009  72.006  1.00  0.00     0.000 HD 
HETATM    5  H1  UNL     1     -11.568  17.421  71.166  1.00  0.00     0.000 HD 
ENDROOT
BRANCH   2   6
HETATM    6  C   UNL     1     -11.209  15.633  69.211  1.00  0.00    -0.320 C  
BRANCH   6   7
HETATM    7  O   UNL     1     -10.089  16.487  69.411  1.00  0.00    -0.264 OA 
BRANCH   7   8
HETATM    8  C   UNL     1      -9.436  16.939  68.276  1.00  0.00    -0.250 A  
HETATM    9  C   UNL     1      -9.542  18.203  67.639  1.00  0.00    -0.278 A  
HETATM   10  C   UNL     1      -8.764  18.449  66.483  1.00  0.00    -0.291 A  
HETATM   11  C   UNL     1     -10.474  19.355  67.940  1.00  0.00    -0.536 C  
HETATM   12  C   UNL     1      -7.888  17.503  65.962  1.00  0.00    -0.213 A  
HETATM   13  C   UNL     1      -7.799  16.261  66.570  1.00  0.00    -0.298 A  
HETATM   14  C   UNL     1      -8.562  15.962  67.713  1.00  0.00    -0.164 A  
HETATM   15  C   UNL     1      -8.439  14.569  68.294  1.00  0.00    -0.161 C  
ENDBRANCH   7   8
ENDBRANCH   6   7
ENDBRANCH   2   6
TORSDOF 3
ENDMDL
MODEL      134
REMARK 921   NORMALIZED FREE ENERGY PREDICTED BY IDOCK:   -3.18 KCAL/MOL
REMARK 922        TOTAL FREE ENERGY PREDICTED BY IDOCK:   -3.92 KCAL/MOL
REMARK 923 INTER-LIGAND FREE ENERGY PREDICTED BY IDOCK:   -3.80 KCAL/MOL
REMARK 924 INTRA-LIGAND FREE ENERGY PREDICTED BY IDOCK:   -0.12 KCAL/MOL
REMARK 927      BINDING AFFINITY PREDICTED BY RF-SCORE:    0.00 PKD
ROOT
HETATM    1  C   UNL     1      -7.274   7.808  70.598  1.00  0.00    -0.061 C  
HETATM    2  C   UNL     1      -8.287   8.875  70.208  1.00  0.00    -0.147 C  
HETATM    3  N   UNL     1      -7.722  10.219  70.346  1.00  0.00    -0.440 NA 
HETATM    4  H2  UNL     1      -6.854  10.317  69.819  1.00  0.00     0.000 HD 
HETATM    5  H1  UNL     1      -8.400  10.935  70.085  1.00  0.00     0.000 HD 
ENDROOT
BRANCH   2   6
HETATM    6  C   UNL     1      -8.879   8.636  68.808  1.00  0.00    -0.139 C  
BRANCH   6   7
HETATM    7  O   UNL     1     -10.258   8.287  68.769  1.00  0.00    -0.202 OA 
BRANCH   7   8
HETATM    8  C   UNL     1     -11.005   8.560  69.903  1.00  0.00    -0.165 A  
HETATM    9  C   UNL     1     -11.519   9.809  70.344  1.00  0.00    -0.347 A  
HETATM   10  C   UNL     1     -12.270   9.849  71.542  1.00  0.00    -0.505 A  
HETATM   11  C   UNL     1     -11.299  11.192  69.776  1.00  0.00    -0.354 C  
HETATM   12  C   UNL     1     -12.536   8.708  72.291  1.00  0.00    -0.457 A  
HETATM   13  C   UNL     1     -12.017   7.493  71.874  1.00  0.00    -0.335 A  
HETATM   14  C   UNL     1     -11.252   7.402  70.698  1.00  0.00    -0.292 A  
HETATM   15  C   UNL     1     -10.685   6.046  70.332  1.00  0.00    -0.358 C  
ENDBRANCH   7   8
ENDBRANCH   6   7
ENDBRANCH   2   6
TORSDOF 3
ENDMDL
MODEL      135
REMARK 921   NORMALIZED FREE ENERGY PREDICTED BY IDOCK:   -3.18 KCAL/MOL
REMARK 922        TOTAL FREE ENERGY PREDICTED BY IDOCK:   -3.92 KCAL/MOL
REMARK 923 INTER-LIGAND FREE ENERGY PREDICTED BY IDOCK:   -3.99 KCAL/MOL
REMARK 924 INTRA-LIGAND FREE ENERGY PREDICTED BY IDOCK:    0.08 KCAL/MOL
REMARK 927      BINDING AFFINITY PREDICTED BY RF-SCORE:    0.00 PKD
ROOT
HETATM    1  C   UNL     1      -6.686  11.202  66.701  1.00  0.00    -0.137 C  
HETATM    2  C   UNL     1      -7.061  12.271  67.717  1.00  0.00    -0.114 C  
HETATM    3  N   UNL     1      -6.491  13.571  67.357  1.00  0.00    -0.401 NA 
HETATM    4  H2  UNL     1      -6.753  13.846  66.410  1.00  0.00     0.000 HD 
HETATM    5  H1  UNL     1      -6.742  14.287  68.038  1.00  0.00     0.000 HD 
ENDROOT
BRANCH   2   6
HETATM    6  C   UNL     1      -8.581  12.349  67.949  1.00  0.00    -0.171 C  
BRANCH   6   7
HETATM    7  O   UNL     1      -9.178  13.620  67.721  1.00  0.00    -0.197 OA 
BRANCH   7   8
HETATM    8  C   UNL     1     -10.244  13.661  66.837  1.00  0.00    -0.261 A  
HETATM    9  C   UNL     1     -11.311  12.736  66.695  1.00  0.00    -0.364 A  
HETATM   10  C   UNL     1     -12.304  12.989  65.719  1.00  0.00    -0.477 A  
HETATM   11  C   UNL     1     -11.522  11.402  67.372  1.00  0.00    -0.328 C  
HETATM   12  C   UNL     1     -12.279  14.119  64.909  1.00  0.00    -0.451 A  
HETATM   13  C   UNL     1     -11.226  15.011  65.031  1.00  0.00    -0.413 A  
HETATM   14  C   UNL     1     -10.207  14.798  65.976  1.00  0.00    -0.320 A  
HETATM   15  C   UNL     1      -9.069  15.797  66.020  1.00  0.00    -0.361 C  
ENDBRANCH   7   8
ENDBRANCH   6   7
ENDBRANCH   2   6
TORSDOF 3
ENDMDL
MODEL      136
REMARK 921   NORMALIZED FREE ENERGY PREDICTED BY IDOCK:   -3.15 KCAL/MOL
REMARK 922        TOTAL FREE ENERGY PREDICTED BY IDOCK:   -3.89 KCAL/MOL
REMARK 923 INTER-LIGAND FREE ENERGY PREDICTED BY IDOCK:   -3.73 KCAL/MOL
REMARK 924 INTRA-LIGAND FREE ENERGY PREDICTED BY IDOCK:   -0.16 KCAL/MOL
REMARK 927      BINDING AFFINITY PREDICTED BY RF-SCORE:    0.00 PKD
ROOT
HETATM    1  C   UNL     1     -14.223   7.869  71.566  1.00  0.00    -0.527 C  
HETATM    2  C   UNL     1     -12.711   7.839  71.397  1.00  0.00    -0.308 C  
HETATM    3  N   UNL     1     -12.082   9.007  72.019  1.00  0.00    -0.370 NA 
HETATM    4  H2  UNL     1     -12.347   9.096  73.000  1.00  0.00     0.000 HD 
HETATM    5  H1  UNL     1     -11.069   8.986  71.905  1.00  0.00     0.000 HD 
ENDROOT
BRANCH   2   6
HETATM    6  C   UNL     1     -12.093   6.517  71.888  1.00  0.00    -0.339 C  
BRANCH   6   7
HETATM    7  O   UNL     1     -10.687   6.387  71.712  1.00  0.00    -0.222 OA 
BRANCH   7   8
HETATM    8  C   UNL     1     -10.255   5.409  70.831  1.00  0.00    -0.234 A  
HETATM    9  C   UNL     1     -10.233   5.444  69.412  1.00  0.00    -0.334 A  
HETATM   10  C   UNL     1      -9.735   4.320  68.712  1.00  0.00    -0.184 A  
HETATM   11  C   UNL     1     -10.779   6.491  68.469  1.00  0.00    -0.329 C  
HETATM   12  C   UNL     1      -9.250   3.193  69.366  1.00  0.00    -0.219 A  
HETATM   13  C   UNL     1      -9.291   3.148  70.750  1.00  0.00    -0.223 A  
HETATM   14  C   UNL     1      -9.790   4.233  71.492  1.00  0.00    -0.260 A  
HETATM   15  C   UNL     1      -9.839   4.091  72.999  1.00  0.00    -0.183 C  
ENDBRANCH   7   8
ENDBRANCH   6   7
ENDBRANCH   2   6
TORSDOF 3
ENDMDL
MODEL      137
REMARK 921   NORMALIZED FREE ENERGY PREDICTED BY IDOCK:   -3.15 KCAL/MOL
REMARK 922        TOTAL FREE ENERGY PREDICTED BY IDOCK:   -3.89 KCAL/MOL
REMARK 923 INTER-LIGAND FREE ENERGY PREDICTED BY IDOCK:   -3.74 KCAL/MOL
REMARK 924 INTRA-LIGAND FREE ENERGY PREDICTED BY IDOCK:   -0.15 KCAL/MOL
REMARK 927      BINDING AFFINITY PREDICTED BY RF-SCORE:    0.00 PKD
ROOT
HETATM    1  C   UNL     1      -6.568  17.001  69.108  1.00  0.00    -0.230 C  
HETATM    2  C   UNL     1      -7.543  16.333  68.150  1.00  0.00    -0.149 C  
HETATM    3  N   UNL     1      -6.870  15.336  67.314  1.00  0.00    -0.262 NA 
HETATM    4  H2  UNL     1      -6.370  14.650  67.879  1.00  0.00     0.000 HD 
HETATM    5  H1  UNL     1      -7.523  14.889  66.672  1.00  0.00     0.000 HD 
ENDROOT
BRANCH   2   6
HETATM    6  C   UNL     1      -8.769  15.748  68.876  1.00  0.00    -0.217 C  
BRANCH   6   7
HETATM    7  O   UNL     1     -10.037  16.124  68.353  1.00  0.00    -0.226 OA 
BRANCH   7   8
HETATM    8  C   UNL     1     -10.748  15.149  67.673  1.00  0.00    -0.285 A  
HETATM    9  C   UNL     1     -11.451  14.035  68.203  1.00  0.00    -0.341 A  
HETATM   10  C   UNL     1     -12.120  13.166  67.309  1.00  0.00    -0.329 A  
HETATM   11  C   UNL     1     -11.523  13.534  69.627  1.00  0.00    -0.283 C  
HETATM   12  C   UNL     1     -12.126  13.375  65.934  1.00  0.00    -0.486 A  
HETATM   13  C   UNL     1     -11.422  14.449  65.413  1.00  0.00    -0.344 A  
HETATM   14  C   UNL     1     -10.729  15.334  66.259  1.00  0.00    -0.315 A  
HETATM   15  C   UNL     1      -9.950  16.459  65.609  1.00  0.00    -0.270 C  
ENDBRANCH   7   8
ENDBRANCH   6   7
ENDBRANCH   2   6
TORSDOF 3
ENDMDL
MODEL      138
REMARK 921   NORMALIZED FREE ENERGY PREDICTED BY IDOCK:   -3.14 KCAL/MOL
REMARK 922        TOTAL FREE ENERGY PREDICTED BY IDOCK:   -3.87 KCAL/MOL
REMARK 923 INTER-LIGAND FREE ENERGY PREDICTED BY IDOCK:   -3.71 KCAL/MOL
REMARK 924 INTRA-LIGAND FREE ENERGY PREDICTED BY IDOCK:   -0.15 KCAL/MOL
REMARK 927      BINDING AFFINITY PREDICTED BY RF-SCORE:    0.00 PKD
ROOT
HETATM    1  C   UNL     1     -10.678  19.287  65.713  1.00  0.00    -0.417 C  
HETATM    2  C   UNL     1     -10.752  17.777  65.889  1.00  0.00    -0.116 C  
HETATM    3  N   UNL     1     -11.040  17.107  64.618  1.00  0.00    -1.007 NA 
HETATM    4  H2  UNL     1     -10.368  17.367  63.897  1.00  0.00     0.000 HD 
HETATM    5  H1  UNL     1     -11.091  16.095  64.736  1.00  0.00     0.000 HD 
ENDROOT
BRANCH   2   6
HETATM    6  C   UNL     1      -9.499  17.204  66.574  1.00  0.00    -0.273 C  
BRANCH   6   7
HETATM    7  O   UNL     1      -9.722  16.511  67.796  1.00  0.00    -0.231 OA 
BRANCH   7   8
HETATM    8  C   UNL     1      -9.273  15.203  67.865  1.00  0.00    -0.184 A  
HETATM    9  C   UNL     1      -7.947  14.733  68.058  1.00  0.00    -0.138 A  
HETATM   10  C   UNL     1      -7.721  13.336  68.104  1.00  0.00    -0.143 A  
HETATM   11  C   UNL     1      -6.652  15.509  68.120  1.00  0.00    -0.138 C  
HETATM   12  C   UNL     1      -8.754  12.413  67.985  1.00  0.00    -0.186 A  
HETATM   13  C   UNL     1     -10.045  12.870  67.774  1.00  0.00    -0.229 A  
HETATM   14  C   UNL     1     -10.319  14.247  67.707  1.00  0.00    -0.238 A  
HETATM   15  C   UNL     1     -11.749  14.665  67.433  1.00  0.00    -0.413 C  
ENDBRANCH   7   8
ENDBRANCH   6   7
ENDBRANCH   2   6
TORSDOF 3
ENDMDL
MODEL      139
REMARK 921   NORMALIZED FREE ENERGY PREDICTED BY IDOCK:   -3.12 KCAL/MOL
REMARK 922        TOTAL FREE ENERGY PREDICTED BY IDOCK:   -3.85 KCAL/MOL
REMARK 923 INTER-LIGAND FREE ENERGY PREDICTED BY IDOCK:   -3.61 KCAL/MOL
REMARK 924 INTRA-LIGAND FREE ENERGY PREDICTED BY IDOCK:   -0.24 KCAL/MOL
REMARK 927      BINDING AFFINITY PREDICTED BY RF-SCORE:    0.00 PKD
ROOT
HETATM    1  C   UNL     1      -9.018  10.231  67.463  1.00  0.00    -0.138 C  
HETATM    2  C   UNL     1     -10.321   9.447  67.429  1.00  0.00    -0.263 C  
HETATM    3  N   UNL     1     -10.329   8.475  66.333  1.00  0.00    -0.375 NA 
HETATM    4  H2  UNL     1      -9.521   7.855  66.377  1.00  0.00     0.000 HD 
HETATM    5  H1  UNL     1     -11.203   7.950  66.310  1.00  0.00     0.000 HD 
ENDROOT
BRANCH   2   6
HETATM    6  C   UNL     1     -10.649   8.795  68.785  1.00  0.00    -0.145 C  
BRANCH   6   7
HETATM    7  O   UNL     1     -10.356   9.578  69.936  1.00  0.00    -0.204 OA 
BRANCH   7   8
HETATM    8  C   UNL     1     -10.328   8.916  71.152  1.00  0.00    -0.268 A  
HETATM    9  C   UNL     1     -11.419   8.520  71.969  1.00  0.00    -0.431 A  
HETATM   10  C   UNL     1     -11.149   7.841  73.181  1.00  0.00    -0.336 A  
HETATM   11  C   UNL     1     -12.894   8.809  71.809  1.00  0.00    -0.406 C  
HETATM   12  C   UNL     1      -9.856   7.533  73.587  1.00  0.00    -0.348 A  
HETATM   13  C   UNL     1      -8.788   7.938  72.802  1.00  0.00    -0.247 A  
HETATM   14  C   UNL     1      -9.003   8.629  71.596  1.00  0.00    -0.305 A  
HETATM   15  C   UNL     1      -7.784   9.074  70.815  1.00  0.00    -0.144 C  
ENDBRANCH   7   8
ENDBRANCH   6   7
ENDBRANCH   2   6
TORSDOF 3
ENDMDL
MODEL      140
REMARK 921   NORMALIZED FREE ENERGY PREDICTED BY IDOCK:   -3.12 KCAL/MOL
REMARK 922        TOTAL FREE ENERGY PREDICTED BY IDOCK:   -3.85 KCAL/MOL
REMARK 923 INTER-LIGAND FREE ENERGY PREDICTED BY IDOCK:   -3.52 KCAL/MOL
REMARK 924 INTRA-LIGAND FREE ENERGY PREDICTED BY IDOCK:   -0.33 KCAL/MOL
REMARK 927      BINDING AFFINITY PREDICTED BY RF-SCORE:    0.00 PKD
ROOT
HETATM    1  C   UNL     1      -6.988  14.742  67.536  1.00  0.00    -0.198 C  
HETATM    2  C   UNL     1      -8.284  14.892  68.320  1.00  0.00    -0.145 C  
HETATM    3  N   UNL     1      -8.043  14.824  69.763  1.00  0.00    -0.411 NA 
HETATM    4  H2  UNL     1      -7.346  15.507  70.059  1.00  0.00     0.000 HD 
HETATM    5  H1  UNL     1      -8.912  14.924  70.289  1.00  0.00     0.000 HD 
ENDROOT
BRANCH   2   6
HETATM    6  C   UNL     1      -9.066  16.156  67.921  1.00  0.00    -0.192 C  
BRANCH   6   7
HETATM    7  O   UNL     1      -8.740  17.339  68.641  1.00  0.00    -0.272 OA 
BRANCH   7   8
HETATM    8  C   UNL     1      -8.242  18.402  67.905  1.00  0.00    -0.260 A  
HETATM    9  C   UNL     1      -8.913  19.204  66.945  1.00  0.00    -0.332 A  
HETATM   10  C   UNL     1      -8.199  20.253  66.317  1.00  0.00    -0.192 A  
HETATM   11  C   UNL     1     -10.303  19.054  66.370  1.00  0.00    -0.520 C  
HETATM   12  C   UNL     1      -6.872  20.534  66.622  1.00  0.00    -0.316 A  
HETATM   13  C   UNL     1      -6.209  19.738  67.543  1.00  0.00    -0.216 A  
HETATM   14  C   UNL     1      -6.870  18.675  68.183  1.00  0.00    -0.243 A  
HETATM   15  C   UNL     1      -6.066  17.826  69.146  1.00  0.00    -0.224 C  
ENDBRANCH   7   8
ENDBRANCH   6   7
ENDBRANCH   2   6
TORSDOF 3
ENDMDL
MODEL      141
REMARK 921   NORMALIZED FREE ENERGY PREDICTED BY IDOCK:   -3.10 KCAL/MOL
REMARK 922        TOTAL FREE ENERGY PREDICTED BY IDOCK:   -3.83 KCAL/MOL
REMARK 923 INTER-LIGAND FREE ENERGY PREDICTED BY IDOCK:   -3.92 KCAL/MOL
REMARK 924 INTRA-LIGAND FREE ENERGY PREDICTED BY IDOCK:    0.09 KCAL/MOL
REMARK 927      BINDING AFFINITY PREDICTED BY RF-SCORE:    0.00 PKD
ROOT
HETATM    1  C   UNL     1      -9.681   4.419  67.626  1.00  0.00    -0.198 C  
HETATM    2  C   UNL     1     -10.334   5.678  67.073  1.00  0.00    -0.254 C  
HETATM    3  N   UNL     1     -11.149   5.380  65.892  1.00  0.00    -0.769 NA 
HETATM    4  H2  UNL     1     -11.839   4.655  66.087  1.00  0.00     0.000 HD 
HETATM    5  H1  UNL     1     -11.585   6.224  65.521  1.00  0.00     0.000 HD 
ENDROOT
BRANCH   2   6
HETATM    6  C   UNL     1     -11.127   6.446  68.146  1.00  0.00    -0.263 C  
BRANCH   6   7
HETATM    7  O   UNL     1     -11.040   5.931  69.468  1.00  0.00    -0.381 OA 
BRANCH   7   8
HETATM    8  C   UNL     1     -11.014   6.855  70.500  1.00  0.00    -0.273 A  
HETATM    9  C   UNL     1     -12.086   7.292  71.323  1.00  0.00    -0.373 A  
HETATM   10  C   UNL     1     -11.821   8.249  72.331  1.00  0.00    -0.461 A  
HETATM   11  C   UNL     1     -13.559   6.970  71.232  1.00  0.00    -0.251 C  
HETATM   12  C   UNL     1     -10.548   8.761  72.553  1.00  0.00    -0.083 A  
HETATM   13  C   UNL     1      -9.506   8.353  71.737  1.00  0.00    -0.302 A  
HETATM   14  C   UNL     1      -9.720   7.414  70.712  1.00  0.00    -0.171 A  
HETATM   15  C   UNL     1      -8.538   7.050  69.836  1.00  0.00    -0.141 C  
ENDBRANCH   7   8
ENDBRANCH   6   7
ENDBRANCH   2   6
TORSDOF 3
ENDMDL
MODEL      142
REMARK 921   NORMALIZED FREE ENERGY PREDICTED BY IDOCK:   -3.08 KCAL/MOL
REMARK 922        TOTAL FREE ENERGY PREDICTED BY IDOCK:   -3.81 KCAL/MOL
REMARK 923 INTER-LIGAND FREE ENERGY PREDICTED BY IDOCK:   -3.77 KCAL/MOL
REMARK 924 INTRA-LIGAND FREE ENERGY PREDICTED BY IDOCK:   -0.04 KCAL/MOL
REMARK 927      BINDING AFFINITY PREDICTED BY RF-SCORE:    0.00 PKD
ROOT
HETATM    1  C   UNL     1      -7.779   8.240  66.174  1.00  0.00    -0.097 C  
HETATM    2  C   UNL     1      -8.288   9.120  65.042  1.00  0.00    -0.158 C  
HETATM    3  N   UNL     1      -8.623   8.324  63.858  1.00  0.00    -0.400 NA 
HETATM    4  H2  UNL     1      -9.286   7.581  64.081  1.00  0.00     0.000 HD 
HETATM    5  H1  UNL     1      -8.964   8.914  63.099  1.00  0.00     0.000 HD 
ENDROOT
BRANCH   2   6
HETATM    6  C   UNL     1      -9.455  10.023  65.481  1.00  0.00    -0.237 C  
BRANCH   6   7
HETATM    7  O   UNL     1     -10.291   9.501  66.506  1.00  0.00    -0.242 OA 
BRANCH   7   8
HETATM    8  C   UNL     1     -10.799  10.406  67.423  1.00  0.00    -0.286 A  
HETATM    9  C   UNL     1     -11.456  11.641  67.175  1.00  0.00    -0.344 A  
HETATM   10  C   UNL     1     -11.902  12.406  68.279  1.00  0.00    -0.364 A  
HETATM   11  C   UNL     1     -11.678  12.366  65.868  1.00  0.00    -0.476 C  
HETATM   12  C   UNL     1     -11.735  11.982  69.593  1.00  0.00    -0.405 A  
HETATM   13  C   UNL     1     -11.075  10.789  69.837  1.00  0.00    -0.339 A  
HETATM   14  C   UNL     1     -10.599   9.999  68.775  1.00  0.00    -0.241 A  
HETATM   15  C   UNL     1      -9.852   8.729  69.125  1.00  0.00    -0.181 C  
ENDBRANCH   7   8
ENDBRANCH   6   7
ENDBRANCH   2   6
TORSDOF 3
ENDMDL
MODEL      143
REMARK 921   NORMALIZED FREE ENERGY PREDICTED BY IDOCK:   -3.07 KCAL/MOL
REMARK 922        TOTAL FREE ENERGY PREDICTED BY IDOCK:   -3.79 KCAL/MOL
REMARK 923 INTER-LIGAND FREE ENERGY PREDICTED BY IDOCK:   -3.58 KCAL/MOL
REMARK 924 INTRA-LIGAND FREE ENERGY PREDICTED BY IDOCK:   -0.21 KCAL/MOL
REMARK 927      BINDING AFFINITY PREDICTED BY RF-SCORE:    0.00 PKD
ROOT
HETATM    1  C   UNL     1     -11.776  11.389  68.376  1.00  0.00    -0.373 C  
HETATM    2  C   UNL     1     -10.670  11.607  67.355  1.00  0.00    -0.234 C  
HETATM    3  N   UNL     1     -10.387  10.380  66.606  1.00  0.00    -0.236 NA 
HETATM    4  H2  UNL     1     -11.229  10.005  66.170  1.00  0.00     0.000 HD 
HETATM    5  H1  UNL     1      -9.645  10.527  65.922  1.00  0.00     0.000 HD 
ENDROOT
BRANCH   2   6
HETATM    6  C   UNL     1     -10.958  12.800  66.426  1.00  0.00    -0.276 C  
BRANCH   6   7
HETATM    7  O   UNL     1      -9.817  13.444  65.871  1.00  0.00    -0.284 OA 
BRANCH   7   8
HETATM    8  C   UNL     1      -9.692  14.804  66.103  1.00  0.00    -0.312 A  
HETATM    9  C   UNL     1     -10.413  15.873  65.508  1.00  0.00    -0.425 A  
HETATM   10  C   UNL     1     -10.118  17.197  65.909  1.00  0.00    -0.257 A  
HETATM   11  C   UNL     1     -11.422  15.842  64.384  1.00  0.00    -0.268 C  
HETATM   12  C   UNL     1      -9.161  17.485  66.875  1.00  0.00    -0.273 A  
HETATM   13  C   UNL     1      -8.441  16.445  67.441  1.00  0.00    -0.195 A  
HETATM   14  C   UNL     1      -8.686  15.112  67.066  1.00  0.00    -0.264 A  
HETATM   15  C   UNL     1      -7.828  14.036  67.699  1.00  0.00    -0.185 C  
ENDBRANCH   7   8
ENDBRANCH   6   7
ENDBRANCH   2   6
TORSDOF 3
ENDMDL
MODEL      144
REMARK 921   NORMALIZED FREE ENERGY PREDICTED BY IDOCK:   -3.06 KCAL/MOL
REMARK 922        TOTAL FREE ENERGY PREDICTED BY IDOCK:   -3.77 KCAL/MOL
REMARK 923 INTER-LIGAND FREE ENERGY PREDICTED BY IDOCK:   -3.66 KCAL/MOL
REMARK 924 INTRA-LIGAND FREE ENERGY PREDICTED BY IDOCK:   -0.12 KCAL/MOL
REMARK 927      BINDING AFFINITY PREDICTED BY RF-SCORE:    0.00 PKD
ROOT
HETATM    1  C   UNL     1      -8.834  12.312  66.927  1.00  0.00    -0.207 C  
HETATM    2  C   UNL     1      -9.078  12.038  68.404  1.00  0.00    -0.158 C  
HETATM    3  N   UNL     1     -10.241  12.779  68.898  1.00  0.00    -0.429 NA 
HETATM    4  H2  UNL     1     -11.073  12.586  68.339  1.00  0.00     0.000 HD 
HETATM    5  H1  UNL     1     -10.404  12.596  69.887  1.00  0.00     0.000 HD 
ENDROOT
BRANCH   2   6
HETATM    6  C   UNL     1      -9.175  10.533  68.713  1.00  0.00    -0.177 C  
BRANCH   6   7
HETATM    7  O   UNL     1     -10.417   9.915  68.398  1.00  0.00    -0.189 OA 
BRANCH   7   8
HETATM    8  C   UNL     1     -10.666   8.681  68.975  1.00  0.00    -0.101 A  
HETATM    9  C   UNL     1     -11.087   8.393  70.300  1.00  0.00    -0.216 A  
HETATM   10  C   UNL     1     -11.289   7.042  70.671  1.00  0.00    -0.349 A  
HETATM   11  C   UNL     1     -11.265   9.326  71.476  1.00  0.00    -0.457 C  
HETATM   12  C   UNL     1     -11.106   5.992  69.778  1.00  0.00    -0.476 A  
HETATM   13  C   UNL     1     -10.673   6.270  68.491  1.00  0.00    -0.354 A  
HETATM   14  C   UNL     1     -10.445   7.594  68.079  1.00  0.00    -0.247 A  
HETATM   15  C   UNL     1      -9.933   7.812  66.669  1.00  0.00    -0.299 C  
ENDBRANCH   7   8
ENDBRANCH   6   7
ENDBRANCH   2   6
TORSDOF 3
ENDMDL
MODEL      145
REMARK 921   NORMALIZED FREE ENERGY PREDICTED BY IDOCK:   -3.05 KCAL/MOL
REMARK 922        TOTAL FREE ENERGY PREDICTED BY IDOCK:   -3.77 KCAL/MOL
REMARK 923 INTER-LIGAND FREE ENERGY PREDICTED BY IDOCK:   -3.67 KCAL/MOL
REMARK 924 INTRA-LIGAND FREE ENERGY PREDICTED BY IDOCK:   -0.10 KCAL/MOL
REMARK 927      BINDING AFFINITY PREDICTED BY RF-SCORE:    0.00 PKD
ROOT
HETATM    1  C   UNL     1      -7.468  11.632  67.311  1.00  0.00    -0.143 C  
HETATM    2  C   UNL     1      -8.020  10.833  66.139  1.00  0.00    -0.157 C  
HETATM    3  N   UNL     1      -8.340   9.459  66.534  1.00  0.00    -0.118 NA 
HETATM    4  H2  UNL     1      -8.974   9.438  67.333  1.00  0.00     0.000 HD 
HETATM    5  H1  UNL     1      -8.709   8.924  65.749  1.00  0.00     0.000 HD 
ENDROOT
BRANCH   2   6
HETATM    6  C   UNL     1      -9.212  11.533  65.462  1.00  0.00    -0.142 C  
BRANCH   6   7
HETATM    7  O   UNL     1     -10.032  12.324  66.314  1.00  0.00    -0.222 OA 
BRANCH   7   8
HETATM    8  C   UNL     1     -10.335  13.604  65.880  1.00  0.00    -0.301 A  
HETATM    9  C   UNL     1      -9.642  14.815  66.146  1.00  0.00    -0.338 A  
HETATM   10  C   UNL     1     -10.135  16.017  65.584  1.00  0.00    -0.384 A  
HETATM   11  C   UNL     1      -8.467  15.068  67.062  1.00  0.00    -0.258 C  
HETATM   12  C   UNL     1     -11.260  16.048  64.768  1.00  0.00    -0.348 A  
HETATM   13  C   UNL     1     -11.950  14.871  64.526  1.00  0.00    -0.420 A  
HETATM   14  C   UNL     1     -11.509  13.653  65.073  1.00  0.00    -0.338 A  
HETATM   15  C   UNL     1     -12.341  12.417  64.795  1.00  0.00    -0.497 C  
ENDBRANCH   7   8
ENDBRANCH   6   7
ENDBRANCH   2   6
TORSDOF 3
ENDMDL
MODEL      146
REMARK 921   NORMALIZED FREE ENERGY PREDICTED BY IDOCK:   -3.05 KCAL/MOL
REMARK 922        TOTAL FREE ENERGY PREDICTED BY IDOCK:   -3.76 KCAL/MOL
REMARK 923 INTER-LIGAND FREE ENERGY PREDICTED BY IDOCK:   -3.52 KCAL/MOL
REMARK 924 INTRA-LIGAND FREE ENERGY PREDICTED BY IDOCK:   -0.25 KCAL/MOL
REMARK 927      BINDING AFFINITY PREDICTED BY RF-SCORE:    0.00 PKD
ROOT
HETATM    1  C   UNL     1      -8.191  10.203  66.061  1.00  0.00    -0.131 C  
HETATM    2  C   UNL     1      -9.366   9.248  65.905  1.00  0.00    -0.236 C  
HETATM    3  N   UNL     1      -9.087   8.222  64.897  1.00  0.00    -0.333 NA 
HETATM    4  H2  UNL     1      -8.222   7.722  65.102  1.00  0.00     0.000 HD 
HETATM    5  H1  UNL     1      -9.874   7.583  64.792  1.00  0.00     0.000 HD 
ENDROOT
BRANCH   2   6
HETATM    6  C   UNL     1      -9.806   8.637  67.247  1.00  0.00    -0.197 C  
BRANCH   6   7
HETATM    7  O   UNL     1      -9.529   9.417  68.404  1.00  0.00    -0.141 OA 
BRANCH   7   8
HETATM    8  C   UNL     1     -10.550   9.546  69.331  1.00  0.00    -0.219 A  
HETATM    9  C   UNL     1     -11.099   8.554  70.186  1.00  0.00    -0.192 A  
HETATM   10  C   UNL     1     -12.143   8.919  71.069  1.00  0.00    -0.278 A  
HETATM   11  C   UNL     1     -10.815   7.070  70.242  1.00  0.00    -0.283 C  
HETATM   12  C   UNL     1     -12.635  10.217  71.139  1.00  0.00    -0.486 A  
HETATM   13  C   UNL     1     -12.117  11.181  70.290  1.00  0.00    -0.462 A  
HETATM   14  C   UNL     1     -11.088  10.866  69.385  1.00  0.00    -0.317 A  
HETATM   15  C   UNL     1     -10.603  11.965  68.463  1.00  0.00    -0.245 C  
ENDBRANCH   7   8
ENDBRANCH   6   7
ENDBRANCH   2   6
TORSDOF 3
ENDMDL
MODEL      147
REMARK 921   NORMALIZED FREE ENERGY PREDICTED BY IDOCK:   -3.04 KCAL/MOL
REMARK 922        TOTAL FREE ENERGY PREDICTED BY IDOCK:   -3.76 KCAL/MOL
REMARK 923 INTER-LIGAND FREE ENERGY PREDICTED BY IDOCK:   -4.00 KCAL/MOL
REMARK 924 INTRA-LIGAND FREE ENERGY PREDICTED BY IDOCK:    0.24 KCAL/MOL
REMARK 927      BINDING AFFINITY PREDICTED BY RF-SCORE:    0.00 PKD
ROOT
HETATM    1  C   UNL     1     -13.243  10.588  71.605  1.00  0.00    -0.493 C  
HETATM    2  C   UNL     1     -12.476   9.289  71.804  1.00  0.00    -0.381 C  
HETATM    3  N   UNL     1     -13.234   8.141  71.300  1.00  0.00    -0.512 NA 
HETATM    4  H2  UNL     1     -13.506   8.270  70.326  1.00  0.00     0.000 HD 
HETATM    5  H1  UNL     1     -12.720   7.271  71.434  1.00  0.00     0.000 HD 
ENDROOT
BRANCH   2   6
HETATM    6  C   UNL     1     -11.057   9.351  71.210  1.00  0.00    -0.376 C  
BRANCH   6   7
HETATM    7  O   UNL     1     -10.713   8.302  70.314  1.00  0.00    -0.228 OA 
BRANCH   7   8
HETATM    8  C   UNL     1     -10.460   8.658  69.000  1.00  0.00    -0.199 A  
HETATM    9  C   UNL     1     -10.119   9.935  68.480  1.00  0.00    -0.186 A  
HETATM   10  C   UNL     1      -9.895  10.064  67.089  1.00  0.00    -0.231 A  
HETATM   11  C   UNL     1     -10.053  11.272  69.182  1.00  0.00    -0.093 C  
HETATM   12  C   UNL     1      -9.980   8.983  66.219  1.00  0.00    -0.352 A  
HETATM   13  C   UNL     1     -10.335   7.741  66.721  1.00  0.00    -0.348 A  
HETATM   14  C   UNL     1     -10.582   7.564  68.094  1.00  0.00    -0.201 A  
HETATM   15  C   UNL     1     -11.005   6.185  68.558  1.00  0.00    -0.404 C  
ENDBRANCH   7   8
ENDBRANCH   6   7
ENDBRANCH   2   6
TORSDOF 3
ENDMDL
MODEL      148
REMARK 921   NORMALIZED FREE ENERGY PREDICTED BY IDOCK:   -3.04 KCAL/MOL
REMARK 922        TOTAL FREE ENERGY PREDICTED BY IDOCK:   -3.76 KCAL/MOL
REMARK 923 INTER-LIGAND FREE ENERGY PREDICTED BY IDOCK:   -3.38 KCAL/MOL
REMARK 924 INTRA-LIGAND FREE ENERGY PREDICTED BY IDOCK:   -0.38 KCAL/MOL
REMARK 927      BINDING AFFINITY PREDICTED BY RF-SCORE:    0.00 PKD
ROOT
HETATM    1  C   UNL     1      -7.452   6.876  71.449  1.00  0.00    -0.082 C  
HETATM    2  C   UNL     1      -8.241   7.893  72.260  1.00  0.00    -0.129 C  
HETATM    3  N   UNL     1      -7.407   8.512  73.293  1.00  0.00    -0.332 NA 
HETATM    4  H2  UNL     1      -6.563   8.924  72.896  1.00  0.00     0.000 HD 
HETATM    5  H1  UNL     1      -7.936   9.194  73.837  1.00  0.00     0.000 HD 
ENDROOT
BRANCH   2   6
HETATM    6  C   UNL     1      -8.934   8.941  71.370  1.00  0.00    -0.229 C  
BRANCH   6   7
HETATM    7  O   UNL     1     -10.250   8.615  70.938  1.00  0.00    -0.191 OA 
BRANCH   7   8
HETATM    8  C   UNL     1     -10.374   8.055  69.677  1.00  0.00    -0.220 A  
HETATM    9  C   UNL     1     -10.113   8.652  68.415  1.00  0.00    -0.217 A  
HETATM   10  C   UNL     1     -10.304   7.878  67.246  1.00  0.00    -0.377 A  
HETATM   11  C   UNL     1      -9.748  10.080  68.085  1.00  0.00    -0.156 C  
HETATM   12  C   UNL     1     -10.721   6.553  67.292  1.00  0.00    -0.427 A  
HETATM   13  C   UNL     1     -10.997   5.976  68.521  1.00  0.00    -0.350 A  
HETATM   14  C   UNL     1     -10.837   6.707  69.712  1.00  0.00    -0.337 A  
HETATM   15  C   UNL     1     -11.199   6.019  71.012  1.00  0.00    -0.332 C  
ENDBRANCH   7   8
ENDBRANCH   6   7
ENDBRANCH   2   6
TORSDOF 3
ENDMDL
MODEL      149
REMARK 921   NORMALIZED FREE ENERGY PREDICTED BY IDOCK:   -3.02 KCAL/MOL
REMARK 922        TOTAL FREE ENERGY PREDICTED BY IDOCK:   -3.73 KCAL/MOL
REMARK 923 INTER-LIGAND FREE ENERGY PREDICTED BY IDOCK:   -3.73 KCAL/MOL
REMARK 924 INTRA-LIGAND FREE ENERGY PREDICTED BY IDOCK:   -0.00 KCAL/MOL
REMARK 927      BINDING AFFINITY PREDICTED BY RF-SCORE:    0.00 PKD
ROOT
HETATM    1  C   UNL     1     -11.919  10.926  69.480  1.00  0.00    -0.401 C  
HETATM    2  C   UNL     1     -11.099  10.699  68.219  1.00  0.00    -0.279 C  
HETATM    3  N   UNL     1     -11.088   9.284  67.839  1.00  0.00    -0.493 NA 
HETATM    4  H2  UNL     1     -12.034   8.914  67.743  1.00  0.00     0.000 HD 
HETATM    5  H1  UNL     1     -10.538   9.131  66.994  1.00  0.00     0.000 HD 
ENDROOT
BRANCH   2   6
HETATM    6  C   UNL     1     -11.547  11.606  67.058  1.00  0.00    -0.189 C  
BRANCH   6   7
HETATM    7  O   UNL     1     -10.503  12.240  66.329  1.00  0.00    -0.231 OA 
BRANCH   7   8
HETATM    8  C   UNL     1      -9.777  11.446  65.457  1.00  0.00    -0.230 A  
HETATM    9  C   UNL     1      -8.541  10.784  65.684  1.00  0.00    -0.185 A  
HETATM   10  C   UNL     1      -7.982  10.012  64.638  1.00  0.00    -0.145 A  
HETATM   11  C   UNL     1      -7.621  10.852  66.880  1.00  0.00    -0.128 C  
HETATM   12  C   UNL     1      -8.609   9.866  63.406  1.00  0.00    -0.206 A  
HETATM   13  C   UNL     1      -9.803  10.530  63.175  1.00  0.00    -0.295 A  
HETATM   14  C   UNL     1     -10.393  11.321  64.177  1.00  0.00    -0.410 A  
HETATM   15  C   UNL     1     -11.677  12.047  63.833  1.00  0.00    -0.537 C  
ENDBRANCH   7   8
ENDBRANCH   6   7
ENDBRANCH   2   6
TORSDOF 3
ENDMDL
MODEL      150
REMARK 921   NORMALIZED FREE ENERGY PREDICTED BY IDOCK:   -3.02 KCAL/MOL
REMARK 922        TOTAL FREE ENERGY PREDICTED BY IDOCK:   -3.73 KCAL/MOL
REMARK 923 INTER-LIGAND FREE ENERGY PREDICTED BY IDOCK:   -3.54 KCAL/MOL
REMARK 924 INTRA-LIGAND FREE ENERGY PREDICTED BY IDOCK:   -0.19 KCAL/MOL
REMARK 927      BINDING AFFINITY PREDICTED BY RF-SCORE:    0.00 PKD
ROOT
HETATM    1  C   UNL     1      -8.973   9.376  69.773  1.00  0.00    -0.199 C  
HETATM    2  C   UNL     1      -9.801  10.351  68.950  1.00  0.00    -0.200 C  
HETATM    3  N   UNL     1     -10.542   9.659  67.892  1.00  0.00    -0.247 NA 
HETATM    4  H2  UNL     1     -11.117   8.906  68.269  1.00  0.00     0.000 HD 
HETATM    5  H1  UNL     1     -11.097  10.313  67.340  1.00  0.00     0.000 HD 
ENDROOT
BRANCH   2   6
HETATM    6  C   UNL     1     -10.719  11.224  69.824  1.00  0.00     0.066 C  
BRANCH   6   7
HETATM    7  O   UNL     1     -11.526  12.166  69.129  1.00  0.00    -0.255 OA 
BRANCH   7   8
HETATM    8  C   UNL     1     -11.537  13.462  69.616  1.00  0.00    -0.268 A  
HETATM    9  C   UNL     1     -12.181  13.966  70.777  1.00  0.00    -0.441 A  
HETATM   10  C   UNL     1     -12.046  15.339  71.087  1.00  0.00    -0.405 A  
HETATM   11  C   UNL     1     -13.124  13.268  71.730  1.00  0.00    -0.472 C  
HETATM   12  C   UNL     1     -11.291  16.207  70.306  1.00  0.00    -0.363 A  
HETATM   13  C   UNL     1     -10.680  15.722  69.161  1.00  0.00    -0.246 A  
HETATM   14  C   UNL     1     -10.796  14.368  68.801  1.00  0.00    -0.261 A  
HETATM   15  C   UNL     1     -10.133  13.925  67.513  1.00  0.00    -0.244 C  
ENDBRANCH   7   8
ENDBRANCH   6   7
ENDBRANCH   2   6
TORSDOF 3
ENDMDL
MODEL      151
REMARK 921   NORMALIZED FREE ENERGY PREDICTED BY IDOCK:   -3.01 KCAL/MOL
REMARK 922        TOTAL FREE ENERGY PREDICTED BY IDOCK:   -3.72 KCAL/MOL
REMARK 923 INTER-LIGAND FREE ENERGY PREDICTED BY IDOCK:   -3.40 KCAL/MOL
REMARK 924 INTRA-LIGAND FREE ENERGY PREDICTED BY IDOCK:   -0.32 KCAL/MOL
REMARK 927      BINDING AFFINITY PREDICTED BY RF-SCORE:    0.00 PKD
ROOT
HETATM    1  C   UNL     1     -10.168  14.490  68.443  1.00  0.00    -0.239 C  
HETATM    2  C   UNL     1     -11.384  13.708  68.917  1.00  0.00    -0.290 C  
HETATM    3  N   UNL     1     -12.408  14.598  69.469  1.00  0.00    -0.532 NA 
HETATM    4  H2  UNL     1     -12.668  15.327  68.804  1.00  0.00     0.000 HD 
HETATM    5  H1  UNL     1     -13.223  14.073  69.787  1.00  0.00     0.000 HD 
ENDROOT
BRANCH   2   6
HETATM    6  C   UNL     1     -11.948  12.783  67.823  1.00  0.00    -0.260 C  
BRANCH   6   7
HETATM    7  O   UNL     1     -11.729  11.391  68.013  1.00  0.00    -0.484 OA 
BRANCH   7   8
HETATM    8  C   UNL     1     -10.418  10.948  67.943  1.00  0.00    -0.195 A  
HETATM    9  C   UNL     1      -9.478  11.131  66.895  1.00  0.00    -0.203 A  
HETATM   10  C   UNL     1      -8.178  10.592  67.046  1.00  0.00    -0.124 A  
HETATM   11  C   UNL     1      -9.671  11.746  65.528  1.00  0.00    -0.248 C  
HETATM   12  C   UNL     1      -7.787   9.907  68.190  1.00  0.00    -0.085 A  
HETATM   13  C   UNL     1      -8.710   9.708  69.205  1.00  0.00    -0.151 A  
HETATM   14  C   UNL     1     -10.018  10.212  69.097  1.00  0.00    -0.221 A  
HETATM   15  C   UNL     1     -10.980   9.917  70.230  1.00  0.00    -0.366 C  
ENDBRANCH   7   8
ENDBRANCH   6   7
ENDBRANCH   2   6
TORSDOF 3
ENDMDL
MODEL      152
REMARK 921   NORMALIZED FREE ENERGY PREDICTED BY IDOCK:   -3.01 KCAL/MOL
REMARK 922        TOTAL FREE ENERGY PREDICTED BY IDOCK:   -3.71 KCAL/MOL
REMARK 923 INTER-LIGAND FREE ENERGY PREDICTED BY IDOCK:   -3.56 KCAL/MOL
REMARK 924 INTRA-LIGAND FREE ENERGY PREDICTED BY IDOCK:   -0.15 KCAL/MOL
REMARK 927      BINDING AFFINITY PREDICTED BY RF-SCORE:    0.00 PKD
ROOT
HETATM    1  C   UNL     1      -7.721   5.207  71.339  1.00  0.00    -0.105 C  
HETATM    2  C   UNL     1      -8.993   5.343  70.516  1.00  0.00    -0.134 C  
HETATM    3  N   UNL     1      -9.403   4.055  69.952  1.00  0.00    -0.152 NA 
HETATM    4  H2  UNL     1      -9.500   3.343  70.676  1.00  0.00     0.000 HD 
HETATM    5  H1  UNL     1     -10.255   4.146  69.400  1.00  0.00     0.000 HD 
ENDROOT
BRANCH   2   6
HETATM    6  C   UNL     1     -10.131   6.018  71.303  1.00  0.00    -0.192 C  
BRANCH   6   7
HETATM    7  O   UNL     1     -11.176   6.583  70.521  1.00  0.00    -0.292 OA 
BRANCH   7   8
HETATM    8  C   UNL     1     -11.593   7.859  70.861  1.00  0.00    -0.273 A  
HETATM    9  C   UNL     1     -10.912   9.091  70.675  1.00  0.00    -0.308 A  
HETATM   10  C   UNL     1     -11.542  10.286  71.097  1.00  0.00    -0.385 A  
HETATM   11  C   UNL     1      -9.510   9.347  70.174  1.00  0.00    -0.276 C  
HETATM   12  C   UNL     1     -12.809  10.295  71.669  1.00  0.00    -0.568 A  
HETATM   13  C   UNL     1     -13.466   9.093  71.872  1.00  0.00    -0.492 A  
HETATM   14  C   UNL     1     -12.877   7.876  71.483  1.00  0.00    -0.340 A  
HETATM   15  C   UNL     1     -13.641   6.601  71.775  1.00  0.00    -0.046 C  
ENDBRANCH   7   8
ENDBRANCH   6   7
ENDBRANCH   2   6
TORSDOF 3
ENDMDL
MODEL      153
REMARK 921   NORMALIZED FREE ENERGY PREDICTED BY IDOCK:   -3.00 KCAL/MOL
REMARK 922        TOTAL FREE ENERGY PREDICTED BY IDOCK:   -3.71 KCAL/MOL
REMARK 923 INTER-LIGAND FREE ENERGY PREDICTED BY IDOCK:   -3.56 KCAL/MOL
REMARK 924 INTRA-LIGAND FREE ENERGY PREDICTED BY IDOCK:   -0.15 KCAL/MOL
REMARK 927      BINDING AFFINITY PREDICTED BY RF-SCORE:    0.00 PKD
ROOT
HETATM    1  C   UNL     1     -13.077  12.487  72.104  1.00  0.00    -0.428 C  
HETATM    2  C   UNL     1     -12.578  13.336  70.945  1.00  0.00    -0.306 C  
HETATM    3  N   UNL     1     -11.774  14.465  71.419  1.00  0.00    -0.473 NA 
HETATM    4  H2  UNL     1     -11.005  14.154  72.013  1.00  0.00     0.000 HD 
HETATM    5  H1  UNL     1     -11.439  15.034  70.642  1.00  0.00     0.000 HD 
ENDROOT
BRANCH   2   6
HETATM    6  C   UNL     1     -11.837  12.502  69.885  1.00  0.00    -0.303 C  
BRANCH   6   7
HETATM    7  O   UNL     1     -11.792  13.059  68.577  1.00  0.00    -0.313 OA 
BRANCH   7   8
HETATM    8  C   UNL     1     -10.559  13.502  68.127  1.00  0.00    -0.245 A  
HETATM    9  C   UNL     1      -9.388  12.743  67.867  1.00  0.00    -0.208 A  
HETATM   10  C   UNL     1      -8.233  13.414  67.400  1.00  0.00    -0.188 A  
HETATM   11  C   UNL     1      -9.118  11.277  68.117  1.00  0.00    -0.166 C  
HETATM   12  C   UNL     1      -8.212  14.785  67.171  1.00  0.00    -0.239 A  
HETATM   13  C   UNL     1      -9.347  15.531  67.445  1.00  0.00    -0.211 A  
HETATM   14  C   UNL     1     -10.516  14.913  67.924  1.00  0.00    -0.250 A  
HETATM   15  C   UNL     1     -11.701  15.803  68.239  1.00  0.00    -0.229 C  
ENDBRANCH   7   8
ENDBRANCH   6   7
ENDBRANCH   2   6
TORSDOF 3
ENDMDL
MODEL      154
REMARK 921   NORMALIZED FREE ENERGY PREDICTED BY IDOCK:   -2.97 KCAL/MOL
REMARK 922        TOTAL FREE ENERGY PREDICTED BY IDOCK:   -3.68 KCAL/MOL
REMARK 923 INTER-LIGAND FREE ENERGY PREDICTED BY IDOCK:   -3.43 KCAL/MOL
REMARK 924 INTRA-LIGAND FREE ENERGY PREDICTED BY IDOCK:   -0.24 KCAL/MOL
REMARK 927      BINDING AFFINITY PREDICTED BY RF-SCORE:    0.00 PKD
ROOT
HETATM    1  C   UNL     1      -7.246   8.867  65.108  1.00  0.00    -0.087 C  
HETATM    2  C   UNL     1      -8.116   9.284  63.931  1.00  0.00    -0.151 C  
HETATM    3  N   UNL     1      -8.589   8.118  63.180  1.00  0.00    -0.407 NA 
HETATM    4  H2  UNL     1      -9.071   7.454  63.784  1.00  0.00     0.000 HD 
HETATM    5  H1  UNL     1      -9.171   8.398  62.390  1.00  0.00     0.000 HD 
ENDROOT
BRANCH   2   6
HETATM    6  C   UNL     1      -9.271  10.208  64.354  1.00  0.00    -0.258 C  
BRANCH   6   7
HETATM    7  O   UNL     1      -9.002  11.076  65.449  1.00  0.00    -0.198 OA 
BRANCH   7   8
HETATM    8  C   UNL     1      -9.974  11.165  66.431  1.00  0.00    -0.217 A  
HETATM    9  C   UNL     1     -10.390  10.172  67.357  1.00  0.00    -0.289 A  
HETATM   10  C   UNL     1     -11.407  10.494  68.287  1.00  0.00    -0.332 A  
HETATM   11  C   UNL     1      -9.983   8.720  67.455  1.00  0.00    -0.254 C  
HETATM   12  C   UNL     1     -11.999  11.751  68.335  1.00  0.00    -0.250 A  
HETATM   13  C   UNL     1     -11.610  12.714  67.418  1.00  0.00    -0.421 A  
HETATM   14  C   UNL     1     -10.614  12.440  66.465  1.00  0.00    -0.261 A  
HETATM   15  C   UNL     1     -10.274  13.531  65.471  1.00  0.00    -0.308 C  
ENDBRANCH   7   8
ENDBRANCH   6   7
ENDBRANCH   2   6
TORSDOF 3
ENDMDL
MODEL      155
REMARK 921   NORMALIZED FREE ENERGY PREDICTED BY IDOCK:   -2.97 KCAL/MOL
REMARK 922        TOTAL FREE ENERGY PREDICTED BY IDOCK:   -3.67 KCAL/MOL
REMARK 923 INTER-LIGAND FREE ENERGY PREDICTED BY IDOCK:   -3.51 KCAL/MOL
REMARK 924 INTRA-LIGAND FREE ENERGY PREDICTED BY IDOCK:   -0.16 KCAL/MOL
REMARK 927      BINDING AFFINITY PREDICTED BY RF-SCORE:    0.00 PKD
ROOT
HETATM    1  C   UNL     1      -9.016   5.830  66.469  1.00  0.00    -0.128 C  
HETATM    2  C   UNL     1      -9.516   6.835  67.497  1.00  0.00    -0.127 C  
HETATM    3  N   UNL     1      -8.428   7.296  68.364  1.00  0.00    -0.125 NA 
HETATM    4  H2  UNL     1      -7.650   7.671  67.821  1.00  0.00     0.000 HD 
HETATM    5  H1  UNL     1      -8.763   7.969  69.052  1.00  0.00     0.000 HD 
ENDROOT
BRANCH   2   6
HETATM    6  C   UNL     1     -10.276   8.007  66.849  1.00  0.00    -0.315 C  
BRANCH   6   7
HETATM    7  O   UNL     1      -9.631   9.273  66.909  1.00  0.00    -0.154 OA 
BRANCH   7   8
HETATM    8  C   UNL     1     -10.432  10.372  67.171  1.00  0.00    -0.256 A  
HETATM    9  C   UNL     1     -11.061  10.737  68.390  1.00  0.00    -0.323 A  
HETATM   10  C   UNL     1     -11.835  11.921  68.428  1.00  0.00    -0.352 A  
HETATM   11  C   UNL     1     -11.136   9.981  69.697  1.00  0.00    -0.300 C  
HETATM   12  C   UNL     1     -11.985  12.746  67.318  1.00  0.00    -0.345 A  
HETATM   13  C   UNL     1     -11.390  12.380  66.122  1.00  0.00    -0.398 A  
HETATM   14  C   UNL     1     -10.622  11.205  66.029  1.00  0.00    -0.298 A  
HETATM   15  C   UNL     1     -10.039  10.853  64.676  1.00  0.00    -0.391 C  
ENDBRANCH   7   8
ENDBRANCH   6   7
ENDBRANCH   2   6
TORSDOF 3
ENDMDL
MODEL      156
REMARK 921   NORMALIZED FREE ENERGY PREDICTED BY IDOCK:   -2.96 KCAL/MOL
REMARK 922        TOTAL FREE ENERGY PREDICTED BY IDOCK:   -3.66 KCAL/MOL
REMARK 923 INTER-LIGAND FREE ENERGY PREDICTED BY IDOCK:   -3.46 KCAL/MOL
REMARK 924 INTRA-LIGAND FREE ENERGY PREDICTED BY IDOCK:   -0.20 KCAL/MOL
REMARK 927      BINDING AFFINITY PREDICTED BY RF-SCORE:    0.00 PKD
ROOT
HETATM    1  C   UNL     1     -14.326   7.165  71.593  1.00  0.00    -0.528 C  
HETATM    2  C   UNL     1     -12.927   7.759  71.532  1.00  0.00    -0.325 C  
HETATM    3  N   UNL     1     -12.456   8.148  72.864  1.00  0.00    -0.653 NA 
HETATM    4  H2  UNL     1     -12.503   7.368  73.520  1.00  0.00     0.000 HD 
HETATM    5  H1  UNL     1     -11.518   8.547  72.823  1.00  0.00     0.000 HD 
ENDROOT
BRANCH   2   6
HETATM    6  C   UNL     1     -11.928   6.835  70.812  1.00  0.00    -0.378 C  
BRANCH   6   7
HETATM    7  O   UNL     1     -11.240   7.408  69.707  1.00  0.00    -0.202 OA 
BRANCH   7   8
HETATM    8  C   UNL     1      -9.879   7.165  69.622  1.00  0.00    -0.162 A  
HETATM    9  C   UNL     1      -8.843   7.636  70.471  1.00  0.00    -0.149 A  
HETATM   10  C   UNL     1      -7.510   7.248  70.195  1.00  0.00    -0.088 A  
HETATM   11  C   UNL     1      -8.912   8.619  71.617  1.00  0.00    -0.305 C  
HETATM   12  C   UNL     1      -7.185   6.410  69.135  1.00  0.00    -0.090 A  
HETATM   13  C   UNL     1      -8.192   5.967  68.293  1.00  0.00    -0.110 A  
HETATM   14  C   UNL     1      -9.531   6.336  68.516  1.00  0.00    -0.123 A  
HETATM   15  C   UNL     1     -10.568   5.844  67.527  1.00  0.00    -0.347 C  
ENDBRANCH   7   8
ENDBRANCH   6   7
ENDBRANCH   2   6
TORSDOF 3
ENDMDL
MODEL      157
REMARK 921   NORMALIZED FREE ENERGY PREDICTED BY IDOCK:   -2.96 KCAL/MOL
REMARK 922        TOTAL FREE ENERGY PREDICTED BY IDOCK:   -3.65 KCAL/MOL
REMARK 923 INTER-LIGAND FREE ENERGY PREDICTED BY IDOCK:   -3.64 KCAL/MOL
REMARK 924 INTRA-LIGAND FREE ENERGY PREDICTED BY IDOCK:   -0.02 KCAL/MOL
REMARK 927      BINDING AFFINITY PREDICTED BY RF-SCORE:    0.00 PKD
ROOT
HETATM    1  C   UNL     1     -14.218   7.765  71.730  1.00  0.00    -0.558 C  
HETATM    2  C   UNL     1     -12.712   7.815  71.523  1.00  0.00    -0.332 C  
HETATM    3  N   UNL     1     -12.004   7.961  72.798  1.00  0.00    -0.615 NA 
HETATM    4  H2  UNL     1     -12.267   7.230  73.458  1.00  0.00     0.000 HD 
HETATM    5  H1  UNL     1     -10.995   7.995  72.659  1.00  0.00     0.000 HD 
ENDROOT
BRANCH   2   6
HETATM    6  C   UNL     1     -12.192   6.618  70.707  1.00  0.00    -0.241 C  
BRANCH   6   7
HETATM    7  O   UNL     1     -10.813   6.655  70.360  1.00  0.00    -0.234 OA 
BRANCH   7   8
HETATM    8  C   UNL     1     -10.397   5.799  69.354  1.00  0.00    -0.262 A  
HETATM    9  C   UNL     1      -9.904   4.472  69.470  1.00  0.00    -0.277 A  
HETATM   10  C   UNL     1      -9.543   3.777  68.292  1.00  0.00    -0.171 A  
HETATM   11  C   UNL     1      -9.584   3.672  70.711  1.00  0.00    -0.249 C  
HETATM   12  C   UNL     1      -9.671   4.341  67.027  1.00  0.00    -0.237 A  
HETATM   13  C   UNL     1     -10.130   5.643  66.914  1.00  0.00    -0.230 A  
HETATM   14  C   UNL     1     -10.489   6.382  68.055  1.00  0.00    -0.271 A  
HETATM   15  C   UNL     1     -10.944   7.812  67.851  1.00  0.00     0.040 C  
ENDBRANCH   7   8
ENDBRANCH   6   7
ENDBRANCH   2   6
TORSDOF 3
ENDMDL
MODEL      158
REMARK 921   NORMALIZED FREE ENERGY PREDICTED BY IDOCK:   -2.95 KCAL/MOL
REMARK 922        TOTAL FREE ENERGY PREDICTED BY IDOCK:   -3.65 KCAL/MOL
REMARK 923 INTER-LIGAND FREE ENERGY PREDICTED BY IDOCK:   -3.53 KCAL/MOL
REMARK 924 INTRA-LIGAND FREE ENERGY PREDICTED BY IDOCK:   -0.12 KCAL/MOL
REMARK 927      BINDING AFFINITY PREDICTED BY RF-SCORE:    0.00 PKD
ROOT
HETATM    1  C   UNL     1      -5.612  16.591  69.275  1.00  0.00    -0.138 C  
HETATM    2  C   UNL     1      -6.861  16.548  68.407  1.00  0.00    -0.145 C  
HETATM    3  N   UNL     1      -6.580  15.951  67.099  1.00  0.00    -0.276 NA 
HETATM    4  H2  UNL     1      -6.157  15.027  67.193  1.00  0.00     0.000 HD 
HETATM    5  H1  UNL     1      -7.417  15.923  66.518  1.00  0.00     0.000 HD 
ENDROOT
BRANCH   2   6
HETATM    6  C   UNL     1      -8.043  15.862  69.116  1.00  0.00    -0.239 C  
BRANCH   6   7
HETATM    7  O   UNL     1      -9.338  16.323  68.748  1.00  0.00    -0.215 OA 
BRANCH   7   8
HETATM    8  C   UNL     1     -10.223  15.377  68.259  1.00  0.00    -0.229 A  
HETATM    9  C   UNL     1     -10.357  14.894  66.930  1.00  0.00    -0.264 A  
HETATM   10  C   UNL     1     -11.336  13.909  66.660  1.00  0.00    -0.342 A  
HETATM   11  C   UNL     1      -9.666  15.354  65.667  1.00  0.00    -0.366 C  
HETATM   12  C   UNL     1     -12.157  13.386  67.653  1.00  0.00    -0.311 A  
HETATM   13  C   UNL     1     -12.043  13.872  68.946  1.00  0.00    -0.355 A  
HETATM   14  C   UNL     1     -11.095  14.861  69.262  1.00  0.00    -0.284 A  
HETATM   15  C   UNL     1     -11.060  15.369  70.689  1.00  0.00    -0.364 C  
ENDBRANCH   7   8
ENDBRANCH   6   7
ENDBRANCH   2   6
TORSDOF 3
ENDMDL
MODEL      159
REMARK 921   NORMALIZED FREE ENERGY PREDICTED BY IDOCK:   -2.93 KCAL/MOL
REMARK 922        TOTAL FREE ENERGY PREDICTED BY IDOCK:   -3.63 KCAL/MOL
REMARK 923 INTER-LIGAND FREE ENERGY PREDICTED BY IDOCK:   -3.68 KCAL/MOL
REMARK 924 INTRA-LIGAND FREE ENERGY PREDICTED BY IDOCK:    0.05 KCAL/MOL
REMARK 927      BINDING AFFINITY PREDICTED BY RF-SCORE:    0.00 PKD
ROOT
HETATM    1  C   UNL     1      -6.338  17.467  68.829  1.00  0.00    -0.188 C  
HETATM    2  C   UNL     1      -7.357  16.732  67.970  1.00  0.00    -0.161 C  
HETATM    3  N   UNL     1      -6.700  15.838  67.013  1.00  0.00    -0.281 NA 
HETATM    4  H2  UNL     1      -6.068  15.189  67.481  1.00  0.00     0.000 HD 
HETATM    5  H1  UNL     1      -7.383  15.346  66.438  1.00  0.00     0.000 HD 
ENDROOT
BRANCH   2   6
HETATM    6  C   UNL     1      -8.416  16.000  68.815  1.00  0.00    -0.228 C  
BRANCH   6   7
HETATM    7  O   UNL     1      -9.766  16.388  68.588  1.00  0.00    -0.222 OA 
BRANCH   7   8
HETATM    8  C   UNL     1      -9.972  17.505  67.796  1.00  0.00    -0.312 A  
HETATM    9  C   UNL     1     -10.038  18.868  68.188  1.00  0.00    -0.447 A  
HETATM   10  C   UNL     1     -10.251  19.852  67.194  1.00  0.00    -0.579 A  
HETATM   11  C   UNL     1     -10.023  19.470  69.574  1.00  0.00    -0.120 C  
HETATM   12  C   UNL     1     -10.379  19.531  65.847  1.00  0.00    -0.562 A  
HETATM   13  C   UNL     1     -10.338  18.200  65.465  1.00  0.00     0.129 A  
HETATM   14  C   UNL     1     -10.142  17.183  66.417  1.00  0.00    -0.326 A  
HETATM   15  C   UNL     1     -10.150  15.750  65.925  1.00  0.00    -0.381 C  
ENDBRANCH   7   8
ENDBRANCH   6   7
ENDBRANCH   2   6
TORSDOF 3
ENDMDL
MODEL      160
REMARK 921   NORMALIZED FREE ENERGY PREDICTED BY IDOCK:   -2.93 KCAL/MOL
REMARK 922        TOTAL FREE ENERGY PREDICTED BY IDOCK:   -3.62 KCAL/MOL
REMARK 923 INTER-LIGAND FREE ENERGY PREDICTED BY IDOCK:   -3.43 KCAL/MOL
REMARK 924 INTRA-LIGAND FREE ENERGY PREDICTED BY IDOCK:   -0.19 KCAL/MOL
REMARK 927      BINDING AFFINITY PREDICTED BY RF-SCORE:    0.00 PKD
ROOT
HETATM    1  C   UNL     1     -10.154   7.393  71.241  1.00  0.00    -0.195 C  
HETATM    2  C   UNL     1     -11.154   6.378  70.705  1.00  0.00    -0.307 C  
HETATM    3  N   UNL     1     -12.473   6.983  70.511  1.00  0.00    -0.615 NA 
HETATM    4  H2  UNL     1     -12.423   7.809  69.914  1.00  0.00     0.000 HD 
HETATM    5  H1  UNL     1     -13.143   6.303  70.152  1.00  0.00     0.000 HD 
ENDROOT
BRANCH   2   6
HETATM    6  C   UNL     1     -10.647   5.672  69.435  1.00  0.00    -0.304 C  
BRANCH   6   7
HETATM    7  O   UNL     1     -11.197   6.134  68.207  1.00  0.00    -0.323 OA 
BRANCH   7   8
HETATM    8  C   UNL     1     -10.341   6.806  67.351  1.00  0.00    -0.223 A  
HETATM    9  C   UNL     1     -10.134   8.206  67.228  1.00  0.00    -0.309 A  
HETATM   10  C   UNL     1      -9.193   8.672  66.280  1.00  0.00    -0.257 A  
HETATM   11  C   UNL     1     -10.864   9.347  67.897  1.00  0.00    -0.215 C  
HETATM   12  C   UNL     1      -8.453   7.808  65.481  1.00  0.00    -0.146 A  
HETATM   13  C   UNL     1      -8.669   6.443  65.585  1.00  0.00    -0.108 A  
HETATM   14  C   UNL     1      -9.604   5.930  66.501  1.00  0.00    -0.180 A  
HETATM   15  C   UNL     1      -9.813   4.430  66.525  1.00  0.00    -0.247 C  
ENDBRANCH   7   8
ENDBRANCH   6   7
ENDBRANCH   2   6
TORSDOF 3
ENDMDL
MODEL      161
REMARK 921   NORMALIZED FREE ENERGY PREDICTED BY IDOCK:   -2.92 KCAL/MOL
REMARK 922        TOTAL FREE ENERGY PREDICTED BY IDOCK:   -3.62 KCAL/MOL
REMARK 923 INTER-LIGAND FREE ENERGY PREDICTED BY IDOCK:   -3.46 KCAL/MOL
REMARK 924 INTRA-LIGAND FREE ENERGY PREDICTED BY IDOCK:   -0.16 KCAL/MOL
REMARK 927      BINDING AFFINITY PREDICTED BY RF-SCORE:    0.00 PKD
ROOT
HETATM    1  C   UNL     1      -9.190   3.724  69.185  1.00  0.00    -0.226 C  
HETATM    2  C   UNL     1     -10.027   4.322  70.307  1.00  0.00    -0.133 C  
HETATM    3  N   UNL     1      -9.264   4.404  71.555  1.00  0.00    -0.130 NA 
HETATM    4  H2  UNL     1      -8.391   4.915  71.426  1.00  0.00     0.000 HD 
HETATM    5  H1  UNL     1      -9.825   4.804  72.306  1.00  0.00     0.000 HD 
ENDROOT
BRANCH   2   6
HETATM    6  C   UNL     1     -10.648   5.675  69.917  1.00  0.00    -0.328 C  
BRANCH   6   7
HETATM    7  O   UNL     1      -9.874   6.826  70.231  1.00  0.00    -0.174 OA 
BRANCH   7   8
HETATM    8  C   UNL     1     -10.394   8.053  69.854  1.00  0.00    -0.221 A  
HETATM    9  C   UNL     1     -10.420   8.644  68.563  1.00  0.00    -0.209 A  
HETATM   10  C   UNL     1     -11.018   9.917  68.411  1.00  0.00    -0.235 A  
HETATM   11  C   UNL     1      -9.791   8.165  67.275  1.00  0.00    -0.259 C  
HETATM   12  C   UNL     1     -11.595  10.599  69.476  1.00  0.00    -0.360 A  
HETATM   13  C   UNL     1     -11.551  10.035  70.740  1.00  0.00    -0.444 A  
HETATM   14  C   UNL     1     -10.955   8.777  70.947  1.00  0.00    -0.315 A  
HETATM   15  C   UNL     1     -10.910   8.247  72.365  1.00  0.00    -0.421 C  
ENDBRANCH   7   8
ENDBRANCH   6   7
ENDBRANCH   2   6
TORSDOF 3
ENDMDL
MODEL      162
REMARK 921   NORMALIZED FREE ENERGY PREDICTED BY IDOCK:   -2.92 KCAL/MOL
REMARK 922        TOTAL FREE ENERGY PREDICTED BY IDOCK:   -3.61 KCAL/MOL
REMARK 923 INTER-LIGAND FREE ENERGY PREDICTED BY IDOCK:   -3.43 KCAL/MOL
REMARK 924 INTRA-LIGAND FREE ENERGY PREDICTED BY IDOCK:   -0.18 KCAL/MOL
REMARK 927      BINDING AFFINITY PREDICTED BY RF-SCORE:    0.00 PKD
ROOT
HETATM    1  C   UNL     1     -11.090  11.241  68.075  1.00  0.00    -0.325 C  
HETATM    2  C   UNL     1     -11.516  10.926  69.501  1.00  0.00    -0.301 C  
HETATM    3  N   UNL     1     -12.952  10.646  69.579  1.00  0.00    -0.477 NA 
HETATM    4  H2  UNL     1     -13.224   9.904  68.935  1.00  0.00     0.000 HD 
HETATM    5  H1  UNL     1     -13.236  10.436  70.535  1.00  0.00     0.000 HD 
ENDROOT
BRANCH   2   6
HETATM    6  C   UNL     1     -10.672   9.802  70.129  1.00  0.00    -0.289 C  
BRANCH   6   7
HETATM    7  O   UNL     1     -11.066   8.475  69.804  1.00  0.00    -0.188 OA 
BRANCH   7   8
HETATM    8  C   UNL     1     -10.430   7.448  70.482  1.00  0.00    -0.218 A  
HETATM    9  C   UNL     1      -9.084   7.013  70.366  1.00  0.00    -0.156 A  
HETATM   10  C   UNL     1      -8.645   5.937  71.174  1.00  0.00    -0.129 A  
HETATM   11  C   UNL     1      -8.010   7.457  69.399  1.00  0.00    -0.124 C  
HETATM   12  C   UNL     1      -9.482   5.306  72.088  1.00  0.00    -0.168 A  
HETATM   13  C   UNL     1     -10.802   5.715  72.187  1.00  0.00    -0.300 A  
HETATM   14  C   UNL     1     -11.290   6.770  71.395  1.00  0.00    -0.322 A  
HETATM   15  C   UNL     1     -12.755   7.130  71.532  1.00  0.00    -0.433 C  
ENDBRANCH   7   8
ENDBRANCH   6   7
ENDBRANCH   2   6
TORSDOF 3
ENDMDL
MODEL      163
REMARK 921   NORMALIZED FREE ENERGY PREDICTED BY IDOCK:   -2.90 KCAL/MOL
REMARK 922        TOTAL FREE ENERGY PREDICTED BY IDOCK:   -3.59 KCAL/MOL
REMARK 923 INTER-LIGAND FREE ENERGY PREDICTED BY IDOCK:   -3.50 KCAL/MOL
REMARK 924 INTRA-LIGAND FREE ENERGY PREDICTED BY IDOCK:   -0.09 KCAL/MOL
REMARK 927      BINDING AFFINITY PREDICTED BY RF-SCORE:    0.00 PKD
ROOT
HETATM    1  C   UNL     1     -13.395  10.324  71.683  1.00  0.00    -0.451 C  
HETATM    2  C   UNL     1     -13.186   9.003  72.408  1.00  0.00    -0.447 C  
HETATM    3  N   UNL     1     -14.384   8.164  72.342  1.00  0.00    -0.654 NA 
HETATM    4  H2  UNL     1     -14.686   8.018  71.378  1.00  0.00     0.000 HD 
HETATM    5  H1  UNL     1     -14.244   7.279  72.828  1.00  0.00     0.000 HD 
ENDROOT
BRANCH   2   6
HETATM    6  C   UNL     1     -11.929   8.260  71.920  1.00  0.00    -0.330 C  
BRANCH   6   7
HETATM    7  O   UNL     1     -10.753   8.453  72.696  1.00  0.00    -0.339 OA 
BRANCH   7   8
HETATM    8  C   UNL     1      -9.578   7.918  72.197  1.00  0.00    -0.197 A  
HETATM    9  C   UNL     1      -8.895   8.249  70.997  1.00  0.00    -0.176 A  
HETATM   10  C   UNL     1      -7.692   7.570  70.690  1.00  0.00    -0.090 A  
HETATM   11  C   UNL     1      -9.311   9.180  69.881  1.00  0.00    -0.198 C  
HETATM   12  C   UNL     1      -7.150   6.604  71.529  1.00  0.00    -0.080 A  
HETATM   13  C   UNL     1      -7.826   6.263  72.689  1.00  0.00    -0.105 A  
HETATM   14  C   UNL     1      -9.033   6.899  73.032  1.00  0.00    -0.146 A  
HETATM   15  C   UNL     1      -9.733   6.441  74.296  1.00  0.00    -0.292 C  
ENDBRANCH   7   8
ENDBRANCH   6   7
ENDBRANCH   2   6
TORSDOF 3
ENDMDL
MODEL      164
REMARK 921   NORMALIZED FREE ENERGY PREDICTED BY IDOCK:   -2.90 KCAL/MOL
REMARK 922        TOTAL FREE ENERGY PREDICTED BY IDOCK:   -3.59 KCAL/MOL
REMARK 923 INTER-LIGAND FREE ENERGY PREDICTED BY IDOCK:   -3.38 KCAL/MOL
REMARK 924 INTRA-LIGAND FREE ENERGY PREDICTED BY IDOCK:   -0.20 KCAL/MOL
REMARK 927      BINDING AFFINITY PREDICTED BY RF-SCORE:    0.00 PKD
ROOT
HETATM    1  C   UNL     1      -9.030   5.682  67.238  1.00  0.00    -0.111 C  
HETATM    2  C   UNL     1      -9.526   6.546  68.388  1.00  0.00    -0.120 C  
HETATM    3  N   UNL     1      -8.421   6.969  69.252  1.00  0.00    -0.132 NA 
HETATM    4  H2  UNL     1      -7.688   7.438  68.720  1.00  0.00     0.000 HD 
HETATM    5  H1  UNL     1      -8.754   7.547  70.023  1.00  0.00     0.000 HD 
ENDROOT
BRANCH   2   6
HETATM    6  C   UNL     1     -10.370   7.739  67.902  1.00  0.00    -0.217 C  
BRANCH   6   7
HETATM    7  O   UNL     1      -9.823   9.028  68.151  1.00  0.00    -0.156 OA 
BRANCH   7   8
HETATM    8  C   UNL     1     -10.622   9.925  68.839  1.00  0.00    -0.218 A  
HETATM    9  C   UNL     1     -11.036   9.880  70.197  1.00  0.00    -0.353 A  
HETATM   10  C   UNL     1     -11.854  10.922  70.693  1.00  0.00    -0.453 A  
HETATM   11  C   UNL     1     -10.828   8.795  71.229  1.00  0.00    -0.347 C  
HETATM   12  C   UNL     1     -12.250  11.996  69.902  1.00  0.00    -0.249 A  
HETATM   13  C   UNL     1     -11.865  12.030  68.572  1.00  0.00    -0.369 A  
HETATM   14  C   UNL     1     -11.064  11.011  68.027  1.00  0.00    -0.343 A  
HETATM   15  C   UNL     1     -10.720  11.100  66.555  1.00  0.00    -0.314 C  
ENDBRANCH   7   8
ENDBRANCH   6   7
ENDBRANCH   2   6
TORSDOF 3
ENDMDL
MODEL      165
REMARK 921   NORMALIZED FREE ENERGY PREDICTED BY IDOCK:   -2.89 KCAL/MOL
REMARK 922        TOTAL FREE ENERGY PREDICTED BY IDOCK:   -3.58 KCAL/MOL
REMARK 923 INTER-LIGAND FREE ENERGY PREDICTED BY IDOCK:   -3.51 KCAL/MOL
REMARK 924 INTRA-LIGAND FREE ENERGY PREDICTED BY IDOCK:   -0.07 KCAL/MOL
REMARK 927      BINDING AFFINITY PREDICTED BY RF-SCORE:    0.00 PKD
ROOT
HETATM    1  C   UNL     1     -13.019  10.989  71.261  1.00  0.00    -0.472 C  
HETATM    2  C   UNL     1     -12.521   9.740  71.972  1.00  0.00    -0.308 C  
HETATM    3  N   UNL     1     -13.635   8.929  72.467  1.00  0.00    -0.626 NA 
HETATM    4  H2  UNL     1     -14.291   8.698  71.720  1.00  0.00     0.000 HD 
HETATM    5  H1  UNL     1     -13.301   8.092  72.944  1.00  0.00     0.000 HD 
ENDROOT
BRANCH   2   6
HETATM    6  C   UNL     1     -11.548   8.920  71.104  1.00  0.00    -0.300 C  
BRANCH   6   7
HETATM    7  O   UNL     1     -11.753   7.513  71.103  1.00  0.00    -0.279 OA 
BRANCH   7   8
HETATM    8  C   UNL     1     -10.705   6.728  70.655  1.00  0.00    -0.235 A  
HETATM    9  C   UNL     1     -10.407   6.324  69.326  1.00  0.00    -0.266 A  
HETATM   10  C   UNL     1      -9.266   5.519  69.100  1.00  0.00    -0.142 A  
HETATM   11  C   UNL     1     -11.204   6.531  68.059  1.00  0.00    -0.251 C  
HETATM   12  C   UNL     1      -8.418   5.127  70.130  1.00  0.00    -0.102 A  
HETATM   13  C   UNL     1      -8.719   5.501  71.429  1.00  0.00    -0.135 A  
HETATM   14  C   UNL     1      -9.849   6.288  71.708  1.00  0.00    -0.182 A  
HETATM   15  C   UNL     1     -10.132   6.621  73.159  1.00  0.00    -0.213 C  
ENDBRANCH   7   8
ENDBRANCH   6   7
ENDBRANCH   2   6
TORSDOF 3
ENDMDL
MODEL      166
REMARK 921   NORMALIZED FREE ENERGY PREDICTED BY IDOCK:   -2.87 KCAL/MOL
REMARK 922        TOTAL FREE ENERGY PREDICTED BY IDOCK:   -3.56 KCAL/MOL
REMARK 923 INTER-LIGAND FREE ENERGY PREDICTED BY IDOCK:   -3.41 KCAL/MOL
REMARK 924 INTRA-LIGAND FREE ENERGY PREDICTED BY IDOCK:   -0.14 KCAL/MOL
REMARK 927      BINDING AFFINITY PREDICTED BY RF-SCORE:    0.00 PKD
ROOT
HETATM    1  C   UNL     1      -6.950   6.673  67.499  1.00  0.00    -0.082 C  
HETATM    2  C   UNL     1      -8.270   7.342  67.146  1.00  0.00    -0.118 C  
HETATM    3  N   UNL     1      -9.337   6.353  66.969  1.00  0.00    -0.127 NA 
HETATM    4  H2  UNL     1      -9.429   5.751  67.787  1.00  0.00     0.000 HD 
HETATM    5  H1  UNL     1     -10.222   6.801  66.731  1.00  0.00     0.000 HD 
ENDROOT
BRANCH   2   6
HETATM    6  C   UNL     1      -8.659   8.439  68.153  1.00  0.00    -0.139 C  
BRANCH   6   7
HETATM    7  O   UNL     1     -10.050   8.576  68.414  1.00  0.00    -0.183 OA 
BRANCH   7   8
HETATM    8  C   UNL     1     -10.597   9.838  68.250  1.00  0.00    -0.229 A  
HETATM    9  C   UNL     1     -10.706  10.607  67.061  1.00  0.00    -0.317 A  
HETATM   10  C   UNL     1     -11.316  11.882  67.129  1.00  0.00    -0.393 A  
HETATM   11  C   UNL     1     -10.157  10.325  65.681  1.00  0.00    -0.341 C  
HETATM   12  C   UNL     1     -11.827  12.397  68.315  1.00  0.00    -0.364 A  
HETATM   13  C   UNL     1     -11.702  11.659  69.480  1.00  0.00    -0.410 A  
HETATM   14  C   UNL     1     -11.091  10.392  69.467  1.00  0.00    -0.314 A  
HETATM   15  C   UNL     1     -10.955   9.665  70.790  1.00  0.00    -0.397 C  
ENDBRANCH   7   8
ENDBRANCH   6   7
ENDBRANCH   2   6
TORSDOF 3
ENDMDL
MODEL      167
REMARK 921   NORMALIZED FREE ENERGY PREDICTED BY IDOCK:   -2.86 KCAL/MOL
REMARK 922        TOTAL FREE ENERGY PREDICTED BY IDOCK:   -3.55 KCAL/MOL
REMARK 923 INTER-LIGAND FREE ENERGY PREDICTED BY IDOCK:   -3.54 KCAL/MOL
REMARK 924 INTRA-LIGAND FREE ENERGY PREDICTED BY IDOCK:   -0.01 KCAL/MOL
REMARK 927      BINDING AFFINITY PREDICTED BY RF-SCORE:    0.00 PKD
ROOT
HETATM    1  C   UNL     1     -11.922  14.506  67.951  1.00  0.00    -0.322 C  
HETATM    2  C   UNL     1     -10.783  14.222  68.920  1.00  0.00    -0.257 C  
HETATM    3  N   UNL     1     -11.019  12.988  69.672  1.00  0.00    -0.448 NA 
HETATM    4  H2  UNL     1     -11.187  12.196  69.050  1.00  0.00     0.000 HD 
HETATM    5  H1  UNL     1     -10.257  12.798  70.322  1.00  0.00     0.000 HD 
ENDROOT
BRANCH   2   6
HETATM    6  C   UNL     1      -9.409  14.224  68.226  1.00  0.00    -0.208 C  
BRANCH   6   7
HETATM    7  O   UNL     1      -9.414  13.902  66.841  1.00  0.00    -0.240 OA 
BRANCH   7   8
HETATM    8  C   UNL     1      -9.373  12.558  66.510  1.00  0.00    -0.233 A  
HETATM    9  C   UNL     1      -8.765  11.490  67.222  1.00  0.00    -0.151 A  
HETATM   10  C   UNL     1      -8.857  10.181  66.692  1.00  0.00    -0.145 A  
HETATM   11  C   UNL     1      -7.899  11.532  68.460  1.00  0.00    -0.140 C  
HETATM   12  C   UNL     1      -9.536   9.904  65.511  1.00  0.00    -0.341 A  
HETATM   13  C   UNL     1     -10.111  10.947  64.804  1.00  0.00    -0.383 A  
HETATM   14  C   UNL     1     -10.035  12.268  65.280  1.00  0.00    -0.250 A  
HETATM   15  C   UNL     1     -10.653  13.358  64.429  1.00  0.00    -0.423 C  
ENDBRANCH   7   8
ENDBRANCH   6   7
ENDBRANCH   2   6
TORSDOF 3
ENDMDL
MODEL      168
REMARK 921   NORMALIZED FREE ENERGY PREDICTED BY IDOCK:   -2.86 KCAL/MOL
REMARK 922        TOTAL FREE ENERGY PREDICTED BY IDOCK:   -3.54 KCAL/MOL
REMARK 923 INTER-LIGAND FREE ENERGY PREDICTED BY IDOCK:   -3.20 KCAL/MOL
REMARK 924 INTRA-LIGAND FREE ENERGY PREDICTED BY IDOCK:   -0.34 KCAL/MOL
REMARK 927      BINDING AFFINITY PREDICTED BY RF-SCORE:    0.00 PKD
ROOT
HETATM    1  C   UNL     1      -9.494   7.598  70.686  1.00  0.00    -0.163 C  
HETATM    2  C   UNL     1     -10.883   6.990  70.553  1.00  0.00    -0.251 C  
HETATM    3  N   UNL     1     -11.916   8.028  70.507  1.00  0.00    -0.483 NA 
HETATM    4  H2  UNL     1     -11.732   8.707  69.768  1.00  0.00     0.000 HD 
HETATM    5  H1  UNL     1     -12.846   7.621  70.418  1.00  0.00     0.000 HD 
ENDROOT
BRANCH   2   6
HETATM    6  C   UNL     1     -10.985   6.018  69.363  1.00  0.00    -0.385 C  
BRANCH   6   7
HETATM    7  O   UNL     1     -11.287   6.609  68.105  1.00  0.00    -0.182 OA 
BRANCH   7   8
HETATM    8  C   UNL     1     -10.262   6.661  67.175  1.00  0.00    -0.213 A  
HETATM    9  C   UNL     1      -9.560   5.585  66.572  1.00  0.00    -0.169 A  
HETATM   10  C   UNL     1      -8.544   5.879  65.631  1.00  0.00    -0.155 A  
HETATM   11  C   UNL     1      -9.644   4.103  66.857  1.00  0.00    -0.232 C  
HETATM   12  C   UNL     1      -8.225   7.181  65.266  1.00  0.00    -0.128 A  
HETATM   13  C   UNL     1      -8.894   8.234  65.870  1.00  0.00    -0.197 A  
HETATM   14  C   UNL     1      -9.902   7.995  66.821  1.00  0.00    -0.327 A  
HETATM   15  C   UNL     1     -10.558   9.198  67.466  1.00  0.00    -0.317 C  
ENDBRANCH   7   8
ENDBRANCH   6   7
ENDBRANCH   2   6
TORSDOF 3
ENDMDL
MODEL      169
REMARK 921   NORMALIZED FREE ENERGY PREDICTED BY IDOCK:   -2.84 KCAL/MOL
REMARK 922        TOTAL FREE ENERGY PREDICTED BY IDOCK:   -3.52 KCAL/MOL
REMARK 923 INTER-LIGAND FREE ENERGY PREDICTED BY IDOCK:   -3.30 KCAL/MOL
REMARK 924 INTRA-LIGAND FREE ENERGY PREDICTED BY IDOCK:   -0.23 KCAL/MOL
REMARK 927      BINDING AFFINITY PREDICTED BY RF-SCORE:    0.00 PKD
ROOT
HETATM    1  C   UNL     1     -14.140   7.295  71.467  1.00  0.00    -0.515 C  
HETATM    2  C   UNL     1     -12.662   7.657  71.438  1.00  0.00    -0.327 C  
HETATM    3  N   UNL     1     -12.174   8.006  72.775  1.00  0.00    -0.614 NA 
HETATM    4  H2  UNL     1     -12.364   7.264  73.449  1.00  0.00     0.000 HD 
HETATM    5  H1  UNL     1     -11.183   8.249  72.755  1.00  0.00     0.000 HD 
ENDROOT
BRANCH   2   6
HETATM    6  C   UNL     1     -11.804   6.564  70.775  1.00  0.00    -0.332 C  
BRANCH   6   7
HETATM    7  O   UNL     1     -10.464   6.461  71.240  1.00  0.00    -0.208 OA 
BRANCH   7   8
HETATM    8  C   UNL     1      -9.465   6.494  70.281  1.00  0.00    -0.162 A  
HETATM    9  C   UNL     1      -9.075   5.473  69.374  1.00  0.00    -0.134 A  
HETATM   10  C   UNL     1      -8.021   5.735  68.467  1.00  0.00    -0.101 A  
HETATM   11  C   UNL     1      -9.550   4.041  69.279  1.00  0.00    -0.247 C  
HETATM   12  C   UNL     1      -7.368   6.962  68.423  1.00  0.00    -0.093 A  
HETATM   13  C   UNL     1      -7.732   7.951  69.322  1.00  0.00    -0.099 A  
HETATM   14  C   UNL     1      -8.764   7.735  70.252  1.00  0.00    -0.143 A  
HETATM   15  C   UNL     1      -9.074   8.852  71.228  1.00  0.00    -0.323 C  
ENDBRANCH   7   8
ENDBRANCH   6   7
ENDBRANCH   2   6
TORSDOF 3
ENDMDL
MODEL      170
REMARK 921   NORMALIZED FREE ENERGY PREDICTED BY IDOCK:   -2.84 KCAL/MOL
REMARK 922        TOTAL FREE ENERGY PREDICTED BY IDOCK:   -3.52 KCAL/MOL
REMARK 923 INTER-LIGAND FREE ENERGY PREDICTED BY IDOCK:   -3.40 KCAL/MOL
REMARK 924 INTRA-LIGAND FREE ENERGY PREDICTED BY IDOCK:   -0.12 KCAL/MOL
REMARK 927      BINDING AFFINITY PREDICTED BY RF-SCORE:    0.00 PKD
ROOT
HETATM    1  C   UNL     1     -10.738   9.615  67.421  1.00  0.00    -0.308 C  
HETATM    2  C   UNL     1      -9.718   9.939  68.503  1.00  0.00    -0.154 C  
HETATM    3  N   UNL     1      -9.856  11.322  68.967  1.00  0.00    -0.389 NA 
HETATM    4  H2  UNL     1     -10.807  11.519  69.278  1.00  0.00     0.000 HD 
HETATM    5  H1  UNL     1      -9.172  11.539  69.692  1.00  0.00     0.000 HD 
ENDROOT
BRANCH   2   6
HETATM    6  C   UNL     1      -9.757   8.931  69.665  1.00  0.00    -0.174 C  
BRANCH   6   7
HETATM    7  O   UNL     1     -10.738   7.905  69.564  1.00  0.00    -0.236 OA 
BRANCH   7   8
HETATM    8  C   UNL     1     -10.825   7.015  70.621  1.00  0.00    -0.246 A  
HETATM    9  C   UNL     1     -11.481   7.185  71.869  1.00  0.00    -0.305 A  
HETATM   10  C   UNL     1     -11.446   6.125  72.805  1.00  0.00    -0.220 A  
HETATM   11  C   UNL     1     -12.158   8.411  72.439  1.00  0.00    -0.443 C  
HETATM   12  C   UNL     1     -10.806   4.920  72.539  1.00  0.00    -0.234 A  
HETATM   13  C   UNL     1     -10.146   4.760  71.331  1.00  0.00    -0.259 A  
HETATM   14  C   UNL     1     -10.140   5.789  70.373  1.00  0.00    -0.271 A  
HETATM   15  C   UNL     1      -9.362   5.553  69.094  1.00  0.00    -0.158 C  
ENDBRANCH   7   8
ENDBRANCH   6   7
ENDBRANCH   2   6
TORSDOF 3
ENDMDL
MODEL      171
REMARK 921   NORMALIZED FREE ENERGY PREDICTED BY IDOCK:   -2.84 KCAL/MOL
REMARK 922        TOTAL FREE ENERGY PREDICTED BY IDOCK:   -3.52 KCAL/MOL
REMARK 923 INTER-LIGAND FREE ENERGY PREDICTED BY IDOCK:   -3.54 KCAL/MOL
REMARK 924 INTRA-LIGAND FREE ENERGY PREDICTED BY IDOCK:    0.02 KCAL/MOL
REMARK 927      BINDING AFFINITY PREDICTED BY RF-SCORE:    0.00 PKD
ROOT
HETATM    1  C   UNL     1      -9.784  11.300  68.580  1.00  0.00    -0.199 C  
HETATM    2  C   UNL     1     -10.919  10.299  68.738  1.00  0.00    -0.243 C  
HETATM    3  N   UNL     1     -12.204  10.886  68.352  1.00  0.00    -0.810 NA 
HETATM    4  H2  UNL     1     -12.172  11.268  67.407  1.00  0.00     0.000 HD 
HETATM    5  H1  UNL     1     -12.965  10.215  68.459  1.00  0.00     0.000 HD 
ENDROOT
BRANCH   2   6
HETATM    6  C   UNL     1     -10.640   8.976  68.001  1.00  0.00    -0.186 C  
BRANCH   6   7
HETATM    7  O   UNL     1     -10.651   7.804  68.806  1.00  0.00    -0.202 OA 
BRANCH   7   8
HETATM    8  C   UNL     1     -10.215   7.938  70.113  1.00  0.00    -0.202 A  
HETATM    9  C   UNL     1     -10.980   8.213  71.277  1.00  0.00    -0.281 A  
HETATM   10  C   UNL     1     -10.315   8.298  72.524  1.00  0.00    -0.401 A  
HETATM   11  C   UNL     1     -12.447   8.553  71.404  1.00  0.00    -0.327 C  
HETATM   12  C   UNL     1      -8.944   8.105  72.648  1.00  0.00    -0.299 A  
HETATM   13  C   UNL     1      -8.192   7.859  71.511  1.00  0.00    -0.122 A  
HETATM   14  C   UNL     1      -8.804   7.778  70.247  1.00  0.00    -0.144 A  
HETATM   15  C   UNL     1      -7.908   7.547  69.047  1.00  0.00    -0.120 C  
ENDBRANCH   7   8
ENDBRANCH   6   7
ENDBRANCH   2   6
TORSDOF 3
ENDMDL
MODEL      172
REMARK 921   NORMALIZED FREE ENERGY PREDICTED BY IDOCK:   -2.84 KCAL/MOL
REMARK 922        TOTAL FREE ENERGY PREDICTED BY IDOCK:   -3.51 KCAL/MOL
REMARK 923 INTER-LIGAND FREE ENERGY PREDICTED BY IDOCK:   -3.22 KCAL/MOL
REMARK 924 INTRA-LIGAND FREE ENERGY PREDICTED BY IDOCK:   -0.29 KCAL/MOL
REMARK 927      BINDING AFFINITY PREDICTED BY RF-SCORE:    0.00 PKD
ROOT
HETATM    1  C   UNL     1     -11.679  12.791  67.528  1.00  0.00    -0.422 C  
HETATM    2  C   UNL     1     -11.242  11.796  68.593  1.00  0.00    -0.257 C  
HETATM    3  N   UNL     1     -12.148  10.646  68.650  1.00  0.00    -0.812 NA 
HETATM    4  H2  UNL     1     -12.244  10.200  67.737  1.00  0.00     0.000 HD 
HETATM    5  H1  UNL     1     -11.856   9.979  69.364  1.00  0.00     0.000 HD 
ENDROOT
BRANCH   2   6
HETATM    6  C   UNL     1      -9.773  11.369  68.429  1.00  0.00    -0.203 C  
BRANCH   6   7
HETATM    7  O   UNL     1      -8.999  12.145  67.522  1.00  0.00    -0.165 OA 
BRANCH   7   8
HETATM    8  C   UNL     1      -8.220  11.451  66.611  1.00  0.00    -0.163 A  
HETATM    9  C   UNL     1      -8.636  10.709  65.474  1.00  0.00    -0.191 A  
HETATM   10  C   UNL     1      -7.652  10.083  64.673  1.00  0.00    -0.143 A  
HETATM   11  C   UNL     1     -10.033  10.368  65.010  1.00  0.00    -0.399 C  
HETATM   12  C   UNL     1      -6.294  10.185  64.951  1.00  0.00    -0.128 A  
HETATM   13  C   UNL     1      -5.886  10.890  66.072  1.00  0.00    -0.143 A  
HETATM   14  C   UNL     1      -6.826  11.518  66.908  1.00  0.00    -0.138 A  
HETATM   15  C   UNL     1      -6.305  12.235  68.137  1.00  0.00    -0.062 C  
ENDBRANCH   7   8
ENDBRANCH   6   7
ENDBRANCH   2   6
TORSDOF 3
ENDMDL
MODEL      173
REMARK 921   NORMALIZED FREE ENERGY PREDICTED BY IDOCK:   -2.83 KCAL/MOL
REMARK 922        TOTAL FREE ENERGY PREDICTED BY IDOCK:   -3.51 KCAL/MOL
REMARK 923 INTER-LIGAND FREE ENERGY PREDICTED BY IDOCK:   -3.28 KCAL/MOL
REMARK 924 INTRA-LIGAND FREE ENERGY PREDICTED BY IDOCK:   -0.23 KCAL/MOL
REMARK 927      BINDING AFFINITY PREDICTED BY RF-SCORE:    0.00 PKD
ROOT
HETATM    1  C   UNL     1     -10.236   9.838  67.839  1.00  0.00    -0.237 C  
HETATM    2  C   UNL     1      -8.923   9.470  68.514  1.00  0.00    -0.128 C  
HETATM    3  N   UNL     1      -8.420  10.572  69.337  1.00  0.00    -0.311 NA 
HETATM    4  H2  UNL     1      -9.116  10.880  70.016  1.00  0.00     0.000 HD 
HETATM    5  H1  UNL     1      -7.540  10.325  69.789  1.00  0.00     0.000 HD 
ENDROOT
BRANCH   2   6
HETATM    6  C   UNL     1      -9.020   8.153  69.305  1.00  0.00    -0.148 C  
BRANCH   6   7
HETATM    7  O   UNL     1     -10.336   7.666  69.539  1.00  0.00    -0.207 OA 
BRANCH   7   8
HETATM    8  C   UNL     1     -10.507   6.820  70.622  1.00  0.00    -0.215 A  
HETATM    9  C   UNL     1     -10.264   5.423  70.700  1.00  0.00    -0.323 A  
HETATM   10  C   UNL     1     -10.505   4.759  71.927  1.00  0.00    -0.201 A  
HETATM   11  C   UNL     1      -9.872   4.454  69.609  1.00  0.00    -0.272 C  
HETATM   12  C   UNL     1     -10.953   5.430  73.059  1.00  0.00    -0.348 A  
HETATM   13  C   UNL     1     -11.213   6.789  72.978  1.00  0.00    -0.193 A  
HETATM   14  C   UNL     1     -11.003   7.492  71.778  1.00  0.00    -0.268 A  
HETATM   15  C   UNL     1     -11.348   8.967  71.759  1.00  0.00    -0.431 C  
ENDBRANCH   7   8
ENDBRANCH   6   7
ENDBRANCH   2   6
TORSDOF 3
ENDMDL
MODEL      174
REMARK 921   NORMALIZED FREE ENERGY PREDICTED BY IDOCK:   -2.82 KCAL/MOL
REMARK 922        TOTAL FREE ENERGY PREDICTED BY IDOCK:   -3.50 KCAL/MOL
REMARK 923 INTER-LIGAND FREE ENERGY PREDICTED BY IDOCK:   -3.53 KCAL/MOL
REMARK 924 INTRA-LIGAND FREE ENERGY PREDICTED BY IDOCK:    0.03 KCAL/MOL
REMARK 927      BINDING AFFINITY PREDICTED BY RF-SCORE:    0.00 PKD
ROOT
HETATM    1  C   UNL     1     -10.268   5.060  69.854  1.00  0.00    -0.340 C  
HETATM    2  C   UNL     1     -10.887   6.403  69.493  1.00  0.00    -0.321 C  
HETATM    3  N   UNL     1     -11.444   6.385  68.138  1.00  0.00    -0.551 NA 
HETATM    4  H2  UNL     1     -12.109   5.621  68.017  1.00  0.00     0.000 HD 
HETATM    5  H1  UNL     1     -11.858   7.285  67.896  1.00  0.00     0.000 HD 
ENDROOT
BRANCH   2   6
HETATM    6  C   UNL     1     -11.917   6.872  70.537  1.00  0.00    -0.305 C  
BRANCH   6   7
HETATM    7  O   UNL     1     -11.561   8.031  71.281  1.00  0.00    -0.267 OA 
BRANCH   7   8
HETATM    8  C   UNL     1     -10.211   8.329  71.368  1.00  0.00    -0.207 A  
HETATM    9  C   UNL     1      -9.419   9.110  70.485  1.00  0.00    -0.291 A  
HETATM   10  C   UNL     1      -8.047   9.289  70.781  1.00  0.00    -0.194 A  
HETATM   11  C   UNL     1      -9.788   9.728  69.156  1.00  0.00    -0.192 C  
HETATM   12  C   UNL     1      -7.455   8.743  71.914  1.00  0.00    -0.051 A  
HETATM   13  C   UNL     1      -8.220   7.962  72.765  1.00  0.00    -0.194 A  
HETATM   14  C   UNL     1      -9.585   7.742  72.507  1.00  0.00    -0.250 A  
HETATM   15  C   UNL     1     -10.344   6.844  73.462  1.00  0.00    -0.368 C  
ENDBRANCH   7   8
ENDBRANCH   6   7
ENDBRANCH   2   6
TORSDOF 3
ENDMDL
MODEL      175
REMARK 921   NORMALIZED FREE ENERGY PREDICTED BY IDOCK:   -2.81 KCAL/MOL
REMARK 922        TOTAL FREE ENERGY PREDICTED BY IDOCK:   -3.48 KCAL/MOL
REMARK 923 INTER-LIGAND FREE ENERGY PREDICTED BY IDOCK:   -3.35 KCAL/MOL
REMARK 924 INTRA-LIGAND FREE ENERGY PREDICTED BY IDOCK:   -0.13 KCAL/MOL
REMARK 927      BINDING AFFINITY PREDICTED BY RF-SCORE:    0.00 PKD
ROOT
HETATM    1  C   UNL     1      -7.328   9.945  65.466  1.00  0.00    -0.122 C  
HETATM    2  C   UNL     1      -7.179  10.878  66.660  1.00  0.00    -0.139 C  
HETATM    3  N   UNL     1      -6.207  11.940  66.387  1.00  0.00    -0.475 NA 
HETATM    4  H2  UNL     1      -6.442  12.454  65.538  1.00  0.00     0.000 HD 
HETATM    5  H1  UNL     1      -6.107  12.564  67.187  1.00  0.00     0.000 HD 
ENDROOT
BRANCH   2   6
HETATM    6  C   UNL     1      -8.531  11.438  67.138  1.00  0.00    -0.153 C  
BRANCH   6   7
HETATM    7  O   UNL     1      -8.463  12.508  68.073  1.00  0.00    -0.156 OA 
BRANCH   7   8
HETATM    8  C   UNL     1      -9.609  13.267  68.240  1.00  0.00    -0.221 A  
HETATM    9  C   UNL     1     -10.851  12.879  68.809  1.00  0.00    -0.277 A  
HETATM   10  C   UNL     1     -11.891  13.835  68.886  1.00  0.00    -0.396 A  
HETATM   11  C   UNL     1     -11.310  11.517  69.276  1.00  0.00    -0.353 C  
HETATM   12  C   UNL     1     -11.732  15.143  68.440  1.00  0.00    -0.338 A  
HETATM   13  C   UNL     1     -10.529  15.517  67.864  1.00  0.00    -0.266 A  
HETATM   14  C   UNL     1      -9.469  14.600  67.752  1.00  0.00    -0.205 A  
HETATM   15  C   UNL     1      -8.200  15.073  67.073  1.00  0.00    -0.246 C  
ENDBRANCH   7   8
ENDBRANCH   6   7
ENDBRANCH   2   6
TORSDOF 3
ENDMDL
MODEL      176
REMARK 921   NORMALIZED FREE ENERGY PREDICTED BY IDOCK:   -2.79 KCAL/MOL
REMARK 922        TOTAL FREE ENERGY PREDICTED BY IDOCK:   -3.46 KCAL/MOL
REMARK 923 INTER-LIGAND FREE ENERGY PREDICTED BY IDOCK:   -3.31 KCAL/MOL
REMARK 924 INTRA-LIGAND FREE ENERGY PREDICTED BY IDOCK:   -0.15 KCAL/MOL
REMARK 927      BINDING AFFINITY PREDICTED BY RF-SCORE:    0.00 PKD
ROOT
HETATM    1  C   UNL     1      -9.678  11.190  68.436  1.00  0.00    -0.191 C  
HETATM    2  C   UNL     1     -10.198  12.426  67.716  1.00  0.00    -0.211 C  
HETATM    3  N   UNL     1     -11.591  12.703  68.074  1.00  0.00    -0.323 NA 
HETATM    4  H2  UNL     1     -11.710  12.781  69.084  1.00  0.00     0.000 HD 
HETATM    5  H1  UNL     1     -11.939  13.532  67.591  1.00  0.00     0.000 HD 
ENDROOT
BRANCH   2   6
HETATM    6  C   UNL     1      -9.290  13.651  67.927  1.00  0.00    -0.206 C  
BRANCH   6   7
HETATM    7  O   UNL     1      -8.901  14.345  66.748  1.00  0.00    -0.239 OA 
BRANCH   7   8
HETATM    8  C   UNL     1      -9.047  15.722  66.755  1.00  0.00    -0.249 A  
HETATM    9  C   UNL     1      -8.202  16.698  67.344  1.00  0.00    -0.189 A  
HETATM   10  C   UNL     1      -8.549  18.064  67.216  1.00  0.00    -0.240 A  
HETATM   11  C   UNL     1      -6.985  16.512  68.221  1.00  0.00    -0.143 C  
HETATM   12  C   UNL     1      -9.677  18.481  66.520  1.00  0.00    -0.354 A  
HETATM   13  C   UNL     1     -10.516  17.529  65.963  1.00  0.00    -0.274 A  
HETATM   14  C   UNL     1     -10.222  16.158  66.075  1.00  0.00    -0.374 A  
HETATM   15  C   UNL     1     -11.210  15.178  65.475  1.00  0.00    -0.320 C  
ENDBRANCH   7   8
ENDBRANCH   6   7
ENDBRANCH   2   6
TORSDOF 3
ENDMDL
MODEL      177
REMARK 921   NORMALIZED FREE ENERGY PREDICTED BY IDOCK:   -2.78 KCAL/MOL
REMARK 922        TOTAL FREE ENERGY PREDICTED BY IDOCK:   -3.45 KCAL/MOL
REMARK 923 INTER-LIGAND FREE ENERGY PREDICTED BY IDOCK:   -3.10 KCAL/MOL
REMARK 924 INTRA-LIGAND FREE ENERGY PREDICTED BY IDOCK:   -0.36 KCAL/MOL
REMARK 927      BINDING AFFINITY PREDICTED BY RF-SCORE:    0.00 PKD
ROOT
HETATM    1  C   UNL     1      -7.408   5.349  70.146  1.00  0.00    -0.068 C  
HETATM    2  C   UNL     1      -8.553   5.889  69.301  1.00  0.00    -0.112 C  
HETATM    3  N   UNL     1      -8.116   6.170  67.931  1.00  0.00    -0.113 NA 
HETATM    4  H2  UNL     1      -7.685   5.352  67.500  1.00  0.00     0.000 HD 
HETATM    5  H1  UNL     1      -8.883   6.533  67.365  1.00  0.00     0.000 HD 
ENDROOT
BRANCH   2   6
HETATM    6  C   UNL     1      -9.790   4.974  69.338  1.00  0.00    -0.203 C  
BRANCH   6   7
HETATM    7  O   UNL     1     -10.911   5.477  70.054  1.00  0.00    -0.301 OA 
BRANCH   7   8
HETATM    8  C   UNL     1     -10.714   5.786  71.389  1.00  0.00    -0.256 A  
HETATM    9  C   UNL     1     -10.411   4.910  72.465  1.00  0.00    -0.262 A  
HETATM   10  C   UNL     1     -10.243   5.456  73.759  1.00  0.00    -0.246 A  
HETATM   11  C   UNL     1     -10.338   3.401  72.483  1.00  0.00    -0.190 C  
HETATM   12  C   UNL     1     -10.346   6.820  74.009  1.00  0.00    -0.377 A  
HETATM   13  C   UNL     1     -10.664   7.674  72.965  1.00  0.00    -0.449 A  
HETATM   14  C   UNL     1     -10.855   7.179  71.663  1.00  0.00    -0.250 A  
HETATM   15  C   UNL     1     -11.240   8.171  70.585  1.00  0.00    -0.268 C  
ENDBRANCH   7   8
ENDBRANCH   6   7
ENDBRANCH   2   6
TORSDOF 3
ENDMDL
MODEL      178
REMARK 921   NORMALIZED FREE ENERGY PREDICTED BY IDOCK:   -2.78 KCAL/MOL
REMARK 922        TOTAL FREE ENERGY PREDICTED BY IDOCK:   -3.45 KCAL/MOL
REMARK 923 INTER-LIGAND FREE ENERGY PREDICTED BY IDOCK:   -3.30 KCAL/MOL
REMARK 924 INTRA-LIGAND FREE ENERGY PREDICTED BY IDOCK:   -0.15 KCAL/MOL
REMARK 927      BINDING AFFINITY PREDICTED BY RF-SCORE:    0.00 PKD
ROOT
HETATM    1  C   UNL     1     -10.187  11.166  65.231  1.00  0.00    -0.337 C  
HETATM    2  C   UNL     1      -9.207  10.470  66.165  1.00  0.00    -0.170 C  
HETATM    3  N   UNL     1      -8.617  11.415  67.116  1.00  0.00    -0.146 NA 
HETATM    4  H2  UNL     1      -9.334  11.921  67.635  1.00  0.00     0.000 HD 
HETATM    5  H1  UNL     1      -7.960  10.949  67.741  1.00  0.00     0.000 HD 
ENDROOT
BRANCH   2   6
HETATM    6  C   UNL     1      -9.834   9.254  66.870  1.00  0.00    -0.214 C  
BRANCH   6   7
HETATM    7  O   UNL     1      -9.367   8.993  68.188  1.00  0.00    -0.141 OA 
BRANCH   7   8
HETATM    8  C   UNL     1     -10.129   8.134  68.963  1.00  0.00    -0.205 A  
HETATM    9  C   UNL     1     -10.279   6.728  68.838  1.00  0.00    -0.186 A  
HETATM   10  C   UNL     1     -11.112   6.049  69.759  1.00  0.00    -0.476 A  
HETATM   11  C   UNL     1      -9.757   5.798  67.768  1.00  0.00    -0.130 C  
HETATM   12  C   UNL     1     -11.772   6.709  70.790  1.00  0.00    -0.445 A  
HETATM   13  C   UNL     1     -11.644   8.084  70.900  1.00  0.00    -0.284 A  
HETATM   14  C   UNL     1     -10.840   8.807  70.001  1.00  0.00    -0.231 A  
HETATM   15  C   UNL     1     -10.784  10.312  70.163  1.00  0.00    -0.334 C  
ENDBRANCH   7   8
ENDBRANCH   6   7
ENDBRANCH   2   6
TORSDOF 3
ENDMDL
MODEL      179
REMARK 921   NORMALIZED FREE ENERGY PREDICTED BY IDOCK:   -2.78 KCAL/MOL
REMARK 922        TOTAL FREE ENERGY PREDICTED BY IDOCK:   -3.45 KCAL/MOL
REMARK 923 INTER-LIGAND FREE ENERGY PREDICTED BY IDOCK:   -3.40 KCAL/MOL
REMARK 924 INTRA-LIGAND FREE ENERGY PREDICTED BY IDOCK:   -0.05 KCAL/MOL
REMARK 927      BINDING AFFINITY PREDICTED BY RF-SCORE:    0.00 PKD
ROOT
HETATM    1  C   UNL     1      -9.338   4.330  72.572  1.00  0.00    -0.155 C  
HETATM    2  C   UNL     1      -9.463   4.972  71.198  1.00  0.00    -0.155 C  
HETATM    3  N   UNL     1      -9.691   3.965  70.159  1.00  0.00    -0.199 NA 
HETATM    4  H2  UNL     1     -10.499   3.381  70.375  1.00  0.00     0.000 HD 
HETATM    5  H1  UNL     1      -9.775   4.395  69.239  1.00  0.00     0.000 HD 
ENDROOT
BRANCH   2   6
HETATM    6  C   UNL     1     -10.524   6.087  71.168  1.00  0.00    -0.230 C  
BRANCH   6   7
HETATM    7  O   UNL     1     -11.185   6.280  69.923  1.00  0.00    -0.366 OA 
BRANCH   7   8
HETATM    8  C   UNL     1     -10.906   7.453  69.242  1.00  0.00    -0.137 A  
HETATM    9  C   UNL     1     -10.874   8.781  69.744  1.00  0.00    -0.196 A  
HETATM   10  C   UNL     1     -10.554   9.835  68.856  1.00  0.00    -0.240 A  
HETATM   11  C   UNL     1     -11.248   9.299  71.113  1.00  0.00    -0.413 C  
HETATM   12  C   UNL     1     -10.252   9.613  67.517  1.00  0.00    -0.274 A  
HETATM   13  C   UNL     1     -10.305   8.321  67.020  1.00  0.00    -0.393 A  
HETATM   14  C   UNL     1     -10.632   7.240  67.859  1.00  0.00    -0.266 A  
HETATM   15  C   UNL     1     -10.708   5.863  67.231  1.00  0.00    -0.380 C  
ENDBRANCH   7   8
ENDBRANCH   6   7
ENDBRANCH   2   6
TORSDOF 3
ENDMDL
MODEL      180
REMARK 921   NORMALIZED FREE ENERGY PREDICTED BY IDOCK:   -2.77 KCAL/MOL
REMARK 922        TOTAL FREE ENERGY PREDICTED BY IDOCK:   -3.44 KCAL/MOL
REMARK 923 INTER-LIGAND FREE ENERGY PREDICTED BY IDOCK:   -3.28 KCAL/MOL
REMARK 924 INTRA-LIGAND FREE ENERGY PREDICTED BY IDOCK:   -0.16 KCAL/MOL
REMARK 927      BINDING AFFINITY PREDICTED BY RF-SCORE:    0.00 PKD
ROOT
HETATM    1  C   UNL     1     -10.119   8.228  66.889  1.00  0.00    -0.366 C  
HETATM    2  C   UNL     1     -10.416   9.509  67.654  1.00  0.00    -0.263 C  
HETATM    3  N   UNL     1      -9.256   9.942  68.438  1.00  0.00    -0.129 NA 
HETATM    4  H2  UNL     1      -8.425  10.039  67.854  1.00  0.00     0.000 HD 
HETATM    5  H1  UNL     1      -9.455  10.801  68.951  1.00  0.00     0.000 HD 
ENDROOT
BRANCH   2   6
HETATM    6  C   UNL     1     -10.948  10.628  66.740  1.00  0.00    -0.115 C  
BRANCH   6   7
HETATM    7  O   UNL     1      -9.970  11.312  65.965  1.00  0.00    -0.215 OA 
BRANCH   7   8
HETATM    8  C   UNL     1     -10.199  12.655  65.714  1.00  0.00    -0.272 A  
HETATM    9  C   UNL     1     -11.287  13.253  65.024  1.00  0.00    -0.326 A  
HETATM   10  C   UNL     1     -11.316  14.662  64.893  1.00  0.00    -0.403 A  
HETATM   11  C   UNL     1     -12.425  12.599  64.275  1.00  0.00    -0.494 C  
HETATM   12  C   UNL     1     -10.328  15.478  65.431  1.00  0.00    -0.422 A  
HETATM   13  C   UNL     1      -9.254  14.895  66.085  1.00  0.00    -0.268 A  
HETATM   14  C   UNL     1      -9.171  13.499  66.229  1.00  0.00    -0.070 A  
HETATM   15  C   UNL     1      -7.946  12.937  66.920  1.00  0.00     0.067 C  
ENDBRANCH   7   8
ENDBRANCH   6   7
ENDBRANCH   2   6
TORSDOF 3
ENDMDL
MODEL      181
REMARK 921   NORMALIZED FREE ENERGY PREDICTED BY IDOCK:   -2.77 KCAL/MOL
REMARK 922        TOTAL FREE ENERGY PREDICTED BY IDOCK:   -3.44 KCAL/MOL
REMARK 923 INTER-LIGAND FREE ENERGY PREDICTED BY IDOCK:   -3.25 KCAL/MOL
REMARK 924 INTRA-LIGAND FREE ENERGY PREDICTED BY IDOCK:   -0.18 KCAL/MOL
REMARK 927      BINDING AFFINITY PREDICTED BY RF-SCORE:    0.00 PKD
ROOT
HETATM    1  C   UNL     1      -6.425  10.607  68.273  1.00  0.00    -0.058 C  
HETATM    2  C   UNL     1      -7.841  10.470  68.811  1.00  0.00    -0.116 C  
HETATM    3  N   UNL     1      -8.830  10.562  67.734  1.00  0.00    -0.125 NA 
HETATM    4  H2  UNL     1      -8.643   9.885  66.994  1.00  0.00     0.000 HD 
HETATM    5  H1  UNL     1      -9.780  10.471  68.094  1.00  0.00     0.000 HD 
ENDROOT
BRANCH   2   6
HETATM    6  C   UNL     1      -8.025   9.198  69.658  1.00  0.00    -0.103 C  
BRANCH   6   7
HETATM    7  O   UNL     1      -8.174   9.402  71.058  1.00  0.00    -0.294 OA 
BRANCH   7   8
HETATM    8  C   UNL     1      -9.303   8.865  71.653  1.00  0.00    -0.258 A  
HETATM    9  C   UNL     1     -10.667   9.151  71.380  1.00  0.00    -0.414 A  
HETATM   10  C   UNL     1     -11.665   8.467  72.115  1.00  0.00    -0.448 A  
HETATM   11  C   UNL     1     -11.265  10.194  70.465  1.00  0.00    -0.411 C  
HETATM   12  C   UNL     1     -11.355   7.514  73.078  1.00  0.00    -0.313 A  
HETATM   13  C   UNL     1     -10.025   7.250  73.362  1.00  0.00    -0.343 A  
HETATM   14  C   UNL     1      -8.996   7.913  72.669  1.00  0.00    -0.251 A  
HETATM   15  C   UNL     1      -7.568   7.598  73.065  1.00  0.00    -0.120 C  
ENDBRANCH   7   8
ENDBRANCH   6   7
ENDBRANCH   2   6
TORSDOF 3
ENDMDL
MODEL      182
REMARK 921   NORMALIZED FREE ENERGY PREDICTED BY IDOCK:   -2.76 KCAL/MOL
REMARK 922        TOTAL FREE ENERGY PREDICTED BY IDOCK:   -3.42 KCAL/MOL
REMARK 923 INTER-LIGAND FREE ENERGY PREDICTED BY IDOCK:   -3.30 KCAL/MOL
REMARK 924 INTRA-LIGAND FREE ENERGY PREDICTED BY IDOCK:   -0.12 KCAL/MOL
REMARK 927      BINDING AFFINITY PREDICTED BY RF-SCORE:    0.00 PKD
ROOT
HETATM    1  C   UNL     1      -9.595   9.079  66.836  1.00  0.00    -0.242 C  
HETATM    2  C   UNL     1     -10.441   7.922  67.344  1.00  0.00    -0.290 C  
HETATM    3  N   UNL     1     -10.571   6.872  66.331  1.00  0.00    -0.452 NA 
HETATM    4  H2  UNL     1      -9.659   6.553  66.003  1.00  0.00     0.000 HD 
HETATM    5  H1  UNL     1     -11.138   6.096  66.671  1.00  0.00     0.000 HD 
ENDROOT
BRANCH   2   6
HETATM    6  C   UNL     1      -9.933   7.370  68.688  1.00  0.00    -0.169 C  
BRANCH   6   7
HETATM    7  O   UNL     1      -9.757   8.328  69.725  1.00  0.00    -0.177 OA 
BRANCH   7   8
HETATM    8  C   UNL     1      -9.796   7.857  71.026  1.00  0.00    -0.170 A  
HETATM    9  C   UNL     1      -8.852   7.038  71.700  1.00  0.00    -0.130 A  
HETATM   10  C   UNL     1      -9.099   6.684  73.047  1.00  0.00    -0.140 A  
HETATM   11  C   UNL     1      -7.615   6.357  71.161  1.00  0.00    -0.090 C  
HETATM   12  C   UNL     1     -10.222   7.124  73.737  1.00  0.00    -0.395 A  
HETATM   13  C   UNL     1     -11.156   7.905  73.075  1.00  0.00    -0.379 A  
HETATM   14  C   UNL     1     -10.964   8.273  71.732  1.00  0.00    -0.342 A  
HETATM   15  C   UNL     1     -12.050   9.094  71.067  1.00  0.00    -0.324 C  
ENDBRANCH   7   8
ENDBRANCH   6   7
ENDBRANCH   2   6
TORSDOF 3
ENDMDL
MODEL      183
REMARK 921   NORMALIZED FREE ENERGY PREDICTED BY IDOCK:   -2.74 KCAL/MOL
REMARK 922        TOTAL FREE ENERGY PREDICTED BY IDOCK:   -3.41 KCAL/MOL
REMARK 923 INTER-LIGAND FREE ENERGY PREDICTED BY IDOCK:   -3.29 KCAL/MOL
REMARK 924 INTRA-LIGAND FREE ENERGY PREDICTED BY IDOCK:   -0.12 KCAL/MOL
REMARK 927      BINDING AFFINITY PREDICTED BY RF-SCORE:    0.00 PKD
ROOT
HETATM    1  C   UNL     1      -7.297  10.093  65.895  1.00  0.00    -0.121 C  
HETATM    2  C   UNL     1      -7.240  10.989  67.123  1.00  0.00    -0.112 C  
HETATM    3  N   UNL     1      -6.453  12.198  66.865  1.00  0.00    -0.342 NA 
HETATM    4  H2  UNL     1      -6.799  12.702  66.049  1.00  0.00     0.000 HD 
HETATM    5  H1  UNL     1      -6.415  12.798  67.688  1.00  0.00     0.000 HD 
ENDROOT
BRANCH   2   6
HETATM    6  C   UNL     1      -8.640  11.317  67.675  1.00  0.00    -0.124 C  
BRANCH   6   7
HETATM    7  O   UNL     1      -9.569  10.240  67.686  1.00  0.00    -0.150 OA 
BRANCH   7   8
HETATM    8  C   UNL     1     -10.457  10.190  68.747  1.00  0.00    -0.204 A  
HETATM    9  C   UNL     1     -11.436  11.146  69.126  1.00  0.00    -0.366 A  
HETATM   10  C   UNL     1     -12.247  10.877  70.255  1.00  0.00    -0.432 A  
HETATM   11  C   UNL     1     -11.703  12.522  68.563  1.00  0.00    -0.369 C  
HETATM   12  C   UNL     1     -12.129   9.704  70.991  1.00  0.00    -0.421 A  
HETATM   13  C   UNL     1     -11.159   8.781  70.637  1.00  0.00    -0.285 A  
HETATM   14  C   UNL     1     -10.319   9.007  69.532  1.00  0.00    -0.211 A  
HETATM   15  C   UNL     1      -9.257   7.969  69.234  1.00  0.00    -0.152 C  
ENDBRANCH   7   8
ENDBRANCH   6   7
ENDBRANCH   2   6
TORSDOF 3
ENDMDL
MODEL      184
REMARK 921   NORMALIZED FREE ENERGY PREDICTED BY IDOCK:   -2.72 KCAL/MOL
REMARK 922        TOTAL FREE ENERGY PREDICTED BY IDOCK:   -3.38 KCAL/MOL
REMARK 923 INTER-LIGAND FREE ENERGY PREDICTED BY IDOCK:   -3.12 KCAL/MOL
REMARK 924 INTRA-LIGAND FREE ENERGY PREDICTED BY IDOCK:   -0.26 KCAL/MOL
REMARK 927      BINDING AFFINITY PREDICTED BY RF-SCORE:    0.00 PKD
ROOT
HETATM    1  C   UNL     1     -10.187   5.230  69.627  1.00  0.00    -0.348 C  
HETATM    2  C   UNL     1     -11.150   6.260  69.054  1.00  0.00    -0.378 C  
HETATM    3  N   UNL     1     -11.946   6.890  70.110  1.00  0.00    -0.637 NA 
HETATM    4  H2  UNL     1     -11.354   7.294  70.835  1.00  0.00     0.000 HD 
HETATM    5  H1  UNL     1     -12.591   7.580  69.725  1.00  0.00     0.000 HD 
ENDROOT
BRANCH   2   6
HETATM    6  C   UNL     1     -10.437   7.299  68.168  1.00  0.00    -0.198 C  
BRANCH   6   7
HETATM    7  O   UNL     1     -10.455   8.638  68.647  1.00  0.00    -0.211 OA 
BRANCH   7   8
HETATM    8  C   UNL     1      -9.286   9.368  68.508  1.00  0.00    -0.138 A  
HETATM    9  C   UNL     1      -8.691   9.867  67.319  1.00  0.00    -0.131 A  
HETATM   10  C   UNL     1      -7.486  10.602  67.419  1.00  0.00    -0.094 A  
HETATM   11  C   UNL     1      -9.090   9.644  65.879  1.00  0.00    -0.221 C  
HETATM   12  C   UNL     1      -6.877  10.868  68.641  1.00  0.00    -0.062 A  
HETATM   13  C   UNL     1      -7.444  10.363  69.800  1.00  0.00    -0.155 A  
HETATM   14  C   UNL     1      -8.634   9.614  69.752  1.00  0.00    -0.211 A  
HETATM   15  C   UNL     1      -9.168   9.062  71.058  1.00  0.00    -0.331 C  
ENDBRANCH   7   8
ENDBRANCH   6   7
ENDBRANCH   2   6
TORSDOF 3
ENDMDL
MODEL      185
REMARK 921   NORMALIZED FREE ENERGY PREDICTED BY IDOCK:   -2.71 KCAL/MOL
REMARK 922        TOTAL FREE ENERGY PREDICTED BY IDOCK:   -3.37 KCAL/MOL
REMARK 923 INTER-LIGAND FREE ENERGY PREDICTED BY IDOCK:   -3.14 KCAL/MOL
REMARK 924 INTRA-LIGAND FREE ENERGY PREDICTED BY IDOCK:   -0.23 KCAL/MOL
REMARK 927      BINDING AFFINITY PREDICTED BY RF-SCORE:    0.00 PKD
ROOT
HETATM    1  C   UNL     1      -9.889   9.813  67.567  1.00  0.00    -0.209 C  
HETATM    2  C   UNL     1      -8.584   9.192  68.043  1.00  0.00    -0.125 C  
HETATM    3  N   UNL     1      -7.696  10.202  68.625  1.00  0.00    -0.088 NA 
HETATM    4  H2  UNL     1      -8.158  10.720  69.373  1.00  0.00     0.000 HD 
HETATM    5  H1  UNL     1      -6.821   9.786  68.944  1.00  0.00     0.000 HD 
ENDROOT
BRANCH   2   6
HETATM    6  C   UNL     1      -8.813   8.003  68.994  1.00  0.00    -0.145 C  
BRANCH   6   7
HETATM    7  O   UNL     1     -10.152   7.534  69.088  1.00  0.00    -0.181 OA 
BRANCH   7   8
HETATM    8  C   UNL     1     -10.705   7.470  70.356  1.00  0.00    -0.239 A  
HETATM    9  C   UNL     1     -11.264   8.519  71.132  1.00  0.00    -0.317 A  
HETATM   10  C   UNL     1     -11.784   8.215  72.413  1.00  0.00    -0.461 A  
HETATM   11  C   UNL     1     -11.305  10.004  70.852  1.00  0.00    -0.439 C  
HETATM   12  C   UNL     1     -11.782   6.924  72.927  1.00  0.00     0.059 A  
HETATM   13  C   UNL     1     -11.217   5.902  72.181  1.00  0.00    -0.342 A  
HETATM   14  C   UNL     1     -10.674   6.155  70.909  1.00  0.00    -0.316 A  
HETATM   15  C   UNL     1     -10.038   4.993  70.173  1.00  0.00    -0.338 C  
ENDBRANCH   7   8
ENDBRANCH   6   7
ENDBRANCH   2   6
TORSDOF 3
ENDMDL
MODEL      186
REMARK 921   NORMALIZED FREE ENERGY PREDICTED BY IDOCK:   -2.71 KCAL/MOL
REMARK 922        TOTAL FREE ENERGY PREDICTED BY IDOCK:   -3.37 KCAL/MOL
REMARK 923 INTER-LIGAND FREE ENERGY PREDICTED BY IDOCK:   -3.05 KCAL/MOL
REMARK 924 INTRA-LIGAND FREE ENERGY PREDICTED BY IDOCK:   -0.32 KCAL/MOL
REMARK 927      BINDING AFFINITY PREDICTED BY RF-SCORE:    0.00 PKD
ROOT
HETATM    1  C   UNL     1      -9.360  11.491  67.657  1.00  0.00    -0.171 C  
HETATM    2  C   UNL     1     -10.693  10.778  67.830  1.00  0.00    -0.251 C  
HETATM    3  N   UNL     1     -11.746  11.419  67.039  1.00  0.00    -0.508 NA 
HETATM    4  H2  UNL     1     -11.484  11.491  66.055  1.00  0.00     0.000 HD 
HETATM    5  H1  UNL     1     -12.639  10.941  67.155  1.00  0.00     0.000 HD 
ENDROOT
BRANCH   2   6
HETATM    6  C   UNL     1     -10.591   9.268  67.544  1.00  0.00    -0.262 C  
BRANCH   6   7
HETATM    7  O   UNL     1     -10.889   8.409  68.637  1.00  0.00    -0.085 OA 
BRANCH   7   8
HETATM    8  C   UNL     1      -9.946   8.331  69.648  1.00  0.00    -0.193 A  
HETATM    9  C   UNL     1      -8.578   7.960  69.555  1.00  0.00    -0.137 A  
HETATM   10  C   UNL     1      -7.793   7.960  70.732  1.00  0.00    -0.091 A  
HETATM   11  C   UNL     1      -7.804   7.435  68.368  1.00  0.00    -0.122 C  
HETATM   12  C   UNL     1      -8.309   8.328  71.970  1.00  0.00    -0.219 A  
HETATM   13  C   UNL     1      -9.649   8.669  72.066  1.00  0.00    -0.385 A  
HETATM   14  C   UNL     1     -10.475   8.671  70.928  1.00  0.00    -0.265 A  
HETATM   15  C   UNL     1     -11.937   9.016  71.123  1.00  0.00    -0.356 C  
ENDBRANCH   7   8
ENDBRANCH   6   7
ENDBRANCH   2   6
TORSDOF 3
ENDMDL
MODEL      187
REMARK 921   NORMALIZED FREE ENERGY PREDICTED BY IDOCK:   -2.71 KCAL/MOL
REMARK 922        TOTAL FREE ENERGY PREDICTED BY IDOCK:   -3.37 KCAL/MOL
REMARK 923 INTER-LIGAND FREE ENERGY PREDICTED BY IDOCK:   -3.45 KCAL/MOL
REMARK 924 INTRA-LIGAND FREE ENERGY PREDICTED BY IDOCK:    0.08 KCAL/MOL
REMARK 927      BINDING AFFINITY PREDICTED BY RF-SCORE:    0.00 PKD
ROOT
HETATM    1  C   UNL     1     -14.320   8.066  71.585  1.00  0.00    -0.581 C  
HETATM    2  C   UNL     1     -12.918   8.655  71.645  1.00  0.00    -0.344 C  
HETATM    3  N   UNL     1     -12.875   9.841  72.504  1.00  0.00    -0.335 NA 
HETATM    4  H2  UNL     1     -13.237   9.642  73.436  1.00  0.00     0.000 HD 
HETATM    5  H1  UNL     1     -11.935  10.236  72.543  1.00  0.00     0.000 HD 
ENDROOT
BRANCH   2   6
HETATM    6  C   UNL     1     -11.861   7.610  72.046  1.00  0.00    -0.301 C  
BRANCH   6   7
HETATM    7  O   UNL     1     -10.533   7.873  71.609  1.00  0.00    -0.202 OA 
BRANCH   7   8
HETATM    8  C   UNL     1     -10.282   7.744  70.253  1.00  0.00    -0.199 A  
HETATM    9  C   UNL     1     -10.395   8.728  69.236  1.00  0.00    -0.221 A  
HETATM   10  C   UNL     1     -10.075   8.368  67.905  1.00  0.00    -0.254 A  
HETATM   11  C   UNL     1     -10.926  10.140  69.320  1.00  0.00    -0.279 C  
HETATM   12  C   UNL     1      -9.640   7.093  67.564  1.00  0.00    -0.159 A  
HETATM   13  C   UNL     1      -9.551   6.125  68.552  1.00  0.00    -0.127 A  
HETATM   14  C   UNL     1      -9.871   6.428  69.888  1.00  0.00    -0.191 A  
HETATM   15  C   UNL     1      -9.787   5.306  70.901  1.00  0.00    -0.257 C  
ENDBRANCH   7   8
ENDBRANCH   6   7
ENDBRANCH   2   6
TORSDOF 3
ENDMDL
MODEL      188
REMARK 921   NORMALIZED FREE ENERGY PREDICTED BY IDOCK:   -2.71 KCAL/MOL
REMARK 922        TOTAL FREE ENERGY PREDICTED BY IDOCK:   -3.37 KCAL/MOL
REMARK 923 INTER-LIGAND FREE ENERGY PREDICTED BY IDOCK:   -3.06 KCAL/MOL
REMARK 924 INTRA-LIGAND FREE ENERGY PREDICTED BY IDOCK:   -0.31 KCAL/MOL
REMARK 927      BINDING AFFINITY PREDICTED BY RF-SCORE:    0.00 PKD
ROOT
HETATM    1  C   UNL     1      -7.100   6.556  70.828  1.00  0.00    -0.069 C  
HETATM    2  C   UNL     1      -7.915   6.471  69.546  1.00  0.00    -0.117 C  
HETATM    3  N   UNL     1      -7.112   5.947  68.438  1.00  0.00    -0.079 NA 
HETATM    4  H2  UNL     1      -6.690   5.049  68.673  1.00  0.00     0.000 HD 
HETATM    5  H1  UNL     1      -7.658   5.891  67.579  1.00  0.00     0.000 HD 
ENDROOT
BRANCH   2   6
HETATM    6  C   UNL     1      -9.224   5.684  69.735  1.00  0.00    -0.138 C  
BRANCH   6   7
HETATM    7  O   UNL     1     -10.410   6.342  69.307  1.00  0.00    -0.184 OA 
BRANCH   7   8
HETATM    8  C   UNL     1     -10.842   7.413  70.071  1.00  0.00    -0.252 A  
HETATM    9  C   UNL     1     -11.312   7.412  71.411  1.00  0.00    -0.282 A  
HETATM   10  C   UNL     1     -11.696   8.641  71.998  1.00  0.00    -0.439 A  
HETATM   11  C   UNL     1     -11.588   6.245  72.331  1.00  0.00    -0.325 C  
HETATM   12  C   UNL     1     -11.611   9.849  71.314  1.00  0.00    -0.456 A  
HETATM   13  C   UNL     1     -11.173   9.849  70.000  1.00  0.00    -0.327 A  
HETATM   14  C   UNL     1     -10.793   8.652  69.367  1.00  0.00    -0.108 A  
HETATM   15  C   UNL     1     -10.365   8.731  67.916  1.00  0.00    -0.281 C  
ENDBRANCH   7   8
ENDBRANCH   6   7
ENDBRANCH   2   6
TORSDOF 3
ENDMDL
MODEL      189
REMARK 921   NORMALIZED FREE ENERGY PREDICTED BY IDOCK:   -2.70 KCAL/MOL
REMARK 922        TOTAL FREE ENERGY PREDICTED BY IDOCK:   -3.35 KCAL/MOL
REMARK 923 INTER-LIGAND FREE ENERGY PREDICTED BY IDOCK:   -3.12 KCAL/MOL
REMARK 924 INTRA-LIGAND FREE ENERGY PREDICTED BY IDOCK:   -0.23 KCAL/MOL
REMARK 927      BINDING AFFINITY PREDICTED BY RF-SCORE:    0.00 PKD
ROOT
HETATM    1  C   UNL     1      -8.786   8.564  67.374  1.00  0.00    -0.140 C  
HETATM    2  C   UNL     1      -7.974   9.322  68.414  1.00  0.00    -0.102 C  
HETATM    3  N   UNL     1      -6.543   9.282  68.103  1.00  0.00    -0.059 NA 
HETATM    4  H2  UNL     1      -6.355   9.623  67.160  1.00  0.00     0.000 HD 
HETATM    5  H1  UNL     1      -5.998   9.789  68.800  1.00  0.00     0.000 HD 
ENDROOT
BRANCH   2   6
HETATM    6  C   UNL     1      -8.482  10.760  68.620  1.00  0.00    -0.143 C  
BRANCH   6   7
HETATM    7  O   UNL     1      -9.719  11.076  67.993  1.00  0.00    -0.164 OA 
BRANCH   7   8
HETATM    8  C   UNL     1     -10.573  11.920  68.683  1.00  0.00    -0.234 A  
HETATM    9  C   UNL     1     -11.344  11.643  69.843  1.00  0.00    -0.230 A  
HETATM   10  C   UNL     1     -12.148  12.673  70.387  1.00  0.00    -0.381 A  
HETATM   11  C   UNL     1     -11.544  10.335  70.573  1.00  0.00    -0.424 C  
HETATM   12  C   UNL     1     -12.195  13.948  69.835  1.00  0.00    -0.393 A  
HETATM   13  C   UNL     1     -11.461  14.214  68.690  1.00  0.00    -0.332 A  
HETATM   14  C   UNL     1     -10.657  13.220  68.104  1.00  0.00    -0.259 A  
HETATM   15  C   UNL     1      -9.917  13.578  66.831  1.00  0.00    -0.256 C  
ENDBRANCH   7   8
ENDBRANCH   6   7
ENDBRANCH   2   6
TORSDOF 3
ENDMDL
MODEL      190
REMARK 921   NORMALIZED FREE ENERGY PREDICTED BY IDOCK:   -2.69 KCAL/MOL
REMARK 922        TOTAL FREE ENERGY PREDICTED BY IDOCK:   -3.35 KCAL/MOL
REMARK 923 INTER-LIGAND FREE ENERGY PREDICTED BY IDOCK:   -3.42 KCAL/MOL
REMARK 924 INTRA-LIGAND FREE ENERGY PREDICTED BY IDOCK:    0.08 KCAL/MOL
REMARK 927      BINDING AFFINITY PREDICTED BY RF-SCORE:    0.00 PKD
ROOT
HETATM    1  C   UNL     1     -11.806  12.933  67.589  1.00  0.00    -0.400 C  
HETATM    2  C   UNL     1     -11.380  11.712  68.391  1.00  0.00    -0.279 C  
HETATM    3  N   UNL     1     -12.501  10.791  68.594  1.00  0.00    -0.647 NA 
HETATM    4  H2  UNL     1     -12.933  10.525  67.708  1.00  0.00     0.000 HD 
HETATM    5  H1  UNL     1     -12.216   9.973  69.132  1.00  0.00     0.000 HD 
ENDROOT
BRANCH   2   6
HETATM    6  C   UNL     1     -10.155  11.008  67.780  1.00  0.00    -0.177 C  
BRANCH   6   7
HETATM    7  O   UNL     1      -9.408  11.769  66.839  1.00  0.00    -0.183 OA 
BRANCH   7   8
HETATM    8  C   UNL     1      -9.092  11.148  65.642  1.00  0.00    -0.205 A  
HETATM    9  C   UNL     1      -9.725  11.287  64.379  1.00  0.00    -0.293 A  
HETATM   10  C   UNL     1      -9.220  10.553  63.280  1.00  0.00    -0.299 A  
HETATM   11  C   UNL     1     -10.980  12.046  64.012  1.00  0.00    -0.442 C  
HETATM   12  C   UNL     1      -8.115   9.716  63.392  1.00  0.00    -0.151 A  
HETATM   13  C   UNL     1      -7.510   9.561  64.628  1.00  0.00    -0.113 A  
HETATM   14  C   UNL     1      -7.983  10.258  65.754  1.00  0.00    -0.144 A  
HETATM   15  C   UNL     1      -7.292  10.004  67.078  1.00  0.00    -0.091 C  
ENDBRANCH   7   8
ENDBRANCH   6   7
ENDBRANCH   2   6
TORSDOF 3
ENDMDL
MODEL      191
REMARK 921   NORMALIZED FREE ENERGY PREDICTED BY IDOCK:   -2.66 KCAL/MOL
REMARK 922        TOTAL FREE ENERGY PREDICTED BY IDOCK:   -3.31 KCAL/MOL
REMARK 923 INTER-LIGAND FREE ENERGY PREDICTED BY IDOCK:   -3.10 KCAL/MOL
REMARK 924 INTRA-LIGAND FREE ENERGY PREDICTED BY IDOCK:   -0.20 KCAL/MOL
REMARK 927      BINDING AFFINITY PREDICTED BY RF-SCORE:    0.00 PKD
ROOT
HETATM    1  C   UNL     1      -8.469  13.637  67.124  1.00  0.00    -0.186 C  
HETATM    2  C   UNL     1      -9.546  14.213  66.216  1.00  0.00    -0.275 C  
HETATM    3  N   UNL     1     -10.851  13.606  66.485  1.00  0.00    -0.282 NA 
HETATM    4  H2  UNL     1     -11.107  13.690  67.469  1.00  0.00     0.000 HD 
HETATM    5  H1  UNL     1     -11.572  13.992  65.876  1.00  0.00     0.000 HD 
ENDROOT
BRANCH   2   6
HETATM    6  C   UNL     1      -9.599  15.751  66.274  1.00  0.00    -0.313 C  
BRANCH   6   7
HETATM    7  O   UNL     1     -10.710  16.307  66.966  1.00  0.00    -0.306 OA 
BRANCH   7   8
HETATM    8  C   UNL     1     -10.522  17.543  67.561  1.00  0.00    -0.355 A  
HETATM    9  C   UNL     1     -10.601  18.831  66.970  1.00  0.00    -0.483 A  
HETATM   10  C   UNL     1     -10.377  19.967  67.783  1.00  0.00    -0.506 A  
HETATM   11  C   UNL     1     -10.789  19.212  65.519  1.00  0.00    -0.084 C  
HETATM   12  C   UNL     1     -10.101  19.865  69.142  1.00  0.00    -0.337 A  
HETATM   13  C   UNL     1     -10.002  18.608  69.716  1.00  0.00     0.556 A  
HETATM   14  C   UNL     1     -10.202  17.448  68.948  1.00  0.00    -0.352 A  
HETATM   15  C   UNL     1     -10.036  16.110  69.640  1.00  0.00    -0.179 C  
ENDBRANCH   7   8
ENDBRANCH   6   7
ENDBRANCH   2   6
TORSDOF 3
ENDMDL
MODEL      192
REMARK 921   NORMALIZED FREE ENERGY PREDICTED BY IDOCK:   -2.59 KCAL/MOL
REMARK 922        TOTAL FREE ENERGY PREDICTED BY IDOCK:   -3.23 KCAL/MOL
REMARK 923 INTER-LIGAND FREE ENERGY PREDICTED BY IDOCK:   -3.19 KCAL/MOL
REMARK 924 INTRA-LIGAND FREE ENERGY PREDICTED BY IDOCK:   -0.04 KCAL/MOL
REMARK 927      BINDING AFFINITY PREDICTED BY RF-SCORE:    0.00 PKD
ROOT
HETATM    1  C   UNL     1      -5.512   8.538  70.792  1.00  0.00    -0.028 C  
HETATM    2  C   UNL     1      -6.740   9.216  71.382  1.00  0.00    -0.045 C  
HETATM    3  N   UNL     1      -7.470   9.975  70.364  1.00  0.00    -0.325 NA 
HETATM    4  H2  UNL     1      -7.713   9.390  69.564  1.00  0.00     0.000 HD 
HETATM    5  H1  UNL     1      -8.293  10.429  70.759  1.00  0.00     0.000 HD 
ENDROOT
BRANCH   2   6
HETATM    6  C   UNL     1      -7.651   8.227  72.132  1.00  0.00    -0.121 C  
BRANCH   6   7
HETATM    7  O   UNL     1      -8.893   8.751  72.586  1.00  0.00    -0.394 OA 
BRANCH   7   8
HETATM    8  C   UNL     1     -10.007   7.943  72.432  1.00  0.00    -0.229 A  
HETATM    9  C   UNL     1     -10.246   6.653  72.975  1.00  0.00    -0.225 A  
HETATM   10  C   UNL     1     -11.474   6.011  72.687  1.00  0.00    -0.297 A  
HETATM   11  C   UNL     1      -9.320   5.756  73.763  1.00  0.00    -0.138 C  
HETATM   12  C   UNL     1     -12.459   6.608  71.908  1.00  0.00    -0.334 A  
HETATM   13  C   UNL     1     -12.219   7.857  71.359  1.00  0.00    -0.337 A  
HETATM   14  C   UNL     1     -11.009   8.530  71.603  1.00  0.00    -0.362 A  
HETATM   15  C   UNL     1     -10.806   9.874  70.933  1.00  0.00    -0.357 C  
ENDBRANCH   7   8
ENDBRANCH   6   7
ENDBRANCH   2   6
TORSDOF 3
ENDMDL
MODEL      193
REMARK 921   NORMALIZED FREE ENERGY PREDICTED BY IDOCK:   -2.59 KCAL/MOL
REMARK 922        TOTAL FREE ENERGY PREDICTED BY IDOCK:   -3.22 KCAL/MOL
REMARK 923 INTER-LIGAND FREE ENERGY PREDICTED BY IDOCK:   -3.21 KCAL/MOL
REMARK 924 INTRA-LIGAND FREE ENERGY PREDICTED BY IDOCK:   -0.02 KCAL/MOL
REMARK 927      BINDING AFFINITY PREDICTED BY RF-SCORE:    0.00 PKD
ROOT
HETATM    1  C   UNL     1     -10.149   4.926  69.230  1.00  0.00    -0.248 C  
HETATM    2  C   UNL     1     -10.782   6.301  69.079  1.00  0.00    -0.302 C  
HETATM    3  N   UNL     1     -11.426   6.450  67.772  1.00  0.00    -0.632 NA 
HETATM    4  H2  UNL     1     -12.102   5.706  67.600  1.00  0.00     0.000 HD 
HETATM    5  H1  UNL     1     -11.850   7.372  67.671  1.00  0.00     0.000 HD 
ENDROOT
BRANCH   2   6
HETATM    6  C   UNL     1     -11.740   6.635  70.238  1.00  0.00    -0.371 C  
BRANCH   6   7
HETATM    7  O   UNL     1     -11.268   7.595  71.175  1.00  0.00    -0.252 OA 
BRANCH   7   8
HETATM    8  C   UNL     1     -10.061   8.210  70.887  1.00  0.00    -0.188 A  
HETATM    9  C   UNL     1      -8.747   7.763  71.190  1.00  0.00    -0.141 A  
HETATM   10  C   UNL     1      -7.649   8.559  70.788  1.00  0.00    -0.074 A  
HETATM   11  C   UNL     1      -8.302   6.570  72.005  1.00  0.00    -0.107 C  
HETATM   12  C   UNL     1      -7.812   9.752  70.092  1.00  0.00    -0.196 A  
HETATM   13  C   UNL     1      -9.094  10.201  69.816  1.00  0.00    -0.166 A  
HETATM   14  C   UNL     1     -10.218   9.453  70.207  1.00  0.00    -0.295 A  
HETATM   15  C   UNL     1     -11.586  10.031  69.904  1.00  0.00    -0.237 C  
ENDBRANCH   7   8
ENDBRANCH   6   7
ENDBRANCH   2   6
TORSDOF 3
ENDMDL
MODEL      194
REMARK 921   NORMALIZED FREE ENERGY PREDICTED BY IDOCK:   -2.58 KCAL/MOL
REMARK 922        TOTAL FREE ENERGY PREDICTED BY IDOCK:   -3.22 KCAL/MOL
REMARK 923 INTER-LIGAND FREE ENERGY PREDICTED BY IDOCK:   -2.92 KCAL/MOL
REMARK 924 INTRA-LIGAND FREE ENERGY PREDICTED BY IDOCK:   -0.30 KCAL/MOL
REMARK 927      BINDING AFFINITY PREDICTED BY RF-SCORE:    0.00 PKD
ROOT
HETATM    1  C   UNL     1     -10.359   9.835  65.962  1.00  0.00    -0.184 C  
HETATM    2  C   UNL     1     -10.368  10.400  67.374  1.00  0.00    -0.228 C  
HETATM    3  N   UNL     1     -11.593  11.160  67.636  1.00  0.00    -0.564 NA 
HETATM    4  H2  UNL     1     -12.427  10.602  67.450  1.00  0.00     0.000 HD 
HETATM    5  H1  UNL     1     -11.599  11.539  68.582  1.00  0.00     0.000 HD 
ENDROOT
BRANCH   2   6
HETATM    6  C   UNL     1     -10.120   9.317  68.440  1.00  0.00    -0.191 C  
BRANCH   6   7
HETATM    7  O   UNL     1     -10.659   8.032  68.155  1.00  0.00    -0.193 OA 
BRANCH   7   8
HETATM    8  C   UNL     1      -9.857   6.939  68.439  1.00  0.00    -0.143 A  
HETATM    9  C   UNL     1      -8.694   6.494  67.756  1.00  0.00    -0.115 A  
HETATM   10  C   UNL     1      -8.023   5.344  68.235  1.00  0.00    -0.088 A  
HETATM   11  C   UNL     1      -8.079   7.006  66.474  1.00  0.00    -0.111 C  
HETATM   12  C   UNL     1      -8.453   4.648  69.358  1.00  0.00    -0.094 A  
HETATM   13  C   UNL     1      -9.600   5.067  70.013  1.00  0.00    -0.258 A  
HETATM   14  C   UNL     1     -10.311   6.196  69.568  1.00  0.00    -0.277 A  
HETATM   15  C   UNL     1     -11.577   6.565  70.312  1.00  0.00    -0.473 C  
ENDBRANCH   7   8
ENDBRANCH   6   7
ENDBRANCH   2   6
TORSDOF 3
ENDMDL
MODEL      195
REMARK 921   NORMALIZED FREE ENERGY PREDICTED BY IDOCK:   -2.57 KCAL/MOL
REMARK 922        TOTAL FREE ENERGY PREDICTED BY IDOCK:   -3.21 KCAL/MOL
REMARK 923 INTER-LIGAND FREE ENERGY PREDICTED BY IDOCK:   -3.42 KCAL/MOL
REMARK 924 INTRA-LIGAND FREE ENERGY PREDICTED BY IDOCK:    0.21 KCAL/MOL
REMARK 927      BINDING AFFINITY PREDICTED BY RF-SCORE:    0.00 PKD
ROOT
HETATM    1  C   UNL     1      -6.664   7.894  71.380  1.00  0.00    -0.046 C  
HETATM    2  C   UNL     1      -8.164   7.744  71.593  1.00  0.00    -0.110 C  
HETATM    3  N   UNL     1      -8.718   8.899  72.302  1.00  0.00    -0.375 NA 
HETATM    4  H2  UNL     1      -8.493   9.774  71.828  1.00  0.00     0.000 HD 
HETATM    5  H1  UNL     1      -9.723   8.799  72.445  1.00  0.00     0.000 HD 
ENDROOT
BRANCH   2   6
HETATM    6  C   UNL     1      -8.915   7.454  70.281  1.00  0.00    -0.147 C  
BRANCH   6   7
HETATM    7  O   UNL     1     -10.284   7.837  70.253  1.00  0.00    -0.195 OA 
BRANCH   7   8
HETATM    8  C   UNL     1     -10.623   8.893  69.423  1.00  0.00    -0.217 A  
HETATM    9  C   UNL     1     -10.300   9.080  68.053  1.00  0.00    -0.275 A  
HETATM   10  C   UNL     1     -10.765  10.245  67.398  1.00  0.00    -0.339 A  
HETATM   11  C   UNL     1      -9.406   8.255  67.156  1.00  0.00    -0.189 C  
HETATM   12  C   UNL     1     -11.541  11.200  68.045  1.00  0.00    -0.337 A  
HETATM   13  C   UNL     1     -11.839  11.031  69.387  1.00  0.00    -0.407 A  
HETATM   14  C   UNL     1     -11.388   9.897  70.087  1.00  0.00    -0.335 A  
HETATM   15  C   UNL     1     -11.721   9.805  71.562  1.00  0.00    -0.450 C  
ENDBRANCH   7   8
ENDBRANCH   6   7
ENDBRANCH   2   6
TORSDOF 3
ENDMDL
MODEL      196
REMARK 921   NORMALIZED FREE ENERGY PREDICTED BY IDOCK:   -2.57 KCAL/MOL
REMARK 922        TOTAL FREE ENERGY PREDICTED BY IDOCK:   -3.20 KCAL/MOL
REMARK 923 INTER-LIGAND FREE ENERGY PREDICTED BY IDOCK:   -3.41 KCAL/MOL
REMARK 924 INTRA-LIGAND FREE ENERGY PREDICTED BY IDOCK:    0.21 KCAL/MOL
REMARK 927      BINDING AFFINITY PREDICTED BY RF-SCORE:    0.00 PKD
ROOT
HETATM    1  C   UNL     1      -8.040  11.113  68.418  1.00  0.00    -0.141 C  
HETATM    2  C   UNL     1      -8.490   9.662  68.330  1.00  0.00    -0.118 C  
HETATM    3  N   UNL     1      -9.455   9.339  69.384  1.00  0.00    -0.162 NA 
HETATM    4  H2  UNL     1     -10.249   9.979  69.372  1.00  0.00     0.000 HD 
HETATM    5  H1  UNL     1      -9.756   8.367  69.325  1.00  0.00     0.000 HD 
ENDROOT
BRANCH   2   6
HETATM    6  C   UNL     1      -9.016   9.296  66.930  1.00  0.00    -0.130 C  
BRANCH   6   7
HETATM    7  O   UNL     1     -10.405   9.512  66.714  1.00  0.00    -0.246 OA 
BRANCH   7   8
HETATM    8  C   UNL     1     -10.819  10.825  66.564  1.00  0.00    -0.130 A  
HETATM    9  C   UNL     1     -11.514  11.645  67.492  1.00  0.00    -0.360 A  
HETATM   10  C   UNL     1     -11.829  12.973  67.121  1.00  0.00    -0.431 A  
HETATM   11  C   UNL     1     -12.098  11.288  68.840  1.00  0.00    -0.292 C  
HETATM   12  C   UNL     1     -11.467  13.507  65.890  1.00  0.00    -0.338 A  
HETATM   13  C   UNL     1     -10.809  12.701  64.974  1.00  0.00    -0.321 A  
HETATM   14  C   UNL     1     -10.485  11.370  65.289  1.00  0.00    -0.340 A  
HETATM   15  C   UNL     1      -9.802  10.542  64.220  1.00  0.00    -0.402 C  
ENDBRANCH   7   8
ENDBRANCH   6   7
ENDBRANCH   2   6
TORSDOF 3
ENDMDL
MODEL      197
REMARK 921   NORMALIZED FREE ENERGY PREDICTED BY IDOCK:   -2.57 KCAL/MOL
REMARK 922        TOTAL FREE ENERGY PREDICTED BY IDOCK:   -3.20 KCAL/MOL
REMARK 923 INTER-LIGAND FREE ENERGY PREDICTED BY IDOCK:   -3.02 KCAL/MOL
REMARK 924 INTRA-LIGAND FREE ENERGY PREDICTED BY IDOCK:   -0.18 KCAL/MOL
REMARK 927      BINDING AFFINITY PREDICTED BY RF-SCORE:    0.00 PKD
ROOT
HETATM    1  C   UNL     1      -7.923   2.338  70.778  1.00  0.00    -0.049 C  
HETATM    2  C   UNL     1      -8.503   3.689  71.172  1.00  0.00    -0.068 C  
HETATM    3  N   UNL     1      -7.459   4.595  71.656  1.00  0.00    -0.072 NA 
HETATM    4  H2  UNL     1      -6.706   4.696  70.976  1.00  0.00     0.000 HD 
HETATM    5  H1  UNL     1      -7.848   5.500  71.921  1.00  0.00     0.000 HD 
ENDROOT
BRANCH   2   6
HETATM    6  C   UNL     1      -9.340   4.318  70.043  1.00  0.00    -0.164 C  
BRANCH   6   7
HETATM    7  O   UNL     1     -10.653   4.732  70.402  1.00  0.00    -0.113 OA 
BRANCH   7   8
HETATM    8  C   UNL     1     -10.814   6.057  70.769  1.00  0.00    -0.292 A  
HETATM    9  C   UNL     1     -10.699   7.219  69.961  1.00  0.00    -0.261 A  
HETATM   10  C   UNL     1     -10.917   8.485  70.556  1.00  0.00    -0.263 A  
HETATM   11  C   UNL     1     -10.257   7.348  68.522  1.00  0.00    -0.201 C  
HETATM   12  C   UNL     1     -11.256   8.627  71.897  1.00  0.00    -0.413 A  
HETATM   13  C   UNL     1     -11.346   7.496  72.692  1.00  0.00    -0.395 A  
HETATM   14  C   UNL     1     -11.125   6.216  72.152  1.00  0.00    -0.321 A  
HETATM   15  C   UNL     1     -11.202   5.033  73.095  1.00  0.00    -0.408 C  
ENDBRANCH   7   8
ENDBRANCH   6   7
ENDBRANCH   2   6
TORSDOF 3
ENDMDL
MODEL      198
REMARK 921   NORMALIZED FREE ENERGY PREDICTED BY IDOCK:   -2.52 KCAL/MOL
REMARK 922        TOTAL FREE ENERGY PREDICTED BY IDOCK:   -3.15 KCAL/MOL
REMARK 923 INTER-LIGAND FREE ENERGY PREDICTED BY IDOCK:   -3.05 KCAL/MOL
REMARK 924 INTRA-LIGAND FREE ENERGY PREDICTED BY IDOCK:   -0.10 KCAL/MOL
REMARK 927      BINDING AFFINITY PREDICTED BY RF-SCORE:    0.00 PKD
ROOT
HETATM    1  C   UNL     1     -11.521  11.833  67.986  1.00  0.00    -0.388 C  
HETATM    2  C   UNL     1     -11.447  11.083  69.308  1.00  0.00    -0.300 C  
HETATM    3  N   UNL     1     -12.723  10.437  69.625  1.00  0.00    -0.614 NA 
HETATM    4  H2  UNL     1     -13.033   9.829  68.867  1.00  0.00     0.000 HD 
HETATM    5  H1  UNL     1     -12.674   9.935  70.511  1.00  0.00     0.000 HD 
ENDROOT
BRANCH   2   6
HETATM    6  C   UNL     1     -10.269  10.094  69.356  1.00  0.00    -0.227 C  
BRANCH   6   7
HETATM    7  O   UNL     1     -10.614   8.728  69.546  1.00  0.00    -0.225 OA 
BRANCH   7   8
HETATM    8  C   UNL     1      -9.571   7.816  69.570  1.00  0.00    -0.160 A  
HETATM    9  C   UNL     1      -8.715   7.481  70.652  1.00  0.00    -0.141 A  
HETATM   10  C   UNL     1      -7.712   6.504  70.447  1.00  0.00    -0.098 A  
HETATM   11  C   UNL     1      -8.617   8.100  72.027  1.00  0.00    -0.216 C  
HETATM   12  C   UNL     1      -7.550   5.849  69.231  1.00  0.00    -0.089 A  
HETATM   13  C   UNL     1      -8.371   6.191  68.168  1.00  0.00    -0.114 A  
HETATM   14  C   UNL     1      -9.373   7.166  68.316  1.00  0.00    -0.130 A  
HETATM   15  C   UNL     1     -10.201   7.512  67.096  1.00  0.00    -0.350 C  
ENDBRANCH   7   8
ENDBRANCH   6   7
ENDBRANCH   2   6
TORSDOF 3
ENDMDL
MODEL      199
REMARK 921   NORMALIZED FREE ENERGY PREDICTED BY IDOCK:   -2.52 KCAL/MOL
REMARK 922        TOTAL FREE ENERGY PREDICTED BY IDOCK:   -3.14 KCAL/MOL
REMARK 923 INTER-LIGAND FREE ENERGY PREDICTED BY IDOCK:   -3.43 KCAL/MOL
REMARK 924 INTRA-LIGAND FREE ENERGY PREDICTED BY IDOCK:    0.29 KCAL/MOL
REMARK 927      BINDING AFFINITY PREDICTED BY RF-SCORE:    0.00 PKD
ROOT
HETATM    1  C   UNL     1     -11.544  11.999  65.092  1.00  0.00    -0.330 C  
HETATM    2  C   UNL     1     -10.475  11.328  64.243  1.00  0.00    -0.357 C  
HETATM    3  N   UNL     1      -9.952  12.242  63.224  1.00  0.00    -0.540 NA 
HETATM    4  H2  UNL     1      -9.611  13.109  63.639  1.00  0.00     0.000 HD 
HETATM    5  H1  UNL     1      -9.236  11.791  62.655  1.00  0.00     0.000 HD 
ENDROOT
BRANCH   2   6
HETATM    6  C   UNL     1      -9.353  10.709  65.096  1.00  0.00    -0.212 C  
BRANCH   6   7
HETATM    7  O   UNL     1      -9.163  11.284  66.383  1.00  0.00    -0.180 OA 
BRANCH   7   8
HETATM    8  C   UNL     1      -9.794  10.662  67.447  1.00  0.00    -0.170 A  
HETATM    9  C   UNL     1     -10.092   9.283  67.615  1.00  0.00    -0.266 A  
HETATM   10  C   UNL     1     -10.742   8.868  68.801  1.00  0.00    -0.123 A  
HETATM   11  C   UNL     1      -9.919   8.138  66.644  1.00  0.00    -0.339 C  
HETATM   12  C   UNL     1     -11.082   9.759  69.812  1.00  0.00    -0.272 A  
HETATM   13  C   UNL     1     -10.812  11.108  69.641  1.00  0.00    -0.200 A  
HETATM   14  C   UNL     1     -10.181  11.573  68.474  1.00  0.00    -0.219 A  
HETATM   15  C   UNL     1      -9.957  13.065  68.344  1.00  0.00    -0.216 C  
ENDBRANCH   7   8
ENDBRANCH   6   7
ENDBRANCH   2   6
TORSDOF 3
ENDMDL
MODEL      200
REMARK 921   NORMALIZED FREE ENERGY PREDICTED BY IDOCK:   -2.51 KCAL/MOL
REMARK 922        TOTAL FREE ENERGY PREDICTED BY IDOCK:   -3.13 KCAL/MOL
REMARK 923 INTER-LIGAND FREE ENERGY PREDICTED BY IDOCK:   -2.93 KCAL/MOL
REMARK 924 INTRA-LIGAND FREE ENERGY PREDICTED BY IDOCK:   -0.20 KCAL/MOL
REMARK 927      BINDING AFFINITY PREDICTED BY RF-SCORE:    0.00 PKD
ROOT
HETATM    1  C   UNL     1      -6.353  12.176  67.106  1.00  0.00    -0.139 C  
HETATM    2  C   UNL     1      -7.729  12.039  67.740  1.00  0.00    -0.139 C  
HETATM    3  N   UNL     1      -7.814  12.790  68.995  1.00  0.00    -0.324 NA 
HETATM    4  H2  UNL     1      -7.558  13.769  68.864  1.00  0.00     0.000 HD 
HETATM    5  H1  UNL     1      -8.736  12.698  69.421  1.00  0.00     0.000 HD 
ENDROOT
BRANCH   2   6
HETATM    6  C   UNL     1      -8.863  12.409  66.766  1.00  0.00    -0.189 C  
BRANCH   6   7
HETATM    7  O   UNL     1      -9.185  11.427  65.789  1.00  0.00    -0.214 OA 
BRANCH   7   8
HETATM    8  C   UNL     1      -9.506  10.162  66.255  1.00  0.00    -0.180 A  
HETATM    9  C   UNL     1     -10.466   9.798  67.236  1.00  0.00    -0.324 A  
HETATM   10  C   UNL     1     -10.631   8.428  67.549  1.00  0.00    -0.285 A  
HETATM   11  C   UNL     1     -11.313  10.680  68.125  1.00  0.00    -0.354 C  
HETATM   12  C   UNL     1      -9.899   7.429  66.919  1.00  0.00    -0.284 A  
HETATM   13  C   UNL     1      -8.946   7.784  65.978  1.00  0.00    -0.185 A  
HETATM   14  C   UNL     1      -8.734   9.132  65.641  1.00  0.00    -0.203 A  
HETATM   15  C   UNL     1      -7.646   9.441  64.633  1.00  0.00    -0.109 C  
ENDBRANCH   7   8
ENDBRANCH   6   7
ENDBRANCH   2   6
TORSDOF 3
ENDMDL
MODEL      201
REMARK 921   NORMALIZED FREE ENERGY PREDICTED BY IDOCK:   -2.50 KCAL/MOL
REMARK 922        TOTAL FREE ENERGY PREDICTED BY IDOCK:   -3.13 KCAL/MOL
REMARK 923 INTER-LIGAND FREE ENERGY PREDICTED BY IDOCK:   -2.77 KCAL/MOL
REMARK 924 INTRA-LIGAND FREE ENERGY PREDICTED BY IDOCK:   -0.36 KCAL/MOL
REMARK 927      BINDING AFFINITY PREDICTED BY RF-SCORE:    0.00 PKD
ROOT
HETATM    1  C   UNL     1      -5.760   8.145  70.224  1.00  0.00    -0.022 C  
HETATM    2  C   UNL     1      -6.473   9.131  71.137  1.00  0.00    -0.084 C  
HETATM    3  N   UNL     1      -6.779  10.380  70.435  1.00  0.00    -0.265 NA 
HETATM    4  H2  UNL     1      -7.310  10.210  69.581  1.00  0.00     0.000 HD 
HETATM    5  H1  UNL     1      -7.257  11.041  71.048  1.00  0.00     0.000 HD 
ENDROOT
BRANCH   2   6
HETATM    6  C   UNL     1      -7.720   8.519  71.800  1.00  0.00    -0.117 C  
BRANCH   6   7
HETATM    7  O   UNL     1      -8.972   9.027  71.355  1.00  0.00    -0.227 OA 
BRANCH   7   8
HETATM    8  C   UNL     1      -9.762   8.175  70.601  1.00  0.00    -0.170 A  
HETATM    9  C   UNL     1      -9.646   7.848  69.224  1.00  0.00    -0.157 A  
HETATM   10  C   UNL     1     -10.571   6.936  68.663  1.00  0.00    -0.254 A  
HETATM   11  C   UNL     1      -8.720   8.420  68.176  1.00  0.00    -0.143 C  
HETATM   12  C   UNL     1     -11.574   6.337  69.416  1.00  0.00    -0.172 A  
HETATM   13  C   UNL     1     -11.702   6.672  70.755  1.00  0.00    -0.445 A  
HETATM   14  C   UNL     1     -10.817   7.584  71.356  1.00  0.00    -0.251 A  
HETATM   15  C   UNL     1     -11.048   7.928  72.814  1.00  0.00    -0.462 C  
ENDBRANCH   7   8
ENDBRANCH   6   7
ENDBRANCH   2   6
TORSDOF 3
ENDMDL
MODEL      202
REMARK 921   NORMALIZED FREE ENERGY PREDICTED BY IDOCK:   -2.50 KCAL/MOL
REMARK 922        TOTAL FREE ENERGY PREDICTED BY IDOCK:   -3.13 KCAL/MOL
REMARK 923 INTER-LIGAND FREE ENERGY PREDICTED BY IDOCK:   -2.86 KCAL/MOL
REMARK 924 INTRA-LIGAND FREE ENERGY PREDICTED BY IDOCK:   -0.26 KCAL/MOL
REMARK 927      BINDING AFFINITY PREDICTED BY RF-SCORE:    0.00 PKD
ROOT
HETATM    1  C   UNL     1     -10.187   5.230  69.627  1.00  0.00    -0.348 C  
HETATM    2  C   UNL     1     -11.150   6.260  69.054  1.00  0.00    -0.378 C  
HETATM    3  N   UNL     1     -11.946   6.890  70.110  1.00  0.00    -0.637 NA 
HETATM    4  H2  UNL     1     -11.354   7.294  70.835  1.00  0.00     0.000 HD 
HETATM    5  H1  UNL     1     -12.591   7.580  69.725  1.00  0.00     0.000 HD 
ENDROOT
BRANCH   2   6
HETATM    6  C   UNL     1     -10.437   7.299  68.168  1.00  0.00    -0.198 C  
BRANCH   6   7
HETATM    7  O   UNL     1     -10.455   8.638  68.647  1.00  0.00    -0.211 OA 
BRANCH   7   8
HETATM    8  C   UNL     1      -9.286   9.368  68.508  1.00  0.00    -0.138 A  
HETATM    9  C   UNL     1      -8.017   9.126  69.097  1.00  0.00    -0.097 A  
HETATM   10  C   UNL     1      -6.952  10.010  68.802  1.00  0.00    -0.062 A  
HETATM   11  C   UNL     1      -7.615   8.091  70.121  1.00  0.00    -0.081 C  
HETATM   12  C   UNL     1      -7.102  11.094  67.945  1.00  0.00    -0.081 A  
HETATM   13  C   UNL     1      -8.345  11.345  67.388  1.00  0.00    -0.144 A  
HETATM   14  C   UNL     1      -9.439  10.504  67.660  1.00  0.00    -0.164 A  
HETATM   15  C   UNL     1     -10.775  10.869  67.045  1.00  0.00    -0.323 C  
ENDBRANCH   7   8
ENDBRANCH   6   7
ENDBRANCH   2   6
TORSDOF 3
ENDMDL
MODEL      203
REMARK 921   NORMALIZED FREE ENERGY PREDICTED BY IDOCK:   -2.50 KCAL/MOL
REMARK 922        TOTAL FREE ENERGY PREDICTED BY IDOCK:   -3.11 KCAL/MOL
REMARK 923 INTER-LIGAND FREE ENERGY PREDICTED BY IDOCK:   -2.85 KCAL/MOL
REMARK 924 INTRA-LIGAND FREE ENERGY PREDICTED BY IDOCK:   -0.27 KCAL/MOL
REMARK 927      BINDING AFFINITY PREDICTED BY RF-SCORE:    0.00 PKD
ROOT
HETATM    1  C   UNL     1      -6.044   8.633  68.637  1.00  0.00    -0.045 C  
HETATM    2  C   UNL     1      -7.406   8.377  69.266  1.00  0.00    -0.071 C  
HETATM    3  N   UNL     1      -7.313   8.308  70.726  1.00  0.00    -0.053 NA 
HETATM    4  H2  UNL     1      -6.873   9.143  71.113  1.00  0.00     0.000 HD 
HETATM    5  H1  UNL     1      -8.225   8.135  71.148  1.00  0.00     0.000 HD 
ENDROOT
BRANCH   2   6
HETATM    6  C   UNL     1      -8.467   9.390  68.800  1.00  0.00    -0.122 C  
BRANCH   6   7
HETATM    7  O   UNL     1      -9.428   8.899  67.874  1.00  0.00    -0.140 OA 
BRANCH   7   8
HETATM    8  C   UNL     1      -9.840   9.769  66.878  1.00  0.00    -0.201 A  
HETATM    9  C   UNL     1     -10.731  10.870  66.979  1.00  0.00    -0.323 A  
HETATM   10  C   UNL     1     -11.002  11.633  65.818  1.00  0.00    -0.329 A  
HETATM   11  C   UNL     1     -11.564  11.328  68.154  1.00  0.00    -0.359 C  
HETATM   12  C   UNL     1     -10.414  11.351  64.590  1.00  0.00    -0.373 A  
HETATM   13  C   UNL     1      -9.563  10.263  64.485  1.00  0.00    -0.378 A  
HETATM   14  C   UNL     1      -9.272   9.465  65.606  1.00  0.00    -0.285 A  
HETATM   15  C   UNL     1      -8.364   8.270  65.400  1.00  0.00    -0.170 C  
ENDBRANCH   7   8
ENDBRANCH   6   7
ENDBRANCH   2   6
TORSDOF 3
ENDMDL
MODEL      204
REMARK 921   NORMALIZED FREE ENERGY PREDICTED BY IDOCK:   -2.49 KCAL/MOL
REMARK 922        TOTAL FREE ENERGY PREDICTED BY IDOCK:   -3.11 KCAL/MOL
REMARK 923 INTER-LIGAND FREE ENERGY PREDICTED BY IDOCK:   -3.07 KCAL/MOL
REMARK 924 INTRA-LIGAND FREE ENERGY PREDICTED BY IDOCK:   -0.04 KCAL/MOL
REMARK 927      BINDING AFFINITY PREDICTED BY RF-SCORE:    0.00 PKD
ROOT
HETATM    1  C   UNL     1     -10.984   6.757  67.412  1.00  0.00    -0.407 C  
HETATM    2  C   UNL     1     -10.151   6.391  68.631  1.00  0.00    -0.158 C  
HETATM    3  N   UNL     1     -10.148   4.944  68.859  1.00  0.00    -0.151 NA 
HETATM    4  H2  UNL     1      -9.841   4.435  68.030  1.00  0.00     0.000 HD 
HETATM    5  H1  UNL     1      -9.589   4.699  69.677  1.00  0.00     0.000 HD 
ENDROOT
BRANCH   2   6
HETATM    6  C   UNL     1      -8.726   6.970  68.562  1.00  0.00    -0.122 C  
BRANCH   6   7
HETATM    7  O   UNL     1      -8.307   7.723  69.693  1.00  0.00    -0.125 OA 
BRANCH   7   8
HETATM    8  C   UNL     1      -9.216   7.855  70.729  1.00  0.00    -0.157 A  
HETATM    9  C   UNL     1     -10.260   8.807  70.873  1.00  0.00    -0.284 A  
HETATM   10  C   UNL     1     -11.081   8.746  72.024  1.00  0.00    -0.441 A  
HETATM   11  C   UNL     1     -10.596  10.002  70.012  1.00  0.00    -0.344 C  
HETATM   12  C   UNL     1     -10.911   7.778  73.007  1.00  0.00    -0.451 A  
HETATM   13  C   UNL     1      -9.879   6.863  72.880  1.00  0.00    -0.195 A  
HETATM   14  C   UNL     1      -9.027   6.890  71.761  1.00  0.00    -0.138 A  
HETATM   15  C   UNL     1      -7.897   5.881  71.715  1.00  0.00    -0.103 C  
ENDBRANCH   7   8
ENDBRANCH   6   7
ENDBRANCH   2   6
TORSDOF 3
ENDMDL
MODEL      205
REMARK 921   NORMALIZED FREE ENERGY PREDICTED BY IDOCK:   -2.45 KCAL/MOL
REMARK 922        TOTAL FREE ENERGY PREDICTED BY IDOCK:   -3.06 KCAL/MOL
REMARK 923 INTER-LIGAND FREE ENERGY PREDICTED BY IDOCK:   -3.11 KCAL/MOL
REMARK 924 INTRA-LIGAND FREE ENERGY PREDICTED BY IDOCK:    0.05 KCAL/MOL
REMARK 927      BINDING AFFINITY PREDICTED BY RF-SCORE:    0.00 PKD
ROOT
HETATM    1  C   UNL     1      -9.649  17.726  66.595  1.00  0.00    -0.311 C  
HETATM    2  C   UNL     1      -9.100  17.726  68.015  1.00  0.00    -0.269 C  
HETATM    3  N   UNL     1      -8.491  19.015  68.350  1.00  0.00    -0.336 NA 
HETATM    4  H2  UNL     1      -9.141  19.787  68.201  1.00  0.00     0.000 HD 
HETATM    5  H1  UNL     1      -8.123  19.015  69.301  1.00  0.00     0.000 HD 
ENDROOT
BRANCH   2   6
HETATM    6  C   UNL     1     -10.155  17.296  69.050  1.00  0.00    -0.302 C  
BRANCH   6   7
HETATM    7  O   UNL     1      -9.932  16.039  69.677  1.00  0.00    -0.263 OA 
BRANCH   7   8
HETATM    8  C   UNL     1      -9.151  15.125  68.988  1.00  0.00    -0.218 A  
HETATM    9  C   UNL     1      -7.740  14.974  69.009  1.00  0.00    -0.170 A  
HETATM   10  C   UNL     1      -7.154  13.955  68.222  1.00  0.00    -0.108 A  
HETATM   11  C   UNL     1      -6.692  15.829  69.684  1.00  0.00    -0.176 C  
HETATM   12  C   UNL     1      -7.913  13.088  67.444  1.00  0.00    -0.173 A  
HETATM   13  C   UNL     1      -9.288  13.248  67.404  1.00  0.00    -0.217 A  
HETATM   14  C   UNL     1      -9.918  14.255  68.158  1.00  0.00    -0.230 A  
HETATM   15  C   UNL     1     -11.421  14.392  68.029  1.00  0.00    -0.336 C  
ENDBRANCH   7   8
ENDBRANCH   6   7
ENDBRANCH   2   6
TORSDOF 3
ENDMDL
MODEL      206
REMARK 921   NORMALIZED FREE ENERGY PREDICTED BY IDOCK:   -2.43 KCAL/MOL
REMARK 922        TOTAL FREE ENERGY PREDICTED BY IDOCK:   -3.04 KCAL/MOL
REMARK 923 INTER-LIGAND FREE ENERGY PREDICTED BY IDOCK:   -2.77 KCAL/MOL
REMARK 924 INTRA-LIGAND FREE ENERGY PREDICTED BY IDOCK:   -0.27 KCAL/MOL
REMARK 927      BINDING AFFINITY PREDICTED BY RF-SCORE:    0.00 PKD
ROOT
HETATM    1  C   UNL     1     -10.041   8.670  66.505  1.00  0.00    -0.339 C  
HETATM    2  C   UNL     1     -10.631   8.193  67.824  1.00  0.00    -0.165 C  
HETATM    3  N   UNL     1     -10.898   6.753  67.799  1.00  0.00    -0.380 NA 
HETATM    4  H2  UNL     1     -10.063   6.222  67.549  1.00  0.00     0.000 HD 
HETATM    5  H1  UNL     1     -11.294   6.434  68.683  1.00  0.00     0.000 HD 
ENDROOT
BRANCH   2   6
HETATM    6  C   UNL     1      -9.770   8.602  69.033  1.00  0.00    -0.173 C  
BRANCH   6   7
HETATM    7  O   UNL     1     -10.021   9.898  69.563  1.00  0.00    -0.195 OA 
BRANCH   7   8
HETATM    8  C   UNL     1      -9.445  10.968  68.900  1.00  0.00    -0.155 A  
HETATM    9  C   UNL     1      -8.070  11.306  68.791  1.00  0.00    -0.130 A  
HETATM   10  C   UNL     1      -7.709  12.453  68.047  1.00  0.00    -0.135 A  
HETATM   11  C   UNL     1      -6.870  10.674  69.459  1.00  0.00    -0.109 C  
HETATM   12  C   UNL     1      -8.651  13.249  67.405  1.00  0.00    -0.204 A  
HETATM   13  C   UNL     1      -9.994  12.935  67.528  1.00  0.00    -0.215 A  
HETATM   14  C   UNL     1     -10.406  11.812  68.269  1.00  0.00    -0.217 A  
HETATM   15  C   UNL     1     -11.895  11.559  68.390  1.00  0.00    -0.353 C  
ENDBRANCH   7   8
ENDBRANCH   6   7
ENDBRANCH   2   6
TORSDOF 3
ENDMDL
MODEL      207
REMARK 921   NORMALIZED FREE ENERGY PREDICTED BY IDOCK:   -2.43 KCAL/MOL
REMARK 922        TOTAL FREE ENERGY PREDICTED BY IDOCK:   -3.03 KCAL/MOL
REMARK 923 INTER-LIGAND FREE ENERGY PREDICTED BY IDOCK:   -2.82 KCAL/MOL
REMARK 924 INTRA-LIGAND FREE ENERGY PREDICTED BY IDOCK:   -0.21 KCAL/MOL
REMARK 927      BINDING AFFINITY PREDICTED BY RF-SCORE:    0.00 PKD
ROOT
HETATM    1  C   UNL     1      -9.304  11.696  66.042  1.00  0.00    -0.241 C  
HETATM    2  C   UNL     1     -10.049  12.254  67.246  1.00  0.00    -0.204 C  
HETATM    3  N   UNL     1     -11.137  13.144  66.833  1.00  0.00    -0.276 NA 
HETATM    4  H2  UNL     1     -11.772  12.682  66.182  1.00  0.00     0.000 HD 
HETATM    5  H1  UNL     1     -11.635  13.518  67.640  1.00  0.00     0.000 HD 
ENDROOT
BRANCH   2   6
HETATM    6  C   UNL     1     -10.535  11.147  68.198  1.00  0.00    -0.189 C  
BRANCH   6   7
HETATM    7  O   UNL     1      -9.765  10.964  69.380  1.00  0.00    -0.131 OA 
BRANCH   7   8
HETATM    8  C   UNL     1      -9.766   9.696  69.938  1.00  0.00    -0.231 A  
HETATM    9  C   UNL     1     -10.720   9.116  70.815  1.00  0.00    -0.327 A  
HETATM   10  C   UNL     1     -10.517   7.787  71.256  1.00  0.00    -0.230 A  
HETATM   11  C   UNL     1     -11.924   9.746  71.477  1.00  0.00    -0.488 C  
HETATM   12  C   UNL     1      -9.428   7.026  70.846  1.00  0.00    -0.160 A  
HETATM   13  C   UNL     1      -8.484   7.598  70.008  1.00  0.00    -0.136 A  
HETATM   14  C   UNL     1      -8.632   8.921  69.553  1.00  0.00    -0.134 A  
HETATM   15  C   UNL     1      -7.537   9.487  68.673  1.00  0.00    -0.080 C  
ENDBRANCH   7   8
ENDBRANCH   6   7
ENDBRANCH   2   6
TORSDOF 3
ENDMDL
MODEL      208
REMARK 921   NORMALIZED FREE ENERGY PREDICTED BY IDOCK:   -2.42 KCAL/MOL
REMARK 922        TOTAL FREE ENERGY PREDICTED BY IDOCK:   -3.02 KCAL/MOL
REMARK 923 INTER-LIGAND FREE ENERGY PREDICTED BY IDOCK:   -2.99 KCAL/MOL
REMARK 924 INTRA-LIGAND FREE ENERGY PREDICTED BY IDOCK:   -0.03 KCAL/MOL
REMARK 927      BINDING AFFINITY PREDICTED BY RF-SCORE:    0.00 PKD
ROOT
HETATM    1  C   UNL     1      -6.423   7.181  71.761  1.00  0.00    -0.047 C  
HETATM    2  C   UNL     1      -6.562   8.470  70.965  1.00  0.00    -0.048 C  
HETATM    3  N   UNL     1      -5.946   8.347  69.641  1.00  0.00    -0.032 NA 
HETATM    4  H2  UNL     1      -6.318   7.548  69.128  1.00  0.00     0.000 HD 
HETATM    5  H1  UNL     1      -6.039   9.212  69.108  1.00  0.00     0.000 HD 
ENDROOT
BRANCH   2   6
HETATM    6  C   UNL     1      -8.021   8.953  70.882  1.00  0.00    -0.148 C  
BRANCH   6   7
HETATM    7  O   UNL     1      -8.778   8.848  72.082  1.00  0.00    -0.386 OA 
BRANCH   7   8
HETATM    8  C   UNL     1     -10.079   8.390  71.964  1.00  0.00    -0.294 A  
HETATM    9  C   UNL     1     -11.191   9.031  71.355  1.00  0.00    -0.394 A  
HETATM   10  C   UNL     1     -12.438   8.362  71.344  1.00  0.00    -0.313 A  
HETATM   11  C   UNL     1     -11.300  10.424  70.780  1.00  0.00    -0.370 C  
HETATM   12  C   UNL     1     -12.607   7.096  71.892  1.00  0.00    -0.328 A  
HETATM   13  C   UNL     1     -11.529   6.478  72.506  1.00  0.00    -0.274 A  
HETATM   14  C   UNL     1     -10.272   7.107  72.555  1.00  0.00    -0.223 A  
HETATM   15  C   UNL     1      -9.155   6.384  73.280  1.00  0.00    -0.135 C  
ENDBRANCH   7   8
ENDBRANCH   6   7
ENDBRANCH   2   6
TORSDOF 3
ENDMDL
MODEL      209
REMARK 921   NORMALIZED FREE ENERGY PREDICTED BY IDOCK:   -2.40 KCAL/MOL
REMARK 922        TOTAL FREE ENERGY PREDICTED BY IDOCK:   -3.00 KCAL/MOL
REMARK 923 INTER-LIGAND FREE ENERGY PREDICTED BY IDOCK:   -2.85 KCAL/MOL
REMARK 924 INTRA-LIGAND FREE ENERGY PREDICTED BY IDOCK:   -0.15 KCAL/MOL
REMARK 927      BINDING AFFINITY PREDICTED BY RF-SCORE:    0.00 PKD
ROOT
HETATM    1  C   UNL     1     -11.511  11.849  67.992  1.00  0.00    -0.389 C  
HETATM    2  C   UNL     1     -11.389  11.218  69.371  1.00  0.00    -0.292 C  
HETATM    3  N   UNL     1     -12.621  10.520  69.747  1.00  0.00    -0.546 NA 
HETATM    4  H2  UNL     1     -12.892   9.833  69.044  1.00  0.00     0.000 HD 
HETATM    5  H1  UNL     1     -12.539  10.098  70.672  1.00  0.00     0.000 HD 
ENDROOT
BRANCH   2   6
HETATM    6  C   UNL     1     -10.150  10.314  69.494  1.00  0.00    -0.235 C  
BRANCH   6   7
HETATM    7  O   UNL     1     -10.404   8.958  69.841  1.00  0.00    -0.194 OA 
BRANCH   7   8
HETATM    8  C   UNL     1      -9.304   8.126  69.960  1.00  0.00    -0.159 A  
HETATM    9  C   UNL     1      -8.483   7.592  68.932  1.00  0.00    -0.129 A  
HETATM   10  C   UNL     1      -7.395   6.761  69.293  1.00  0.00    -0.093 A  
HETATM   11  C   UNL     1      -8.644   7.679  67.432  1.00  0.00    -0.125 C  
HETATM   12  C   UNL     1      -7.095   6.466  70.618  1.00  0.00    -0.069 A  
HETATM   13  C   UNL     1      -7.908   6.967  71.621  1.00  0.00    -0.100 A  
HETATM   14  C   UNL     1      -9.009   7.786  71.314  1.00  0.00    -0.147 A  
HETATM   15  C   UNL     1      -9.873   8.261  72.464  1.00  0.00    -0.368 C  
ENDBRANCH   7   8
ENDBRANCH   6   7
ENDBRANCH   2   6
TORSDOF 3
ENDMDL
MODEL      210
REMARK 921   NORMALIZED FREE ENERGY PREDICTED BY IDOCK:   -2.39 KCAL/MOL
REMARK 922        TOTAL FREE ENERGY PREDICTED BY IDOCK:   -2.99 KCAL/MOL
REMARK 923 INTER-LIGAND FREE ENERGY PREDICTED BY IDOCK:   -2.62 KCAL/MOL
REMARK 924 INTRA-LIGAND FREE ENERGY PREDICTED BY IDOCK:   -0.37 KCAL/MOL
REMARK 927      BINDING AFFINITY PREDICTED BY RF-SCORE:    0.00 PKD
ROOT
HETATM    1  C   UNL     1     -11.343   6.378  68.983  1.00  0.00    -0.332 C  
HETATM    2  C   UNL     1     -10.596   7.595  69.508  1.00  0.00    -0.227 C  
HETATM    3  N   UNL     1     -10.830   8.769  68.663  1.00  0.00    -0.435 NA 
HETATM    4  H2  UNL     1     -11.826   8.959  68.554  1.00  0.00     0.000 HD 
HETATM    5  H1  UNL     1     -10.328   9.584  69.015  1.00  0.00     0.000 HD 
ENDROOT
BRANCH   2   6
HETATM    6  C   UNL     1     -10.905   7.878  70.990  1.00  0.00    -0.235 C  
BRANCH   6   7
HETATM    7  O   UNL     1      -9.849   7.611  71.905  1.00  0.00    -0.161 OA 
BRANCH   7   8
HETATM    8  C   UNL     1      -9.390   6.306  71.968  1.00  0.00    -0.152 A  
HETATM    9  C   UNL     1     -10.088   5.142  72.385  1.00  0.00    -0.233 A  
HETATM   10  C   UNL     1      -9.414   3.898  72.359  1.00  0.00    -0.181 A  
HETATM   11  C   UNL     1     -11.470   5.014  72.984  1.00  0.00    -0.344 C  
HETATM   12  C   UNL     1      -8.099   3.776  71.922  1.00  0.00    -0.071 A  
HETATM   13  C   UNL     1      -7.409   4.913  71.536  1.00  0.00    -0.070 A  
HETATM   14  C   UNL     1      -8.030   6.174  71.558  1.00  0.00    -0.110 A  
HETATM   15  C   UNL     1      -7.196   7.375  71.160  1.00  0.00    -0.071 C  
ENDBRANCH   7   8
ENDBRANCH   6   7
ENDBRANCH   2   6
TORSDOF 3
ENDMDL
MODEL      211
REMARK 921   NORMALIZED FREE ENERGY PREDICTED BY IDOCK:   -2.38 KCAL/MOL
REMARK 922        TOTAL FREE ENERGY PREDICTED BY IDOCK:   -2.98 KCAL/MOL
REMARK 923 INTER-LIGAND FREE ENERGY PREDICTED BY IDOCK:   -2.91 KCAL/MOL
REMARK 924 INTRA-LIGAND FREE ENERGY PREDICTED BY IDOCK:   -0.07 KCAL/MOL
REMARK 927      BINDING AFFINITY PREDICTED BY RF-SCORE:    0.00 PKD
ROOT
HETATM    1  C   UNL     1      -9.566   4.336  70.063  1.00  0.00    -0.274 C  
HETATM    2  C   UNL     1      -9.006   4.597  71.454  1.00  0.00    -0.128 C  
HETATM    3  N   UNL     1      -8.246   3.446  71.946  1.00  0.00    -0.062 NA 
HETATM    4  H2  UNL     1      -7.512   3.174  71.292  1.00  0.00     0.000 HD 
HETATM    5  H1  UNL     1      -7.871   3.621  72.878  1.00  0.00     0.000 HD 
ENDROOT
BRANCH   2   6
HETATM    6  C   UNL     1      -8.191   5.901  71.521  1.00  0.00    -0.119 C  
BRANCH   6   7
HETATM    7  O   UNL     1      -8.734   6.931  72.338  1.00  0.00    -0.126 OA 
BRANCH   7   8
HETATM    8  C   UNL     1      -9.772   7.675  71.801  1.00  0.00    -0.161 A  
HETATM    9  C   UNL     1     -11.167   7.418  71.860  1.00  0.00    -0.282 A  
HETATM   10  C   UNL     1     -12.052   8.330  71.239  1.00  0.00    -0.307 A  
HETATM   11  C   UNL     1     -11.900   6.216  72.410  1.00  0.00    -0.287 C  
HETATM   12  C   UNL     1     -11.604   9.476  70.591  1.00  0.00    -0.350 A  
HETATM   13  C   UNL     1     -10.242   9.717  70.514  1.00  0.00    -0.351 A  
HETATM   14  C   UNL     1      -9.320   8.833  71.102  1.00  0.00    -0.297 A  
HETATM   15  C   UNL     1      -7.847   9.145  70.939  1.00  0.00    -0.163 C  
ENDBRANCH   7   8
ENDBRANCH   6   7
ENDBRANCH   2   6
TORSDOF 3
ENDMDL
MODEL      212
REMARK 921   NORMALIZED FREE ENERGY PREDICTED BY IDOCK:   -2.38 KCAL/MOL
REMARK 922        TOTAL FREE ENERGY PREDICTED BY IDOCK:   -2.97 KCAL/MOL
REMARK 923 INTER-LIGAND FREE ENERGY PREDICTED BY IDOCK:   -3.11 KCAL/MOL
REMARK 924 INTRA-LIGAND FREE ENERGY PREDICTED BY IDOCK:    0.14 KCAL/MOL
REMARK 927      BINDING AFFINITY PREDICTED BY RF-SCORE:    0.00 PKD
ROOT
HETATM    1  C   UNL     1      -9.032  16.288  67.440  1.00  0.00    -0.197 C  
HETATM    2  C   UNL     1      -8.802  14.861  67.917  1.00  0.00    -0.165 C  
HETATM    3  N   UNL     1      -8.705  14.796  69.377  1.00  0.00    -0.408 NA 
HETATM    4  H2  UNL     1      -9.520  15.214  69.825  1.00  0.00     0.000 HD 
HETATM    5  H1  UNL     1      -8.550  13.840  69.696  1.00  0.00     0.000 HD 
ENDROOT
BRANCH   2   6
HETATM    6  C   UNL     1      -9.853  13.882  67.362  1.00  0.00    -0.237 C  
BRANCH   6   7
HETATM    7  O   UNL     1      -9.677  12.516  67.719  1.00  0.00    -0.191 OA 
BRANCH   7   8
HETATM    8  C   UNL     1      -9.629  11.600  66.682  1.00  0.00    -0.204 A  
HETATM    9  C   UNL     1     -10.400  11.571  65.490  1.00  0.00    -0.322 A  
HETATM   10  C   UNL     1     -10.172  10.532  64.557  1.00  0.00    -0.355 A  
HETATM   11  C   UNL     1     -11.559  12.448  65.075  1.00  0.00    -0.392 C  
HETATM   12  C   UNL     1      -9.207   9.551  64.759  1.00  0.00    -0.267 A  
HETATM   13  C   UNL     1      -8.469   9.565  65.932  1.00  0.00    -0.133 A  
HETATM   14  C   UNL     1      -8.668  10.568  66.897  1.00  0.00    -0.130 A  
HETATM   15  C   UNL     1      -7.850  10.489  68.170  1.00  0.00    -0.109 C  
ENDBRANCH   7   8
ENDBRANCH   6   7
ENDBRANCH   2   6
TORSDOF 3
ENDMDL
MODEL      213
REMARK 921   NORMALIZED FREE ENERGY PREDICTED BY IDOCK:   -2.36 KCAL/MOL
REMARK 922        TOTAL FREE ENERGY PREDICTED BY IDOCK:   -2.95 KCAL/MOL
REMARK 923 INTER-LIGAND FREE ENERGY PREDICTED BY IDOCK:   -2.82 KCAL/MOL
REMARK 924 INTRA-LIGAND FREE ENERGY PREDICTED BY IDOCK:   -0.13 KCAL/MOL
REMARK 927      BINDING AFFINITY PREDICTED BY RF-SCORE:    0.00 PKD
ROOT
HETATM    1  C   UNL     1      -6.411   7.603  70.112  1.00  0.00    -0.034 C  
HETATM    2  C   UNL     1      -6.851   8.323  71.378  1.00  0.00    -0.062 C  
HETATM    3  N   UNL     1      -6.481   9.740  71.341  1.00  0.00    -0.311 NA 
HETATM    4  H2  UNL     1      -6.842  10.199  70.505  1.00  0.00     0.000 HD 
HETATM    5  H1  UNL     1      -6.776  10.222  72.190  1.00  0.00     0.000 HD 
ENDROOT
BRANCH   2   6
HETATM    6  C   UNL     1      -8.349   8.122  71.675  1.00  0.00    -0.131 C  
BRANCH   6   7
HETATM    7  O   UNL     1      -9.249   8.802  70.808  1.00  0.00    -0.164 OA 
BRANCH   7   8
HETATM    8  C   UNL     1      -9.889   8.038  69.846  1.00  0.00    -0.186 A  
HETATM    9  C   UNL     1     -10.548   6.790  70.003  1.00  0.00    -0.256 A  
HETATM   10  C   UNL     1     -11.146   6.191  68.869  1.00  0.00    -0.417 A  
HETATM   11  C   UNL     1     -10.633   5.894  71.217  1.00  0.00    -0.311 C  
HETATM   12  C   UNL     1     -11.125   6.790  67.615  1.00  0.00    -0.309 A  
HETATM   13  C   UNL     1     -10.464   7.996  67.455  1.00  0.00    -0.331 A  
HETATM   14  C   UNL     1      -9.841   8.626  68.548  1.00  0.00    -0.183 A  
HETATM   15  C   UNL     1      -9.104   9.923  68.284  1.00  0.00    -0.122 C  
ENDBRANCH   7   8
ENDBRANCH   6   7
ENDBRANCH   2   6
TORSDOF 3
ENDMDL
MODEL      214
REMARK 921   NORMALIZED FREE ENERGY PREDICTED BY IDOCK:   -2.34 KCAL/MOL
REMARK 922        TOTAL FREE ENERGY PREDICTED BY IDOCK:   -2.94 KCAL/MOL
REMARK 923 INTER-LIGAND FREE ENERGY PREDICTED BY IDOCK:   -2.81 KCAL/MOL
REMARK 924 INTRA-LIGAND FREE ENERGY PREDICTED BY IDOCK:   -0.12 KCAL/MOL
REMARK 927      BINDING AFFINITY PREDICTED BY RF-SCORE:    0.00 PKD
ROOT
HETATM    1  C   UNL     1      -9.729  11.626  68.543  1.00  0.00    -0.187 C  
HETATM    2  C   UNL     1     -10.090  13.050  68.145  1.00  0.00    -0.237 C  
HETATM    3  N   UNL     1     -11.536  13.272  68.212  1.00  0.00    -0.311 NA 
HETATM    4  H2  UNL     1     -11.909  13.035  69.132  1.00  0.00     0.000 HD 
HETATM    5  H1  UNL     1     -11.778  14.226  67.945  1.00  0.00     0.000 HD 
ENDROOT
BRANCH   2   6
HETATM    6  C   UNL     1      -9.304  14.100  68.951  1.00  0.00    -0.012 C  
BRANCH   6   7
HETATM    7  O   UNL     1      -8.349  14.857  68.217  1.00  0.00    -0.138 OA 
BRANCH   7   8
HETATM    8  C   UNL     1      -8.485  16.235  68.248  1.00  0.00    -0.187 A  
HETATM    9  C   UNL     1      -9.605  17.022  67.872  1.00  0.00    -0.249 A  
HETATM   10  C   UNL     1      -9.520  18.429  67.997  1.00  0.00    -0.305 A  
HETATM   11  C   UNL     1     -10.904  16.596  67.227  1.00  0.00    -0.158 C  
HETATM   12  C   UNL     1      -8.386  19.063  68.491  1.00  0.00    -0.387 A  
HETATM   13  C   UNL     1      -7.284  18.299  68.838  1.00  0.00    -0.282 A  
HETATM   14  C   UNL     1      -7.313  16.898  68.719  1.00  0.00    -0.227 A  
HETATM   15  C   UNL     1      -6.054  16.137  69.079  1.00  0.00    -0.131 C  
ENDBRANCH   7   8
ENDBRANCH   6   7
ENDBRANCH   2   6
TORSDOF 3
ENDMDL
MODEL      215
REMARK 921   NORMALIZED FREE ENERGY PREDICTED BY IDOCK:   -2.34 KCAL/MOL
REMARK 922        TOTAL FREE ENERGY PREDICTED BY IDOCK:   -2.94 KCAL/MOL
REMARK 923 INTER-LIGAND FREE ENERGY PREDICTED BY IDOCK:   -3.19 KCAL/MOL
REMARK 924 INTRA-LIGAND FREE ENERGY PREDICTED BY IDOCK:    0.26 KCAL/MOL
REMARK 927      BINDING AFFINITY PREDICTED BY RF-SCORE:    0.00 PKD
ROOT
HETATM    1  C   UNL     1     -10.441   4.954  74.431  1.00  0.00    -0.325 C  
HETATM    2  C   UNL     1      -9.839   6.251  73.910  1.00  0.00    -0.217 C  
HETATM    3  N   UNL     1      -8.545   6.528  74.538  1.00  0.00    -0.142 NA 
HETATM    4  H2  UNL     1      -7.900   5.745  74.427  1.00  0.00     0.000 HD 
HETATM    5  H1  UNL     1      -8.143   7.397  74.189  1.00  0.00     0.000 HD 
ENDROOT
BRANCH   2   6
HETATM    6  C   UNL     1      -9.757   6.282  72.374  1.00  0.00    -0.153 C  
BRANCH   6   7
HETATM    7  O   UNL     1     -10.491   5.272  71.693  1.00  0.00    -0.217 OA 
BRANCH   7   8
HETATM    8  C   UNL     1     -10.409   5.263  70.310  1.00  0.00    -0.280 A  
HETATM    9  C   UNL     1      -9.672   4.384  69.473  1.00  0.00    -0.280 A  
HETATM   10  C   UNL     1      -9.745   4.560  68.071  1.00  0.00    -0.192 A  
HETATM   11  C   UNL     1      -8.686   3.302  69.849  1.00  0.00    -0.134 C  
HETATM   12  C   UNL     1     -10.527   5.549  67.487  1.00  0.00    -0.269 A  
HETATM   13  C   UNL     1     -11.230   6.422  68.302  1.00  0.00    -0.276 A  
HETATM   14  C   UNL     1     -11.178   6.299  69.702  1.00  0.00    -0.506 A  
HETATM   15  C   UNL     1     -11.942   7.316  70.524  1.00  0.00    -0.200 C  
ENDBRANCH   7   8
ENDBRANCH   6   7
ENDBRANCH   2   6
TORSDOF 3
ENDMDL
MODEL      216
REMARK 921   NORMALIZED FREE ENERGY PREDICTED BY IDOCK:   -2.33 KCAL/MOL
REMARK 922        TOTAL FREE ENERGY PREDICTED BY IDOCK:   -2.92 KCAL/MOL
REMARK 923 INTER-LIGAND FREE ENERGY PREDICTED BY IDOCK:   -2.92 KCAL/MOL
REMARK 924 INTRA-LIGAND FREE ENERGY PREDICTED BY IDOCK:    0.01 KCAL/MOL
REMARK 927      BINDING AFFINITY PREDICTED BY RF-SCORE:    0.00 PKD
ROOT
HETATM    1  C   UNL     1     -10.300   5.740  73.373  1.00  0.00    -0.242 C  
HETATM    2  C   UNL     1     -10.287   7.235  73.656  1.00  0.00    -0.352 C  
HETATM    3  N   UNL     1      -8.936   7.788  73.535  1.00  0.00    -0.242 NA 
HETATM    4  H2  UNL     1      -8.525   7.575  72.626  1.00  0.00     0.000 HD 
HETATM    5  H1  UNL     1      -8.927   8.789  73.725  1.00  0.00     0.000 HD 
ENDROOT
BRANCH   2   6
HETATM    6  C   UNL     1     -11.307   8.003  72.796  1.00  0.00    -0.374 C  
BRANCH   6   7
HETATM    7  O   UNL     1     -11.642   7.404  71.550  1.00  0.00    -0.259 OA 
BRANCH   7   8
HETATM    8  C   UNL     1     -11.514   8.196  70.421  1.00  0.00    -0.125 A  
HETATM    9  C   UNL     1     -11.840   9.569  70.262  1.00  0.00    -0.109 A  
HETATM   10  C   UNL     1     -11.615  10.180  69.005  1.00  0.00    -0.076 A  
HETATM   11  C   UNL     1     -12.520  10.513  71.227  1.00  0.00    -0.524 C  
HETATM   12  C   UNL     1     -11.071   9.487  67.930  1.00  0.00    -0.053 A  
HETATM   13  C   UNL     1     -10.774   8.141  68.076  1.00  0.00    -0.108 A  
HETATM   14  C   UNL     1     -10.992   7.485  69.300  1.00  0.00    -0.057 A  
HETATM   15  C   UNL     1     -10.680   6.004  69.368  1.00  0.00    -0.403 C  
ENDBRANCH   7   8
ENDBRANCH   6   7
ENDBRANCH   2   6
TORSDOF 3
ENDMDL
MODEL      217
REMARK 921   NORMALIZED FREE ENERGY PREDICTED BY IDOCK:   -2.32 KCAL/MOL
REMARK 922        TOTAL FREE ENERGY PREDICTED BY IDOCK:   -2.91 KCAL/MOL
REMARK 923 INTER-LIGAND FREE ENERGY PREDICTED BY IDOCK:   -2.68 KCAL/MOL
REMARK 924 INTRA-LIGAND FREE ENERGY PREDICTED BY IDOCK:   -0.23 KCAL/MOL
REMARK 927      BINDING AFFINITY PREDICTED BY RF-SCORE:    0.00 PKD
ROOT
HETATM    1  C   UNL     1     -11.163  13.949  68.018  1.00  0.00    -0.295 C  
HETATM    2  C   UNL     1      -9.643  13.890  68.071  1.00  0.00    -0.219 C  
HETATM    3  N   UNL     1      -9.150  12.553  67.729  1.00  0.00    -0.183 NA 
HETATM    4  H2  UNL     1      -9.505  12.244  66.824  1.00  0.00     0.000 HD 
HETATM    5  H1  UNL     1      -8.132  12.514  67.765  1.00  0.00     0.000 HD 
ENDROOT
BRANCH   2   6
HETATM    6  C   UNL     1      -8.984  14.987  67.217  1.00  0.00    -0.199 C  
BRANCH   6   7
HETATM    7  O   UNL     1      -7.565  15.056  67.283  1.00  0.00    -0.193 OA 
BRANCH   7   8
HETATM    8  C   UNL     1      -7.020  16.176  67.889  1.00  0.00    -0.135 A  
HETATM    9  C   UNL     1      -6.982  17.512  67.407  1.00  0.00    -0.185 A  
HETATM   10  C   UNL     1      -6.374  18.506  68.210  1.00  0.00    -0.206 A  
HETATM   11  C   UNL     1      -7.410  18.061  66.066  1.00  0.00    -0.298 C  
HETATM   12  C   UNL     1      -5.830  18.223  69.458  1.00  0.00    -0.246 A  
HETATM   13  C   UNL     1      -5.846  16.917  69.919  1.00  0.00    -0.226 A  
HETATM   14  C   UNL     1      -6.426  15.890  69.153  1.00  0.00    -0.152 A  
HETATM   15  C   UNL     1      -6.368  14.482  69.709  1.00  0.00    -0.148 C  
ENDBRANCH   7   8
ENDBRANCH   6   7
ENDBRANCH   2   6
TORSDOF 3
ENDMDL
MODEL      218
REMARK 921   NORMALIZED FREE ENERGY PREDICTED BY IDOCK:   -2.32 KCAL/MOL
REMARK 922        TOTAL FREE ENERGY PREDICTED BY IDOCK:   -2.90 KCAL/MOL
REMARK 923 INTER-LIGAND FREE ENERGY PREDICTED BY IDOCK:   -2.60 KCAL/MOL
REMARK 924 INTRA-LIGAND FREE ENERGY PREDICTED BY IDOCK:   -0.31 KCAL/MOL
REMARK 927      BINDING AFFINITY PREDICTED BY RF-SCORE:    0.00 PKD
ROOT
HETATM    1  C   UNL     1      -7.902   6.334  66.119  1.00  0.00    -0.105 C  
HETATM    2  C   UNL     1      -8.609   7.558  66.682  1.00  0.00    -0.130 C  
HETATM    3  N   UNL     1      -9.578   7.185  67.716  1.00  0.00    -0.128 NA 
HETATM    4  H2  UNL     1      -9.143   6.631  68.454  1.00  0.00     0.000 HD 
HETATM    5  H1  UNL     1     -10.052   8.005  68.093  1.00  0.00     0.000 HD 
ENDROOT
BRANCH   2   6
HETATM    6  C   UNL     1      -7.621   8.631  67.174  1.00  0.00    -0.092 C  
BRANCH   6   7
HETATM    7  O   UNL     1      -7.988   9.979  66.912  1.00  0.00    -0.112 OA 
BRANCH   7   8
HETATM    8  C   UNL     1      -8.473  10.261  65.646  1.00  0.00    -0.160 A  
HETATM    9  C   UNL     1      -7.789  10.203  64.403  1.00  0.00    -0.138 A  
HETATM   10  C   UNL     1      -8.496  10.530  63.222  1.00  0.00    -0.157 A  
HETATM   11  C   UNL     1      -6.328   9.939  64.123  1.00  0.00    -0.126 C  
HETATM   12  C   UNL     1      -9.839  10.888  63.235  1.00  0.00    -0.409 A  
HETATM   13  C   UNL     1     -10.503  10.968  64.449  1.00  0.00    -0.422 A  
HETATM   14  C   UNL     1      -9.841  10.666  65.653  1.00  0.00    -0.307 A  
HETATM   15  C   UNL     1     -10.624  10.816  66.941  1.00  0.00    -0.312 C  
ENDBRANCH   7   8
ENDBRANCH   6   7
ENDBRANCH   2   6
TORSDOF 3
ENDMDL
MODEL      219
REMARK 921   NORMALIZED FREE ENERGY PREDICTED BY IDOCK:   -2.28 KCAL/MOL
REMARK 922        TOTAL FREE ENERGY PREDICTED BY IDOCK:   -2.86 KCAL/MOL
REMARK 923 INTER-LIGAND FREE ENERGY PREDICTED BY IDOCK:   -3.02 KCAL/MOL
REMARK 924 INTRA-LIGAND FREE ENERGY PREDICTED BY IDOCK:    0.16 KCAL/MOL
REMARK 927      BINDING AFFINITY PREDICTED BY RF-SCORE:    0.00 PKD
ROOT
HETATM    1  C   UNL     1      -8.405   3.617  67.999  1.00  0.00    -0.101 C  
HETATM    2  C   UNL     1      -9.426   4.601  67.446  1.00  0.00    -0.153 C  
HETATM    3  N   UNL     1     -10.255   3.981  66.410  1.00  0.00    -0.369 NA 
HETATM    4  H2  UNL     1     -10.702   3.129  66.748  1.00  0.00     0.000 HD 
HETATM    5  H1  UNL     1     -10.939   4.641  66.039  1.00  0.00     0.000 HD 
ENDROOT
BRANCH   2   6
HETATM    6  C   UNL     1     -10.273   5.251  68.555  1.00  0.00    -0.144 C  
BRANCH   6   7
HETATM    7  O   UNL     1      -9.546   5.919  69.579  1.00  0.00    -0.135 OA 
BRANCH   7   8
HETATM    8  C   UNL     1     -10.287   6.521  70.582  1.00  0.00    -0.201 A  
HETATM    9  C   UNL     1     -10.591   6.023  71.877  1.00  0.00    -0.272 A  
HETATM   10  C   UNL     1     -11.367   6.825  72.748  1.00  0.00    -0.227 A  
HETATM   11  C   UNL     1     -10.301   4.667  72.477  1.00  0.00    -0.259 C  
HETATM   12  C   UNL     1     -11.825   8.086  72.386  1.00  0.00    -0.429 A  
HETATM   13  C   UNL     1     -11.549   8.564  71.115  1.00  0.00    -0.325 A  
HETATM   14  C   UNL     1     -10.793   7.800  70.207  1.00  0.00    -0.252 A  
HETATM   15  C   UNL     1     -10.569   8.375  68.824  1.00  0.00    -0.154 C  
ENDBRANCH   7   8
ENDBRANCH   6   7
ENDBRANCH   2   6
TORSDOF 3
ENDMDL
MODEL      220
REMARK 921   NORMALIZED FREE ENERGY PREDICTED BY IDOCK:   -2.26 KCAL/MOL
REMARK 922        TOTAL FREE ENERGY PREDICTED BY IDOCK:   -2.83 KCAL/MOL
REMARK 923 INTER-LIGAND FREE ENERGY PREDICTED BY IDOCK:   -2.52 KCAL/MOL
REMARK 924 INTRA-LIGAND FREE ENERGY PREDICTED BY IDOCK:   -0.32 KCAL/MOL
REMARK 927      BINDING AFFINITY PREDICTED BY RF-SCORE:    0.00 PKD
ROOT
HETATM    1  C   UNL     1      -7.160   4.865  66.987  1.00  0.00    -0.072 C  
HETATM    2  C   UNL     1      -7.716   6.121  66.333  1.00  0.00    -0.102 C  
HETATM    3  N   UNL     1      -8.985   5.851  65.654  1.00  0.00    -0.276 NA 
HETATM    4  H2  UNL     1      -9.665   5.427  66.285  1.00  0.00     0.000 HD 
HETATM    5  H1  UNL     1      -9.357   6.693  65.215  1.00  0.00     0.000 HD 
ENDROOT
BRANCH   2   6
HETATM    6  C   UNL     1      -7.825   7.297  67.321  1.00  0.00    -0.111 C  
BRANCH   6   7
HETATM    7  O   UNL     1      -9.123   7.857  67.476  1.00  0.00    -0.132 OA 
BRANCH   7   8
HETATM    8  C   UNL     1      -9.657   7.859  68.754  1.00  0.00    -0.152 A  
HETATM    9  C   UNL     1      -9.969   6.749  69.583  1.00  0.00    -0.184 A  
HETATM   10  C   UNL     1     -10.504   6.992  70.870  1.00  0.00    -0.233 A  
HETATM   11  C   UNL     1      -9.924   5.272  69.268  1.00  0.00    -0.285 C  
HETATM   12  C   UNL     1     -10.716   8.278  71.356  1.00  0.00    -0.282 A  
HETATM   13  C   UNL     1     -10.433   9.361  70.540  1.00  0.00    -0.335 A  
HETATM   14  C   UNL     1      -9.913   9.172  69.247  1.00  0.00    -0.187 A  
HETATM   15  C   UNL     1      -9.669  10.405  68.402  1.00  0.00    -0.167 C  
ENDBRANCH   7   8
ENDBRANCH   6   7
ENDBRANCH   2   6
TORSDOF 3
ENDMDL
MODEL      221
REMARK 921   NORMALIZED FREE ENERGY PREDICTED BY IDOCK:   -2.25 KCAL/MOL
REMARK 922        TOTAL FREE ENERGY PREDICTED BY IDOCK:   -2.83 KCAL/MOL
REMARK 923 INTER-LIGAND FREE ENERGY PREDICTED BY IDOCK:   -2.72 KCAL/MOL
REMARK 924 INTRA-LIGAND FREE ENERGY PREDICTED BY IDOCK:   -0.11 KCAL/MOL
REMARK 927      BINDING AFFINITY PREDICTED BY RF-SCORE:    0.00 PKD
ROOT
HETATM    1  C   UNL     1      -7.638   3.383  65.450  1.00  0.00    -0.077 C  
HETATM    2  C   UNL     1      -7.317   3.017  66.891  1.00  0.00    -0.070 C  
HETATM    3  N   UNL     1      -5.873   2.875  67.095  1.00  0.00    -0.022 NA 
HETATM    4  H2  UNL     1      -5.370   3.712  66.801  1.00  0.00     0.000 HD 
HETATM    5  H1  UNL     1      -5.658   2.629  68.061  1.00  0.00     0.000 HD 
ENDROOT
BRANCH   2   6
HETATM    6  C   UNL     1      -7.952   3.992  67.899  1.00  0.00    -0.089 C  
BRANCH   6   7
HETATM    7  O   UNL     1      -9.149   3.545  68.524  1.00  0.00    -0.120 OA 
BRANCH   7   8
HETATM    8  C   UNL     1      -9.783   4.438  69.372  1.00  0.00    -0.197 A  
HETATM    9  C   UNL     1     -10.498   5.618  69.039  1.00  0.00    -0.321 A  
HETATM   10  C   UNL     1     -11.077   6.379  70.082  1.00  0.00    -0.428 A  
HETATM   11  C   UNL     1     -10.666   6.293  67.697  1.00  0.00    -0.391 C  
HETATM   12  C   UNL     1     -10.984   6.001  71.417  1.00  0.00    -0.336 A  
HETATM   13  C   UNL     1     -10.267   4.862  71.746  1.00  0.00    -0.268 A  
HETATM   14  C   UNL     1      -9.662   4.079  70.747  1.00  0.00    -0.263 A  
HETATM   15  C   UNL     1      -8.862   2.871  71.191  1.00  0.00    -0.141 C  
ENDBRANCH   7   8
ENDBRANCH   6   7
ENDBRANCH   2   6
TORSDOF 3
ENDMDL
MODEL      222
REMARK 921   NORMALIZED FREE ENERGY PREDICTED BY IDOCK:   -2.24 KCAL/MOL
REMARK 922        TOTAL FREE ENERGY PREDICTED BY IDOCK:   -2.82 KCAL/MOL
REMARK 923 INTER-LIGAND FREE ENERGY PREDICTED BY IDOCK:   -2.55 KCAL/MOL
REMARK 924 INTRA-LIGAND FREE ENERGY PREDICTED BY IDOCK:   -0.26 KCAL/MOL
REMARK 927      BINDING AFFINITY PREDICTED BY RF-SCORE:    0.00 PKD
ROOT
HETATM    1  C   UNL     1      -9.104   3.415  68.941  1.00  0.00    -0.204 C  
HETATM    2  C   UNL     1      -9.486   3.319  70.411  1.00  0.00    -0.165 C  
HETATM    3  N   UNL     1      -8.324   2.995  71.243  1.00  0.00    -0.062 NA 
HETATM    4  H2  UNL     1      -7.563   3.658  71.096  1.00  0.00     0.000 HD 
HETATM    5  H1  UNL     1      -8.580   2.931  72.228  1.00  0.00     0.000 HD 
ENDROOT
BRANCH   2   6
HETATM    6  C   UNL     1     -10.222   4.577  70.908  1.00  0.00    -0.099 C  
BRANCH   6   7
HETATM    7  O   UNL     1      -9.394   5.646  71.349  1.00  0.00    -0.145 OA 
BRANCH   7   8
HETATM    8  C   UNL     1      -9.871   6.930  71.149  1.00  0.00    -0.177 A  
HETATM    9  C   UNL     1      -9.977   7.654  69.932  1.00  0.00    -0.190 A  
HETATM   10  C   UNL     1     -10.508   8.966  69.966  1.00  0.00    -0.227 A  
HETATM   11  C   UNL     1      -9.497   7.283  68.548  1.00  0.00    -0.140 C  
HETATM   12  C   UNL     1     -10.944   9.560  71.145  1.00  0.00    -0.438 A  
HETATM   13  C   UNL     1     -10.820   8.864  72.336  1.00  0.00    -0.095 A  
HETATM   14  C   UNL     1     -10.286   7.564  72.358  1.00  0.00    -0.261 A  
HETATM   15  C   UNL     1     -10.145   6.885  73.705  1.00  0.00    -0.349 C  
ENDBRANCH   7   8
ENDBRANCH   6   7
ENDBRANCH   2   6
TORSDOF 3
ENDMDL
MODEL      223
REMARK 921   NORMALIZED FREE ENERGY PREDICTED BY IDOCK:   -2.22 KCAL/MOL
REMARK 922        TOTAL FREE ENERGY PREDICTED BY IDOCK:   -2.80 KCAL/MOL
REMARK 923 INTER-LIGAND FREE ENERGY PREDICTED BY IDOCK:   -2.87 KCAL/MOL
REMARK 924 INTRA-LIGAND FREE ENERGY PREDICTED BY IDOCK:    0.08 KCAL/MOL
REMARK 927      BINDING AFFINITY PREDICTED BY RF-SCORE:    0.00 PKD
ROOT
HETATM    1  C   UNL     1      -6.471   6.659  69.511  1.00  0.00    -0.044 C  
HETATM    2  C   UNL     1      -7.786   5.894  69.522  1.00  0.00    -0.097 C  
HETATM    3  N   UNL     1      -7.983   5.156  68.272  1.00  0.00    -0.087 NA 
HETATM    4  H2  UNL     1      -7.194   4.542  68.071  1.00  0.00     0.000 HD 
HETATM    5  H1  UNL     1      -8.865   4.644  68.279  1.00  0.00     0.000 HD 
ENDROOT
BRANCH   2   6
HETATM    6  C   UNL     1      -7.925   4.986  70.758  1.00  0.00    -0.087 C  
BRANCH   6   7
HETATM    7  O   UNL     1      -9.256   4.677  71.153  1.00  0.00    -0.128 OA 
BRANCH   7   8
HETATM    8  C   UNL     1     -10.050   5.735  71.562  1.00  0.00    -0.196 A  
HETATM    9  C   UNL     1     -11.019   6.453  70.813  1.00  0.00    -0.346 A  
HETATM   10  C   UNL     1     -11.725   7.504  71.446  1.00  0.00    -0.310 A  
HETATM   11  C   UNL     1     -11.370   6.351  69.347  1.00  0.00    -0.443 C  
HETATM   12  C   UNL     1     -11.513   7.844  72.777  1.00  0.00    -0.428 A  
HETATM   13  C   UNL     1     -10.552   7.159  73.503  1.00  0.00    -0.416 A  
HETATM   14  C   UNL     1      -9.814   6.116  72.916  1.00  0.00    -0.174 A  
HETATM   15  C   UNL     1      -8.753   5.443  73.762  1.00  0.00    -0.115 C  
ENDBRANCH   7   8
ENDBRANCH   6   7
ENDBRANCH   2   6
TORSDOF 3
ENDMDL
MODEL      224
REMARK 921   NORMALIZED FREE ENERGY PREDICTED BY IDOCK:   -2.22 KCAL/MOL
REMARK 922        TOTAL FREE ENERGY PREDICTED BY IDOCK:   -2.79 KCAL/MOL
REMARK 923 INTER-LIGAND FREE ENERGY PREDICTED BY IDOCK:   -2.85 KCAL/MOL
REMARK 924 INTRA-LIGAND FREE ENERGY PREDICTED BY IDOCK:    0.06 KCAL/MOL
REMARK 927      BINDING AFFINITY PREDICTED BY RF-SCORE:    0.00 PKD
ROOT
HETATM    1  C   UNL     1      -9.612   4.144  67.615  1.00  0.00    -0.213 C  
HETATM    2  C   UNL     1     -10.247   5.509  67.393  1.00  0.00    -0.209 C  
HETATM    3  N   UNL     1     -11.094   5.514  66.198  1.00  0.00    -0.778 NA 
HETATM    4  H2  UNL     1     -11.797   4.775  66.234  1.00  0.00     0.000 HD 
HETATM    5  H1  UNL     1     -11.519   6.428  66.049  1.00  0.00     0.000 HD 
ENDROOT
BRANCH   2   6
HETATM    6  C   UNL     1     -10.999   6.014  68.638  1.00  0.00    -0.284 C  
BRANCH   6   7
HETATM    7  O   UNL     1     -10.761   7.370  68.997  1.00  0.00    -0.209 OA 
BRANCH   7   8
HETATM    8  C   UNL     1      -9.507   7.883  68.711  1.00  0.00    -0.147 A  
HETATM    9  C   UNL     1      -9.105   8.663  67.595  1.00  0.00    -0.145 A  
HETATM   10  C   UNL     1      -7.758   9.089  67.513  1.00  0.00    -0.096 A  
HETATM   11  C   UNL     1      -9.887   9.048  66.360  1.00  0.00    -0.356 C  
HETATM   12  C   UNL     1      -6.823   8.785  68.496  1.00  0.00    -0.064 A  
HETATM   13  C   UNL     1      -7.208   8.005  69.574  1.00  0.00    -0.070 A  
HETATM   14  C   UNL     1      -8.531   7.545  69.694  1.00  0.00    -0.135 A  
HETATM   15  C   UNL     1      -8.863   6.664  70.881  1.00  0.00    -0.146 C  
ENDBRANCH   7   8
ENDBRANCH   6   7
ENDBRANCH   2   6
TORSDOF 3
ENDMDL
MODEL      225
REMARK 921   NORMALIZED FREE ENERGY PREDICTED BY IDOCK:   -2.20 KCAL/MOL
REMARK 922        TOTAL FREE ENERGY PREDICTED BY IDOCK:   -2.76 KCAL/MOL
REMARK 923 INTER-LIGAND FREE ENERGY PREDICTED BY IDOCK:   -2.65 KCAL/MOL
REMARK 924 INTRA-LIGAND FREE ENERGY PREDICTED BY IDOCK:   -0.11 KCAL/MOL
REMARK 927      BINDING AFFINITY PREDICTED BY RF-SCORE:    0.00 PKD
ROOT
HETATM    1  C   UNL     1      -7.603   4.421  66.674  1.00  0.00    -0.089 C  
HETATM    2  C   UNL     1      -9.115   4.483  66.513  1.00  0.00    -0.119 C  
HETATM    3  N   UNL     1      -9.771   3.382  67.223  1.00  0.00    -0.335 NA 
HETATM    4  H2  UNL     1      -9.500   3.355  68.206  1.00  0.00     0.000 HD 
HETATM    5  H1  UNL     1     -10.784   3.423  67.115  1.00  0.00     0.000 HD 
ENDROOT
BRANCH   2   6
HETATM    6  C   UNL     1      -9.690   5.854  66.912  1.00  0.00    -0.147 C  
BRANCH   6   7
HETATM    7  O   UNL     1      -8.743   6.905  67.058  1.00  0.00    -0.116 OA 
BRANCH   7   8
HETATM    8  C   UNL     1      -8.918   8.021  66.256  1.00  0.00    -0.171 A  
HETATM    9  C   UNL     1      -8.334   8.303  64.993  1.00  0.00    -0.158 A  
HETATM   10  C   UNL     1      -8.668   9.516  64.346  1.00  0.00    -0.235 A  
HETATM   11  C   UNL     1      -7.278   7.537  64.231  1.00  0.00    -0.079 C  
HETATM   12  C   UNL     1      -9.561  10.430  64.895  1.00  0.00    -0.348 A  
HETATM   13  C   UNL     1     -10.115  10.166  66.138  1.00  0.00    -0.314 A  
HETATM   14  C   UNL     1      -9.804   8.982  66.828  1.00  0.00    -0.300 A  
HETATM   15  C   UNL     1     -10.418   8.786  68.199  1.00  0.00    -0.243 C  
ENDBRANCH   7   8
ENDBRANCH   6   7
ENDBRANCH   2   6
TORSDOF 3
ENDMDL
MODEL      226
REMARK 921   NORMALIZED FREE ENERGY PREDICTED BY IDOCK:   -2.19 KCAL/MOL
REMARK 922        TOTAL FREE ENERGY PREDICTED BY IDOCK:   -2.76 KCAL/MOL
REMARK 923 INTER-LIGAND FREE ENERGY PREDICTED BY IDOCK:   -2.57 KCAL/MOL
REMARK 924 INTRA-LIGAND FREE ENERGY PREDICTED BY IDOCK:   -0.19 KCAL/MOL
REMARK 927      BINDING AFFINITY PREDICTED BY RF-SCORE:    0.00 PKD
ROOT
HETATM    1  C   UNL     1      -9.981   8.784  66.633  1.00  0.00    -0.355 C  
HETATM    2  C   UNL     1     -10.766   7.710  67.372  1.00  0.00    -0.248 C  
HETATM    3  N   UNL     1     -10.796   6.457  66.614  1.00  0.00    -0.579 NA 
HETATM    4  H2  UNL     1      -9.856   6.138  66.379  1.00  0.00     0.000 HD 
HETATM    5  H1  UNL     1     -11.323   5.737  67.109  1.00  0.00     0.000 HD 
ENDROOT
BRANCH   2   6
HETATM    6  C   UNL     1     -10.263   7.504  68.812  1.00  0.00    -0.197 C  
BRANCH   6   7
HETATM    7  O   UNL     1      -9.989   8.690  69.549  1.00  0.00    -0.187 OA 
BRANCH   7   8
HETATM    8  C   UNL     1      -8.935   8.640  70.446  1.00  0.00    -0.158 A  
HETATM    9  C   UNL     1      -8.789   7.818  71.594  1.00  0.00    -0.144 A  
HETATM   10  C   UNL     1      -7.609   7.934  72.367  1.00  0.00    -0.121 A  
HETATM   11  C   UNL     1      -9.778   6.865  72.225  1.00  0.00    -0.159 C  
HETATM   12  C   UNL     1      -6.584   8.810  72.031  1.00  0.00    -0.054 A  
HETATM   13  C   UNL     1      -6.734   9.629  70.923  1.00  0.00    -0.063 A  
HETATM   14  C   UNL     1      -7.893   9.562  70.130  1.00  0.00    -0.168 A  
HETATM   15  C   UNL     1      -8.000  10.518  68.960  1.00  0.00    -0.136 C  
ENDBRANCH   7   8
ENDBRANCH   6   7
ENDBRANCH   2   6
TORSDOF 3
ENDMDL
MODEL      227
REMARK 921   NORMALIZED FREE ENERGY PREDICTED BY IDOCK:   -2.16 KCAL/MOL
REMARK 922        TOTAL FREE ENERGY PREDICTED BY IDOCK:   -2.72 KCAL/MOL
REMARK 923 INTER-LIGAND FREE ENERGY PREDICTED BY IDOCK:   -2.59 KCAL/MOL
REMARK 924 INTRA-LIGAND FREE ENERGY PREDICTED BY IDOCK:   -0.14 KCAL/MOL
REMARK 927      BINDING AFFINITY PREDICTED BY RF-SCORE:    0.00 PKD
ROOT
HETATM    1  C   UNL     1      -9.099  10.184  65.814  1.00  0.00    -0.206 C  
HETATM    2  C   UNL     1     -10.221   9.396  66.474  1.00  0.00    -0.238 C  
HETATM    3  N   UNL     1      -9.762   8.073  66.902  1.00  0.00    -0.204 NA 
HETATM    4  H2  UNL     1      -8.944   8.139  67.509  1.00  0.00     0.000 HD 
HETATM    5  H1  UNL     1     -10.514   7.545  67.344  1.00  0.00     0.000 HD 
ENDROOT
BRANCH   2   6
HETATM    6  C   UNL     1     -10.889  10.177  67.621  1.00  0.00    -0.290 C  
BRANCH   6   7
HETATM    7  O   UNL     1     -10.013  10.927  68.453  1.00  0.00    -0.166 OA 
BRANCH   7   8
HETATM    8  C   UNL     1      -9.369  10.238  69.466  1.00  0.00    -0.178 A  
HETATM    9  C   UNL     1      -9.919   9.319  70.399  1.00  0.00    -0.287 A  
HETATM   10  C   UNL     1      -9.060   8.722  71.352  1.00  0.00    -0.313 A  
HETATM   11  C   UNL     1     -11.361   8.929  70.627  1.00  0.00    -0.299 C  
HETATM   12  C   UNL     1      -7.696   8.991  71.394  1.00  0.00    -0.081 A  
HETATM   13  C   UNL     1      -7.162   9.904  70.499  1.00  0.00    -0.099 A  
HETATM   14  C   UNL     1      -7.976  10.535  69.542  1.00  0.00    -0.119 A  
HETATM   15  C   UNL     1      -7.324  11.551  68.627  1.00  0.00    -0.106 C  
ENDBRANCH   7   8
ENDBRANCH   6   7
ENDBRANCH   2   6
TORSDOF 3
ENDMDL
MODEL      228
REMARK 921   NORMALIZED FREE ENERGY PREDICTED BY IDOCK:   -2.16 KCAL/MOL
REMARK 922        TOTAL FREE ENERGY PREDICTED BY IDOCK:   -2.72 KCAL/MOL
REMARK 923 INTER-LIGAND FREE ENERGY PREDICTED BY IDOCK:   -2.47 KCAL/MOL
REMARK 924 INTRA-LIGAND FREE ENERGY PREDICTED BY IDOCK:   -0.25 KCAL/MOL
REMARK 927      BINDING AFFINITY PREDICTED BY RF-SCORE:    0.00 PKD
ROOT
HETATM    1  C   UNL     1     -12.300   6.527  71.669  1.00  0.00    -0.315 C  
HETATM    2  C   UNL     1     -11.800   7.945  71.433  1.00  0.00    -0.299 C  
HETATM    3  N   UNL     1     -12.582   8.919  72.199  1.00  0.00    -0.384 NA 
HETATM    4  H2  UNL     1     -12.597   8.688  73.193  1.00  0.00     0.000 HD 
HETATM    5  H1  UNL     1     -12.247   9.869  72.041  1.00  0.00     0.000 HD 
ENDROOT
BRANCH   2   6
HETATM    6  C   UNL     1     -10.289   8.084  71.690  1.00  0.00    -0.214 C  
BRANCH   6   7
HETATM    7  O   UNL     1      -9.501   8.460  70.567  1.00  0.00    -0.163 OA 
BRANCH   7   8
HETATM    8  C   UNL     1      -9.114   7.447  69.706  1.00  0.00    -0.141 A  
HETATM    9  C   UNL     1      -8.438   6.236  70.011  1.00  0.00    -0.134 A  
HETATM   10  C   UNL     1      -8.150   5.335  68.959  1.00  0.00    -0.086 A  
HETATM   11  C   UNL     1      -7.848   5.770  71.322  1.00  0.00    -0.111 C  
HETATM   12  C   UNL     1      -8.523   5.586  67.643  1.00  0.00    -0.102 A  
HETATM   13  C   UNL     1      -9.163   6.777  67.340  1.00  0.00    -0.130 A  
HETATM   14  C   UNL     1      -9.459   7.712  68.347  1.00  0.00    -0.150 A  
HETATM   15  C   UNL     1     -10.124   9.007  67.929  1.00  0.00    -0.246 C  
ENDBRANCH   7   8
ENDBRANCH   6   7
ENDBRANCH   2   6
TORSDOF 3
ENDMDL
MODEL      229
REMARK 921   NORMALIZED FREE ENERGY PREDICTED BY IDOCK:   -2.07 KCAL/MOL
REMARK 922        TOTAL FREE ENERGY PREDICTED BY IDOCK:   -2.62 KCAL/MOL
REMARK 923 INTER-LIGAND FREE ENERGY PREDICTED BY IDOCK:   -2.43 KCAL/MOL
REMARK 924 INTRA-LIGAND FREE ENERGY PREDICTED BY IDOCK:   -0.19 KCAL/MOL
REMARK 927      BINDING AFFINITY PREDICTED BY RF-SCORE:    0.00 PKD
ROOT
HETATM    1  C   UNL     1      -8.701   8.874  66.060  1.00  0.00    -0.185 C  
HETATM    2  C   UNL     1      -8.531   7.432  66.515  1.00  0.00    -0.128 C  
HETATM    3  N   UNL     1      -7.564   6.719  65.676  1.00  0.00    -0.085 NA 
HETATM    4  H2  UNL     1      -6.669   7.208  65.640  1.00  0.00     0.000 HD 
HETATM    5  H1  UNL     1      -7.451   5.753  65.981  1.00  0.00     0.000 HD 
ENDROOT
BRANCH   2   6
HETATM    6  C   UNL     1      -8.189   7.326  68.012  1.00  0.00    -0.120 C  
BRANCH   6   7
HETATM    7  O   UNL     1      -8.700   8.365  68.839  1.00  0.00    -0.134 OA 
BRANCH   7   8
HETATM    8  C   UNL     1      -9.038   8.022  70.137  1.00  0.00    -0.151 A  
HETATM    9  C   UNL     1     -10.111   7.207  70.587  1.00  0.00    -0.198 A  
HETATM   10  C   UNL     1     -10.259   6.985  71.976  1.00  0.00    -0.209 A  
HETATM   11  C   UNL     1     -11.244   6.591  69.799  1.00  0.00    -0.456 C  
HETATM   12  C   UNL     1      -9.382   7.521  72.912  1.00  0.00    -0.232 A  
HETATM   13  C   UNL     1      -8.348   8.334  72.478  1.00  0.00    -0.235 A  
HETATM   14  C   UNL     1      -8.166   8.597  71.108  1.00  0.00    -0.187 A  
HETATM   15  C   UNL     1      -7.037   9.529  70.717  1.00  0.00    -0.106 C  
ENDBRANCH   7   8
ENDBRANCH   6   7
ENDBRANCH   2   6
TORSDOF 3
ENDMDL
MODEL      230
REMARK 921   NORMALIZED FREE ENERGY PREDICTED BY IDOCK:   -2.03 KCAL/MOL
REMARK 922        TOTAL FREE ENERGY PREDICTED BY IDOCK:   -2.56 KCAL/MOL
REMARK 923 INTER-LIGAND FREE ENERGY PREDICTED BY IDOCK:   -2.39 KCAL/MOL
REMARK 924 INTRA-LIGAND FREE ENERGY PREDICTED BY IDOCK:   -0.17 KCAL/MOL
REMARK 927      BINDING AFFINITY PREDICTED BY RF-SCORE:    0.00 PKD
ROOT
HETATM    1  C   UNL     1      -5.979   7.110  69.523  1.00  0.00    -0.026 C  
HETATM    2  C   UNL     1      -7.445   6.847  69.839  1.00  0.00    -0.094 C  
HETATM    3  N   UNL     1      -8.293   7.092  68.670  1.00  0.00    -0.125 NA 
HETATM    4  H2  UNL     1      -7.982   6.554  67.862  1.00  0.00     0.000 HD 
HETATM    5  H1  UNL     1      -9.275   6.916  68.882  1.00  0.00     0.000 HD 
ENDROOT
BRANCH   2   6
HETATM    6  C   UNL     1      -7.672   5.446  70.436  1.00  0.00    -0.080 C  
BRANCH   6   7
HETATM    7  O   UNL     1      -8.944   4.862  70.180  1.00  0.00    -0.102 OA 
BRANCH   7   8
HETATM    8  C   UNL     1      -9.735   4.578  71.281  1.00  0.00    -0.182 A  
HETATM    9  C   UNL     1     -10.530   5.466  72.052  1.00  0.00    -0.278 A  
HETATM   10  C   UNL     1     -11.270   4.946  73.140  1.00  0.00    -0.403 A  
HETATM   11  C   UNL     1     -10.642   6.971  71.970  1.00  0.00    -0.237 C  
HETATM   12  C   UNL     1     -11.260   3.594  73.466  1.00  0.00    -0.285 A  
HETATM   13  C   UNL     1     -10.468   2.729  72.728  1.00  0.00    -0.218 A  
HETATM   14  C   UNL     1      -9.702   3.200  71.646  1.00  0.00    -0.235 A  
HETATM   15  C   UNL     1      -8.831   2.199  70.915  1.00  0.00    -0.128 C  
ENDBRANCH   7   8
ENDBRANCH   6   7
ENDBRANCH   2   6
TORSDOF 3
ENDMDL
MODEL      231
REMARK 921   NORMALIZED FREE ENERGY PREDICTED BY IDOCK:   -2.00 KCAL/MOL
REMARK 922        TOTAL FREE ENERGY PREDICTED BY IDOCK:   -2.53 KCAL/MOL
REMARK 923 INTER-LIGAND FREE ENERGY PREDICTED BY IDOCK:   -2.28 KCAL/MOL
REMARK 924 INTRA-LIGAND FREE ENERGY PREDICTED BY IDOCK:   -0.25 KCAL/MOL
REMARK 927      BINDING AFFINITY PREDICTED BY RF-SCORE:    0.00 PKD
ROOT
HETATM    1  C   UNL     1     -10.406   4.936  74.409  1.00  0.00    -0.325 C  
HETATM    2  C   UNL     1      -9.608   6.011  73.686  1.00  0.00    -0.148 C  
HETATM    3  N   UNL     1      -8.384   6.348  74.418  1.00  0.00    -0.125 NA 
HETATM    4  H2  UNL     1      -7.817   5.520  74.600  1.00  0.00     0.000 HD 
HETATM    5  H1  UNL     1      -7.849   7.069  73.934  1.00  0.00     0.000 HD 
ENDROOT
BRANCH   2   6
HETATM    6  C   UNL     1      -9.323   5.643  72.219  1.00  0.00    -0.145 C  
BRANCH   6   7
HETATM    7  O   UNL     1     -10.065   4.546  71.700  1.00  0.00    -0.190 OA 
BRANCH   7   8
HETATM    8  C   UNL     1      -9.601   3.976  70.526  1.00  0.00    -0.191 A  
HETATM    9  C   UNL     1      -9.714   4.468  69.199  1.00  0.00    -0.250 A  
HETATM   10  C   UNL     1      -9.151   3.713  68.144  1.00  0.00    -0.197 A  
HETATM   11  C   UNL     1     -10.465   5.674  68.683  1.00  0.00    -0.277 C  
HETATM   12  C   UNL     1      -8.477   2.517  68.364  1.00  0.00    -0.093 A  
HETATM   13  C   UNL     1      -8.385   2.023  69.655  1.00  0.00    -0.073 A  
HETATM   14  C   UNL     1      -8.941   2.729  70.737  1.00  0.00    -0.162 A  
HETATM   15  C   UNL     1      -8.834   2.104  72.113  1.00  0.00    -0.101 C  
ENDBRANCH   7   8
ENDBRANCH   6   7
ENDBRANCH   2   6
TORSDOF 3
ENDMDL
MODEL      232
REMARK 921   NORMALIZED FREE ENERGY PREDICTED BY IDOCK:   -1.99 KCAL/MOL
REMARK 922        TOTAL FREE ENERGY PREDICTED BY IDOCK:   -2.53 KCAL/MOL
REMARK 923 INTER-LIGAND FREE ENERGY PREDICTED BY IDOCK:   -2.47 KCAL/MOL
REMARK 924 INTRA-LIGAND FREE ENERGY PREDICTED BY IDOCK:   -0.06 KCAL/MOL
REMARK 927      BINDING AFFINITY PREDICTED BY RF-SCORE:    0.00 PKD
ROOT
HETATM    1  C   UNL     1      -8.442   6.094  72.944  1.00  0.00    -0.119 C  
HETATM    2  C   UNL     1      -8.490   7.534  72.452  1.00  0.00    -0.108 C  
HETATM    3  N   UNL     1      -7.849   8.443  73.405  1.00  0.00    -0.349 NA 
HETATM    4  H2  UNL     1      -6.894   8.152  73.617  1.00  0.00     0.000 HD 
HETATM    5  H1  UNL     1      -7.882   9.408  73.076  1.00  0.00     0.000 HD 
ENDROOT
BRANCH   2   6
HETATM    6  C   UNL     1      -7.919   7.687  71.031  1.00  0.00    -0.094 C  
BRANCH   6   7
HETATM    7  O   UNL     1      -8.607   6.979  70.007  1.00  0.00    -0.138 OA 
BRANCH   7   8
HETATM    8  C   UNL     1      -9.093   7.726  68.947  1.00  0.00    -0.141 A  
HETATM    9  C   UNL     1      -9.892   8.899  68.984  1.00  0.00    -0.182 A  
HETATM   10  C   UNL     1     -10.268   9.504  67.762  1.00  0.00    -0.265 A  
HETATM   11  C   UNL     1     -10.533   9.587  70.168  1.00  0.00    -0.299 C  
HETATM   12  C   UNL     1      -9.866   9.001  66.530  1.00  0.00    -0.338 A  
HETATM   13  C   UNL     1      -9.105   7.845  66.490  1.00  0.00    -0.209 A  
HETATM   14  C   UNL     1      -8.717   7.197  67.677  1.00  0.00    -0.121 A  
HETATM   15  C   UNL     1      -7.920   5.915  67.549  1.00  0.00    -0.102 C  
ENDBRANCH   7   8
ENDBRANCH   6   7
ENDBRANCH   2   6
TORSDOF 3
ENDMDL
MODEL      233
REMARK 921   NORMALIZED FREE ENERGY PREDICTED BY IDOCK:   -1.99 KCAL/MOL
REMARK 922        TOTAL FREE ENERGY PREDICTED BY IDOCK:   -2.52 KCAL/MOL
REMARK 923 INTER-LIGAND FREE ENERGY PREDICTED BY IDOCK:   -2.39 KCAL/MOL
REMARK 924 INTRA-LIGAND FREE ENERGY PREDICTED BY IDOCK:   -0.13 KCAL/MOL
REMARK 927      BINDING AFFINITY PREDICTED BY RF-SCORE:    0.00 PKD
ROOT
HETATM    1  C   UNL     1      -9.084   2.752  68.990  1.00  0.00    -0.202 C  
HETATM    2  C   UNL     1      -9.735   3.325  70.240  1.00  0.00    -0.043 C  
HETATM    3  N   UNL     1      -8.849   3.211  71.402  1.00  0.00    -0.081 NA 
HETATM    4  H2  UNL     1      -7.941   3.639  71.223  1.00  0.00     0.000 HD 
HETATM    5  H1  UNL     1      -9.286   3.594  72.240  1.00  0.00     0.000 HD 
ENDROOT
BRANCH   2   6
HETATM    6  C   UNL     1     -10.235   4.766  70.033  1.00  0.00    -0.181 C  
BRANCH   6   7
HETATM    7  O   UNL     1      -9.307   5.796  70.352  1.00  0.00    -0.153 OA 
BRANCH   7   8
HETATM    8  C   UNL     1      -9.745   7.101  70.201  1.00  0.00    -0.171 A  
HETATM    9  C   UNL     1     -10.576   7.861  71.065  1.00  0.00    -0.232 A  
HETATM   10  C   UNL     1     -10.889   9.194  70.708  1.00  0.00    -0.331 A  
HETATM   11  C   UNL     1     -11.309   7.432  72.315  1.00  0.00    -0.323 C  
HETATM   12  C   UNL     1     -10.396   9.789  69.552  1.00  0.00    -0.247 A  
HETATM   13  C   UNL     1      -9.603   9.042  68.696  1.00  0.00    -0.158 A  
HETATM   14  C   UNL     1      -9.275   7.708  68.999  1.00  0.00    -0.140 A  
HETATM   15  C   UNL     1      -8.437   6.946  67.993  1.00  0.00    -0.124 C  
ENDBRANCH   7   8
ENDBRANCH   6   7
ENDBRANCH   2   6
TORSDOF 3
ENDMDL
MODEL      234
REMARK 921   NORMALIZED FREE ENERGY PREDICTED BY IDOCK:   -1.98 KCAL/MOL
REMARK 922        TOTAL FREE ENERGY PREDICTED BY IDOCK:   -2.51 KCAL/MOL
REMARK 923 INTER-LIGAND FREE ENERGY PREDICTED BY IDOCK:   -2.42 KCAL/MOL
REMARK 924 INTRA-LIGAND FREE ENERGY PREDICTED BY IDOCK:   -0.09 KCAL/MOL
REMARK 927      BINDING AFFINITY PREDICTED BY RF-SCORE:    0.00 PKD
ROOT
HETATM    1  C   UNL     1      -6.897   9.456  70.790  1.00  0.00    -0.109 C  
HETATM    2  C   UNL     1      -6.897  10.623  69.814  1.00  0.00    -0.143 C  
HETATM    3  N   UNL     1      -6.345  11.832  70.430  1.00  0.00    -0.501 NA 
HETATM    4  H2  UNL     1      -5.415  11.665  70.814  1.00  0.00     0.000 HD 
HETATM    5  H1  UNL     1      -6.345  12.614  69.775  1.00  0.00     0.000 HD 
ENDROOT
BRANCH   2   6
HETATM    6  C   UNL     1      -6.196  10.276  68.488  1.00  0.00    -0.047 C  
BRANCH   6   7
HETATM    7  O   UNL     1      -6.831   9.283  67.692  1.00  0.00    -0.074 OA 
BRANCH   7   8
HETATM    8  C   UNL     1      -7.986   9.659  67.026  1.00  0.00    -0.109 A  
HETATM    9  C   UNL     1      -9.332   9.559  67.465  1.00  0.00    -0.146 A  
HETATM   10  C   UNL     1     -10.362  10.019  66.611  1.00  0.00    -0.281 A  
HETATM   11  C   UNL     1      -9.890   8.914  68.713  1.00  0.00    -0.182 C  
HETATM   12  C   UNL     1     -10.099  10.580  65.366  1.00  0.00    -0.358 A  
HETATM   13  C   UNL     1      -8.787  10.658  64.926  1.00  0.00    -0.204 A  
HETATM   14  C   UNL     1      -7.729  10.202  65.732  1.00  0.00    -0.136 A  
HETATM   15  C   UNL     1      -6.327  10.284  65.163  1.00  0.00    -0.123 C  
ENDBRANCH   7   8
ENDBRANCH   6   7
ENDBRANCH   2   6
TORSDOF 3
ENDMDL
MODEL      235
REMARK 921   NORMALIZED FREE ENERGY PREDICTED BY IDOCK:   -1.98 KCAL/MOL
REMARK 922        TOTAL FREE ENERGY PREDICTED BY IDOCK:   -2.51 KCAL/MOL
REMARK 923 INTER-LIGAND FREE ENERGY PREDICTED BY IDOCK:   -2.57 KCAL/MOL
REMARK 924 INTRA-LIGAND FREE ENERGY PREDICTED BY IDOCK:    0.06 KCAL/MOL
REMARK 927      BINDING AFFINITY PREDICTED BY RF-SCORE:    0.00 PKD
ROOT
HETATM    1  C   UNL     1     -10.723   5.571  71.798  1.00  0.00    -0.289 C  
HETATM    2  C   UNL     1     -10.423   6.749  70.882  1.00  0.00    -0.213 C  
HETATM    3  N   UNL     1     -11.209   7.927  71.255  1.00  0.00    -0.251 NA 
HETATM    4  H2  UNL     1     -11.074   8.173  72.236  1.00  0.00     0.000 HD 
HETATM    5  H1  UNL     1     -11.008   8.716  70.641  1.00  0.00     0.000 HD 
ENDROOT
BRANCH   2   6
HETATM    6  C   UNL     1      -8.917   7.059  70.801  1.00  0.00    -0.150 C  
BRANCH   6   7
HETATM    7  O   UNL     1      -8.357   7.078  69.493  1.00  0.00    -0.130 OA 
BRANCH   7   8
HETATM    8  C   UNL     1      -9.053   6.402  68.505  1.00  0.00    -0.126 A  
HETATM    9  C   UNL     1      -9.988   6.918  67.570  1.00  0.00    -0.190 A  
HETATM   10  C   UNL     1     -10.574   6.033  66.635  1.00  0.00    -0.312 A  
HETATM   11  C   UNL     1     -10.574   8.308  67.465  1.00  0.00    -0.291 C  
HETATM   12  C   UNL     1     -10.253   4.681  66.590  1.00  0.00    -0.250 A  
HETATM   13  C   UNL     1      -9.358   4.170  67.516  1.00  0.00    -0.204 A  
HETATM   14  C   UNL     1      -8.758   5.007  68.475  1.00  0.00    -0.103 A  
HETATM   15  C   UNL     1      -7.822   4.365  69.478  1.00  0.00    -0.057 C  
ENDBRANCH   7   8
ENDBRANCH   6   7
ENDBRANCH   2   6
TORSDOF 3
ENDMDL
MODEL      236
REMARK 921   NORMALIZED FREE ENERGY PREDICTED BY IDOCK:   -1.97 KCAL/MOL
REMARK 922        TOTAL FREE ENERGY PREDICTED BY IDOCK:   -2.50 KCAL/MOL
REMARK 923 INTER-LIGAND FREE ENERGY PREDICTED BY IDOCK:   -2.23 KCAL/MOL
REMARK 924 INTRA-LIGAND FREE ENERGY PREDICTED BY IDOCK:   -0.27 KCAL/MOL
REMARK 927      BINDING AFFINITY PREDICTED BY RF-SCORE:    0.00 PKD
ROOT
HETATM    1  C   UNL     1      -7.846   4.316  64.828  1.00  0.00    -0.088 C  
HETATM    2  C   UNL     1      -7.509   4.867  66.206  1.00  0.00    -0.086 C  
HETATM    3  N   UNL     1      -6.182   4.428  66.644  1.00  0.00    -0.031 NA 
HETATM    4  H2  UNL     1      -5.464   4.666  65.959  1.00  0.00     0.000 HD 
HETATM    5  H1  UNL     1      -5.956   4.797  67.567  1.00  0.00     0.000 HD 
ENDROOT
BRANCH   2   6
HETATM    6  C   UNL     1      -7.668   6.396  66.280  1.00  0.00    -0.099 C  
BRANCH   6   7
HETATM    7  O   UNL     1      -7.741   6.949  67.588  1.00  0.00    -0.107 OA 
BRANCH   7   8
HETATM    8  C   UNL     1      -8.803   6.546  68.380  1.00  0.00    -0.123 A  
HETATM    9  C   UNL     1     -10.194   6.643  68.110  1.00  0.00    -0.193 A  
HETATM   10  C   UNL     1     -11.109   6.152  69.072  1.00  0.00    -0.437 A  
HETATM   11  C   UNL     1     -10.904   7.312  66.957  1.00  0.00    -0.350 C  
HETATM   12  C   UNL     1     -10.692   5.563  70.260  1.00  0.00    -0.333 A  
HETATM   13  C   UNL     1      -9.336   5.488  70.536  1.00  0.00    -0.195 A  
HETATM   14  C   UNL     1      -8.387   5.974  69.619  1.00  0.00    -0.119 A  
HETATM   15  C   UNL     1      -6.926   5.892  70.011  1.00  0.00    -0.066 C  
ENDBRANCH   7   8
ENDBRANCH   6   7
ENDBRANCH   2   6
TORSDOF 3
ENDMDL
MODEL      237
REMARK 921   NORMALIZED FREE ENERGY PREDICTED BY IDOCK:   -1.95 KCAL/MOL
REMARK 922        TOTAL FREE ENERGY PREDICTED BY IDOCK:   -2.47 KCAL/MOL
REMARK 923 INTER-LIGAND FREE ENERGY PREDICTED BY IDOCK:   -2.26 KCAL/MOL
REMARK 924 INTRA-LIGAND FREE ENERGY PREDICTED BY IDOCK:   -0.21 KCAL/MOL
REMARK 927      BINDING AFFINITY PREDICTED BY RF-SCORE:    0.00 PKD
ROOT
HETATM    1  C   UNL     1      -9.794   9.723  65.471  1.00  0.00    -0.378 C  
HETATM    2  C   UNL     1      -8.692   8.872  66.084  1.00  0.00    -0.153 C  
HETATM    3  N   UNL     1      -7.651   9.705  66.690  1.00  0.00    -0.097 NA 
HETATM    4  H2  UNL     1      -8.042  10.357  67.371  1.00  0.00     0.000 HD 
HETATM    5  H1  UNL     1      -6.912   9.135  67.101  1.00  0.00     0.000 HD 
ENDROOT
BRANCH   2   6
HETATM    6  C   UNL     1      -9.241   7.823  67.068  1.00  0.00    -0.145 C  
BRANCH   6   7
HETATM    7  O   UNL     1      -8.829   7.967  68.421  1.00  0.00    -0.134 OA 
BRANCH   7   8
HETATM    8  C   UNL     1      -8.827   6.823  69.201  1.00  0.00    -0.134 A  
HETATM    9  C   UNL     1      -9.934   6.136  69.768  1.00  0.00    -0.213 A  
HETATM   10  C   UNL     1      -9.691   4.969  70.530  1.00  0.00    -0.273 A  
HETATM   11  C   UNL     1     -11.395   6.520  69.784  1.00  0.00    -0.456 C  
HETATM   12  C   UNL     1      -8.411   4.464  70.727  1.00  0.00    -0.098 A  
HETATM   13  C   UNL     1      -7.329   5.144  70.194  1.00  0.00    -0.062 A  
HETATM   14  C   UNL     1      -7.515   6.316  69.441  1.00  0.00    -0.093 A  
HETATM   15  C   UNL     1      -6.279   7.025  68.926  1.00  0.00    -0.027 C  
ENDBRANCH   7   8
ENDBRANCH   6   7
ENDBRANCH   2   6
TORSDOF 3
ENDMDL
MODEL      238
REMARK 921   NORMALIZED FREE ENERGY PREDICTED BY IDOCK:   -1.92 KCAL/MOL
REMARK 922        TOTAL FREE ENERGY PREDICTED BY IDOCK:   -2.44 KCAL/MOL
REMARK 923 INTER-LIGAND FREE ENERGY PREDICTED BY IDOCK:   -2.39 KCAL/MOL
REMARK 924 INTRA-LIGAND FREE ENERGY PREDICTED BY IDOCK:   -0.05 KCAL/MOL
REMARK 927      BINDING AFFINITY PREDICTED BY RF-SCORE:    0.00 PKD
ROOT
HETATM    1  C   UNL     1      -7.058   2.488  65.805  1.00  0.00    -0.064 C  
HETATM    2  C   UNL     1      -6.695   2.977  67.200  1.00  0.00    -0.045 C  
HETATM    3  N   UNL     1      -5.295   3.402  67.267  1.00  0.00    -0.015 NA 
HETATM    4  H2  UNL     1      -5.082   4.103  66.558  1.00  0.00     0.000 HD 
HETATM    5  H1  UNL     1      -5.052   3.729  68.202  1.00  0.00     0.000 HD 
ENDROOT
BRANCH   2   6
HETATM    6  C   UNL     1      -7.657   4.066  67.707  1.00  0.00    -0.068 C  
BRANCH   6   7
HETATM    7  O   UNL     1      -8.968   3.629  68.041  1.00  0.00    -0.108 OA 
BRANCH   7   8
HETATM    8  C   UNL     1      -9.568   4.227  69.137  1.00  0.00    -0.179 A  
HETATM    9  C   UNL     1      -9.465   3.869  70.507  1.00  0.00    -0.251 A  
HETATM   10  C   UNL     1     -10.167   4.638  71.465  1.00  0.00    -0.224 A  
HETATM   11  C   UNL     1      -8.780   2.680  71.139  1.00  0.00    -0.116 C  
HETATM   12  C   UNL     1     -10.939   5.740  71.112  1.00  0.00    -0.295 A  
HETATM   13  C   UNL     1     -11.059   6.077  69.774  1.00  0.00    -0.476 A  
HETATM   14  C   UNL     1     -10.392   5.336  68.782  1.00  0.00    -0.206 A  
HETATM   15  C   UNL     1     -10.607   5.744  67.339  1.00  0.00    -0.340 C  
ENDBRANCH   7   8
ENDBRANCH   6   7
ENDBRANCH   2   6
TORSDOF 3
ENDMDL
MODEL      239
REMARK 921   NORMALIZED FREE ENERGY PREDICTED BY IDOCK:   -1.92 KCAL/MOL
REMARK 922        TOTAL FREE ENERGY PREDICTED BY IDOCK:   -2.43 KCAL/MOL
REMARK 923 INTER-LIGAND FREE ENERGY PREDICTED BY IDOCK:   -2.42 KCAL/MOL
REMARK 924 INTRA-LIGAND FREE ENERGY PREDICTED BY IDOCK:   -0.02 KCAL/MOL
REMARK 927      BINDING AFFINITY PREDICTED BY RF-SCORE:    0.00 PKD
ROOT
HETATM    1  C   UNL     1     -12.296   6.747  71.711  1.00  0.00    -0.400 C  
HETATM    2  C   UNL     1     -11.779   7.954  70.942  1.00  0.00    -0.257 C  
HETATM    3  N   UNL     1     -11.856   9.173  71.751  1.00  0.00    -0.363 NA 
HETATM    4  H2  UNL     1     -11.372   9.062  72.642  1.00  0.00     0.000 HD 
HETATM    5  H1  UNL     1     -11.509   9.982  71.235  1.00  0.00     0.000 HD 
ENDROOT
BRANCH   2   6
HETATM    6  C   UNL     1     -10.368   7.724  70.372  1.00  0.00    -0.212 C  
BRANCH   6   7
HETATM    7  O   UNL     1     -10.287   7.564  68.961  1.00  0.00    -0.204 OA 
BRANCH   7   8
HETATM    8  C   UNL     1      -9.148   8.049  68.340  1.00  0.00    -0.136 A  
HETATM    9  C   UNL     1      -7.927   7.373  68.079  1.00  0.00    -0.119 A  
HETATM   10  C   UNL     1      -6.891   8.072  67.417  1.00  0.00    -0.070 A  
HETATM   11  C   UNL     1      -7.484   5.993  68.506  1.00  0.00    -0.087 C  
HETATM   12  C   UNL     1      -7.035   9.390  66.997  1.00  0.00    -0.085 A  
HETATM   13  C   UNL     1      -8.217  10.059  67.270  1.00  0.00    -0.117 A  
HETATM   14  C   UNL     1      -9.272   9.412  67.938  1.00  0.00    -0.139 A  
HETATM   15  C   UNL     1     -10.517  10.223  68.236  1.00  0.00    -0.230 C  
ENDBRANCH   7   8
ENDBRANCH   6   7
ENDBRANCH   2   6
TORSDOF 3
ENDMDL
MODEL      240
REMARK 921   NORMALIZED FREE ENERGY PREDICTED BY IDOCK:   -1.92 KCAL/MOL
REMARK 922        TOTAL FREE ENERGY PREDICTED BY IDOCK:   -2.43 KCAL/MOL
REMARK 923 INTER-LIGAND FREE ENERGY PREDICTED BY IDOCK:   -2.27 KCAL/MOL
REMARK 924 INTRA-LIGAND FREE ENERGY PREDICTED BY IDOCK:   -0.17 KCAL/MOL
REMARK 927      BINDING AFFINITY PREDICTED BY RF-SCORE:    0.00 PKD
ROOT
HETATM    1  C   UNL     1      -5.604  11.293  70.188  1.00  0.00    -0.109 C  
HETATM    2  C   UNL     1      -7.081  11.012  69.952  1.00  0.00     0.016 C  
HETATM    3  N   UNL     1      -7.582  11.745  68.787  1.00  0.00    -0.194 NA 
HETATM    4  H2  UNL     1      -7.027  11.550  67.954  1.00  0.00     0.000 HD 
HETATM    5  H1  UNL     1      -8.572  11.557  68.629  1.00  0.00     0.000 HD 
ENDROOT
BRANCH   2   6
HETATM    6  C   UNL     1      -7.384   9.506  69.863  1.00  0.00    -0.103 C  
BRANCH   6   7
HETATM    7  O   UNL     1      -8.477   9.141  69.030  1.00  0.00    -0.127 OA 
BRANCH   7   8
HETATM    8  C   UNL     1      -9.087   7.926  69.293  1.00  0.00    -0.148 A  
HETATM    9  C   UNL     1      -8.594   6.617  69.048  1.00  0.00    -0.130 A  
HETATM   10  C   UNL     1      -9.396   5.510  69.411  1.00  0.00    -0.154 A  
HETATM   11  C   UNL     1      -7.336   6.184  68.331  1.00  0.00    -0.086 C  
HETATM   12  C   UNL     1     -10.640   5.659  70.014  1.00  0.00    -0.388 A  
HETATM   13  C   UNL     1     -11.133   6.935  70.234  1.00  0.00    -0.342 A  
HETATM   14  C   UNL     1     -10.380   8.069  69.878  1.00  0.00    -0.221 A  
HETATM   15  C   UNL     1     -11.005   9.429  70.114  1.00  0.00    -0.282 C  
ENDBRANCH   7   8
ENDBRANCH   6   7
ENDBRANCH   2   6
TORSDOF 3
ENDMDL
MODEL      241
REMARK 921   NORMALIZED FREE ENERGY PREDICTED BY IDOCK:   -1.89 KCAL/MOL
REMARK 922        TOTAL FREE ENERGY PREDICTED BY IDOCK:   -2.40 KCAL/MOL
REMARK 923 INTER-LIGAND FREE ENERGY PREDICTED BY IDOCK:   -2.09 KCAL/MOL
REMARK 924 INTRA-LIGAND FREE ENERGY PREDICTED BY IDOCK:   -0.31 KCAL/MOL
REMARK 927      BINDING AFFINITY PREDICTED BY RF-SCORE:    0.00 PKD
ROOT
HETATM    1  C   UNL     1      -7.659   2.544  65.627  1.00  0.00    -0.076 C  
HETATM    2  C   UNL     1      -7.950   2.762  67.104  1.00  0.00    -0.074 C  
HETATM    3  N   UNL     1      -6.767   3.257  67.813  1.00  0.00    -0.041 NA 
HETATM    4  H2  UNL     1      -6.395   4.100  67.377  1.00  0.00     0.000 HD 
HETATM    5  H1  UNL     1      -6.963   3.402  68.803  1.00  0.00     0.000 HD 
ENDROOT
BRANCH   2   6
HETATM    6  C   UNL     1      -9.180   3.659  67.333  1.00  0.00    -0.189 C  
BRANCH   6   7
HETATM    7  O   UNL     1      -9.002   4.733  68.249  1.00  0.00    -0.106 OA 
BRANCH   7   8
HETATM    8  C   UNL     1      -9.332   6.000  67.799  1.00  0.00    -0.106 A  
HETATM    9  C   UNL     1      -8.786   6.720  66.704  1.00  0.00    -0.142 A  
HETATM   10  C   UNL     1      -9.288   8.013  66.422  1.00  0.00    -0.259 A  
HETATM   11  C   UNL     1      -7.625   6.365  65.804  1.00  0.00    -0.085 C  
HETATM   12  C   UNL     1     -10.308   8.592  67.168  1.00  0.00    -0.369 A  
HETATM   13  C   UNL     1     -10.826   7.901  68.251  1.00  0.00     0.019 A  
HETATM   14  C   UNL     1     -10.351   6.619  68.582  1.00  0.00    -0.208 A  
HETATM   15  C   UNL     1     -10.941   5.946  69.804  1.00  0.00    -0.452 C  
ENDBRANCH   7   8
ENDBRANCH   6   7
ENDBRANCH   2   6
TORSDOF 3
ENDMDL
MODEL      242
REMARK 921   NORMALIZED FREE ENERGY PREDICTED BY IDOCK:   -1.82 KCAL/MOL
REMARK 922        TOTAL FREE ENERGY PREDICTED BY IDOCK:   -2.32 KCAL/MOL
REMARK 923 INTER-LIGAND FREE ENERGY PREDICTED BY IDOCK:   -2.19 KCAL/MOL
REMARK 924 INTRA-LIGAND FREE ENERGY PREDICTED BY IDOCK:   -0.12 KCAL/MOL
REMARK 927      BINDING AFFINITY PREDICTED BY RF-SCORE:    0.00 PKD
ROOT
HETATM    1  C   UNL     1      -8.620  12.312  66.877  1.00  0.00    -0.182 C  
HETATM    2  C   UNL     1      -7.969  10.989  67.253  1.00  0.00    -0.126 C  
HETATM    3  N   UNL     1      -6.542  11.160  67.538  1.00  0.00    -0.066 NA 
HETATM    4  H2  UNL     1      -6.385  11.870  68.252  1.00  0.00     0.000 HD 
HETATM    5  H1  UNL     1      -6.106  10.273  67.789  1.00  0.00     0.000 HD 
ENDROOT
BRANCH   2   6
HETATM    6  C   UNL     1      -8.708  10.278  68.402  1.00  0.00    -0.129 C  
BRANCH   6   7
HETATM    7  O   UNL     1      -8.038   9.161  68.973  1.00  0.00    -0.099 OA 
BRANCH   7   8
HETATM    8  C   UNL     1      -8.784   8.008  69.152  1.00  0.00    -0.137 A  
HETATM    9  C   UNL     1      -9.376   7.176  68.166  1.00  0.00    -0.129 A  
HETATM   10  C   UNL     1     -10.094   6.031  68.585  1.00  0.00    -0.208 A  
HETATM   11  C   UNL     1      -9.464   7.373  66.670  1.00  0.00    -0.240 C  
HETATM   12  C   UNL     1     -10.224   5.685  69.925  1.00  0.00    -0.320 A  
HETATM   13  C   UNL     1      -9.666   6.508  70.890  1.00  0.00    -0.190 A  
HETATM   14  C   UNL     1      -8.954   7.665  70.526  1.00  0.00    -0.151 A  
HETATM   15  C   UNL     1      -8.409   8.534  71.641  1.00  0.00    -0.218 C  
ENDBRANCH   7   8
ENDBRANCH   6   7
ENDBRANCH   2   6
TORSDOF 3
ENDMDL
MODEL      243
REMARK 921   NORMALIZED FREE ENERGY PREDICTED BY IDOCK:   -1.80 KCAL/MOL
REMARK 922        TOTAL FREE ENERGY PREDICTED BY IDOCK:   -2.30 KCAL/MOL
REMARK 923 INTER-LIGAND FREE ENERGY PREDICTED BY IDOCK:   -2.19 KCAL/MOL
REMARK 924 INTRA-LIGAND FREE ENERGY PREDICTED BY IDOCK:   -0.10 KCAL/MOL
REMARK 927      BINDING AFFINITY PREDICTED BY RF-SCORE:    0.00 PKD
ROOT
HETATM    1  C   UNL     1      -7.197  10.165  65.109  1.00  0.00    -0.141 C  
HETATM    2  C   UNL     1      -7.098   8.747  64.567  1.00  0.00    -0.085 C  
HETATM    3  N   UNL     1      -5.701   8.338  64.400  1.00  0.00    -0.058 NA 
HETATM    4  H2  UNL     1      -5.174   8.445  65.266  1.00  0.00     0.000 HD 
HETATM    5  H1  UNL     1      -5.635   7.387  64.036  1.00  0.00     0.000 HD 
ENDROOT
BRANCH   2   6
HETATM    6  C   UNL     1      -7.900   7.740  65.411  1.00  0.00    -0.114 C  
BRANCH   6   7
HETATM    7  O   UNL     1      -9.271   8.058  65.619  1.00  0.00    -0.073 OA 
BRANCH   7   8
HETATM    8  C   UNL     1      -9.780   7.833  66.887  1.00  0.00    -0.216 A  
HETATM    9  C   UNL     1     -10.010   6.594  67.541  1.00  0.00    -0.171 A  
HETATM   10  C   UNL     1     -10.536   6.606  68.855  1.00  0.00    -0.239 A  
HETATM   11  C   UNL     1      -9.881   5.187  67.005  1.00  0.00    -0.197 C  
HETATM   12  C   UNL     1     -10.817   7.788  69.531  1.00  0.00    -0.157 A  
HETATM   13  C   UNL     1     -10.615   8.997  68.886  1.00  0.00    -0.203 A  
HETATM   14  C   UNL     1     -10.107   9.038  67.576  1.00  0.00    -0.285 A  
HETATM   15  C   UNL     1      -9.953  10.398  66.925  1.00  0.00    -0.254 C  
ENDBRANCH   7   8
ENDBRANCH   6   7
ENDBRANCH   2   6
TORSDOF 3
ENDMDL
MODEL      244
REMARK 921   NORMALIZED FREE ENERGY PREDICTED BY IDOCK:   -1.79 KCAL/MOL
REMARK 922        TOTAL FREE ENERGY PREDICTED BY IDOCK:   -2.29 KCAL/MOL
REMARK 923 INTER-LIGAND FREE ENERGY PREDICTED BY IDOCK:   -2.19 KCAL/MOL
REMARK 924 INTRA-LIGAND FREE ENERGY PREDICTED BY IDOCK:   -0.09 KCAL/MOL
REMARK 927      BINDING AFFINITY PREDICTED BY RF-SCORE:    0.00 PKD
ROOT
HETATM    1  C   UNL     1      -8.462   3.060  65.761  1.00  0.00    -0.110 C  
HETATM    2  C   UNL     1      -8.902   2.553  67.126  1.00  0.00    -0.135 C  
HETATM    3  N   UNL     1      -7.863   1.729  67.749  1.00  0.00    -0.058 NA 
HETATM    4  H2  UNL     1      -6.974   2.226  67.803  1.00  0.00     0.000 HD 
HETATM    5  H1  UNL     1      -8.159   1.389  68.664  1.00  0.00     0.000 HD 
ENDROOT
BRANCH   2   6
HETATM    6  C   UNL     1      -9.370   3.692  68.051  1.00  0.00    -0.183 C  
BRANCH   6   7
HETATM    7  O   UNL     1      -8.668   4.922  67.923  1.00  0.00    -0.103 OA 
BRANCH   7   8
HETATM    8  C   UNL     1      -9.353   6.073  68.274  1.00  0.00    -0.116 A  
HETATM    9  C   UNL     1     -10.028   6.366  69.488  1.00  0.00    -0.190 A  
HETATM   10  C   UNL     1     -10.659   7.625  69.629  1.00  0.00    -0.243 A  
HETATM   11  C   UNL     1     -10.292   5.474  70.679  1.00  0.00    -0.332 C  
HETATM   12  C   UNL     1     -10.624   8.589  68.627  1.00  0.00    -0.154 A  
HETATM   13  C   UNL     1      -9.985   8.297  67.433  1.00  0.00    -0.271 A  
HETATM   14  C   UNL     1      -9.355   7.054  67.239  1.00  0.00    -0.153 A  
HETATM   15  C   UNL     1      -8.714   6.796  65.891  1.00  0.00    -0.147 C  
ENDBRANCH   7   8
ENDBRANCH   6   7
ENDBRANCH   2   6
TORSDOF 3
ENDMDL
MODEL      245
REMARK 921   NORMALIZED FREE ENERGY PREDICTED BY IDOCK:   -1.69 KCAL/MOL
REMARK 922        TOTAL FREE ENERGY PREDICTED BY IDOCK:   -2.17 KCAL/MOL
REMARK 923 INTER-LIGAND FREE ENERGY PREDICTED BY IDOCK:   -2.15 KCAL/MOL
REMARK 924 INTRA-LIGAND FREE ENERGY PREDICTED BY IDOCK:   -0.02 KCAL/MOL
REMARK 927      BINDING AFFINITY PREDICTED BY RF-SCORE:    0.00 PKD
ROOT
HETATM    1  C   UNL     1      -8.824   5.059  68.636  1.00  0.00    -0.111 C  
HETATM    2  C   UNL     1      -9.093   6.544  68.439  1.00  0.00    -0.123 C  
HETATM    3  N   UNL     1      -8.293   7.089  67.339  1.00  0.00    -0.122 NA 
HETATM    4  H2  UNL     1      -8.438   6.565  66.476  1.00  0.00     0.000 HD 
HETATM    5  H1  UNL     1      -8.473   8.084  67.208  1.00  0.00     0.000 HD 
ENDROOT
BRANCH   2   6
HETATM    6  C   UNL     1     -10.592   6.851  68.273  1.00  0.00    -0.215 C  
BRANCH   6   7
HETATM    7  O   UNL     1     -11.241   7.404  69.412  1.00  0.00    -0.095 OA 
BRANCH   7   8
HETATM    8  C   UNL     1     -10.452   7.660  70.520  1.00  0.00    -0.220 A  
HETATM    9  C   UNL     1      -9.546   8.733  70.732  1.00  0.00    -0.256 A  
HETATM   10  C   UNL     1      -8.845   8.798  71.959  1.00  0.00    -0.191 A  
HETATM   11  C   UNL     1      -9.101   9.817  69.777  1.00  0.00    -0.246 C  
HETATM   12  C   UNL     1      -9.025   7.859  72.968  1.00  0.00    -0.286 A  
HETATM   13  C   UNL     1      -9.892   6.799  72.755  1.00  0.00    -0.183 A  
HETATM   14  C   UNL     1     -10.602   6.682  71.547  1.00  0.00    -0.251 A  
HETATM   15  C   UNL     1     -11.498   5.473  71.374  1.00  0.00     0.145 C  
ENDBRANCH   7   8
ENDBRANCH   6   7
ENDBRANCH   2   6
TORSDOF 3
ENDMDL
MODEL      246
REMARK 921   NORMALIZED FREE ENERGY PREDICTED BY IDOCK:   -1.66 KCAL/MOL
REMARK 922        TOTAL FREE ENERGY PREDICTED BY IDOCK:   -2.13 KCAL/MOL
REMARK 923 INTER-LIGAND FREE ENERGY PREDICTED BY IDOCK:   -2.18 KCAL/MOL
REMARK 924 INTRA-LIGAND FREE ENERGY PREDICTED BY IDOCK:    0.05 KCAL/MOL
REMARK 927      BINDING AFFINITY PREDICTED BY RF-SCORE:    0.00 PKD
ROOT
HETATM    1  C   UNL     1     -10.266   5.187  71.832  1.00  0.00    -0.269 C  
HETATM    2  C   UNL     1      -9.473   6.479  71.699  1.00  0.00    -0.156 C  
HETATM    3  N   UNL     1      -9.559   7.284  72.919  1.00  0.00    -0.153 NA 
HETATM    4  H2  UNL     1      -9.271   6.752  73.741  1.00  0.00     0.000 HD 
HETATM    5  H1  UNL     1      -9.028   8.150  72.830  1.00  0.00     0.000 HD 
ENDROOT
BRANCH   2   6
HETATM    6  C   UNL     1      -8.016   6.230  71.270  1.00  0.00    -0.116 C  
BRANCH   6   7
HETATM    7  O   UNL     1      -7.742   6.387  69.883  1.00  0.00    -0.103 OA 
BRANCH   7   8
HETATM    8  C   UNL     1      -8.680   7.078  69.134  1.00  0.00    -0.132 A  
HETATM    9  C   UNL     1      -9.776   6.562  68.394  1.00  0.00    -0.132 A  
HETATM   10  C   UNL     1     -10.617   7.468  67.705  1.00  0.00    -0.303 A  
HETATM   11  C   UNL     1     -10.156   5.126  68.116  1.00  0.00    -0.192 C  
HETATM   12  C   UNL     1     -10.417   8.843  67.742  1.00  0.00    -0.300 A  
HETATM   13  C   UNL     1      -9.334   9.347  68.445  1.00  0.00    -0.137 A  
HETATM   14  C   UNL     1      -8.461   8.488  69.136  1.00  0.00    -0.125 A  
HETATM   15  C   UNL     1      -7.278   9.113  69.847  1.00  0.00    -0.062 C  
ENDBRANCH   7   8
ENDBRANCH   6   7
ENDBRANCH   2   6
TORSDOF 3
ENDMDL
MODEL      247
REMARK 921   NORMALIZED FREE ENERGY PREDICTED BY IDOCK:   -1.60 KCAL/MOL
REMARK 922        TOTAL FREE ENERGY PREDICTED BY IDOCK:   -2.06 KCAL/MOL
REMARK 923 INTER-LIGAND FREE ENERGY PREDICTED BY IDOCK:   -2.34 KCAL/MOL
REMARK 924 INTRA-LIGAND FREE ENERGY PREDICTED BY IDOCK:    0.28 KCAL/MOL
REMARK 927      BINDING AFFINITY PREDICTED BY RF-SCORE:    0.00 PKD
ROOT
HETATM    1  C   UNL     1     -10.579   4.903  74.287  1.00  0.00    -0.321 C  
HETATM    2  C   UNL     1     -10.093   5.807  73.163  1.00  0.00    -0.183 C  
HETATM    3  N   UNL     1      -8.748   5.431  72.721  1.00  0.00    -0.123 NA 
HETATM    4  H2  UNL     1      -8.702   4.447  72.456  1.00  0.00     0.000 HD 
HETATM    5  H1  UNL     1      -8.423   6.037  71.969  1.00  0.00     0.000 HD 
ENDROOT
BRANCH   2   6
HETATM    6  C   UNL     1     -11.091   5.873  71.992  1.00  0.00    -0.274 C  
BRANCH   6   7
HETATM    7  O   UNL     1     -10.528   5.752  70.691  1.00  0.00    -0.230 OA 
BRANCH   7   8
HETATM    8  C   UNL     1      -9.978   6.896  70.138  1.00  0.00    -0.178 A  
HETATM    9  C   UNL     1     -10.487   8.222  70.160  1.00  0.00    -0.225 A  
HETATM   10  C   UNL     1      -9.742   9.246  69.529  1.00  0.00    -0.179 A  
HETATM   11  C   UNL     1     -11.810   8.734  70.680  1.00  0.00    -0.137 C  
HETATM   12  C   UNL     1      -8.524   9.002  68.905  1.00  0.00    -0.130 A  
HETATM   13  C   UNL     1      -8.037   7.705  68.863  1.00  0.00    -0.127 A  
HETATM   14  C   UNL     1      -8.746   6.650  69.463  1.00  0.00    -0.135 A  
HETATM   15  C   UNL     1      -8.168   5.255  69.338  1.00  0.00    -0.095 C  
ENDBRANCH   7   8
ENDBRANCH   6   7
ENDBRANCH   2   6
TORSDOF 3
ENDMDL
MODEL      248
REMARK 921   NORMALIZED FREE ENERGY PREDICTED BY IDOCK:   -1.48 KCAL/MOL
REMARK 922        TOTAL FREE ENERGY PREDICTED BY IDOCK:   -1.92 KCAL/MOL
REMARK 923 INTER-LIGAND FREE ENERGY PREDICTED BY IDOCK:   -1.79 KCAL/MOL
REMARK 924 INTRA-LIGAND FREE ENERGY PREDICTED BY IDOCK:   -0.13 KCAL/MOL
REMARK 927      BINDING AFFINITY PREDICTED BY RF-SCORE:    0.00 PKD
ROOT
HETATM    1  C   UNL     1      -9.728   4.252  67.775  1.00  0.00    -0.179 C  
HETATM    2  C   UNL     1      -9.362   5.476  68.601  1.00  0.00    -0.125 C  
HETATM    3  N   UNL     1     -10.151   5.542  69.834  1.00  0.00    -0.213 NA 
HETATM    4  H2  UNL     1     -10.068   4.684  70.379  1.00  0.00     0.000 HD 
HETATM    5  H1  UNL     1      -9.906   6.363  70.387  1.00  0.00     0.000 HD 
ENDROOT
BRANCH   2   6
HETATM    6  C   UNL     1      -7.850   5.566  68.877  1.00  0.00    -0.095 C  
BRANCH   6   7
HETATM    7  O   UNL     1      -7.114   6.432  68.021  1.00  0.00    -0.077 OA 
BRANCH   7   8
HETATM    8  C   UNL     1      -7.835   7.398  67.339  1.00  0.00    -0.111 A  
HETATM    9  C   UNL     1      -8.479   8.552  67.858  1.00  0.00    -0.130 A  
HETATM   10  C   UNL     1      -9.157   9.412  66.962  1.00  0.00    -0.155 A  
HETATM   11  C   UNL     1      -8.664   8.985  69.294  1.00  0.00    -0.138 C  
HETATM   12  C   UNL     1      -9.198   9.175  65.593  1.00  0.00    -0.296 A  
HETATM   13  C   UNL     1      -8.589   8.038  65.087  1.00  0.00    -0.077 A  
HETATM   14  C   UNL     1      -7.914   7.145  65.938  1.00  0.00    -0.116 A  
HETATM   15  C   UNL     1      -7.309   5.903  65.314  1.00  0.00    -0.076 C  
ENDBRANCH   7   8
ENDBRANCH   6   7
ENDBRANCH   2   6
TORSDOF 3
ENDMDL
MODEL      249
REMARK 921   NORMALIZED FREE ENERGY PREDICTED BY IDOCK:   -1.44 KCAL/MOL
REMARK 922        TOTAL FREE ENERGY PREDICTED BY IDOCK:   -1.87 KCAL/MOL
REMARK 923 INTER-LIGAND FREE ENERGY PREDICTED BY IDOCK:   -1.56 KCAL/MOL
REMARK 924 INTRA-LIGAND FREE ENERGY PREDICTED BY IDOCK:   -0.30 KCAL/MOL
REMARK 927      BINDING AFFINITY PREDICTED BY RF-SCORE:    0.00 PKD
ROOT
HETATM    1  C   UNL     1      -9.828   5.133  71.931  1.00  0.00    -0.230 C  
HETATM    2  C   UNL     1      -8.818   6.261  71.774  1.00  0.00    -0.137 C  
HETATM    3  N   UNL     1      -8.586   6.949  73.047  1.00  0.00    -0.118 NA 
HETATM    4  H2  UNL     1      -8.308   6.296  73.780  1.00  0.00     0.000 HD 
HETATM    5  H1  UNL     1      -7.910   7.704  72.941  1.00  0.00     0.000 HD 
ENDROOT
BRANCH   2   6
HETATM    6  C   UNL     1      -7.505   5.785  71.125  1.00  0.00    -0.091 C  
BRANCH   6   7
HETATM    7  O   UNL     1      -7.103   6.485  69.955  1.00  0.00    -0.064 OA 
BRANCH   7   8
HETATM    8  C   UNL     1      -7.768   6.175  68.780  1.00  0.00    -0.096 A  
HETATM    9  C   UNL     1      -7.751   4.958  68.049  1.00  0.00    -0.083 A  
HETATM   10  C   UNL     1      -8.522   4.864  66.867  1.00  0.00    -0.106 A  
HETATM   11  C   UNL     1      -6.922   3.714  68.275  1.00  0.00    -0.050 C  
HETATM   12  C   UNL     1      -9.308   5.915  66.408  1.00  0.00    -0.171 A  
HETATM   13  C   UNL     1      -9.309   7.111  67.107  1.00  0.00    -0.166 A  
HETATM   14  C   UNL     1      -8.548   7.259  68.280  1.00  0.00    -0.123 A  
HETATM   15  C   UNL     1      -8.569   8.611  68.964  1.00  0.00    -0.129 C  
ENDBRANCH   7   8
ENDBRANCH   6   7
ENDBRANCH   2   6
TORSDOF 3
ENDMDL
MODEL      250
REMARK 921   NORMALIZED FREE ENERGY PREDICTED BY IDOCK:   -1.34 KCAL/MOL
REMARK 922        TOTAL FREE ENERGY PREDICTED BY IDOCK:   -1.76 KCAL/MOL
REMARK 923 INTER-LIGAND FREE ENERGY PREDICTED BY IDOCK:   -1.62 KCAL/MOL
REMARK 924 INTRA-LIGAND FREE ENERGY PREDICTED BY IDOCK:   -0.14 KCAL/MOL
REMARK 927      BINDING AFFINITY PREDICTED BY RF-SCORE:    0.00 PKD
ROOT
HETATM    1  C   UNL     1      -7.943   3.381  65.355  1.00  0.00    -0.089 C  
HETATM    2  C   UNL     1      -7.327   3.237  66.739  1.00  0.00    -0.074 C  
HETATM    3  N   UNL     1      -6.121   2.407  66.701  1.00  0.00    -0.023 NA 
HETATM    4  H2  UNL     1      -5.443   2.761  66.025  1.00  0.00     0.000 HD 
HETATM    5  H1  UNL     1      -5.708   2.310  67.629  1.00  0.00     0.000 HD 
ENDROOT
BRANCH   2   6
HETATM    6  C   UNL     1      -7.073   4.598  67.411  1.00  0.00    -0.065 C  
BRANCH   6   7
HETATM    7  O   UNL     1      -7.998   5.630  67.091  1.00  0.00    -0.101 OA 
BRANCH   7   8
HETATM    8  C   UNL     1      -8.538   6.338  68.152  1.00  0.00    -0.116 A  
HETATM    9  C   UNL     1      -7.862   7.070  69.163  1.00  0.00    -0.114 A  
HETATM   10  C   UNL     1      -8.629   7.729  70.153  1.00  0.00    -0.139 A  
HETATM   11  C   UNL     1      -6.380   7.185  69.437  1.00  0.00    -0.035 C  
HETATM   12  C   UNL     1     -10.019   7.698  70.158  1.00  0.00    -0.186 A  
HETATM   13  C   UNL     1     -10.680   6.965  69.186  1.00  0.00    -0.262 A  
HETATM   14  C   UNL     1      -9.963   6.281  68.188  1.00  0.00    -0.149 A  
HETATM   15  C   UNL     1     -10.757   5.470  67.185  1.00  0.00    -0.265 C  
ENDBRANCH   7   8
ENDBRANCH   6   7
ENDBRANCH   2   6
TORSDOF 3
ENDMDL
MODEL      251
REMARK 921   NORMALIZED FREE ENERGY PREDICTED BY IDOCK:   -1.32 KCAL/MOL
REMARK 922        TOTAL FREE ENERGY PREDICTED BY IDOCK:   -1.74 KCAL/MOL
REMARK 923 INTER-LIGAND FREE ENERGY PREDICTED BY IDOCK:   -1.77 KCAL/MOL
REMARK 924 INTRA-LIGAND FREE ENERGY PREDICTED BY IDOCK:    0.03 KCAL/MOL
REMARK 927      BINDING AFFINITY PREDICTED BY RF-SCORE:    0.00 PKD
ROOT
HETATM    1  C   UNL     1     -11.792  14.518  68.252  1.00  0.00    -0.347 C  
HETATM    2  C   UNL     1     -11.140  13.915  69.488  1.00  0.00    -0.128 C  
HETATM    3  N   UNL     1     -12.005  12.910  70.109  1.00  0.00    -0.460 NA 
HETATM    4  H2  UNL     1     -12.281  12.189  69.442  1.00  0.00     0.000 HD 
HETATM    5  H1  UNL     1     -11.568  12.506  70.937  1.00  0.00     0.000 HD 
ENDROOT
BRANCH   2   6
HETATM    6  C   UNL     1      -9.731  13.368  69.198  1.00  0.00     0.430 C  
BRANCH   6   7
HETATM    7  O   UNL     1      -9.541  12.795  67.910  1.00  0.00    -0.198 OA 
BRANCH   7   8
HETATM    8  C   UNL     1      -8.674  11.719  67.825  1.00  0.00    -0.155 A  
HETATM    9  C   UNL     1      -7.402  11.557  68.436  1.00  0.00    -0.097 A  
HETATM   10  C   UNL     1      -6.688  10.356  68.213  1.00  0.00    -0.061 A  
HETATM   11  C   UNL     1      -6.592  12.546  69.242  1.00  0.00    -0.089 C  
HETATM   12  C   UNL     1      -7.196   9.325  67.431  1.00  0.00    -0.080 A  
HETATM   13  C   UNL     1      -8.427   9.489  66.816  1.00  0.00    -0.129 A  
HETATM   14  C   UNL     1      -9.169  10.670  66.995  1.00  0.00    -0.167 A  
HETATM   15  C   UNL     1     -10.486  10.790  66.255  1.00  0.00    -0.287 C  
ENDBRANCH   7   8
ENDBRANCH   6   7
ENDBRANCH   2   6
TORSDOF 3
ENDMDL
MODEL      252
REMARK 921   NORMALIZED FREE ENERGY PREDICTED BY IDOCK:   -1.22 KCAL/MOL
REMARK 922        TOTAL FREE ENERGY PREDICTED BY IDOCK:   -1.62 KCAL/MOL
REMARK 923 INTER-LIGAND FREE ENERGY PREDICTED BY IDOCK:   -1.46 KCAL/MOL
REMARK 924 INTRA-LIGAND FREE ENERGY PREDICTED BY IDOCK:   -0.16 KCAL/MOL
REMARK 927      BINDING AFFINITY PREDICTED BY RF-SCORE:    0.00 PKD
ROOT
HETATM    1  C   UNL     1      -9.689   5.266  72.109  1.00  0.00    -0.202 C  
HETATM    2  C   UNL     1      -8.772   6.474  71.983  1.00  0.00    -0.132 C  
HETATM    3  N   UNL     1      -7.820   6.539  73.094  1.00  0.00    -0.100 NA 
HETATM    4  H2  UNL     1      -7.288   5.673  73.182  1.00  0.00     0.000 HD 
HETATM    5  H1  UNL     1      -7.207   7.349  73.010  1.00  0.00     0.000 HD 
ENDROOT
BRANCH   2   6
HETATM    6  C   UNL     1      -8.070   6.536  70.614  1.00  0.00    -0.113 C  
BRANCH   6   7
HETATM    7  O   UNL     1      -8.890   6.913  69.514  1.00  0.00    -0.133 OA 
BRANCH   7   8
HETATM    8  C   UNL     1      -8.242   7.228  68.331  1.00  0.00    -0.125 A  
HETATM    9  C   UNL     1      -7.399   8.336  68.052  1.00  0.00    -0.096 A  
HETATM   10  C   UNL     1      -6.834   8.451  66.760  1.00  0.00    -0.069 A  
HETATM   11  C   UNL     1      -7.069   9.532  68.914  1.00  0.00    -0.067 C  
HETATM   12  C   UNL     1      -7.063   7.510  65.762  1.00  0.00    -0.065 A  
HETATM   13  C   UNL     1      -7.903   6.440  66.025  1.00  0.00    -0.103 A  
HETATM   14  C   UNL     1      -8.500   6.288  67.289  1.00  0.00    -0.108 A  
HETATM   15  C   UNL     1      -9.439   5.115  67.486  1.00  0.00    -0.146 C  
ENDBRANCH   7   8
ENDBRANCH   6   7
ENDBRANCH   2   6
TORSDOF 3
ENDMDL
MODEL      253
REMARK 921   NORMALIZED FREE ENERGY PREDICTED BY IDOCK:   -1.17 KCAL/MOL
REMARK 922        TOTAL FREE ENERGY PREDICTED BY IDOCK:   -1.56 KCAL/MOL
REMARK 923 INTER-LIGAND FREE ENERGY PREDICTED BY IDOCK:   -1.75 KCAL/MOL
REMARK 924 INTRA-LIGAND FREE ENERGY PREDICTED BY IDOCK:    0.18 KCAL/MOL
REMARK 927      BINDING AFFINITY PREDICTED BY RF-SCORE:    0.00 PKD
ROOT
HETATM    1  C   UNL     1      -5.496   7.175  69.723  1.00  0.00    -0.022 C  
HETATM    2  C   UNL     1      -6.563   7.943  70.488  1.00  0.00    -0.037 C  
HETATM    3  N   UNL     1      -7.562   8.513  69.581  1.00  0.00    -0.086 NA 
HETATM    4  H2  UNL     1      -7.974   7.799  68.981  1.00  0.00     0.000 HD 
HETATM    5  H1  UNL     1      -8.277   9.029  70.094  1.00  0.00     0.000 HD 
ENDROOT
BRANCH   2   6
HETATM    6  C   UNL     1      -7.207   7.098  71.602  1.00  0.00    -0.073 C  
BRANCH   6   7
HETATM    7  O   UNL     1      -8.592   6.814  71.443  1.00  0.00    -0.123 OA 
BRANCH   7   8
HETATM    8  C   UNL     1      -9.000   5.518  71.711  1.00  0.00    -0.136 A  
HETATM    9  C   UNL     1      -9.340   4.490  70.792  1.00  0.00    -0.218 A  
HETATM   10  C   UNL     1      -9.725   3.226  71.298  1.00  0.00    -0.222 A  
HETATM   11  C   UNL     1      -9.468   4.552  69.287  1.00  0.00    -0.242 C  
HETATM   12  C   UNL     1      -9.765   2.953  72.660  1.00  0.00    -0.191 A  
HETATM   13  C   UNL     1      -9.455   3.961  73.559  1.00  0.00    -0.126 A  
HETATM   14  C   UNL     1      -9.080   5.238  73.107  1.00  0.00    -0.127 A  
HETATM   15  C   UNL     1      -8.797   6.298  74.152  1.00  0.00    -0.143 C  
ENDBRANCH   7   8
ENDBRANCH   6   7
ENDBRANCH   2   6
TORSDOF 3
ENDMDL
MODEL      254
REMARK 921   NORMALIZED FREE ENERGY PREDICTED BY IDOCK:   -1.15 KCAL/MOL
REMARK 922        TOTAL FREE ENERGY PREDICTED BY IDOCK:   -1.53 KCAL/MOL
REMARK 923 INTER-LIGAND FREE ENERGY PREDICTED BY IDOCK:   -1.72 KCAL/MOL
REMARK 924 INTRA-LIGAND FREE ENERGY PREDICTED BY IDOCK:    0.19 KCAL/MOL
REMARK 927      BINDING AFFINITY PREDICTED BY RF-SCORE:    0.00 PKD
ROOT
HETATM    1  C   UNL     1     -10.766   5.622  71.880  1.00  0.00    -0.299 C  
HETATM    2  C   UNL     1     -10.235   6.894  71.238  1.00  0.00    -0.198 C  
HETATM    3  N   UNL     1     -11.203   7.989  71.345  1.00  0.00    -0.246 NA 
HETATM    4  H2  UNL     1     -11.484   8.147  72.313  1.00  0.00     0.000 HD 
HETATM    5  H1  UNL     1     -10.847   8.841  70.913  1.00  0.00     0.000 HD 
ENDROOT
BRANCH   2   6
HETATM    6  C   UNL     1      -8.850   7.291  71.781  1.00  0.00    -0.116 C  
BRANCH   6   7
HETATM    7  O   UNL     1      -8.099   8.184  70.969  1.00  0.00    -0.090 OA 
BRANCH   7   8
HETATM    8  C   UNL     1      -7.906   7.818  69.647  1.00  0.00    -0.107 A  
HETATM    9  C   UNL     1      -8.511   8.359  68.482  1.00  0.00    -0.132 A  
HETATM   10  C   UNL     1      -8.152   7.828  67.221  1.00  0.00    -0.119 A  
HETATM   11  C   UNL     1      -9.609   9.390  68.361  1.00  0.00    -0.157 C  
HETATM   12  C   UNL     1      -7.217   6.808  67.083  1.00  0.00    -0.085 A  
HETATM   13  C   UNL     1      -6.642   6.263  68.220  1.00  0.00    -0.062 A  
HETATM   14  C   UNL     1      -6.976   6.747  69.498  1.00  0.00    -0.067 A  
HETATM   15  C   UNL     1      -6.335   6.072  70.693  1.00  0.00    -0.039 C  
ENDBRANCH   7   8
ENDBRANCH   6   7
ENDBRANCH   2   6
TORSDOF 3
ENDMDL
MODEL      255
REMARK 921   NORMALIZED FREE ENERGY PREDICTED BY IDOCK:   -0.86 KCAL/MOL
REMARK 922        TOTAL FREE ENERGY PREDICTED BY IDOCK:   -1.20 KCAL/MOL
REMARK 923 INTER-LIGAND FREE ENERGY PREDICTED BY IDOCK:   -1.07 KCAL/MOL
REMARK 924 INTRA-LIGAND FREE ENERGY PREDICTED BY IDOCK:   -0.12 KCAL/MOL
REMARK 927      BINDING AFFINITY PREDICTED BY RF-SCORE:    0.00 PKD
ROOT
HETATM    1  C   UNL     1      -7.122   4.391  65.783  1.00  0.00    -0.071 C  
HETATM    2  C   UNL     1      -6.804   4.027  67.226  1.00  0.00    -0.051 C  
HETATM    3  N   UNL     1      -5.360   3.886  67.434  1.00  0.00    -0.012 NA 
HETATM    4  H2  UNL     1      -4.856   4.723  67.139  1.00  0.00     0.000 HD 
HETATM    5  H1  UNL     1      -5.147   3.642  68.400  1.00  0.00     0.000 HD 
ENDROOT
BRANCH   2   6
HETATM    6  C   UNL     1      -7.441   5.004  68.230  1.00  0.00    -0.075 C  
BRANCH   6   7
HETATM    7  O   UNL     1      -8.639   4.559  68.854  1.00  0.00    -0.083 OA 
BRANCH   7   8
HETATM    8  C   UNL     1      -8.515   3.975  70.103  1.00  0.00    -0.064 A  
HETATM    9  C   UNL     1      -8.201   4.594  71.342  1.00  0.00    -0.102 A  
HETATM   10  C   UNL     1      -8.136   3.792  72.506  1.00  0.00    -0.081 A  
HETATM   11  C   UNL     1      -7.800   6.023  71.627  1.00  0.00    -0.102 C  
HETATM   12  C   UNL     1      -8.385   2.424  72.480  1.00  0.00    -0.059 A  
HETATM   13  C   UNL     1      -8.670   1.814  71.269  1.00  0.00    -0.099 A  
HETATM   14  C   UNL     1      -8.732   2.565  70.082  1.00  0.00    -0.125 A  
HETATM   15  C   UNL     1      -9.008   1.819  68.793  1.00  0.00    -0.152 C  
ENDBRANCH   7   8
ENDBRANCH   6   7
ENDBRANCH   2   6
TORSDOF 3
ENDMDL
MODEL      256
REMARK 921   NORMALIZED FREE ENERGY PREDICTED BY IDOCK:   14.57 KCAL/MOL
REMARK 922        TOTAL FREE ENERGY PREDICTED BY IDOCK:   16.94 KCAL/MOL
REMARK 923 INTER-LIGAND FREE ENERGY PREDICTED BY IDOCK:   14.58 KCAL/MOL
REMARK 924 INTRA-LIGAND FREE ENERGY PREDICTED BY IDOCK:    2.36 KCAL/MOL
REMARK 927      BINDING AFFINITY PREDICTED BY RF-SCORE:    0.00 PKD
ROOT
HETATM    1  C   UNL     1      -9.006   8.196  65.395  1.00  0.00    -0.024 C  
HETATM    2  C   UNL     1     -10.034   7.151  64.987  1.00  0.00     2.833 C  
HETATM    3  N   UNL     1     -10.865   7.627  63.879  1.00  0.00    11.169 NA 
HETATM    4  H2  UNL     1     -10.297   7.923  63.085  1.00  0.00     0.000 HD 
HETATM    5  H1  UNL     1     -11.554   6.927  63.606  1.00  0.00     0.000 HD 
ENDROOT
BRANCH   2   6
HETATM    6  C   UNL     1      -9.392   5.785  64.685  1.00  0.00     0.681 C  
BRANCH   6   7
HETATM    7  O   UNL     1      -8.691   5.177  65.764  1.00  0.00    -0.129 OA 
BRANCH   7   8
HETATM    8  C   UNL     1      -8.908   5.703  67.027  1.00  0.00    -0.111 A  
HETATM    9  C   UNL     1      -7.962   6.258  67.928  1.00  0.00    -0.111 A  
HETATM   10  C   UNL     1      -8.418   6.747  69.175  1.00  0.00    -0.128 A  
HETATM   11  C   UNL     1      -6.456   6.322  67.821  1.00  0.00    -0.049 C  
HETATM   12  C   UNL     1      -9.759   6.719  69.539  1.00  0.00    -0.154 A  
HETATM   13  C   UNL     1     -10.681   6.158  68.670  1.00  0.00    -0.370 A  
HETATM   14  C   UNL     1     -10.277   5.645  67.424  1.00  0.00    -0.249 A  
HETATM   15  C   UNL     1     -11.338   5.011  66.549  1.00  0.00     1.222 C  
ENDBRANCH   7   8
ENDBRANCH   6   7
ENDBRANCH   2   6
TORSDOF 3
ENDMDL
