MODEL        1
REMARK 921   NORMALIZED FREE ENERGY PREDICTED BY IDOCK:   -8.07 KCAL/MOL
REMARK 922        TOTAL FREE ENERGY PREDICTED BY IDOCK:  -12.89 KCAL/MOL
REMARK 923 INTER-LIGAND FREE ENERGY PREDICTED BY IDOCK:  -11.37 KCAL/MOL
REMARK 924 INTRA-LIGAND FREE ENERGY PREDICTED BY IDOCK:   -1.52 KCAL/MOL
REMARK 927      BINDING AFFINITY PREDICTED BY RF-SCORE:    0.00 PKD
ROOT
HETATM    1  C   UNL     1     -11.106   7.699  70.721  1.00  0.00    -0.264 C  
HETATM    2  S   UNL     1     -10.897   7.938  68.917  1.00  0.00     0.116 SA 
HETATM    3  C   UNL     1      -9.069   7.662  68.923  1.00  0.00    -0.140 C  
HETATM    4  CA  UNL     1      -8.774   6.878  70.226  1.00  0.00    -0.144 C  
HETATM    5  C   UNL     1      -8.399   9.050  68.923  1.00  0.00    -0.125 C  
HETATM    6  C   UNL     1      -8.660   6.961  67.623  1.00  0.00    -0.121 C  
HETATM    7  C   UNL     1      -8.806   5.345  70.088  1.00  0.00    -0.127 C  
HETATM    8  N   UNL     1      -9.773   7.297  71.228  1.00  0.00    -0.166 N  
HETATM    9  OXT UNL     1      -8.084   4.701  69.339  1.00  0.00    -0.069 OA 
HETATM   10  O   UNL     1      -9.685   4.731  70.921  1.00  0.00    -0.164 OA 
HETATM   11  C   UNL     1      -9.577   8.480  71.900  1.00  0.00    -0.283 C  
HETATM   12  CA  UNL     1     -11.029   8.944  71.641  1.00  0.00    -0.345 C  
HETATM   13  O   UNL     1      -8.563   8.977  72.330  1.00  0.00    -0.362 OA 
ENDROOT
BRANCH  12  14
HETATM   14  N   UNL     1     -11.198  10.274  71.000  1.00  0.00    -0.316 N  
HETATM   15  C   UNL     1     -12.324  11.036  71.240  1.00  0.00    -0.321 C  
HETATM   16  H   UNL     1     -10.474  10.628  70.374  1.00  0.00     0.000 HD 
HETATM   17  O   UNL     1     -13.211  10.615  71.985  1.00  0.00    -0.473 OA 
BRANCH  15  18
HETATM   18  CA  UNL     1     -12.486  12.334  70.412  1.00  0.00    -0.141 C  
BRANCH  18  19
HETATM   19  N   UNL     1     -11.383  12.417  69.458  1.00  0.00    -0.448 N  
HETATM   20  H   UNL     1     -10.443  12.604  69.805  1.00  0.00     0.000 HD 
BRANCH  19  21
HETATM   21  C   UNL     1     -11.572  12.251  68.119  1.00  0.00    -0.339 C  
HETATM   22  O   UNL     1     -11.697  11.142  67.600  1.00  0.00    -0.573 OA 
BRANCH  21  23
HETATM   23  N   UNL     1     -11.617  13.404  67.368  1.00  0.00    -0.333 N  
HETATM   24  C   UNL     1     -11.807  14.454  65.255  1.00  0.00    -0.373 C  
HETATM   25  N   UNL     1     -10.912  15.170  66.172  1.00  0.00    -0.335 N  
HETATM   26  C   UNL     1     -12.520  13.528  66.236  1.00  0.00    -0.326 C  
HETATM   27  O   UNL     1      -9.918  14.748  68.247  1.00  0.00    -0.212 OA 
HETATM   28  C   UNL     1     -10.719  14.470  67.375  1.00  0.00    -0.282 C  
BRANCH  25  29
HETATM   29  S   UNL     1     -10.258  16.630  65.748  1.00  0.00    -0.260 S  
HETATM   30  O   UNL     1      -8.824  16.454  65.653  1.00  0.00    -0.406 OA 
HETATM   31  C   UNL     1     -10.566  17.655  67.173  1.00  0.00    -0.276 C  
HETATM   32  O   UNL     1     -11.008  17.166  64.636  1.00  0.00    -1.005 OA 
ENDBRANCH  25  29
ENDBRANCH  21  23
ENDBRANCH  19  21
ENDBRANCH  18  19
BRANCH  18  33
HETATM   33  C   UNL     1     -12.627  13.599  71.245  1.00  0.00    -0.435 A  
HETATM   34  C   UNL     1     -12.840  15.993  72.713  1.00  0.00    -0.527 A  
HETATM   35  C   UNL     1     -11.596  14.559  71.219  1.00  0.00    -0.174 A  
HETATM   36  C   UNL     1     -11.702  15.742  71.951  1.00  0.00    -0.572 A  
HETATM   37  C   UNL     1     -13.875  15.060  72.742  1.00  0.00    -0.472 A  
HETATM   38  C   UNL     1     -13.770  13.872  72.016  1.00  0.00    -0.577 A  
ENDBRANCH  18  33
ENDBRANCH  15  18
ENDBRANCH  12  14
TORSDOF 7
ENDMDL
MODEL        2
REMARK 921   NORMALIZED FREE ENERGY PREDICTED BY IDOCK:   -8.00 KCAL/MOL
REMARK 922        TOTAL FREE ENERGY PREDICTED BY IDOCK:  -12.79 KCAL/MOL
REMARK 923 INTER-LIGAND FREE ENERGY PREDICTED BY IDOCK:  -11.36 KCAL/MOL
REMARK 924 INTRA-LIGAND FREE ENERGY PREDICTED BY IDOCK:   -1.42 KCAL/MOL
REMARK 927      BINDING AFFINITY PREDICTED BY RF-SCORE:    0.00 PKD
ROOT
HETATM    1  C   UNL     1     -10.580   8.685  68.964  1.00  0.00    -0.160 C  
HETATM    2  S   UNL     1      -9.837   9.479  67.490  1.00  0.00    -0.178 SA 
HETATM    3  C   UNL     1      -8.087   9.240  68.037  1.00  0.00    -0.104 C  
HETATM    4  CA  UNL     1      -8.131   8.092  69.076  1.00  0.00    -0.115 C  
HETATM    5  C   UNL     1      -7.622  10.568  68.666  1.00  0.00    -0.099 C  
HETATM    6  C   UNL     1      -7.205   8.986  66.810  1.00  0.00    -0.086 C  
HETATM    7  C   UNL     1      -7.936   6.679  68.499  1.00  0.00    -0.118 C  
HETATM    8  N   UNL     1      -9.440   8.164  69.755  1.00  0.00    -0.159 N  
HETATM    9  OXT UNL     1      -6.942   6.311  67.888  1.00  0.00    -0.067 OA 
HETATM   10  O   UNL     1      -8.955   5.823  68.768  1.00  0.00    -0.116 OA 
HETATM   11  C   UNL     1      -9.611   9.080  70.765  1.00  0.00    -0.249 C  
HETATM   12  CA  UNL     1     -10.949   9.581  70.175  1.00  0.00    -0.262 C  
HETATM   13  O   UNL     1      -8.853   9.432  71.638  1.00  0.00    -0.243 OA 
ENDROOT
BRANCH  12  14
HETATM   14  N   UNL     1     -11.061  11.043  69.927  1.00  0.00    -0.420 N  
HETATM   15  C   UNL     1     -12.082  11.779  70.495  1.00  0.00    -0.347 C  
HETATM   16  H   UNL     1     -10.376  11.508  69.331  1.00  0.00     0.000 HD 
HETATM   17  O   UNL     1     -12.923  11.227  71.209  1.00  0.00    -0.381 OA 
BRANCH  15  18
HETATM   18  CA  UNL     1     -12.210  13.258  70.060  1.00  0.00    -0.275 C  
BRANCH  18  19
HETATM   19  N   UNL     1     -10.950  13.673  69.448  1.00  0.00    -0.426 N  
HETATM   20  H   UNL     1     -10.106  13.137  69.644  1.00  0.00     0.000 HD 
BRANCH  19  21
HETATM   21  C   UNL     1     -10.870  14.755  68.623  1.00  0.00    -0.253 C  
HETATM   22  O   UNL     1     -10.776  15.905  69.048  1.00  0.00    -0.222 OA 
BRANCH  21  23
HETATM   23  N   UNL     1     -10.900  14.488  67.273  1.00  0.00    -0.291 N  
HETATM   24  C   UNL     1     -11.223  15.245  65.052  1.00  0.00    -0.403 C  
HETATM   25  N   UNL     1     -11.688  13.868  65.262  1.00  0.00    -0.327 N  
HETATM   26  C   UNL     1     -10.378  15.442  66.307  1.00  0.00    -0.294 C  
HETATM   27  O   UNL     1     -12.047  12.460  67.096  1.00  0.00    -0.532 OA 
HETATM   28  C   UNL     1     -11.598  13.480  66.610  1.00  0.00    -0.363 C  
BRANCH  25  29
HETATM   29  S   UNL     1     -12.234  12.957  63.994  1.00  0.00    -0.428 S  
HETATM   30  O   UNL     1     -13.323  12.137  64.483  1.00  0.00    -0.691 OA 
HETATM   31  C   UNL     1     -10.870  11.864  63.647  1.00  0.00    -0.444 C  
HETATM   32  O   UNL     1     -12.422  13.821  62.852  1.00  0.00    -0.601 OA 
ENDBRANCH  25  29
ENDBRANCH  21  23
ENDBRANCH  19  21
ENDBRANCH  18  19
BRANCH  18  33
HETATM   33  C   UNL     1     -12.654  14.204  71.166  1.00  0.00    -0.439 A  
HETATM   34  C   UNL     1     -13.386  16.000  73.207  1.00  0.00    -0.625 A  
HETATM   35  C   UNL     1     -11.709  14.654  72.109  1.00  0.00    -0.098 A  
HETATM   36  C   UNL     1     -12.075  15.539  73.122  1.00  0.00    -0.591 A  
HETATM   37  C   UNL     1     -14.332  15.576  72.277  1.00  0.00    -0.556 A  
HETATM   38  C   UNL     1     -13.972  14.684  71.265  1.00  0.00    -0.400 A  
ENDBRANCH  18  33
ENDBRANCH  15  18
ENDBRANCH  12  14
TORSDOF 7
ENDMDL
MODEL        3
REMARK 921   NORMALIZED FREE ENERGY PREDICTED BY IDOCK:   -7.95 KCAL/MOL
REMARK 922        TOTAL FREE ENERGY PREDICTED BY IDOCK:  -12.73 KCAL/MOL
REMARK 923 INTER-LIGAND FREE ENERGY PREDICTED BY IDOCK:  -11.36 KCAL/MOL
REMARK 924 INTRA-LIGAND FREE ENERGY PREDICTED BY IDOCK:   -1.37 KCAL/MOL
REMARK 927      BINDING AFFINITY PREDICTED BY RF-SCORE:    0.00 PKD
ROOT
HETATM    1  C   UNL     1     -11.840   6.754  72.052  1.00  0.00    -0.314 C  
HETATM    2  S   UNL     1     -11.403   6.556  70.284  1.00  0.00    -0.415 SA 
HETATM    3  C   UNL     1      -9.688   5.945  70.604  1.00  0.00    -0.176 C  
HETATM    4  CA  UNL     1      -9.703   5.417  72.060  1.00  0.00    -0.161 C  
HETATM    5  C   UNL     1      -8.738   7.146  70.437  1.00  0.00    -0.150 C  
HETATM    6  C   UNL     1      -9.312   4.916  69.532  1.00  0.00    -0.190 C  
HETATM    7  C   UNL     1     -10.052   3.925  72.212  1.00  0.00    -0.164 C  
HETATM    8  N   UNL     1     -10.684   6.224  72.811  1.00  0.00    -0.231 N  
HETATM    9  OXT UNL     1      -9.414   3.010  71.710  1.00  0.00    -0.115 OA 
HETATM   10  O   UNL     1     -11.122   3.684  73.012  1.00  0.00    -0.116 OA 
HETATM   11  C   UNL     1     -10.306   7.465  73.268  1.00  0.00    -0.355 C  
HETATM   12  CA  UNL     1     -11.589   8.131  72.721  1.00  0.00    -0.304 C  
HETATM   13  O   UNL     1      -9.257   7.839  73.737  1.00  0.00    -0.269 OA 
ENDROOT
BRANCH  12  14
HETATM   14  N   UNL     1     -11.401   9.299  71.822  1.00  0.00    -0.385 N  
HETATM   15  C   UNL     1     -12.450  10.152  71.543  1.00  0.00    -0.427 C  
HETATM   16  H   UNL     1     -10.486   9.473  71.405  1.00  0.00     0.000 HD 
HETATM   17  O   UNL     1     -13.564   9.947  72.031  1.00  0.00    -0.384 OA 
BRANCH  15  18
HETATM   18  CA  UNL     1     -12.203  11.248  70.479  1.00  0.00    -0.383 C  
BRANCH  18  19
HETATM   19  N   UNL     1     -10.798  11.204  70.084  1.00  0.00    -0.415 N  
HETATM   20  H   UNL     1     -10.089  11.524  70.743  1.00  0.00     0.000 HD 
BRANCH  19  21
HETATM   21  C   UNL     1     -10.405  10.747  68.862  1.00  0.00    -0.202 C  
HETATM   22  O   UNL     1     -10.172   9.559  68.643  1.00  0.00    -0.181 OA 
BRANCH  21  23
HETATM   23  N   UNL     1     -10.280  11.697  67.874  1.00  0.00    -0.185 N  
HETATM   24  C   UNL     1      -9.892  13.947  67.247  1.00  0.00    -0.244 C  
HETATM   25  N   UNL     1     -10.854  13.267  66.372  1.00  0.00    -0.286 N  
HETATM   26  C   UNL     1      -9.280  12.749  67.966  1.00  0.00    -0.208 C  
HETATM   27  O   UNL     1     -12.031  11.244  66.393  1.00  0.00    -0.076 OA 
HETATM   28  C   UNL     1     -11.161  11.974  66.829  1.00  0.00    -0.322 C  
BRANCH  25  29
HETATM   29  S   UNL     1     -11.450  14.017  65.023  1.00  0.00    -0.363 S  
HETATM   30  O   UNL     1     -10.912  13.328  63.868  1.00  0.00    -0.350 OA 
HETATM   31  C   UNL     1     -10.690  15.629  65.072  1.00  0.00    -0.436 C  
HETATM   32  O   UNL     1     -12.876  14.185  65.180  1.00  0.00    -0.686 OA 
ENDBRANCH  25  29
ENDBRANCH  21  23
ENDBRANCH  19  21
ENDBRANCH  18  19
BRANCH  18  33
HETATM   33  C   UNL     1     -12.643  12.643  70.898  1.00  0.00    -0.338 A  
HETATM   34  C   UNL     1     -13.471  15.247  71.575  1.00  0.00    -0.577 A  
HETATM   35  C   UNL     1     -12.321  13.742  70.077  1.00  0.00    -0.364 A  
HETATM   36  C   UNL     1     -12.729  15.032  70.418  1.00  0.00    -0.371 A  
HETATM   37  C   UNL     1     -13.808  14.172  72.394  1.00  0.00    -0.638 A  
HETATM   38  C   UNL     1     -13.397  12.880  72.060  1.00  0.00    -0.579 A  
ENDBRANCH  18  33
ENDBRANCH  15  18
ENDBRANCH  12  14
TORSDOF 7
ENDMDL
MODEL        4
REMARK 921   NORMALIZED FREE ENERGY PREDICTED BY IDOCK:   -7.95 KCAL/MOL
REMARK 922        TOTAL FREE ENERGY PREDICTED BY IDOCK:  -12.72 KCAL/MOL
REMARK 923 INTER-LIGAND FREE ENERGY PREDICTED BY IDOCK:  -11.35 KCAL/MOL
REMARK 924 INTRA-LIGAND FREE ENERGY PREDICTED BY IDOCK:   -1.37 KCAL/MOL
REMARK 927      BINDING AFFINITY PREDICTED BY RF-SCORE:    0.00 PKD
ROOT
HETATM    1  C   UNL     1     -10.887  17.213  67.982  1.00  0.00    -0.317 C  
HETATM    2  S   UNL     1      -9.500  16.665  69.047  1.00  0.00    -0.197 SA 
HETATM    3  C   UNL     1      -8.174  17.141  67.850  1.00  0.00    -0.202 C  
HETATM    4  CA  UNL     1      -8.823  18.183  66.906  1.00  0.00    -0.267 C  
HETATM    5  C   UNL     1      -7.760  15.861  67.097  1.00  0.00    -0.247 C  
HETATM    6  C   UNL     1      -6.945  17.628  68.626  1.00  0.00    -0.237 C  
HETATM    7  C   UNL     1      -8.675  19.650  67.349  1.00  0.00    -0.310 C  
HETATM    8  N   UNL     1     -10.257  17.849  66.801  1.00  0.00    -0.345 N  
HETATM    9  OXT UNL     1      -7.605  20.219  67.515  1.00  0.00    -0.284 OA 
HETATM   10  O   UNL     1      -9.854  20.306  67.500  1.00  0.00    -0.400 OA 
HETATM   11  C   UNL     1     -10.639  16.842  65.947  1.00  0.00    -0.233 C  
HETATM   12  CA  UNL     1     -11.530  16.178  67.022  1.00  0.00     0.362 C  
HETATM   13  O   UNL     1     -10.231  16.552  64.848  1.00  0.00    -0.486 OA 
ENDROOT
BRANCH  12  14
HETATM   14  N   UNL     1     -11.274  14.741  67.303  1.00  0.00    -0.336 N  
HETATM   15  C   UNL     1     -11.939  13.755  66.602  1.00  0.00    -0.431 C  
HETATM   16  H   UNL     1     -10.600  14.480  68.023  1.00  0.00     0.000 HD 
HETATM   17  O   UNL     1     -12.765  14.057  65.738  1.00  0.00    -0.516 OA 
BRANCH  15  18
HETATM   18  CA  UNL     1     -11.725  12.294  67.067  1.00  0.00    -0.329 C  
BRANCH  18  19
HETATM   19  N   UNL     1     -11.288  12.310  68.461  1.00  0.00    -0.261 N  
HETATM   20  H   UNL     1     -10.436  12.814  68.706  1.00  0.00     0.000 HD 
BRANCH  19  21
HETATM   21  C   UNL     1     -11.985  11.672  69.443  1.00  0.00    -0.316 C  
HETATM   22  O   UNL     1     -12.399  10.520  69.319  1.00  0.00    -0.234 OA 
BRANCH  21  23
HETATM   23  N   UNL     1     -12.203  12.393  70.595  1.00  0.00    -0.352 N  
HETATM   24  C   UNL     1     -13.598  12.926  72.432  1.00  0.00    -0.478 C  
HETATM   25  N   UNL     1     -12.834  14.079  71.940  1.00  0.00    -0.338 N  
HETATM   26  C   UNL     1     -12.847  11.788  71.750  1.00  0.00    -0.298 C  
HETATM   27  O   UNL     1     -11.507  14.563  70.074  1.00  0.00    -0.261 OA 
HETATM   28  C   UNL     1     -12.105  13.772  70.778  1.00  0.00    -0.319 C  
BRANCH  25  29
HETATM   29  S   UNL     1     -12.885  15.530  72.733  1.00  0.00    -0.490 S  
HETATM   30  O   UNL     1     -11.788  16.336  72.239  1.00  0.00    -0.510 OA 
HETATM   31  C   UNL     1     -12.501  15.099  74.419  1.00  0.00    -0.403 C  
HETATM   32  O   UNL     1     -14.240  16.030  72.692  1.00  0.00    -0.450 OA 
ENDBRANCH  25  29
ENDBRANCH  21  23
ENDBRANCH  19  21
ENDBRANCH  18  19
BRANCH  18  33
HETATM   33  C   UNL     1     -10.795  11.481  66.179  1.00  0.00    -0.330 A  
HETATM   34  C   UNL     1      -9.117   9.890  64.572  1.00  0.00    -0.296 A  
HETATM   35  C   UNL     1     -10.280  10.260  66.657  1.00  0.00    -0.294 A  
HETATM   36  C   UNL     1      -9.444   9.477  65.861  1.00  0.00    -0.307 A  
HETATM   37  C   UNL     1      -9.626  11.089  64.078  1.00  0.00    -0.310 A  
HETATM   38  C   UNL     1     -10.458  11.880  64.874  1.00  0.00    -0.331 A  
ENDBRANCH  18  33
ENDBRANCH  15  18
ENDBRANCH  12  14
TORSDOF 7
ENDMDL
MODEL        5
REMARK 921   NORMALIZED FREE ENERGY PREDICTED BY IDOCK:   -7.88 KCAL/MOL
REMARK 922        TOTAL FREE ENERGY PREDICTED BY IDOCK:  -12.62 KCAL/MOL
REMARK 923 INTER-LIGAND FREE ENERGY PREDICTED BY IDOCK:  -10.85 KCAL/MOL
REMARK 924 INTRA-LIGAND FREE ENERGY PREDICTED BY IDOCK:   -1.77 KCAL/MOL
REMARK 927      BINDING AFFINITY PREDICTED BY RF-SCORE:    0.00 PKD
ROOT
HETATM    1  C   UNL     1     -10.639   8.694  69.200  1.00  0.00    -0.178 C  
HETATM    2  S   UNL     1     -10.659   9.313  67.476  1.00  0.00    -0.211 SA 
HETATM    3  C   UNL     1      -8.833   9.168  67.227  1.00  0.00    -0.124 C  
HETATM    4  CA  UNL     1      -8.349   8.154  68.294  1.00  0.00    -0.126 C  
HETATM    5  C   UNL     1      -8.230  10.569  67.449  1.00  0.00    -0.118 C  
HETATM    6  C   UNL     1      -8.552   8.778  65.771  1.00  0.00    -0.185 C  
HETATM    7  C   UNL     1      -8.329   6.684  67.839  1.00  0.00    -0.119 C  
HETATM    8  N   UNL     1      -9.239   8.290  69.464  1.00  0.00    -0.157 N  
HETATM    9  OXT UNL     1      -7.675   6.259  66.897  1.00  0.00    -0.097 OA 
HETATM   10  O   UNL     1      -9.074   5.854  68.612  1.00  0.00    -0.116 OA 
HETATM   11  C   UNL     1      -9.016   9.320  70.347  1.00  0.00    -0.239 C  
HETATM   12  CA  UNL     1     -10.508   9.727  70.350  1.00  0.00    -0.297 C  
HETATM   13  O   UNL     1      -7.981   9.786  70.760  1.00  0.00    -0.288 OA 
ENDROOT
BRANCH  12  14
HETATM   14  N   UNL     1     -10.811  11.145  70.027  1.00  0.00    -0.456 N  
HETATM   15  C   UNL     1     -11.927  11.766  70.552  1.00  0.00    -0.289 C  
HETATM   16  H   UNL     1     -10.188  11.667  69.411  1.00  0.00     0.000 HD 
HETATM   17  O   UNL     1     -12.695  11.144  71.289  1.00  0.00    -0.397 OA 
BRANCH  15  18
HETATM   18  CA  UNL     1     -12.247  13.191  70.040  1.00  0.00    -0.253 C  
BRANCH  18  19
HETATM   19  N   UNL     1     -11.125  13.654  69.227  1.00  0.00    -0.378 N  
HETATM   20  H   UNL     1     -10.277  13.974  69.693  1.00  0.00     0.000 HD 
BRANCH  19  21
HETATM   21  C   UNL     1     -11.179  13.673  67.865  1.00  0.00    -0.274 C  
HETATM   22  O   UNL     1     -11.590  12.718  67.207  1.00  0.00    -0.319 OA 
BRANCH  21  23
HETATM   23  N   UNL     1     -10.744  14.829  67.260  1.00  0.00    -0.288 N  
HETATM   24  C   UNL     1      -9.047  16.012  66.107  1.00  0.00    -0.351 C  
HETATM   25  N   UNL     1      -9.824  16.865  67.014  1.00  0.00    -0.262 N  
HETATM   26  C   UNL     1      -9.952  14.786  66.040  1.00  0.00    -0.313 C  
HETATM   27  O   UNL     1     -11.409  16.541  68.705  1.00  0.00    -0.318 OA 
HETATM   28  C   UNL     1     -10.745  16.124  67.775  1.00  0.00    -0.325 C  
BRANCH  25  29
HETATM   29  S   UNL     1      -9.575  18.500  67.060  1.00  0.00    -0.310 S  
HETATM   30  O   UNL     1      -8.628  18.826  66.014  1.00  0.00    -0.481 OA 
HETATM   31  C   UNL     1      -8.745  18.753  68.617  1.00  0.00    -0.325 C  
HETATM   32  O   UNL     1     -10.859  19.160  67.120  1.00  0.00    -0.464 OA 
ENDBRANCH  25  29
ENDBRANCH  21  23
ENDBRANCH  19  21
ENDBRANCH  18  19
BRANCH  18  33
HETATM   33  C   UNL     1     -12.619  14.184  71.131  1.00  0.00    -0.439 A  
HETATM   34  C   UNL     1     -13.390  15.963  73.173  1.00  0.00    -0.681 A  
HETATM   35  C   UNL     1     -13.979  14.457  71.379  1.00  0.00    -0.395 A  
HETATM   36  C   UNL     1     -14.358  15.342  72.388  1.00  0.00    -0.489 A  
HETATM   37  C   UNL     1     -12.041  15.697  72.950  1.00  0.00    -0.583 A  
HETATM   38  C   UNL     1     -11.657  14.816  71.937  1.00  0.00    -0.205 A  
ENDBRANCH  18  33
ENDBRANCH  15  18
ENDBRANCH  12  14
TORSDOF 7
ENDMDL
MODEL        6
REMARK 921   NORMALIZED FREE ENERGY PREDICTED BY IDOCK:   -7.85 KCAL/MOL
REMARK 922        TOTAL FREE ENERGY PREDICTED BY IDOCK:  -12.58 KCAL/MOL
REMARK 923 INTER-LIGAND FREE ENERGY PREDICTED BY IDOCK:  -11.29 KCAL/MOL
REMARK 924 INTRA-LIGAND FREE ENERGY PREDICTED BY IDOCK:   -1.29 KCAL/MOL
REMARK 927      BINDING AFFINITY PREDICTED BY RF-SCORE:    0.00 PKD
ROOT
HETATM    1  C   UNL     1      -8.960  18.585  67.904  1.00  0.00    -0.284 C  
HETATM    2  S   UNL     1      -7.508  17.774  68.671  1.00  0.00    -0.268 SA 
HETATM    3  C   UNL     1      -6.854  17.074  67.090  1.00  0.00    -0.179 C  
HETATM    4  CA  UNL     1      -7.486  17.932  65.965  1.00  0.00    -0.244 C  
HETATM    5  C   UNL     1      -7.311  15.604  67.019  1.00  0.00    -0.203 C  
HETATM    6  C   UNL     1      -5.322  17.071  67.136  1.00  0.00    -0.182 C  
HETATM    7  C   UNL     1      -6.661  19.158  65.534  1.00  0.00    -0.272 C  
HETATM    8  N   UNL     1      -8.808  18.379  66.445  1.00  0.00    -0.277 N  
HETATM    9  OXT UNL     1      -5.525  19.105  65.084  1.00  0.00    -0.161 OA 
HETATM   10  O   UNL     1      -7.321  20.338  65.644  1.00  0.00    -0.293 OA 
HETATM   11  C   UNL     1      -9.868  17.506  66.369  1.00  0.00    -0.309 C  
HETATM   12  CA  UNL     1     -10.291  17.791  67.829  1.00  0.00    -0.380 C  
HETATM   13  O   UNL     1     -10.165  16.710  65.512  1.00  0.00    -0.550 OA 
ENDROOT
BRANCH  12  14
HETATM   14  N   UNL     1     -10.430  16.613  68.724  1.00  0.00    -0.301 N  
HETATM   15  C   UNL     1     -11.492  15.742  68.586  1.00  0.00    -0.386 C  
HETATM   16  H   UNL     1      -9.731  16.444  69.448  1.00  0.00     0.000 HD 
HETATM   17  O   UNL     1     -12.349  15.940  67.722  1.00  0.00     0.638 OA 
BRANCH  15  18
HETATM   18  CA  UNL     1     -11.639  14.635  69.657  1.00  0.00    -0.307 C  
BRANCH  18  19
HETATM   19  N   UNL     1     -12.391  13.525  69.078  1.00  0.00    -0.228 N  
HETATM   20  H   UNL     1     -13.321  13.703  68.700  1.00  0.00     0.000 HD 
BRANCH  19  21
HETATM   21  C   UNL     1     -11.887  12.260  69.027  1.00  0.00    -0.305 C  
HETATM   22  O   UNL     1     -11.696  11.583  70.037  1.00  0.00    -0.311 OA 
BRANCH  21  23
HETATM   23  N   UNL     1     -11.600  11.774  67.772  1.00  0.00    -0.313 N  
HETATM   24  C   UNL     1     -10.130  10.615  66.322  1.00  0.00    -0.235 C  
HETATM   25  N   UNL     1     -10.844  11.711  65.657  1.00  0.00    -0.282 N  
HETATM   26  C   UNL     1     -10.959  10.481  67.595  1.00  0.00    -0.314 C  
HETATM   27  O   UNL     1     -12.192  13.506  66.318  1.00  0.00    -0.417 OA 
HETATM   28  C   UNL     1     -11.619  12.460  66.558  1.00  0.00    -0.387 C  
BRANCH  25  29
HETATM   29  S   UNL     1     -10.693  11.953  64.027  1.00  0.00    -0.419 S  
HETATM   30  O   UNL     1     -10.333  13.342  63.824  1.00  0.00    -0.248 OA 
HETATM   31  C   UNL     1     -12.356  11.750  63.418  1.00  0.00    -0.361 C  
HETATM   32  O   UNL     1      -9.878  10.895  63.477  1.00  0.00    -0.296 OA 
ENDBRANCH  25  29
ENDBRANCH  21  23
ENDBRANCH  19  21
ENDBRANCH  18  19
BRANCH  18  33
HETATM   33  C   UNL     1     -12.231  15.109  70.977  1.00  0.00    -0.393 A  
HETATM   34  C   UNL     1     -13.403  15.920  73.404  1.00  0.00    -0.609 A  
HETATM   35  C   UNL     1     -13.631  15.180  71.117  1.00  0.00    -0.525 A  
HETATM   36  C   UNL     1     -14.209  15.587  72.319  1.00  0.00    -0.617 A  
HETATM   37  C   UNL     1     -12.017  15.845  73.288  1.00  0.00    -0.553 A  
HETATM   38  C   UNL     1     -11.434  15.444  72.085  1.00  0.00    -0.525 A  
ENDBRANCH  18  33
ENDBRANCH  15  18
ENDBRANCH  12  14
TORSDOF 7
ENDMDL
MODEL        7
REMARK 921   NORMALIZED FREE ENERGY PREDICTED BY IDOCK:   -7.74 KCAL/MOL
REMARK 922        TOTAL FREE ENERGY PREDICTED BY IDOCK:  -12.43 KCAL/MOL
REMARK 923 INTER-LIGAND FREE ENERGY PREDICTED BY IDOCK:  -10.95 KCAL/MOL
REMARK 924 INTRA-LIGAND FREE ENERGY PREDICTED BY IDOCK:   -1.48 KCAL/MOL
REMARK 927      BINDING AFFINITY PREDICTED BY RF-SCORE:    0.00 PKD
ROOT
HETATM    1  C   UNL     1     -10.593  16.787  68.514  1.00  0.00    -0.354 C  
HETATM    2  S   UNL     1      -9.160  16.081  69.410  1.00  0.00    -0.107 SA 
HETATM    3  C   UNL     1      -7.886  16.795  68.276  1.00  0.00    -0.194 C  
HETATM    4  CA  UNL     1      -8.585  17.980  67.562  1.00  0.00    -0.244 C  
HETATM    5  C   UNL     1      -7.484  15.684  67.287  1.00  0.00    -0.257 C  
HETATM    6  C   UNL     1      -6.636  17.157  69.085  1.00  0.00    -0.231 C  
HETATM    7  C   UNL     1      -8.440  19.343  68.263  1.00  0.00    -0.341 C  
HETATM    8  N   UNL     1     -10.017  17.641  67.449  1.00  0.00    -0.309 N  
HETATM    9  OXT UNL     1      -7.373  19.894  68.493  1.00  0.00    -0.314 OA 
HETATM   10  O   UNL     1      -9.621  19.936  68.572  1.00  0.00    -0.337 OA 
HETATM   11  C   UNL     1     -10.418  16.800  66.437  1.00  0.00    -0.269 C  
HETATM   12  CA  UNL     1     -11.258  15.932  67.403  1.00  0.00    -0.134 C  
HETATM   13  O   UNL     1     -10.048  16.724  65.290  1.00  0.00    -0.577 OA 
ENDROOT
BRANCH  12  14
HETATM   14  N   UNL     1     -10.973  14.474  67.406  1.00  0.00    -0.295 N  
HETATM   15  C   UNL     1     -11.803  13.590  66.747  1.00  0.00    -0.406 C  
HETATM   16  H   UNL     1     -10.153  14.121  67.902  1.00  0.00     0.000 HD 
HETATM   17  O   UNL     1     -12.803  14.001  66.154  1.00  0.00    -0.394 OA 
BRANCH  15  18
HETATM   18  CA  UNL     1     -11.515  12.080  66.933  1.00  0.00    -0.337 C  
BRANCH  18  19
HETATM   19  N   UNL     1     -10.854  11.890  68.221  1.00  0.00    -0.212 N  
HETATM   20  H   UNL     1      -9.844  11.757  68.244  1.00  0.00     0.000 HD 
BRANCH  19  21
HETATM   21  C   UNL     1     -11.548  11.883  69.395  1.00  0.00    -0.325 C  
HETATM   22  O   UNL     1     -11.887  12.918  69.968  1.00  0.00    -0.326 OA 
BRANCH  21  23
HETATM   23  N   UNL     1     -11.852  10.644  69.910  1.00  0.00    -0.296 N  
HETATM   24  C   UNL     1     -12.546   9.312  71.740  1.00  0.00    -0.382 C  
HETATM   25  N   UNL     1     -11.572   8.635  70.876  1.00  0.00    -0.278 N  
HETATM   26  C   UNL     1     -12.961  10.466  70.833  1.00  0.00    -0.387 C  
HETATM   27  O   UNL     1     -10.164   9.240  69.108  1.00  0.00    -0.193 OA 
HETATM   28  C   UNL     1     -11.083   9.482  69.867  1.00  0.00    -0.216 C  
BRANCH  25  29
HETATM   29  S   UNL     1     -11.163   7.053  71.139  1.00  0.00    -0.284 S  
HETATM   30  O   UNL     1      -9.754   7.017  71.475  1.00  0.00    -0.166 OA 
HETATM   31  C   UNL     1     -11.336   6.304  69.531  1.00  0.00    -0.404 C  
HETATM   32  O   UNL     1     -12.143   6.463  72.020  1.00  0.00    -0.335 OA 
ENDBRANCH  25  29
ENDBRANCH  21  23
ENDBRANCH  19  21
ENDBRANCH  18  19
BRANCH  18  33
HETATM   33  C   UNL     1     -10.745  11.441  65.787  1.00  0.00    -0.309 A  
HETATM   34  C   UNL     1      -9.323  10.168  63.717  1.00  0.00    -0.336 A  
HETATM   35  C   UNL     1      -9.801  10.433  66.070  1.00  0.00    -0.289 A  
HETATM   36  C   UNL     1      -9.094   9.808  65.043  1.00  0.00    -0.280 A  
HETATM   37  C   UNL     1     -10.260  11.154  63.417  1.00  0.00    -0.435 A  
HETATM   38  C   UNL     1     -10.965  11.787  64.443  1.00  0.00    -0.397 A  
ENDBRANCH  18  33
ENDBRANCH  15  18
ENDBRANCH  12  14
TORSDOF 7
ENDMDL
MODEL        8
REMARK 921   NORMALIZED FREE ENERGY PREDICTED BY IDOCK:   -7.74 KCAL/MOL
REMARK 922        TOTAL FREE ENERGY PREDICTED BY IDOCK:  -12.43 KCAL/MOL
REMARK 923 INTER-LIGAND FREE ENERGY PREDICTED BY IDOCK:  -11.19 KCAL/MOL
REMARK 924 INTRA-LIGAND FREE ENERGY PREDICTED BY IDOCK:   -1.24 KCAL/MOL
REMARK 927      BINDING AFFINITY PREDICTED BY RF-SCORE:    0.00 PKD
ROOT
HETATM    1  C   UNL     1      -9.054  18.344  67.680  1.00  0.00    -0.273 C  
HETATM    2  S   UNL     1      -7.595  17.874  68.683  1.00  0.00    -0.268 SA 
HETATM    3  C   UNL     1      -6.672  17.098  67.281  1.00  0.00    -0.160 C  
HETATM    4  CA  UNL     1      -7.292  17.700  65.995  1.00  0.00    -0.266 C  
HETATM    5  C   UNL     1      -6.901  15.577  67.372  1.00  0.00    -0.224 C  
HETATM    6  C   UNL     1      -5.171  17.343  67.469  1.00  0.00    -0.131 C  
HETATM    7  C   UNL     1      -6.609  18.979  65.477  1.00  0.00    -0.274 C  
HETATM    8  N   UNL     1      -8.710  17.988  66.283  1.00  0.00    -0.215 N  
HETATM    9  OXT UNL     1      -5.434  19.052  65.146  1.00  0.00    -0.161 OA 
HETATM   10  O   UNL     1      -7.442  20.044  65.361  1.00  0.00    -0.315 OA 
HETATM   11  C   UNL     1      -9.617  16.956  66.232  1.00  0.00    -0.276 C  
HETATM   12  CA  UNL     1     -10.239  17.347  67.593  1.00  0.00    -0.342 C  
HETATM   13  O   UNL     1      -9.697  16.023  65.469  1.00  0.00    -0.418 OA 
ENDROOT
BRANCH  12  14
HETATM   14  N   UNL     1     -10.305  16.280  68.625  1.00  0.00    -0.249 N  
HETATM   15  C   UNL     1     -11.266  15.291  68.558  1.00  0.00    -0.303 C  
HETATM   16  H   UNL     1      -9.632  16.278  69.393  1.00  0.00     0.000 HD 
HETATM   17  O   UNL     1     -12.091  15.288  67.643  1.00  0.00    -0.068 OA 
BRANCH  15  18
HETATM   18  CA  UNL     1     -11.356  14.315  69.756  1.00  0.00    -0.227 C  
BRANCH  18  19
HETATM   19  N   UNL     1     -11.897  13.044  69.280  1.00  0.00    -0.317 N  
HETATM   20  H   UNL     1     -12.906  12.900  69.296  1.00  0.00     0.000 HD 
BRANCH  19  21
HETATM   21  C   UNL     1     -11.093  12.046  68.815  1.00  0.00    -0.249 C  
HETATM   22  O   UNL     1     -10.552  12.093  67.711  1.00  0.00    -0.197 OA 
BRANCH  21  23
HETATM   23  N   UNL     1     -10.918  10.971  69.656  1.00  0.00    -0.247 N  
HETATM   24  C   UNL     1     -10.254   8.721  69.977  1.00  0.00    -0.198 C  
HETATM   25  N   UNL     1     -11.384   9.112  70.828  1.00  0.00    -0.269 N  
HETATM   26  C   UNL     1      -9.766  10.093  69.523  1.00  0.00    -0.229 C  
HETATM   27  O   UNL     1     -12.846  10.933  70.977  1.00  0.00    -0.368 OA 
HETATM   28  C   UNL     1     -11.839  10.410  70.539  1.00  0.00    -0.337 C  
BRANCH  25  29
HETATM   29  S   UNL     1     -11.980   8.075  71.971  1.00  0.00    -0.348 S  
HETATM   30  O   UNL     1     -10.995   7.978  73.028  1.00  0.00    -0.374 OA 
HETATM   31  C   UNL     1     -12.008   6.502  71.135  1.00  0.00    -0.306 C  
HETATM   32  O   UNL     1     -13.343   8.452  72.270  1.00  0.00    -0.317 OA 
ENDBRANCH  25  29
ENDBRANCH  21  23
ENDBRANCH  19  21
ENDBRANCH  18  19
BRANCH  18  33
HETATM   33  C   UNL     1     -12.123  14.857  70.954  1.00  0.00    -0.377 A  
HETATM   34  C   UNL     1     -13.481  15.943  73.168  1.00  0.00    -0.650 A  
HETATM   35  C   UNL     1     -11.431  15.588  71.940  1.00  0.00    -0.506 A  
HETATM   36  C   UNL     1     -12.106  16.120  73.039  1.00  0.00    -0.636 A  
HETATM   37  C   UNL     1     -14.183  15.233  72.197  1.00  0.00    -0.667 A  
HETATM   38  C   UNL     1     -13.511  14.692  71.099  1.00  0.00    -0.425 A  
ENDBRANCH  18  33
ENDBRANCH  15  18
ENDBRANCH  12  14
TORSDOF 7
ENDMDL
MODEL        9
REMARK 921   NORMALIZED FREE ENERGY PREDICTED BY IDOCK:   -7.68 KCAL/MOL
REMARK 922        TOTAL FREE ENERGY PREDICTED BY IDOCK:  -12.35 KCAL/MOL
REMARK 923 INTER-LIGAND FREE ENERGY PREDICTED BY IDOCK:  -10.54 KCAL/MOL
REMARK 924 INTRA-LIGAND FREE ENERGY PREDICTED BY IDOCK:   -1.81 KCAL/MOL
REMARK 927      BINDING AFFINITY PREDICTED BY RF-SCORE:    0.00 PKD
ROOT
HETATM    1  C   UNL     1     -10.617  18.076  67.397  1.00  0.00    -0.365 C  
HETATM    2  S   UNL     1      -9.720  18.551  68.922  1.00  0.00    -0.256 SA 
HETATM    3  C   UNL     1      -8.033  18.310  68.205  1.00  0.00    -0.300 C  
HETATM    4  CA  UNL     1      -8.222  18.384  66.669  1.00  0.00    -0.266 C  
HETATM    5  C   UNL     1      -7.540  16.921  68.658  1.00  0.00    -0.232 C  
HETATM    6  C   UNL     1      -7.078  19.348  68.804  1.00  0.00    -0.382 C  
HETATM    7  C   UNL     1      -8.066  19.788  66.058  1.00  0.00    -0.322 C  
HETATM    8  N   UNL     1      -9.572  17.869  66.367  1.00  0.00    -0.299 N  
HETATM    9  OXT UNL     1      -7.052  20.468  66.134  1.00  0.00    -0.246 OA 
HETATM   10  O   UNL     1      -9.150  20.214  65.361  1.00  0.00    -0.030 OA 
HETATM   11  C   UNL     1      -9.764  16.508  66.321  1.00  0.00    -0.305 C  
HETATM   12  CA  UNL     1     -11.023  16.590  67.215  1.00  0.00    -0.084 C  
HETATM   13  O   UNL     1      -9.055  15.632  65.886  1.00  0.00    -0.335 OA 
ENDROOT
BRANCH  12  14
HETATM   14  N   UNL     1     -11.032  15.735  68.431  1.00  0.00    -0.306 N  
HETATM   15  C   UNL     1     -11.560  14.460  68.395  1.00  0.00    -0.319 C  
HETATM   16  H   UNL     1     -10.643  16.095  69.303  1.00  0.00     0.000 HD 
HETATM   17  O   UNL     1     -12.043  14.018  67.351  1.00  0.00    -0.402 OA 
BRANCH  15  18
HETATM   18  CA  UNL     1     -11.667  13.704  69.741  1.00  0.00    -0.297 C  
BRANCH  18  19
HETATM   19  N   UNL     1     -12.388  12.454  69.515  1.00  0.00    -0.044 N  
HETATM   20  H   UNL     1     -13.137  12.434  68.824  1.00  0.00     0.000 HD 
BRANCH  19  21
HETATM   21  C   UNL     1     -12.089  11.314  70.199  1.00  0.00    -0.366 C  
HETATM   22  O   UNL     1     -12.612  11.033  71.277  1.00  0.00    -0.385 OA 
BRANCH  21  23
HETATM   23  N   UNL     1     -11.160  10.484  69.614  1.00  0.00    -0.263 N  
HETATM   24  C   UNL     1      -8.922   9.729  69.444  1.00  0.00    -0.190 C  
HETATM   25  N   UNL     1      -9.625   9.733  68.155  1.00  0.00    -0.142 N  
HETATM   26  C   UNL     1     -10.103   9.868  70.400  1.00  0.00    -0.195 C  
HETATM   27  O   UNL     1     -11.652  10.564  67.330  1.00  0.00    -0.383 OA 
HETATM   28  C   UNL     1     -10.909  10.295  68.256  1.00  0.00    -0.255 C  
BRANCH  25  29
HETATM   29  S   UNL     1      -8.907   9.120  66.797  1.00  0.00    -0.130 S  
HETATM   30  O   UNL     1      -9.835   8.183  66.197  1.00  0.00    -0.169 OA 
HETATM   31  C   UNL     1      -7.543   8.169  67.438  1.00  0.00    -0.101 C  
HETATM   32  O   UNL     1      -8.369  10.216  66.025  1.00  0.00    -0.123 OA 
ENDBRANCH  25  29
ENDBRANCH  21  23
ENDBRANCH  19  21
ENDBRANCH  18  19
BRANCH  18  33
HETATM   33  C   UNL     1     -12.267  14.521  70.876  1.00  0.00    -0.409 A  
HETATM   34  C   UNL     1     -13.454  15.966  72.980  1.00  0.00    -0.653 A  
HETATM   35  C   UNL     1     -13.666  14.659  70.960  1.00  0.00    -0.281 A  
HETATM   36  C   UNL     1     -14.251  15.380  72.001  1.00  0.00    -0.650 A  
HETATM   37  C   UNL     1     -12.069  15.831  72.920  1.00  0.00    -0.596 A  
HETATM   38  C   UNL     1     -11.478  15.116  71.876  1.00  0.00    -0.457 A  
ENDBRANCH  18  33
ENDBRANCH  15  18
ENDBRANCH  12  14
TORSDOF 7
ENDMDL
MODEL       10
REMARK 921   NORMALIZED FREE ENERGY PREDICTED BY IDOCK:   -7.59 KCAL/MOL
REMARK 922        TOTAL FREE ENERGY PREDICTED BY IDOCK:  -12.22 KCAL/MOL
REMARK 923 INTER-LIGAND FREE ENERGY PREDICTED BY IDOCK:  -10.55 KCAL/MOL
REMARK 924 INTRA-LIGAND FREE ENERGY PREDICTED BY IDOCK:   -1.67 KCAL/MOL
REMARK 927      BINDING AFFINITY PREDICTED BY RF-SCORE:    0.00 PKD
ROOT
HETATM    1  C   UNL     1      -9.512  17.830  68.825  1.00  0.00    -0.254 C  
HETATM    2  S   UNL     1      -8.278  16.477  68.892  1.00  0.00    -0.219 SA 
HETATM    3  C   UNL     1      -7.411  16.966  67.334  1.00  0.00    -0.162 C  
HETATM    4  CA  UNL     1      -7.775  18.455  67.108  1.00  0.00    -0.224 C  
HETATM    5  C   UNL     1      -7.955  16.065  66.208  1.00  0.00    -0.049 C  
HETATM    6  C   UNL     1      -5.915  16.666  67.473  1.00  0.00    -0.178 C  
HETATM    7  C   UNL     1      -6.800  19.469  67.735  1.00  0.00    -0.239 C  
HETATM    8  N   UNL     1      -9.124  18.668  67.667  1.00  0.00    -0.277 N  
HETATM    9  OXT UNL     1      -5.610  19.545  67.463  1.00  0.00    -0.169 OA 
HETATM   10  O   UNL     1      -7.383  20.336  68.602  1.00  0.00    -0.183 OA 
HETATM   11  C   UNL     1     -10.215  18.293  66.919  1.00  0.00    -0.375 C  
HETATM   12  CA  UNL     1     -10.864  17.557  68.115  1.00  0.00    -0.243 C  
HETATM   13  O   UNL     1     -10.416  18.379  65.731  1.00  0.00    -0.594 OA 
ENDROOT
BRANCH  12  14
HETATM   14  N   UNL     1     -11.241  16.136  67.896  1.00  0.00    -0.294 N  
HETATM   15  C   UNL     1     -11.885  15.416  68.882  1.00  0.00    -0.329 C  
HETATM   16  H   UNL     1     -11.021  15.687  67.006  1.00  0.00     0.000 HD 
HETATM   17  O   UNL     1     -12.145  15.943  69.966  1.00  0.00    -0.336 OA 
BRANCH  15  18
HETATM   18  CA  UNL     1     -12.099  13.905  68.625  1.00  0.00    -0.302 C  
BRANCH  18  19
HETATM   19  N   UNL     1     -11.495  13.157  69.724  1.00  0.00    -0.488 N  
HETATM   20  H   UNL     1     -10.481  13.057  69.756  1.00  0.00     0.000 HD 
BRANCH  19  21
HETATM   21  C   UNL     1     -12.246  12.587  70.709  1.00  0.00    -0.240 C  
HETATM   22  O   UNL     1     -12.892  13.254  71.516  1.00  0.00    -0.362 OA 
BRANCH  21  23
HETATM   23  N   UNL     1     -12.242  11.212  70.753  1.00  0.00    -0.372 N  
HETATM   24  C   UNL     1     -12.581   9.211  71.972  1.00  0.00    -0.390 C  
HETATM   25  N   UNL     1     -11.484   9.112  71.002  1.00  0.00    -0.286 N  
HETATM   26  C   UNL     1     -13.267  10.481  71.480  1.00  0.00    -0.371 C  
HETATM   27  O   UNL     1     -10.280  10.591  69.646  1.00  0.00    -0.226 OA 
HETATM   28  C   UNL     1     -11.221  10.342  70.375  1.00  0.00    -0.332 C  
BRANCH  25  29
HETATM   29  S   UNL     1     -10.709   7.673  70.743  1.00  0.00    -0.229 S  
HETATM   30  O   UNL     1     -10.878   7.332  69.345  1.00  0.00    -0.236 OA 
HETATM   31  C   UNL     1     -11.671   6.505  71.686  1.00  0.00    -0.324 C  
HETATM   32  O   UNL     1      -9.390   7.747  71.327  1.00  0.00    -0.150 OA 
ENDBRANCH  25  29
ENDBRANCH  21  23
ENDBRANCH  19  21
ENDBRANCH  18  19
BRANCH  18  33
HETATM   33  C   UNL     1     -11.617  13.423  67.264  1.00  0.00    -0.400 A  
HETATM   34  C   UNL     1     -10.778  12.609  64.703  1.00  0.00    -0.353 A  
HETATM   35  C   UNL     1     -12.479  13.523  66.154  1.00  0.00    -0.424 A  
HETATM   36  C   UNL     1     -12.062  13.114  64.887  1.00  0.00    -0.448 A  
HETATM   37  C   UNL     1      -9.908  12.513  65.786  1.00  0.00    -0.244 A  
HETATM   38  C   UNL     1     -10.323  12.915  67.058  1.00  0.00    -0.245 A  
ENDBRANCH  18  33
ENDBRANCH  15  18
ENDBRANCH  12  14
TORSDOF 7
ENDMDL
MODEL       11
REMARK 921   NORMALIZED FREE ENERGY PREDICTED BY IDOCK:   -7.57 KCAL/MOL
REMARK 922        TOTAL FREE ENERGY PREDICTED BY IDOCK:  -12.19 KCAL/MOL
REMARK 923 INTER-LIGAND FREE ENERGY PREDICTED BY IDOCK:  -10.77 KCAL/MOL
REMARK 924 INTRA-LIGAND FREE ENERGY PREDICTED BY IDOCK:   -1.43 KCAL/MOL
REMARK 927      BINDING AFFINITY PREDICTED BY RF-SCORE:    0.00 PKD
ROOT
HETATM    1  C   UNL     1      -7.741  17.083  66.364  1.00  0.00    -0.315 C  
HETATM    2  S   UNL     1      -9.335  17.941  66.084  1.00  0.00    -0.053 SA 
HETATM    3  C   UNL     1      -9.212  19.015  67.584  1.00  0.00    -0.294 C  
HETATM    4  CA  UNL     1      -7.706  19.044  67.949  1.00  0.00    -0.266 C  
HETATM    5  C   UNL     1     -10.059  18.353  68.689  1.00  0.00    -0.407 C  
HETATM    6  C   UNL     1      -9.844  20.377  67.282  1.00  0.00    -0.597 C  
HETATM    7  C   UNL     1      -6.899  20.187  67.307  1.00  0.00    -0.235 C  
HETATM    8  N   UNL     1      -7.129  17.749  67.537  1.00  0.00    -0.183 N  
HETATM    9  OXT UNL     1      -7.133  21.376  67.469  1.00  0.00    -0.522 OA 
HETATM   10  O   UNL     1      -5.843  19.770  66.563  1.00  0.00    -0.172 OA 
HETATM   11  C   UNL     1      -7.302  16.659  68.357  1.00  0.00    -0.190 C  
HETATM   12  CA  UNL     1      -7.750  15.763  67.179  1.00  0.00    -0.219 C  
HETATM   13  O   UNL     1      -7.281  16.574  69.561  1.00  0.00    -0.209 OA 
ENDROOT
BRANCH  12  14
HETATM   14  N   UNL     1      -9.055  15.067  67.330  1.00  0.00    -0.181 N  
HETATM   15  C   UNL     1      -9.124  13.810  67.895  1.00  0.00    -0.193 C  
HETATM   16  H   UNL     1      -9.910  15.525  67.013  1.00  0.00     0.000 HD 
HETATM   17  O   UNL     1      -8.097  13.241  68.272  1.00  0.00    -0.145 OA 
BRANCH  15  18
HETATM   18  CA  UNL     1     -10.500  13.101  67.871  1.00  0.00    -0.240 C  
BRANCH  18  19
HETATM   19  N   UNL     1     -10.498  12.050  68.884  1.00  0.00    -0.370 N  
HETATM   20  H   UNL     1      -9.725  11.386  68.907  1.00  0.00     0.000 HD 
BRANCH  19  21
HETATM   21  C   UNL     1     -11.500  11.929  69.801  1.00  0.00    -0.229 C  
HETATM   22  O   UNL     1     -12.097  12.902  70.261  1.00  0.00    -0.347 OA 
BRANCH  21  23
HETATM   23  N   UNL     1     -11.812  10.646  70.189  1.00  0.00    -0.308 N  
HETATM   24  C   UNL     1     -12.605   9.154  71.848  1.00  0.00    -0.388 C  
HETATM   25  N   UNL     1     -11.556   8.568  71.005  1.00  0.00    -0.278 N  
HETATM   26  C   UNL     1     -12.980  10.372  71.010  1.00  0.00    -0.399 C  
HETATM   27  O   UNL     1     -10.039   9.342  69.400  1.00  0.00    -0.182 OA 
HETATM   28  C   UNL     1     -11.015   9.504  70.107  1.00  0.00    -0.262 C  
BRANCH  25  29
HETATM   29  S   UNL     1     -11.131   6.977  71.166  1.00  0.00    -0.269 S  
HETATM   30  O   UNL     1      -9.706   6.930  71.426  1.00  0.00    -0.174 OA 
HETATM   31  C   UNL     1     -11.387   6.309  69.534  1.00  0.00    -0.404 C  
HETATM   32  O   UNL     1     -12.063   6.339  72.066  1.00  0.00    -0.337 OA 
ENDBRANCH  25  29
ENDBRANCH  21  23
ENDBRANCH  19  21
ENDBRANCH  18  19
BRANCH  18  33
HETATM   33  C   UNL     1     -10.917  12.584  66.502  1.00  0.00    -0.303 A  
HETATM   34  C   UNL     1     -11.735  11.717  63.951  1.00  0.00    -0.461 A  
HETATM   35  C   UNL     1     -12.165  12.968  65.972  1.00  0.00    -0.463 A  
HETATM   36  C   UNL     1     -12.570  12.533  64.710  1.00  0.00    -0.493 A  
HETATM   37  C   UNL     1     -10.493  11.336  64.453  1.00  0.00    -0.407 A  
HETATM   38  C   UNL     1     -10.086  11.764  65.719  1.00  0.00    -0.270 A  
ENDBRANCH  18  33
ENDBRANCH  15  18
ENDBRANCH  12  14
TORSDOF 7
ENDMDL
MODEL       12
REMARK 921   NORMALIZED FREE ENERGY PREDICTED BY IDOCK:   -7.54 KCAL/MOL
REMARK 922        TOTAL FREE ENERGY PREDICTED BY IDOCK:  -12.14 KCAL/MOL
REMARK 923 INTER-LIGAND FREE ENERGY PREDICTED BY IDOCK:  -10.67 KCAL/MOL
REMARK 924 INTRA-LIGAND FREE ENERGY PREDICTED BY IDOCK:   -1.47 KCAL/MOL
REMARK 927      BINDING AFFINITY PREDICTED BY RF-SCORE:    0.00 PKD
ROOT
HETATM    1  C   UNL     1      -7.430  17.052  66.302  1.00  0.00    -0.283 C  
HETATM    2  S   UNL     1      -9.035  17.816  65.859  1.00  0.00     0.314 SA 
HETATM    3  C   UNL     1      -9.142  18.867  67.376  1.00  0.00    -0.279 C  
HETATM    4  CA  UNL     1      -7.690  18.981  67.905  1.00  0.00    -0.266 C  
HETATM    5  C   UNL     1     -10.061  18.134  68.373  1.00  0.00    -0.401 C  
HETATM    6  C   UNL     1      -9.822  20.194  67.023  1.00  0.00    -0.595 C  
HETATM    7  C   UNL     1      -6.891  20.183  67.368  1.00  0.00    -0.235 C  
HETATM    8  N   UNL     1      -6.992  17.732  67.543  1.00  0.00    -0.175 N  
HETATM    9  OXT UNL     1      -7.215  21.352  67.518  1.00  0.00    -0.499 OA 
HETATM   10  O   UNL     1      -5.736  19.846  66.740  1.00  0.00    -0.172 OA 
HETATM   11  C   UNL     1      -7.184  16.618  68.325  1.00  0.00    -0.169 C  
HETATM   12  CA  UNL     1      -7.444  15.718  67.094  1.00  0.00    -0.224 C  
HETATM   13  O   UNL     1      -7.289  16.512  69.523  1.00  0.00    -0.190 OA 
ENDROOT
BRANCH  12  14
HETATM   14  N   UNL     1      -8.712  14.942  67.093  1.00  0.00    -0.206 N  
HETATM   15  C   UNL     1      -8.701  13.572  67.265  1.00  0.00    -0.225 C  
HETATM   16  H   UNL     1      -9.600  15.427  66.964  1.00  0.00     0.000 HD 
HETATM   17  O   UNL     1      -7.634  12.973  67.410  1.00  0.00    -0.154 OA 
BRANCH  15  18
HETATM   18  CA  UNL     1     -10.050  12.831  67.095  1.00  0.00    -0.234 C  
BRANCH  18  19
HETATM   19  N   UNL     1     -10.189  11.867  68.183  1.00  0.00    -0.193 N  
HETATM   20  H   UNL     1      -9.351  11.441  68.577  1.00  0.00     0.000 HD 
BRANCH  19  21
HETATM   21  C   UNL     1     -11.406  11.518  68.687  1.00  0.00    -0.269 C  
HETATM   22  O   UNL     1     -12.130  10.680  68.149  1.00  0.00    -0.403 OA 
BRANCH  21  23
HETATM   23  N   UNL     1     -11.788  12.161  69.843  1.00  0.00    -0.333 N  
HETATM   24  C   UNL     1     -13.205  12.280  71.736  1.00  0.00    -0.326 C  
HETATM   25  N   UNL     1     -12.847  13.600  71.204  1.00  0.00    -0.337 N  
HETATM   26  C   UNL     1     -12.171  11.410  71.028  1.00  0.00    -0.285 C  
HETATM   27  O   UNL     1     -11.806  14.429  69.279  1.00  0.00    -0.289 OA 
HETATM   28  C   UNL     1     -12.106  13.507  70.014  1.00  0.00    -0.341 C  
BRANCH  25  29
HETATM   29  S   UNL     1     -13.306  14.982  71.990  1.00  0.00    -0.424 S  
HETATM   30  O   UNL     1     -14.186  15.716  71.104  1.00  0.00    -0.514 OA 
HETATM   31  C   UNL     1     -11.792  15.915  72.115  1.00  0.00    -0.517 C  
HETATM   32  O   UNL     1     -13.733  14.634  73.325  1.00  0.00    -0.449 OA 
ENDBRANCH  25  29
ENDBRANCH  21  23
ENDBRANCH  19  21
ENDBRANCH  18  19
BRANCH  18  33
HETATM   33  C   UNL     1     -10.250  12.194  65.728  1.00  0.00    -0.282 A  
HETATM   34  C   UNL     1     -10.630  11.108  63.158  1.00  0.00    -0.177 A  
HETATM   35  C   UNL     1     -11.144  12.788  64.815  1.00  0.00    -0.333 A  
HETATM   36  C   UNL     1     -11.334  12.245  63.545  1.00  0.00    -0.549 A  
HETATM   37  C   UNL     1      -9.734  10.513  64.042  1.00  0.00    -0.383 A  
HETATM   38  C   UNL     1      -9.545  11.049  65.318  1.00  0.00    -0.270 A  
ENDBRANCH  18  33
ENDBRANCH  15  18
ENDBRANCH  12  14
TORSDOF 7
ENDMDL
MODEL       13
REMARK 921   NORMALIZED FREE ENERGY PREDICTED BY IDOCK:   -7.48 KCAL/MOL
REMARK 922        TOTAL FREE ENERGY PREDICTED BY IDOCK:  -12.06 KCAL/MOL
REMARK 923 INTER-LIGAND FREE ENERGY PREDICTED BY IDOCK:  -11.14 KCAL/MOL
REMARK 924 INTRA-LIGAND FREE ENERGY PREDICTED BY IDOCK:   -0.92 KCAL/MOL
REMARK 927      BINDING AFFINITY PREDICTED BY RF-SCORE:    0.00 PKD
ROOT
HETATM    1  C   UNL     1      -8.352  17.172  66.314  1.00  0.00    -0.263 C  
HETATM    2  S   UNL     1      -9.807  18.284  66.253  1.00  0.00    -0.286 SA 
HETATM    3  C   UNL     1      -9.192  19.435  67.563  1.00  0.00    -0.308 C  
HETATM    4  CA  UNL     1      -7.659  19.215  67.620  1.00  0.00    -0.239 C  
HETATM    5  C   UNL     1      -9.880  19.032  68.881  1.00  0.00    -0.464 C  
HETATM    6  C   UNL     1      -9.642  20.862  67.232  1.00  0.00    -0.386 C  
HETATM    7  C   UNL     1      -6.832  20.133  66.702  1.00  0.00    -0.228 C  
HETATM    8  N   UNL     1      -7.403  17.807  67.258  1.00  0.00    -0.185 N  
HETATM    9  OXT UNL     1      -6.827  21.355  66.766  1.00  0.00    -0.427 OA 
HETATM   10  O   UNL     1      -6.041  19.470  65.821  1.00  0.00    -0.174 OA 
HETATM   11  C   UNL     1      -7.574  16.837  68.218  1.00  0.00    -0.188 C  
HETATM   12  CA  UNL     1      -8.403  15.947  67.264  1.00  0.00    -0.186 C  
HETATM   13  O   UNL     1      -7.310  16.849  69.396  1.00  0.00    -0.198 OA 
ENDROOT
BRANCH  12  14
HETATM   14  N   UNL     1      -9.742  15.519  67.748  1.00  0.00    -0.211 N  
HETATM   15  C   UNL     1      -9.895  14.340  68.449  1.00  0.00    -0.233 C  
HETATM   16  H   UNL     1     -10.557  16.103  67.561  1.00  0.00     0.000 HD 
HETATM   17  O   UNL     1      -8.921  13.618  68.673  1.00  0.00    -0.137 OA 
BRANCH  15  18
HETATM   18  CA  UNL     1     -11.342  13.899  68.778  1.00  0.00    -0.277 C  
BRANCH  18  19
HETATM   19  N   UNL     1     -12.200  14.239  67.646  1.00  0.00    -0.597 N  
HETATM   20  H   UNL     1     -12.814  15.050  67.717  1.00  0.00     0.000 HD 
BRANCH  19  21
HETATM   21  C   UNL     1     -12.204  13.506  66.497  1.00  0.00    -0.380 C  
HETATM   22  O   UNL     1     -13.046  13.664  65.615  1.00  0.00    -0.549 OA 
BRANCH  21  23
HETATM   23  N   UNL     1     -11.205  12.567  66.377  1.00  0.00    -0.290 N  
HETATM   24  C   UNL     1      -9.757  11.296  65.000  1.00  0.00    -0.251 C  
HETATM   25  N   UNL     1     -10.203  10.565  66.191  1.00  0.00    -0.242 N  
HETATM   26  C   UNL     1     -10.147  12.719  65.390  1.00  0.00    -0.259 C  
HETATM   27  O   UNL     1     -11.800  10.873  67.873  1.00  0.00    -0.590 OA 
HETATM   28  C   UNL     1     -11.152  11.289  66.932  1.00  0.00    -0.275 C  
BRANCH  25  29
HETATM   29  S   UNL     1      -9.596   9.065  66.540  1.00  0.00    -0.244 S  
HETATM   30  O   UNL     1      -8.768   9.194  67.722  1.00  0.00    -0.121 OA 
HETATM   31  C   UNL     1      -8.506   8.727  65.171  1.00  0.00    -0.174 C  
HETATM   32  O   UNL     1     -10.678   8.109  66.503  1.00  0.00    -0.081 OA 
ENDBRANCH  25  29
ENDBRANCH  21  23
ENDBRANCH  19  21
ENDBRANCH  18  19
BRANCH  18  33
HETATM   33  C   UNL     1     -11.881  14.440  70.095  1.00  0.00    -0.380 A  
HETATM   34  C   UNL     1     -12.858  15.350  72.573  1.00  0.00    -0.491 A  
HETATM   35  C   UNL     1     -12.599  13.581  70.950  1.00  0.00    -0.414 A  
HETATM   36  C   UNL     1     -13.086  14.036  72.175  1.00  0.00    -0.501 A  
HETATM   37  C   UNL     1     -12.140  16.211  71.747  1.00  0.00    -0.517 A  
HETATM   38  C   UNL     1     -11.656  15.762  70.516  1.00  0.00    -0.396 A  
ENDBRANCH  18  33
ENDBRANCH  15  18
ENDBRANCH  12  14
TORSDOF 7
ENDMDL
MODEL       14
REMARK 921   NORMALIZED FREE ENERGY PREDICTED BY IDOCK:   -7.44 KCAL/MOL
REMARK 922        TOTAL FREE ENERGY PREDICTED BY IDOCK:  -12.01 KCAL/MOL
REMARK 923 INTER-LIGAND FREE ENERGY PREDICTED BY IDOCK:   -9.97 KCAL/MOL
REMARK 924 INTRA-LIGAND FREE ENERGY PREDICTED BY IDOCK:   -2.04 KCAL/MOL
REMARK 927      BINDING AFFINITY PREDICTED BY RF-SCORE:    0.00 PKD
ROOT
HETATM    1  C   UNL     1     -12.251  13.310  66.526  1.00  0.00    -0.327 C  
HETATM    2  S   UNL     1     -11.774  14.661  67.668  1.00  0.00    -0.332 SA 
HETATM    3  C   UNL     1     -10.422  15.319  66.592  1.00  0.00    -0.290 C  
HETATM    4  CA  UNL     1     -10.741  14.803  65.166  1.00  0.00    -0.415 C  
HETATM    5  C   UNL     1      -9.095  14.748  67.127  1.00  0.00    -0.231 C  
HETATM    6  C   UNL     1     -10.354  16.843  66.742  1.00  0.00    -0.298 C  
HETATM    7  C   UNL     1     -11.610  15.741  64.309  1.00  0.00    -0.191 C  
HETATM    8  N   UNL     1     -11.425  13.503  65.311  1.00  0.00    -0.295 N  
HETATM    9  OXT UNL     1     -11.305  16.886  64.007  1.00  0.00    -1.109 OA 
HETATM   10  O   UNL     1     -12.756  15.173  63.854  1.00  0.00    -0.759 OA 
HETATM   11  C   UNL     1     -10.666  12.381  65.544  1.00  0.00    -0.280 C  
HETATM   12  CA  UNL     1     -11.579  11.924  66.706  1.00  0.00    -0.268 C  
HETATM   13  O   UNL     1      -9.593  12.054  65.094  1.00  0.00    -0.189 OA 
ENDROOT
BRANCH  12  14
HETATM   14  N   UNL     1     -10.914  11.656  68.008  1.00  0.00    -0.210 N  
HETATM   15  C   UNL     1     -10.532  10.376  68.355  1.00  0.00    -0.189 C  
HETATM   16  H   UNL     1     -10.739  12.426  68.653  1.00  0.00     0.000 HD 
HETATM   17  O   UNL     1     -10.748   9.434  67.590  1.00  0.00    -0.273 OA 
BRANCH  15  18
HETATM   18  CA  UNL     1      -9.990  10.167  69.790  1.00  0.00    -0.220 C  
BRANCH  18  19
HETATM   19  N   UNL     1      -8.824   9.290  69.723  1.00  0.00    -0.153 N  
HETATM   20  H   UNL     1      -8.965   8.281  69.708  1.00  0.00     0.000 HD 
BRANCH  19  21
HETATM   21  C   UNL     1      -7.553   9.781  69.681  1.00  0.00    -0.120 C  
HETATM   22  O   UNL     1      -6.931  10.094  70.695  1.00  0.00    -0.298 OA 
BRANCH  21  23
HETATM   23  N   UNL     1      -6.997   9.909  68.428  1.00  0.00    -0.067 N  
HETATM   24  C   UNL     1      -6.516  11.254  66.540  1.00  0.00    -0.111 C  
HETATM   25  N   UNL     1      -6.804   9.857  66.191  1.00  0.00    -0.092 N  
HETATM   26  C   UNL     1      -6.288  11.119  68.042  1.00  0.00    -0.053 C  
HETATM   27  O   UNL     1      -7.643   7.971  67.293  1.00  0.00    -0.094 OA 
HETATM   28  C   UNL     1      -7.203   9.105  67.309  1.00  0.00    -0.083 C  
BRANCH  25  29
HETATM   29  S   UNL     1      -6.645   9.324  64.632  1.00  0.00    -0.079 S  
HETATM   30  O   UNL     1      -6.155  10.433  63.840  1.00  0.00    -0.137 OA 
HETATM   31  C   UNL     1      -8.325   9.018  64.121  1.00  0.00    -0.173 C  
HETATM   32  O   UNL     1      -5.941   8.063  64.646  1.00  0.00    -0.047 OA 
ENDBRANCH  25  29
ENDBRANCH  21  23
ENDBRANCH  19  21
ENDBRANCH  18  19
BRANCH  18  33
HETATM   33  C   UNL     1     -11.027   9.675  70.789  1.00  0.00    -0.397 A  
HETATM   34  C   UNL     1     -13.019   8.804  72.578  1.00  0.00    -0.382 A  
HETATM   35  C   UNL     1     -12.188  10.443  71.011  1.00  0.00    -0.498 A  
HETATM   36  C   UNL     1     -13.170  10.011  71.901  1.00  0.00    -0.557 A  
HETATM   37  C   UNL     1     -11.884   8.026  72.363  1.00  0.00    -0.429 A  
HETATM   38  C   UNL     1     -10.894   8.457  71.478  1.00  0.00    -0.323 A  
ENDBRANCH  18  33
ENDBRANCH  15  18
ENDBRANCH  12  14
TORSDOF 7
ENDMDL
MODEL       15
REMARK 921   NORMALIZED FREE ENERGY PREDICTED BY IDOCK:   -7.41 KCAL/MOL
REMARK 922        TOTAL FREE ENERGY PREDICTED BY IDOCK:  -11.96 KCAL/MOL
REMARK 923 INTER-LIGAND FREE ENERGY PREDICTED BY IDOCK:  -10.13 KCAL/MOL
REMARK 924 INTRA-LIGAND FREE ENERGY PREDICTED BY IDOCK:   -1.83 KCAL/MOL
REMARK 927      BINDING AFFINITY PREDICTED BY RF-SCORE:    0.00 PKD
ROOT
HETATM    1  C   UNL     1     -11.134  16.264  67.625  1.00  0.00    -0.184 C  
HETATM    2  S   UNL     1      -9.783  16.172  68.859  1.00  0.00    -0.253 SA 
HETATM    3  C   UNL     1      -8.423  16.447  67.638  1.00  0.00    -0.169 C  
HETATM    4  CA  UNL     1      -9.094  17.123  66.416  1.00  0.00    -0.256 C  
HETATM    5  C   UNL     1      -7.843  15.064  67.283  1.00  0.00    -0.241 C  
HETATM    6  C   UNL     1      -7.302  17.252  68.304  1.00  0.00    -0.214 C  
HETATM    7  C   UNL     1      -9.111  18.662  66.447  1.00  0.00    -0.284 C  
HETATM    8  N   UNL     1     -10.481  16.623  66.344  1.00  0.00    -0.294 N  
HETATM    9  OXT UNL     1      -8.111  19.365  66.497  1.00  0.00    -0.273 OA 
HETATM   10  O   UNL     1     -10.352  19.206  66.360  1.00  0.00    -0.391 OA 
HETATM   11  C   UNL     1     -10.710  15.389  65.782  1.00  0.00    -0.351 C  
HETATM   12  CA  UNL     1     -11.611  14.947  66.958  1.00  0.00    -0.304 C  
HETATM   13  O   UNL     1     -10.199  14.859  64.824  1.00  0.00    -0.331 OA 
ENDROOT
BRANCH  12  14
HETATM   14  N   UNL     1     -11.248  13.674  67.633  1.00  0.00    -0.269 N  
HETATM   15  C   UNL     1     -11.641  12.459  67.109  1.00  0.00    -0.365 C  
HETATM   16  H   UNL     1     -10.701  13.698  68.494  1.00  0.00     0.000 HD 
HETATM   17  O   UNL     1     -12.312  12.417  66.075  1.00  0.00    -0.627 OA 
BRANCH  15  18
HETATM   18  CA  UNL     1     -11.352  11.198  67.959  1.00  0.00    -0.312 C  
BRANCH  18  19
HETATM   19  N   UNL     1     -10.915  11.623  69.286  1.00  0.00    -0.358 N  
HETATM   20  H   UNL     1     -10.017  12.095  69.383  1.00  0.00     0.000 HD 
BRANCH  19  21
HETATM   21  C   UNL     1     -11.673  11.408  70.398  1.00  0.00    -0.268 C  
HETATM   22  O   UNL     1     -12.295  12.309  70.959  1.00  0.00    -0.351 OA 
BRANCH  21  23
HETATM   23  N   UNL     1     -11.703  10.114  70.867  1.00  0.00    -0.350 N  
HETATM   24  C   UNL     1     -12.513   8.531  72.430  1.00  0.00    -0.353 C  
HETATM   25  N   UNL     1     -11.126   8.275  72.022  1.00  0.00    -0.287 N  
HETATM   26  C   UNL     1     -12.939   9.519  71.349  1.00  0.00    -0.368 C  
HETATM   27  O   UNL     1      -9.472   9.417  70.824  1.00  0.00    -0.258 OA 
HETATM   28  C   UNL     1     -10.626   9.290  71.188  1.00  0.00    -0.332 C  
BRANCH  25  29
HETATM   29  S   UNL     1     -10.330   6.918  72.533  1.00  0.00    -0.204 S  
HETATM   30  O   UNL     1     -11.265   6.130  73.309  1.00  0.00    -0.193 OA 
HETATM   31  C   UNL     1      -9.110   7.551  73.667  1.00  0.00    -0.255 C  
HETATM   32  O   UNL     1      -9.639   6.336  71.405  1.00  0.00    -0.157 OA 
ENDBRANCH  25  29
ENDBRANCH  21  23
ENDBRANCH  19  21
ENDBRANCH  18  19
BRANCH  18  33
HETATM   33  C   UNL     1     -10.381  10.216  67.317  1.00  0.00    -0.291 A  
HETATM   34  C   UNL     1      -8.667   8.350  66.092  1.00  0.00    -0.175 A  
HETATM   35  C   UNL     1     -10.742   8.858  67.218  1.00  0.00    -0.219 A  
HETATM   36  C   UNL     1      -9.888   7.935  66.616  1.00  0.00    -0.311 A  
HETATM   37  C   UNL     1      -8.298   9.691  66.171  1.00  0.00    -0.122 A  
HETATM   38  C   UNL     1      -9.147  10.618  66.779  1.00  0.00    -0.167 A  
ENDBRANCH  18  33
ENDBRANCH  15  18
ENDBRANCH  12  14
TORSDOF 7
ENDMDL
MODEL       16
REMARK 921   NORMALIZED FREE ENERGY PREDICTED BY IDOCK:   -7.35 KCAL/MOL
REMARK 922        TOTAL FREE ENERGY PREDICTED BY IDOCK:  -11.88 KCAL/MOL
REMARK 923 INTER-LIGAND FREE ENERGY PREDICTED BY IDOCK:  -10.56 KCAL/MOL
REMARK 924 INTRA-LIGAND FREE ENERGY PREDICTED BY IDOCK:   -1.32 KCAL/MOL
REMARK 927      BINDING AFFINITY PREDICTED BY RF-SCORE:    0.00 PKD
ROOT
HETATM    1  C   UNL     1      -8.952   7.948  70.024  1.00  0.00    -0.145 C  
HETATM    2  S   UNL     1      -9.836   8.641  71.471  1.00  0.00    -0.300 SA 
HETATM    3  C   UNL     1     -10.727   7.075  71.887  1.00  0.00    -0.217 C  
HETATM    4  CA  UNL     1      -9.907   5.943  71.218  1.00  0.00    -0.176 C  
HETATM    5  C   UNL     1     -12.145   7.186  71.294  1.00  0.00    -0.386 C  
HETATM    6  C   UNL     1     -10.878   6.969  73.408  1.00  0.00    -0.332 C  
HETATM    7  C   UNL     1      -8.809   5.321  72.099  1.00  0.00    -0.130 C  
HETATM    8  N   UNL     1      -9.292   6.506  70.000  1.00  0.00    -0.157 N  
HETATM    9  OXT UNL     1      -9.012   4.768  73.172  1.00  0.00    -0.114 OA 
HETATM   10  O   UNL     1      -7.564   5.385  71.563  1.00  0.00    -0.097 OA 
HETATM   11  C   UNL     1     -10.059   6.617  68.864  1.00  0.00    -0.165 C  
HETATM   12  CA  UNL     1      -9.613   8.079  68.627  1.00  0.00    -0.148 C  
HETATM   13  O   UNL     1     -10.891   5.871  68.406  1.00  0.00    -0.265 OA 
ENDROOT
BRANCH  12  14
HETATM   14  N   UNL     1     -10.694   9.088  68.479  1.00  0.00    -0.400 N  
HETATM   15  C   UNL     1     -10.396  10.432  68.371  1.00  0.00    -0.174 C  
HETATM   16  H   UNL     1     -11.668   8.785  68.457  1.00  0.00     0.000 HD 
HETATM   17  O   UNL     1      -9.224  10.812  68.407  1.00  0.00    -0.150 OA 
BRANCH  15  18
HETATM   18  CA  UNL     1     -11.587  11.420  68.376  1.00  0.00    -0.315 C  
BRANCH  18  19
HETATM   19  N   UNL     1     -11.172  12.650  67.708  1.00  0.00    -0.257 N  
HETATM   20  H   UNL     1     -10.431  13.214  68.124  1.00  0.00     0.000 HD 
BRANCH  19  21
HETATM   21  C   UNL     1     -11.744  13.068  66.543  1.00  0.00    -0.382 C  
HETATM   22  O   UNL     1     -12.350  12.304  65.793  1.00  0.00    -0.622 OA 
BRANCH  21  23
HETATM   23  N   UNL     1     -11.606  14.405  66.248  1.00  0.00    -0.363 N  
HETATM   24  C   UNL     1     -10.927  16.100  64.741  1.00  0.00    -0.313 C  
HETATM   25  N   UNL     1     -10.704  16.460  66.146  1.00  0.00    -0.230 N  
HETATM   26  C   UNL     1     -11.865  14.909  64.909  1.00  0.00    -0.337 C  
HETATM   27  O   UNL     1     -10.771  15.361  68.211  1.00  0.00    -0.246 OA 
HETATM   28  C   UNL     1     -11.002  15.398  67.017  1.00  0.00    -0.306 C  
BRANCH  25  29
HETATM   29  S   UNL     1     -10.168  17.970  66.558  1.00  0.00    -0.381 S  
HETATM   30  O   UNL     1     -10.313  18.818  65.393  1.00  0.00    -0.433 OA 
HETATM   31  C   UNL     1      -8.421  17.736  66.821  1.00  0.00    -0.248 C  
HETATM   32  O   UNL     1     -10.767  18.346  67.818  1.00  0.00    -0.414 OA 
ENDBRANCH  25  29
ENDBRANCH  21  23
ENDBRANCH  19  21
ENDBRANCH  18  19
BRANCH  18  33
HETATM   33  C   UNL     1     -12.181  11.682  69.752  1.00  0.00    -0.285 A  
HETATM   34  C   UNL     1     -13.320  12.253  72.263  1.00  0.00    -0.375 A  
HETATM   35  C   UNL     1     -12.246  13.004  70.234  1.00  0.00    -0.368 A  
HETATM   36  C   UNL     1     -12.806  13.284  71.481  1.00  0.00    -0.419 A  
HETATM   37  C   UNL     1     -13.275  10.941  71.798  1.00  0.00    -0.513 A  
HETATM   38  C   UNL     1     -12.709  10.655  70.554  1.00  0.00    -0.395 A  
ENDBRANCH  18  33
ENDBRANCH  15  18
ENDBRANCH  12  14
TORSDOF 7
ENDMDL
MODEL       17
REMARK 921   NORMALIZED FREE ENERGY PREDICTED BY IDOCK:   -7.34 KCAL/MOL
REMARK 922        TOTAL FREE ENERGY PREDICTED BY IDOCK:  -11.87 KCAL/MOL
REMARK 923 INTER-LIGAND FREE ENERGY PREDICTED BY IDOCK:  -10.41 KCAL/MOL
REMARK 924 INTRA-LIGAND FREE ENERGY PREDICTED BY IDOCK:   -1.45 KCAL/MOL
REMARK 927      BINDING AFFINITY PREDICTED BY RF-SCORE:    0.00 PKD
ROOT
HETATM    1  C   UNL     1     -10.740   8.360  69.593  1.00  0.00    -0.198 C  
HETATM    2  S   UNL     1     -10.300   8.144  67.828  1.00  0.00    -0.222 SA 
HETATM    3  C   UNL     1      -8.619   7.449  68.159  1.00  0.00    -0.123 C  
HETATM    4  CA  UNL     1      -8.670   6.920  69.615  1.00  0.00    -0.141 C  
HETATM    5  C   UNL     1      -7.610   8.603  68.002  1.00  0.00    -0.098 C  
HETATM    6  C   UNL     1      -8.285   6.405  67.089  1.00  0.00    -0.113 C  
HETATM    7  C   UNL     1      -9.092   5.447  69.761  1.00  0.00    -0.128 C  
HETATM    8  N   UNL     1      -9.617   7.773  70.360  1.00  0.00    -0.175 N  
HETATM    9  OXT UNL     1      -8.497   4.502  69.262  1.00  0.00    -0.077 OA 
HETATM   10  O   UNL     1     -10.179   5.257  70.552  1.00  0.00    -0.230 OA 
HETATM   11  C   UNL     1      -9.182   8.993  70.822  1.00  0.00    -0.245 C  
HETATM   12  CA  UNL     1     -10.428   9.721  70.267  1.00  0.00    -0.288 C  
HETATM   13  O   UNL     1      -8.120   9.315  71.299  1.00  0.00    -0.320 OA 
ENDROOT
BRANCH  12  14
HETATM   14  N   UNL     1     -10.177  10.881  69.371  1.00  0.00    -0.400 N  
HETATM   15  C   UNL     1     -11.216  11.492  68.699  1.00  0.00    -0.248 C  
HETATM   16  H   UNL     1      -9.225  11.229  69.251  1.00  0.00     0.000 HD 
HETATM   17  O   UNL     1     -12.369  11.075  68.826  1.00  0.00    -0.533 OA 
BRANCH  15  18
HETATM   18  CA  UNL     1     -10.842  12.589  67.673  1.00  0.00    -0.225 C  
BRANCH  18  19
HETATM   19  N   UNL     1     -11.814  13.673  67.777  1.00  0.00    -0.360 N  
HETATM   20  H   UNL     1     -12.572  13.725  67.097  1.00  0.00     0.000 HD 
BRANCH  19  21
HETATM   21  C   UNL     1     -11.740  14.618  68.757  1.00  0.00    -0.324 C  
HETATM   22  O   UNL     1     -12.358  14.523  69.816  1.00  0.00    -0.316 OA 
BRANCH  21  23
HETATM   23  N   UNL     1     -10.927  15.698  68.493  1.00  0.00    -0.286 N  
HETATM   24  C   UNL     1     -10.232  17.900  69.014  1.00  0.00    -0.273 C  
HETATM   25  N   UNL     1     -10.198  17.614  67.575  1.00  0.00    -0.334 N  
HETATM   26  C   UNL     1     -10.353  16.486  69.572  1.00  0.00    -0.266 C  
HETATM   27  O   UNL     1     -10.960  15.909  66.166  1.00  0.00    -0.254 OA 
HETATM   28  C   UNL     1     -10.726  16.347  67.276  1.00  0.00    -0.257 C  
BRANCH  25  29
HETATM   29  S   UNL     1      -9.585  18.719  66.507  1.00  0.00    -0.353 S  
HETATM   30  O   UNL     1      -8.294  18.230  66.067  1.00  0.00    -0.486 OA 
HETATM   31  C   UNL     1      -9.284  20.156  67.518  1.00  0.00    -0.368 C  
HETATM   32  O   UNL     1     -10.612  19.050  65.546  1.00  0.00    -0.557 OA 
ENDBRANCH  25  29
ENDBRANCH  21  23
ENDBRANCH  19  21
ENDBRANCH  18  19
BRANCH  18  33
HETATM   33  C   UNL     1     -10.686  12.087  66.244  1.00  0.00    -0.302 A  
HETATM   34  C   UNL     1     -10.396  11.063  63.638  1.00  0.00    -0.415 A  
HETATM   35  C   UNL     1      -9.877  10.961  65.994  1.00  0.00    -0.280 A  
HETATM   36  C   UNL     1      -9.731  10.460  64.701  1.00  0.00    -0.392 A  
HETATM   37  C   UNL     1     -11.210  12.170  63.867  1.00  0.00    -0.485 A  
HETATM   38  C   UNL     1     -11.354  12.680  65.159  1.00  0.00    -0.343 A  
ENDBRANCH  18  33
ENDBRANCH  15  18
ENDBRANCH  12  14
TORSDOF 7
ENDMDL
MODEL       18
REMARK 921   NORMALIZED FREE ENERGY PREDICTED BY IDOCK:   -7.34 KCAL/MOL
REMARK 922        TOTAL FREE ENERGY PREDICTED BY IDOCK:  -11.87 KCAL/MOL
REMARK 923 INTER-LIGAND FREE ENERGY PREDICTED BY IDOCK:  -10.22 KCAL/MOL
REMARK 924 INTRA-LIGAND FREE ENERGY PREDICTED BY IDOCK:   -1.65 KCAL/MOL
REMARK 927      BINDING AFFINITY PREDICTED BY RF-SCORE:    0.00 PKD
ROOT
HETATM    1  C   UNL     1     -10.789  16.360  68.454  1.00  0.00    -0.342 C  
HETATM    2  S   UNL     1      -9.318  15.679  69.307  1.00  0.00    -0.274 SA 
HETATM    3  C   UNL     1      -8.087  16.554  68.239  1.00  0.00    -0.179 C  
HETATM    4  CA  UNL     1      -8.857  17.744  67.612  1.00  0.00    -0.248 C  
HETATM    5  C   UNL     1      -7.613  15.549  67.172  1.00  0.00    -0.253 C  
HETATM    6  C   UNL     1      -6.865  16.930  69.084  1.00  0.00    -0.238 C  
HETATM    7  C   UNL     1      -8.800  19.056  68.415  1.00  0.00    -0.342 C  
HETATM    8  N   UNL     1     -10.264  17.327  67.462  1.00  0.00    -0.316 N  
HETATM    9  OXT UNL     1      -7.769  19.653  68.694  1.00  0.00    -0.347 OA 
HETATM   10  O   UNL     1     -10.016  19.550  68.759  1.00  0.00    -0.430 OA 
HETATM   11  C   UNL     1     -10.609  16.542  66.386  1.00  0.00    -0.221 C  
HETATM   12  CA  UNL     1     -11.396  15.553  67.277  1.00  0.00    -0.167 C  
HETATM   13  O   UNL     1     -10.230  16.576  65.240  1.00  0.00    -0.588 OA 
ENDROOT
BRANCH  12  14
HETATM   14  N   UNL     1     -11.020  14.119  67.172  1.00  0.00    -0.294 N  
HETATM   15  C   UNL     1     -11.729  13.260  66.357  1.00  0.00    -0.373 C  
HETATM   16  H   UNL     1     -10.227  13.764  67.709  1.00  0.00     0.000 HD 
HETATM   17  O   UNL     1     -12.696  13.672  65.712  1.00  0.00    -0.471 OA 
BRANCH  15  18
HETATM   18  CA  UNL     1     -11.364  11.757  66.429  1.00  0.00    -0.297 C  
BRANCH  18  19
HETATM   19  N   UNL     1     -10.709  11.500  67.708  1.00  0.00    -0.197 N  
HETATM   20  H   UNL     1      -9.732  11.769  67.826  1.00  0.00     0.000 HD 
BRANCH  19  21
HETATM   21  C   UNL     1     -11.362  10.911  68.749  1.00  0.00    -0.292 C  
HETATM   22  O   UNL     1     -12.524  11.190  69.043  1.00  0.00    -0.439 OA 
BRANCH  21  23
HETATM   23  N   UNL     1     -10.645   9.977  69.461  1.00  0.00    -0.227 N  
HETATM   24  C   UNL     1     -10.289   8.783  71.475  1.00  0.00    -0.303 C  
HETATM   25  N   UNL     1      -9.043   9.094  70.765  1.00  0.00    -0.241 N  
HETATM   26  C   UNL     1     -11.307   9.057  70.372  1.00  0.00    -0.210 C  
HETATM   27  O   UNL     1      -8.410  10.436  68.955  1.00  0.00    -0.130 OA 
HETATM   28  C   UNL     1      -9.264   9.904  69.638  1.00  0.00    -0.227 C  
BRANCH  25  29
HETATM   29  S   UNL     1      -7.592   8.509  71.305  1.00  0.00    -0.110 S  
HETATM   30  O   UNL     1      -6.997   7.751  70.223  1.00  0.00    -0.048 OA 
HETATM   31  C   UNL     1      -8.057   7.341  72.569  1.00  0.00    -0.099 C  
HETATM   32  O   UNL     1      -6.865   9.587  71.933  1.00  0.00    -0.292 OA 
ENDBRANCH  25  29
ENDBRANCH  21  23
ENDBRANCH  19  21
ENDBRANCH  18  19
BRANCH  18  33
HETATM   33  C   UNL     1     -10.548  11.251  65.248  1.00  0.00    -0.323 A  
HETATM   34  C   UNL     1      -9.067  10.218  63.088  1.00  0.00    -0.287 A  
HETATM   35  C   UNL     1      -9.872  10.019  65.356  1.00  0.00    -0.384 A  
HETATM   36  C   UNL     1      -9.135   9.513  64.286  1.00  0.00    -0.220 A  
HETATM   37  C   UNL     1      -9.738  11.432  62.958  1.00  0.00    -0.393 A  
HETATM   38  C   UNL     1     -10.472  11.946  64.029  1.00  0.00    -0.417 A  
ENDBRANCH  18  33
ENDBRANCH  15  18
ENDBRANCH  12  14
TORSDOF 7
ENDMDL
MODEL       19
REMARK 921   NORMALIZED FREE ENERGY PREDICTED BY IDOCK:   -7.33 KCAL/MOL
REMARK 922        TOTAL FREE ENERGY PREDICTED BY IDOCK:  -11.86 KCAL/MOL
REMARK 923 INTER-LIGAND FREE ENERGY PREDICTED BY IDOCK:  -10.18 KCAL/MOL
REMARK 924 INTRA-LIGAND FREE ENERGY PREDICTED BY IDOCK:   -1.67 KCAL/MOL
REMARK 927      BINDING AFFINITY PREDICTED BY RF-SCORE:    0.00 PKD
ROOT
HETATM    1  C   UNL     1     -12.154  13.239  66.438  1.00  0.00    -0.394 C  
HETATM    2  S   UNL     1     -11.720  14.550  67.641  1.00  0.00    -0.370 SA 
HETATM    3  C   UNL     1     -10.386  15.295  66.601  1.00  0.00    -0.280 C  
HETATM    4  CA  UNL     1     -10.685  14.835  65.152  1.00  0.00    -0.415 C  
HETATM    5  C   UNL     1      -9.043  14.739  67.115  1.00  0.00    -0.231 C  
HETATM    6  C   UNL     1     -10.363  16.812  66.820  1.00  0.00    -0.293 C  
HETATM    7  C   UNL     1     -11.580  15.785  64.335  1.00  0.00    -0.240 C  
HETATM    8  N   UNL     1     -11.331  13.511  65.236  1.00  0.00    -0.287 N  
HETATM    9  OXT UNL     1     -11.307  16.951  64.086  1.00  0.00    -1.208 OA 
HETATM   10  O   UNL     1     -12.708  15.205  63.851  1.00  0.00    -0.759 OA 
HETATM   11  C   UNL     1     -10.540  12.401  65.421  1.00  0.00    -0.284 C  
HETATM   12  CA  UNL     1     -11.442  11.866  66.557  1.00  0.00    -0.314 C  
HETATM   13  O   UNL     1      -9.458  12.127  64.960  1.00  0.00    -0.067 OA 
ENDROOT
BRANCH  12  14
HETATM   14  N   UNL     1     -10.774  11.559  67.849  1.00  0.00    -0.191 N  
HETATM   15  C   UNL     1     -10.576  10.252  68.248  1.00  0.00    -0.221 C  
HETATM   16  H   UNL     1     -10.457  12.322  68.447  1.00  0.00     0.000 HD 
HETATM   17  O   UNL     1     -10.963   9.321  67.540  1.00  0.00    -0.199 OA 
BRANCH  15  18
HETATM   18  CA  UNL     1     -10.013  10.029  69.673  1.00  0.00    -0.236 C  
BRANCH  18  19
HETATM   19  N   UNL     1      -8.913   9.072  69.592  1.00  0.00    -0.147 N  
HETATM   20  H   UNL     1      -8.916   8.262  70.211  1.00  0.00     0.000 HD 
BRANCH  19  21
HETATM   21  C   UNL     1      -7.882   9.229  68.715  1.00  0.00    -0.088 C  
HETATM   22  O   UNL     1      -7.088  10.167  68.788  1.00  0.00    -0.071 OA 
BRANCH  21  23
HETATM   23  N   UNL     1      -7.775   8.273  67.731  1.00  0.00    -0.102 N  
HETATM   24  C   UNL     1      -7.927   7.675  65.445  1.00  0.00    -0.123 C  
HETATM   25  N   UNL     1      -8.345   6.597  66.348  1.00  0.00    -0.116 N  
HETATM   26  C   UNL     1      -7.211   8.594  66.430  1.00  0.00    -0.080 C  
HETATM   27  O   UNL     1      -8.807   6.379  68.632  1.00  0.00    -0.121 OA 
HETATM   28  C   UNL     1      -8.362   7.009  67.692  1.00  0.00    -0.117 C  
BRANCH  25  29
HETATM   29  S   UNL     1      -8.730   5.099  65.758  1.00  0.00    -0.143 S  
HETATM   30  O   UNL     1      -8.500   5.122  64.328  1.00  0.00    -0.134 OA 
HETATM   31  C   UNL     1     -10.491   4.992  66.004  1.00  0.00    -0.242 C  
HETATM   32  O   UNL     1      -8.096   4.100  66.587  1.00  0.00    -0.100 OA 
ENDBRANCH  25  29
ENDBRANCH  21  23
ENDBRANCH  19  21
ENDBRANCH  18  19
BRANCH  18  33
HETATM   33  C   UNL     1     -11.056   9.626  70.705  1.00  0.00    -0.403 A  
HETATM   34  C   UNL     1     -13.058   8.922  72.556  1.00  0.00    -0.426 A  
HETATM   35  C   UNL     1     -12.156  10.474  70.940  1.00  0.00    -0.487 A  
HETATM   36  C   UNL     1     -13.143  10.125  71.861  1.00  0.00    -0.571 A  
HETATM   37  C   UNL     1     -11.983   8.065  72.329  1.00  0.00    -0.412 A  
HETATM   38  C   UNL     1     -10.989   8.413  71.412  1.00  0.00    -0.311 A  
ENDBRANCH  18  33
ENDBRANCH  15  18
ENDBRANCH  12  14
TORSDOF 7
ENDMDL
MODEL       20
REMARK 921   NORMALIZED FREE ENERGY PREDICTED BY IDOCK:   -7.28 KCAL/MOL
REMARK 922        TOTAL FREE ENERGY PREDICTED BY IDOCK:  -11.78 KCAL/MOL
REMARK 923 INTER-LIGAND FREE ENERGY PREDICTED BY IDOCK:  -10.51 KCAL/MOL
REMARK 924 INTRA-LIGAND FREE ENERGY PREDICTED BY IDOCK:   -1.27 KCAL/MOL
REMARK 927      BINDING AFFINITY PREDICTED BY RF-SCORE:    0.00 PKD
ROOT
HETATM    1  C   UNL     1      -9.527  17.840  67.596  1.00  0.00    -0.255 C  
HETATM    2  S   UNL     1      -8.121  17.528  68.729  1.00  0.00    -0.183 SA 
HETATM    3  C   UNL     1      -6.981  16.908  67.412  1.00  0.00    -0.154 C  
HETATM    4  CA  UNL     1      -7.547  17.463  66.080  1.00  0.00    -0.286 C  
HETATM    5  C   UNL     1      -7.025  15.369  67.459  1.00  0.00    -0.223 C  
HETATM    6  C   UNL     1      -5.547  17.332  67.746  1.00  0.00    -0.127 C  
HETATM    7  C   UNL     1      -6.985  18.829  65.648  1.00  0.00    -0.225 C  
HETATM    8  N   UNL     1      -9.012  17.566  66.234  1.00  0.00    -0.227 N  
HETATM    9  OXT UNL     1      -5.803  19.055  65.433  1.00  0.00    -0.173 OA 
HETATM   10  O   UNL     1      -7.931  19.786  65.468  1.00  0.00    -0.370 OA 
HETATM   11  C   UNL     1      -9.773  16.431  66.081  1.00  0.00    -0.327 C  
HETATM   12  CA  UNL     1     -10.564  16.707  67.381  1.00  0.00    -0.295 C  
HETATM   13  O   UNL     1      -9.664  15.515  65.301  1.00  0.00    -0.270 OA 
ENDROOT
BRANCH  12  14
HETATM   14  N   UNL     1     -10.592  15.613  68.387  1.00  0.00    -0.244 N  
HETATM   15  C   UNL     1     -11.515  14.591  68.294  1.00  0.00    -0.311 C  
HETATM   16  H   UNL     1      -9.922  15.618  69.157  1.00  0.00     0.000 HD 
HETATM   17  O   UNL     1     -12.339  14.580  67.376  1.00  0.00    -0.260 OA 
BRANCH  15  18
HETATM   18  CA  UNL     1     -11.572  13.583  69.467  1.00  0.00    -0.294 C  
BRANCH  18  19
HETATM   19  N   UNL     1     -12.371  12.433  69.053  1.00  0.00     0.054 N  
HETATM   20  H   UNL     1     -13.382  12.465  69.174  1.00  0.00     0.000 HD 
BRANCH  19  21
HETATM   21  C   UNL     1     -11.805  11.318  68.511  1.00  0.00    -0.285 C  
HETATM   22  O   UNL     1     -11.666  11.171  67.297  1.00  0.00    -0.540 OA 
BRANCH  21  23
HETATM   23  N   UNL     1     -11.392  10.356  69.403  1.00  0.00    -0.250 N  
HETATM   24  C   UNL     1     -11.354   9.508  71.614  1.00  0.00    -0.341 C  
HETATM   25  N   UNL     1     -10.101   9.270  70.887  1.00  0.00    -0.283 N  
HETATM   26  C   UNL     1     -12.275   9.879  70.456  1.00  0.00    -0.179 C  
HETATM   27  O   UNL     1      -9.147   9.980  68.872  1.00  0.00    -0.142 OA 
HETATM   28  C   UNL     1     -10.099   9.883  69.623  1.00  0.00    -0.230 C  
BRANCH  25  29
HETATM   29  S   UNL     1      -8.889   8.367  71.562  1.00  0.00    -0.204 S  
HETATM   30  O   UNL     1      -8.809   7.124  70.823  1.00  0.00    -0.146 OA 
HETATM   31  C   UNL     1      -9.515   7.973  73.184  1.00  0.00    -0.280 C  
HETATM   32  O   UNL     1      -7.723   9.205  71.720  1.00  0.00    -0.344 OA 
ENDBRANCH  25  29
ENDBRANCH  21  23
ENDBRANCH  19  21
ENDBRANCH  18  19
BRANCH  18  33
HETATM   33  C   UNL     1     -12.051  14.177  70.784  1.00  0.00    -0.419 A  
HETATM   34  C   UNL     1     -12.960  15.181  73.252  1.00  0.00    -0.645 A  
HETATM   35  C   UNL     1     -13.151  13.593  71.442  1.00  0.00    -0.396 A  
HETATM   36  C   UNL     1     -13.603  14.096  72.663  1.00  0.00    -0.618 A  
HETATM   37  C   UNL     1     -11.864  15.764  72.622  1.00  0.00    -0.596 A  
HETATM   38  C   UNL     1     -11.412  15.269  71.397  1.00  0.00    -0.444 A  
ENDBRANCH  18  33
ENDBRANCH  15  18
ENDBRANCH  12  14
TORSDOF 7
ENDMDL
MODEL       21
REMARK 921   NORMALIZED FREE ENERGY PREDICTED BY IDOCK:   -7.22 KCAL/MOL
REMARK 922        TOTAL FREE ENERGY PREDICTED BY IDOCK:  -11.70 KCAL/MOL
REMARK 923 INTER-LIGAND FREE ENERGY PREDICTED BY IDOCK:  -10.42 KCAL/MOL
REMARK 924 INTRA-LIGAND FREE ENERGY PREDICTED BY IDOCK:   -1.28 KCAL/MOL
REMARK 927      BINDING AFFINITY PREDICTED BY RF-SCORE:    0.00 PKD
ROOT
HETATM    1  C   UNL     1     -11.566   7.617  71.544  1.00  0.00    -0.274 C  
HETATM    2  S   UNL     1     -11.359   6.803  69.916  1.00  0.00    -0.298 SA 
HETATM    3  C   UNL     1      -9.857   5.840  70.402  1.00  0.00    -0.186 C  
HETATM    4  CA  UNL     1      -9.887   5.780  71.950  1.00  0.00    -0.164 C  
HETATM    5  C   UNL     1      -8.631   6.614  69.881  1.00  0.00    -0.140 C  
HETATM    6  C   UNL     1      -9.875   4.484  69.689  1.00  0.00    -0.288 C  
HETATM    7  C   UNL     1     -10.619   4.562  72.544  1.00  0.00    -0.158 C  
HETATM    8  N   UNL     1     -10.538   7.017  72.425  1.00  0.00    -0.215 N  
HETATM    9  OXT UNL     1     -10.305   3.398  72.338  1.00  0.00    -0.155 OA 
HETATM   10  O   UNL     1     -11.639   4.881  73.380  1.00  0.00    -0.313 OA 
HETATM   11  C   UNL     1      -9.794   8.171  72.488  1.00  0.00    -0.293 C  
HETATM   12  CA  UNL     1     -10.888   8.994  71.769  1.00  0.00    -0.367 C  
HETATM   13  O   UNL     1      -8.645   8.344  72.821  1.00  0.00    -0.236 OA 
ENDROOT
BRANCH  12  14
HETATM   14  N   UNL     1     -10.466   9.748  70.560  1.00  0.00    -0.295 N  
HETATM   15  C   UNL     1     -11.289  10.704  70.001  1.00  0.00    -0.324 C  
HETATM   16  H   UNL     1      -9.556   9.557  70.138  1.00  0.00     0.000 HD 
HETATM   17  O   UNL     1     -12.395  10.937  70.494  1.00  0.00    -0.318 OA 
BRANCH  15  18
HETATM   18  CA  UNL     1     -10.835  11.327  68.658  1.00  0.00    -0.204 C  
BRANCH  18  19
HETATM   19  N   UNL     1     -12.004  11.893  67.990  1.00  0.00    -0.242 N  
HETATM   20  H   UNL     1     -12.931  11.698  68.367  1.00  0.00     0.000 HD 
BRANCH  19  21
HETATM   21  C   UNL     1     -11.893  12.674  66.878  1.00  0.00    -0.355 C  
HETATM   22  O   UNL     1     -12.268  12.300  65.768  1.00  0.00    -0.622 OA 
BRANCH  21  23
HETATM   23  N   UNL     1     -11.332  13.916  67.067  1.00  0.00    -0.313 N  
HETATM   24  C   UNL     1     -11.438  16.075  68.033  1.00  0.00    -0.199 C  
HETATM   25  N   UNL     1     -10.809  16.071  66.706  1.00  0.00    -0.253 N  
HETATM   26  C   UNL     1     -11.404  14.585  68.356  1.00  0.00    -0.289 C  
HETATM   27  O   UNL     1     -10.559  14.543  64.952  1.00  0.00    -0.409 OA 
HETATM   28  C   UNL     1     -10.863  14.804  66.100  1.00  0.00    -0.321 C  
BRANCH  25  29
HETATM   29  S   UNL     1     -10.138  17.449  66.083  1.00  0.00    -0.264 S  
HETATM   30  O   UNL     1      -8.707  17.241  66.005  1.00  0.00    -0.497 OA 
HETATM   31  C   UNL     1     -10.422  18.664  67.355  1.00  0.00    -0.423 C  
HETATM   32  O   UNL     1     -10.888  17.839  64.911  1.00  0.00    -0.815 OA 
ENDBRANCH  25  29
ENDBRANCH  21  23
ENDBRANCH  19  21
ENDBRANCH  18  19
BRANCH  18  33
HETATM   33  C   UNL     1     -10.055  10.381  67.757  1.00  0.00    -0.212 A  
HETATM   34  C   UNL     1      -8.531   8.645  66.149  1.00  0.00    -0.140 A  
HETATM   35  C   UNL     1      -8.695  10.639  67.501  1.00  0.00    -0.125 A  
HETATM   36  C   UNL     1      -7.943   9.780  66.699  1.00  0.00    -0.112 A  
HETATM   37  C   UNL     1      -9.872   8.366  66.400  1.00  0.00    -0.310 A  
HETATM   38  C   UNL     1     -10.630   9.227  67.197  1.00  0.00    -0.286 A  
ENDBRANCH  18  33
ENDBRANCH  15  18
ENDBRANCH  12  14
TORSDOF 7
ENDMDL
MODEL       22
REMARK 921   NORMALIZED FREE ENERGY PREDICTED BY IDOCK:   -7.18 KCAL/MOL
REMARK 922        TOTAL FREE ENERGY PREDICTED BY IDOCK:  -11.64 KCAL/MOL
REMARK 923 INTER-LIGAND FREE ENERGY PREDICTED BY IDOCK:  -10.40 KCAL/MOL
REMARK 924 INTRA-LIGAND FREE ENERGY PREDICTED BY IDOCK:   -1.24 KCAL/MOL
REMARK 927      BINDING AFFINITY PREDICTED BY RF-SCORE:    0.00 PKD
ROOT
HETATM    1  C   UNL     1      -9.039  11.084  67.374  1.00  0.00    -0.141 C  
HETATM    2  S   UNL     1      -8.856  10.429  69.075  1.00  0.00    -0.171 SA 
HETATM    3  C   UNL     1     -10.469   9.524  69.079  1.00  0.00    -0.213 C  
HETATM    4  CA  UNL     1     -10.836   9.328  67.586  1.00  0.00    -0.119 C  
HETATM    5  C   UNL     1     -11.490  10.417  69.810  1.00  0.00    -0.348 C  
HETATM    6  C   UNL     1     -10.323   8.237  69.897  1.00  0.00    -0.218 C  
HETATM    7  C   UNL     1     -10.329   8.020  66.954  1.00  0.00    -0.338 C  
HETATM    8  N   UNL     1     -10.280  10.476  66.842  1.00  0.00    -0.220 N  
HETATM    9  OXT UNL     1     -10.625   6.900  67.346  1.00  0.00    -0.228 OA 
HETATM   10  O   UNL     1      -9.543   8.199  65.861  1.00  0.00    -0.103 OA 
HETATM   11  C   UNL     1     -10.970  11.665  66.852  1.00  0.00    -0.292 C  
HETATM   12  CA  UNL     1      -9.698  12.476  67.190  1.00  0.00    -0.205 C  
HETATM   13  O   UNL     1     -12.157  11.881  66.802  1.00  0.00    -0.593 OA 
ENDROOT
BRANCH  12  14
HETATM   14  N   UNL     1      -9.768  13.358  68.384  1.00  0.00    -0.269 N  
HETATM   15  C   UNL     1     -10.476  14.542  68.347  1.00  0.00    -0.246 C  
HETATM   16  H   UNL     1      -9.287  13.085  69.241  1.00  0.00     0.000 HD 
HETATM   17  O   UNL     1     -11.052  14.889  67.314  1.00  0.00    -0.317 OA 
BRANCH  15  18
HETATM   18  CA  UNL     1     -10.366  15.467  69.583  1.00  0.00    -0.283 C  
BRANCH  18  19
HETATM   19  N   UNL     1      -8.987  15.436  70.065  1.00  0.00    -0.239 N  
HETATM   20  H   UNL     1      -8.816  15.353  71.066  1.00  0.00     0.000 HD 
BRANCH  19  21
HETATM   21  C   UNL     1      -7.924  15.513  69.216  1.00  0.00    -0.238 C  
HETATM   22  O   UNL     1      -7.261  14.528  68.894  1.00  0.00    -0.112 OA 
BRANCH  21  23
HETATM   23  N   UNL     1      -7.626  16.768  68.735  1.00  0.00    -0.229 N  
HETATM   24  C   UNL     1      -7.494  19.106  69.082  1.00  0.00    -0.263 C  
HETATM   25  N   UNL     1      -7.887  18.752  67.713  1.00  0.00    -0.240 N  
HETATM   26  C   UNL     1      -6.973  17.759  69.575  1.00  0.00     0.020 C  
HETATM   27  O   UNL     1      -8.545  16.810  66.586  1.00  0.00    -0.209 OA 
HETATM   28  C   UNL     1      -8.076  17.368  67.560  1.00  0.00    -0.196 C  
BRANCH  25  29
HETATM   29  S   UNL     1      -8.060  19.919  66.553  1.00  0.00    -0.327 S  
HETATM   30  O   UNL     1      -7.673  21.183  67.145  1.00  0.00    -0.308 OA 
HETATM   31  C   UNL     1      -9.820  19.984  66.284  1.00  0.00    -0.462 C  
HETATM   32  O   UNL     1      -7.434  19.456  65.336  1.00  0.00    -0.426 OA 
ENDBRANCH  25  29
ENDBRANCH  21  23
ENDBRANCH  19  21
ENDBRANCH  18  19
BRANCH  18  33
HETATM   33  C   UNL     1     -11.371  15.168  70.685  1.00  0.00    -0.330 A  
HETATM   34  C   UNL     1     -13.257  14.712  72.725  1.00  0.00    -0.591 A  
HETATM   35  C   UNL     1     -11.591  16.125  71.696  1.00  0.00    -0.503 A  
HETATM   36  C   UNL     1     -12.522  15.894  72.708  1.00  0.00    -0.565 A  
HETATM   37  C   UNL     1     -13.062  13.759  71.728  1.00  0.00    -0.463 A  
HETATM   38  C   UNL     1     -12.126  13.982  70.717  1.00  0.00    -0.417 A  
ENDBRANCH  18  33
ENDBRANCH  15  18
ENDBRANCH  12  14
TORSDOF 7
ENDMDL
MODEL       23
REMARK 921   NORMALIZED FREE ENERGY PREDICTED BY IDOCK:   -7.18 KCAL/MOL
REMARK 922        TOTAL FREE ENERGY PREDICTED BY IDOCK:  -11.64 KCAL/MOL
REMARK 923 INTER-LIGAND FREE ENERGY PREDICTED BY IDOCK:  -10.63 KCAL/MOL
REMARK 924 INTRA-LIGAND FREE ENERGY PREDICTED BY IDOCK:   -1.00 KCAL/MOL
REMARK 927      BINDING AFFINITY PREDICTED BY RF-SCORE:    0.00 PKD
ROOT
HETATM    1  C   UNL     1      -7.840  17.068  66.215  1.00  0.00    -0.311 C  
HETATM    2  S   UNL     1      -9.492  17.842  66.054  1.00  0.00     0.035 SA 
HETATM    3  C   UNL     1      -9.343  18.872  67.583  1.00  0.00    -0.296 C  
HETATM    4  CA  UNL     1      -7.823  18.975  67.865  1.00  0.00    -0.271 C  
HETATM    5  C   UNL     1     -10.087  18.127  68.708  1.00  0.00    -0.392 C  
HETATM    6  C   UNL     1     -10.066  20.205  67.365  1.00  0.00    -0.556 C  
HETATM    7  C   UNL     1      -7.119  20.183  67.220  1.00  0.00    -0.260 C  
HETATM    8  N   UNL     1      -7.199  17.730  67.376  1.00  0.00    -0.184 N  
HETATM    9  OXT UNL     1      -7.408  21.351  67.437  1.00  0.00    -0.493 OA 
HETATM   10  O   UNL     1      -6.085  19.852  66.405  1.00  0.00    -0.168 OA 
HETATM   11  C   UNL     1      -7.265  16.605  68.164  1.00  0.00    -0.157 C  
HETATM   12  CA  UNL     1      -7.729  15.724  66.981  1.00  0.00    -0.232 C  
HETATM   13  O   UNL     1      -7.170  16.483  69.362  1.00  0.00    -0.231 OA 
ENDROOT
BRANCH  12  14
HETATM   14  N   UNL     1      -8.982  14.950  67.179  1.00  0.00    -0.201 N  
HETATM   15  C   UNL     1      -8.946  13.585  67.383  1.00  0.00    -0.219 C  
HETATM   16  H   UNL     1      -9.881  15.433  67.165  1.00  0.00     0.000 HD 
HETATM   17  O   UNL     1      -7.867  12.988  67.392  1.00  0.00    -0.165 OA 
BRANCH  15  18
HETATM   18  CA  UNL     1     -10.303  12.843  67.425  1.00  0.00    -0.233 C  
BRANCH  18  19
HETATM   19  N   UNL     1     -10.137  11.615  68.199  1.00  0.00    -0.190 N  
HETATM   20  H   UNL     1      -9.202  11.224  68.310  1.00  0.00     0.000 HD 
BRANCH  19  21
HETATM   21  C   UNL     1     -11.193  10.978  68.777  1.00  0.00    -0.266 C  
HETATM   22  O   UNL     1     -12.351  11.380  68.666  1.00  0.00    -0.491 OA 
BRANCH  21  23
HETATM   23  N   UNL     1     -10.893   9.847  69.502  1.00  0.00    -0.236 N  
HETATM   24  C   UNL     1     -10.528   7.508  69.572  1.00  0.00    -0.226 C  
HETATM   25  N   UNL     1     -11.183   8.022  70.781  1.00  0.00    -0.264 N  
HETATM   26  C   UNL     1     -10.030   8.812  68.955  1.00  0.00    -0.191 C  
HETATM   27  O   UNL     1     -12.172  10.035  71.449  1.00  0.00    -0.362 OA 
HETATM   28  C   UNL     1     -11.498   9.387  70.671  1.00  0.00    -0.284 C  
BRANCH  25  29
HETATM   29  S   UNL     1     -11.470   7.031  72.074  1.00  0.00    -0.282 S  
HETATM   30  O   UNL     1     -10.921   7.677  73.249  1.00  0.00    -0.400 OA 
HETATM   31  C   UNL     1     -10.457   5.603  71.740  1.00  0.00    -0.228 C  
HETATM   32  O   UNL     1     -12.855   6.620  72.042  1.00  0.00    -0.287 OA 
ENDBRANCH  25  29
ENDBRANCH  21  23
ENDBRANCH  19  21
ENDBRANCH  18  19
BRANCH  18  33
HETATM   33  C   UNL     1     -10.922  12.586  66.059  1.00  0.00    -0.318 A  
HETATM   34  C   UNL     1     -12.032  12.015  63.535  1.00  0.00    -0.605 A  
HETATM   35  C   UNL     1     -10.248  11.756  65.142  1.00  0.00    -0.309 A  
HETATM   36  C   UNL     1     -10.797  11.479  63.891  1.00  0.00    -0.469 A  
HETATM   37  C   UNL     1     -12.719  12.829  64.433  1.00  0.00    -0.370 A  
HETATM   38  C   UNL     1     -12.170  13.114  65.684  1.00  0.00    -0.521 A  
ENDBRANCH  18  33
ENDBRANCH  15  18
ENDBRANCH  12  14
TORSDOF 7
ENDMDL
MODEL       24
REMARK 921   NORMALIZED FREE ENERGY PREDICTED BY IDOCK:   -7.11 KCAL/MOL
REMARK 922        TOTAL FREE ENERGY PREDICTED BY IDOCK:  -11.55 KCAL/MOL
REMARK 923 INTER-LIGAND FREE ENERGY PREDICTED BY IDOCK:  -10.12 KCAL/MOL
REMARK 924 INTRA-LIGAND FREE ENERGY PREDICTED BY IDOCK:   -1.42 KCAL/MOL
REMARK 927      BINDING AFFINITY PREDICTED BY RF-SCORE:    0.00 PKD
ROOT
HETATM    1  C   UNL     1      -8.725   7.894  67.510  1.00  0.00    -0.125 C  
HETATM    2  S   UNL     1      -8.505   7.839  69.328  1.00  0.00    -0.138 SA 
HETATM    3  C   UNL     1      -9.075   6.090  69.511  1.00  0.00    -0.137 C  
HETATM    4  CA  UNL     1      -8.910   5.452  68.109  1.00  0.00    -0.105 C  
HETATM    5  C   UNL     1     -10.551   6.137  69.952  1.00  0.00    -0.328 C  
HETATM    6  C   UNL     1      -8.286   5.418  70.640  1.00  0.00    -0.114 C  
HETATM    7  C   UNL     1      -7.552   4.774  67.854  1.00  0.00    -0.082 C  
HETATM    8  N   UNL     1      -9.115   6.521  67.113  1.00  0.00    -0.119 N  
HETATM    9  OXT UNL     1      -7.106   3.845  68.514  1.00  0.00    -0.050 OA 
HETATM   10  O   UNL     1      -6.881   5.261  66.780  1.00  0.00    -0.060 OA 
HETATM   11  C   UNL     1     -10.401   6.886  66.791  1.00  0.00    -0.217 C  
HETATM   12  CA  UNL     1     -10.084   8.391  66.949  1.00  0.00    -0.294 C  
HETATM   13  O   UNL     1     -11.392   6.211  66.646  1.00  0.00    -0.138 OA 
ENDROOT
BRANCH  12  14
HETATM   14  N   UNL     1     -10.958   9.162  67.871  1.00  0.00    -0.498 N  
HETATM   15  C   UNL     1     -10.822  10.530  67.994  1.00  0.00    -0.263 C  
HETATM   16  H   UNL     1     -11.666   8.675  68.420  1.00  0.00     0.000 HD 
HETATM   17  O   UNL     1      -9.962  11.130  67.345  1.00  0.00    -0.176 OA 
BRANCH  15  18
HETATM   18  CA  UNL     1     -11.667  11.227  69.088  1.00  0.00    -0.341 C  
BRANCH  18  19
HETATM   19  N   UNL     1     -11.010  12.478  69.456  1.00  0.00    -0.459 N  
HETATM   20  H   UNL     1     -10.014  12.468  69.672  1.00  0.00     0.000 HD 
BRANCH  19  21
HETATM   21  C   UNL     1     -11.689  13.658  69.519  1.00  0.00    -0.322 C  
HETATM   22  O   UNL     1     -12.763  13.773  70.108  1.00  0.00    -0.243 OA 
BRANCH  21  23
HETATM   23  N   UNL     1     -11.102  14.727  68.881  1.00  0.00    -0.240 N  
HETATM   24  C   UNL     1     -10.996  17.060  68.489  1.00  0.00    -0.247 C  
HETATM   25  N   UNL     1     -10.675  16.264  67.299  1.00  0.00    -0.299 N  
HETATM   26  C   UNL     1     -10.890  15.989  69.571  1.00  0.00    -0.317 C  
HETATM   27  O   UNL     1     -10.814  14.013  66.674  1.00  0.00    -0.293 OA 
HETATM   28  C   UNL     1     -10.859  14.888  67.518  1.00  0.00    -0.292 C  
BRANCH  25  29
HETATM   29  S   UNL     1     -10.159  16.994  65.906  1.00  0.00    -0.212 S  
HETATM   30  O   UNL     1      -8.729  16.784  65.808  1.00  0.00    -0.496 OA 
HETATM   31  C   UNL     1     -10.413  18.729  66.225  1.00  0.00    -0.435 C  
HETATM   32  O   UNL     1     -11.035  16.600  64.827  1.00  0.00    -0.705 OA 
ENDBRANCH  25  29
ENDBRANCH  21  23
ENDBRANCH  19  21
ENDBRANCH  18  19
BRANCH  18  33
HETATM   33  C   UNL     1     -11.971  10.355  70.298  1.00  0.00    -0.387 A  
HETATM   34  C   UNL     1     -12.444   8.772  72.578  1.00  0.00    -0.368 A  
HETATM   35  C   UNL     1     -10.914   9.690  70.950  1.00  0.00    -0.412 A  
HETATM   36  C   UNL     1     -11.152   8.902  72.076  1.00  0.00    -0.421 A  
HETATM   37  C   UNL     1     -13.500   9.432  71.954  1.00  0.00    -0.500 A  
HETATM   38  C   UNL     1     -13.268  10.216  70.822  1.00  0.00    -0.290 A  
ENDBRANCH  18  33
ENDBRANCH  15  18
ENDBRANCH  12  14
TORSDOF 7
ENDMDL
MODEL       25
REMARK 921   NORMALIZED FREE ENERGY PREDICTED BY IDOCK:   -7.10 KCAL/MOL
REMARK 922        TOTAL FREE ENERGY PREDICTED BY IDOCK:  -11.53 KCAL/MOL
REMARK 923 INTER-LIGAND FREE ENERGY PREDICTED BY IDOCK:  -10.33 KCAL/MOL
REMARK 924 INTRA-LIGAND FREE ENERGY PREDICTED BY IDOCK:   -1.20 KCAL/MOL
REMARK 927      BINDING AFFINITY PREDICTED BY RF-SCORE:    0.00 PKD
ROOT
HETATM    1  C   UNL     1      -8.720   7.481  70.503  1.00  0.00    -0.146 C  
HETATM    2  S   UNL     1      -8.964   8.277  72.135  1.00  0.00    -0.228 SA 
HETATM    3  C   UNL     1     -10.340   7.160  72.661  1.00  0.00    -0.215 C  
HETATM    4  CA  UNL     1     -10.201   5.890  71.783  1.00  0.00    -0.203 C  
HETATM    5  C   UNL     1     -11.661   7.905  72.389  1.00  0.00    -0.423 C  
HETATM    6  C   UNL     1     -10.251   6.929  74.173  1.00  0.00    -0.331 C  
HETATM    7  C   UNL     1      -9.328   4.773  72.382  1.00  0.00    -0.130 C  
HETATM    8  N   UNL     1      -9.631   6.312  70.488  1.00  0.00    -0.164 N  
HETATM    9  OXT UNL     1      -9.551   4.215  73.447  1.00  0.00    -0.113 OA 
HETATM   10  O   UNL     1      -8.286   4.401  71.596  1.00  0.00    -0.093 OA 
HETATM   11  C   UNL     1     -10.467   6.866  69.548  1.00  0.00    -0.223 C  
HETATM   12  CA  UNL     1      -9.500   8.044  69.286  1.00  0.00    -0.155 C  
HETATM   13  O   UNL     1     -11.601   6.581  69.245  1.00  0.00    -0.309 OA 
ENDROOT
BRANCH  12  14
HETATM   14  N   UNL     1     -10.067   9.412  69.417  1.00  0.00    -0.189 N  
HETATM   15  C   UNL     1     -10.750   9.997  68.370  1.00  0.00    -0.234 C  
HETATM   16  H   UNL     1      -9.949   9.925  70.291  1.00  0.00     0.000 HD 
HETATM   17  O   UNL     1     -10.889   9.392  67.304  1.00  0.00    -0.247 OA 
BRANCH  15  18
HETATM   18  CA  UNL     1     -11.168  11.477  68.541  1.00  0.00    -0.258 C  
BRANCH  18  19
HETATM   19  N   UNL     1      -9.983  12.316  68.385  1.00  0.00    -0.227 N  
HETATM   20  H   UNL     1      -9.441  12.564  69.211  1.00  0.00     0.000 HD 
BRANCH  19  21
HETATM   21  C   UNL     1      -9.580  12.776  67.167  1.00  0.00    -0.219 C  
HETATM   22  O   UNL     1      -8.798  12.153  66.450  1.00  0.00    -0.184 OA 
BRANCH  21  23
HETATM   23  N   UNL     1     -10.100  13.989  66.778  1.00  0.00    -0.259 N  
HETATM   24  C   UNL     1     -10.669  15.503  65.048  1.00  0.00    -0.441 C  
HETATM   25  N   UNL     1     -10.201  16.175  66.266  1.00  0.00    -0.304 N  
HETATM   26  C   UNL     1     -10.935  14.103  65.592  1.00  0.00    -0.308 C  
HETATM   27  O   UNL     1      -9.181  15.534  68.272  1.00  0.00    -0.183 OA 
HETATM   28  C   UNL     1      -9.756  15.260  67.236  1.00  0.00    -0.212 C  
BRANCH  25  29
HETATM   29  S   UNL     1     -10.235  17.824  66.389  1.00  0.00    -0.348 S  
HETATM   30  O   UNL     1     -10.800  18.342  65.159  1.00  0.00    -0.656 OA 
HETATM   31  C   UNL     1      -8.512  18.279  66.406  1.00  0.00    -0.244 C  
HETATM   32  O   UNL     1     -10.809  18.180  67.666  1.00  0.00    -0.392 OA 
ENDBRANCH  25  29
ENDBRANCH  21  23
ENDBRANCH  19  21
ENDBRANCH  18  19
BRANCH  18  33
HETATM   33  C   UNL     1     -11.920  11.773  69.831  1.00  0.00    -0.405 A  
HETATM   34  C   UNL     1     -13.349  12.405  72.173  1.00  0.00    -0.508 A  
HETATM   35  C   UNL     1     -12.074  13.110  70.246  1.00  0.00    -0.399 A  
HETATM   36  C   UNL     1     -12.778  13.420  71.410  1.00  0.00    -0.411 A  
HETATM   37  C   UNL     1     -13.217  11.078  71.772  1.00  0.00    -0.505 A  
HETATM   38  C   UNL     1     -12.507  10.762  70.611  1.00  0.00    -0.461 A  
ENDBRANCH  18  33
ENDBRANCH  15  18
ENDBRANCH  12  14
TORSDOF 7
ENDMDL
MODEL       26
REMARK 921   NORMALIZED FREE ENERGY PREDICTED BY IDOCK:   -7.09 KCAL/MOL
REMARK 922        TOTAL FREE ENERGY PREDICTED BY IDOCK:  -11.51 KCAL/MOL
REMARK 923 INTER-LIGAND FREE ENERGY PREDICTED BY IDOCK:  -10.04 KCAL/MOL
REMARK 924 INTRA-LIGAND FREE ENERGY PREDICTED BY IDOCK:   -1.48 KCAL/MOL
REMARK 927      BINDING AFFINITY PREDICTED BY RF-SCORE:    0.00 PKD
ROOT
HETATM    1  C   UNL     1     -11.867   6.799  71.899  1.00  0.00    -0.326 C  
HETATM    2  S   UNL     1     -11.397   6.625  70.137  1.00  0.00    -0.388 SA 
HETATM    3  C   UNL     1      -9.654   6.114  70.479  1.00  0.00    -0.168 C  
HETATM    4  CA  UNL     1      -9.655   5.588  71.936  1.00  0.00    -0.156 C  
HETATM    5  C   UNL     1      -8.773   7.369  70.321  1.00  0.00    -0.146 C  
HETATM    6  C   UNL     1      -9.205   5.108  69.414  1.00  0.00    -0.155 C  
HETATM    7  C   UNL     1      -9.918   4.079  72.087  1.00  0.00    -0.172 C  
HETATM    8  N   UNL     1     -10.691   6.338  72.673  1.00  0.00    -0.221 N  
HETATM    9  OXT UNL     1      -9.223   3.202  71.594  1.00  0.00    -0.099 OA 
HETATM   10  O   UNL     1     -10.982   3.776  72.873  1.00  0.00    -0.116 OA 
HETATM   11  C   UNL     1     -10.391   7.599  73.133  1.00  0.00    -0.352 C  
HETATM   12  CA  UNL     1     -11.704   8.188  72.569  1.00  0.00    -0.394 C  
HETATM   13  O   UNL     1      -9.372   8.034  73.613  1.00  0.00    -0.270 OA 
ENDROOT
BRANCH  12  14
HETATM   14  N   UNL     1     -11.574   9.364  71.670  1.00  0.00    -0.384 N  
HETATM   15  C   UNL     1     -12.598  10.284  71.557  1.00  0.00    -0.440 C  
HETATM   16  H   UNL     1     -10.718   9.494  71.130  1.00  0.00     0.000 HD 
HETATM   17  O   UNL     1     -13.642  10.133  72.195  1.00  0.00    -0.368 OA 
BRANCH  15  18
HETATM   18  CA  UNL     1     -12.437  11.388  70.484  1.00  0.00    -0.293 C  
BRANCH  18  19
HETATM   19  N   UNL     1     -11.147  11.208  69.822  1.00  0.00    -0.409 N  
HETATM   20  H   UNL     1     -10.293  11.295  70.372  1.00  0.00     0.000 HD 
BRANCH  19  21
HETATM   21  C   UNL     1     -11.052  10.927  68.492  1.00  0.00    -0.256 C  
HETATM   22  O   UNL     1     -11.936  11.222  67.689  1.00  0.00    -0.634 OA 
BRANCH  21  23
HETATM   23  N   UNL     1      -9.900  10.289  68.091  1.00  0.00    -0.146 N  
HETATM   24  C   UNL     1      -7.732  10.399  67.146  1.00  0.00    -0.100 C  
HETATM   25  N   UNL     1      -8.453   9.173  66.784  1.00  0.00    -0.122 N  
HETATM   26  C   UNL     1      -8.594  10.892  68.304  1.00  0.00    -0.139 C  
HETATM   27  O   UNL     1     -10.644   8.373  66.977  1.00  0.00    -0.314 OA 
HETATM   28  C   UNL     1      -9.778   9.181  67.254  1.00  0.00    -0.173 C  
BRANCH  25  29
HETATM   29  S   UNL     1      -7.706   7.974  65.922  1.00  0.00    -0.096 S  
HETATM   30  O   UNL     1      -7.747   6.769  66.725  1.00  0.00    -0.101 OA 
HETATM   31  C   UNL     1      -6.005   8.503  65.859  1.00  0.00    -0.048 C  
HETATM   32  O   UNL     1      -8.230   7.978  64.576  1.00  0.00    -0.148 OA 
ENDBRANCH  25  29
ENDBRANCH  21  23
ENDBRANCH  19  21
ENDBRANCH  18  19
BRANCH  18  33
HETATM   33  C   UNL     1     -12.626  12.805  71.007  1.00  0.00    -0.362 A  
HETATM   34  C   UNL     1     -12.976  15.460  71.877  1.00  0.00    -0.497 A  
HETATM   35  C   UNL     1     -12.011  13.876  70.329  1.00  0.00    -0.401 A  
HETATM   36  C   UNL     1     -12.182  15.190  70.765  1.00  0.00    -0.392 A  
HETATM   37  C   UNL     1     -13.601  14.414  72.553  1.00  0.00    -0.598 A  
HETATM   38  C   UNL     1     -13.427  13.097  72.124  1.00  0.00    -0.653 A  
ENDBRANCH  18  33
ENDBRANCH  15  18
ENDBRANCH  12  14
TORSDOF 7
ENDMDL
MODEL       27
REMARK 921   NORMALIZED FREE ENERGY PREDICTED BY IDOCK:   -7.09 KCAL/MOL
REMARK 922        TOTAL FREE ENERGY PREDICTED BY IDOCK:  -11.51 KCAL/MOL
REMARK 923 INTER-LIGAND FREE ENERGY PREDICTED BY IDOCK:   -9.68 KCAL/MOL
REMARK 924 INTRA-LIGAND FREE ENERGY PREDICTED BY IDOCK:   -1.83 KCAL/MOL
REMARK 927      BINDING AFFINITY PREDICTED BY RF-SCORE:    0.00 PKD
ROOT
HETATM    1  C   UNL     1     -10.975  15.777  68.115  1.00  0.00    -0.330 C  
HETATM    2  S   UNL     1      -9.422  16.007  69.059  1.00  0.00    -0.255 SA 
HETATM    3  C   UNL     1      -8.346  16.189  67.566  1.00  0.00    -0.159 C  
HETATM    4  CA  UNL     1      -9.301  16.593  66.414  1.00  0.00    -0.281 C  
HETATM    5  C   UNL     1      -7.685  14.820  67.312  1.00  0.00    -0.214 C  
HETATM    6  C   UNL     1      -7.223  17.186  67.872  1.00  0.00    -0.177 C  
HETATM    7  C   UNL     1      -9.489  18.108  66.221  1.00  0.00    -0.222 C  
HETATM    8  N   UNL     1     -10.611  15.972  66.692  1.00  0.00    -0.316 N  
HETATM    9  OXT UNL     1      -8.584  18.892  65.969  1.00  0.00    -0.467 OA 
HETATM   10  O   UNL     1     -10.779  18.523  66.301  1.00  0.00    -0.355 OA 
HETATM   11  C   UNL     1     -10.794  14.647  66.375  1.00  0.00    -0.315 C  
HETATM   12  CA  UNL     1     -11.411  14.332  67.757  1.00  0.00    -0.307 C  
HETATM   13  O   UNL     1     -10.408  14.010  65.424  1.00  0.00    -0.321 OA 
ENDROOT
BRANCH  12  14
HETATM   14  N   UNL     1     -10.787  13.225  68.528  1.00  0.00    -0.258 N  
HETATM   15  C   UNL     1     -11.175  11.916  68.323  1.00  0.00    -0.261 C  
HETATM   16  H   UNL     1     -10.064  13.434  69.216  1.00  0.00     0.000 HD 
HETATM   17  O   UNL     1     -12.056  11.651  67.503  1.00  0.00    -0.611 OA 
BRANCH  15  18
HETATM   18  CA  UNL     1     -10.584  10.849  69.276  1.00  0.00    -0.217 C  
BRANCH  18  19
HETATM   19  N   UNL     1     -10.029   9.765  68.472  1.00  0.00    -0.156 N  
HETATM   20  H   UNL     1     -10.665   9.115  68.011  1.00  0.00     0.000 HD 
BRANCH  19  21
HETATM   21  C   UNL     1      -8.685   9.594  68.319  1.00  0.00    -0.120 C  
HETATM   22  O   UNL     1      -7.916   9.507  69.276  1.00  0.00    -0.084 OA 
BRANCH  21  23
HETATM   23  N   UNL     1      -8.229   9.525  67.022  1.00  0.00    -0.113 N  
HETATM   24  C   UNL     1      -6.660  10.183  65.376  1.00  0.00    -0.120 C  
HETATM   25  N   UNL     1      -8.011   9.991  64.835  1.00  0.00    -0.136 N  
HETATM   26  C   UNL     1      -6.805   9.492  66.728  1.00  0.00    -0.080 C  
HETATM   27  O   UNL     1     -10.157   9.665  65.709  1.00  0.00    -0.290 OA 
HETATM   28  C   UNL     1      -8.950   9.718  65.845  1.00  0.00    -0.156 C  
BRANCH  25  29
HETATM   29  S   UNL     1      -8.295  10.100  63.209  1.00  0.00    -0.181 S  
HETATM   30  O   UNL     1      -7.059  10.514  62.577  1.00  0.00    -0.141 OA 
HETATM   31  C   UNL     1      -9.435  11.463  63.074  1.00  0.00    -0.358 C  
HETATM   32  O   UNL     1      -8.974   8.900  62.778  1.00  0.00    -0.118 OA 
ENDBRANCH  25  29
ENDBRANCH  21  23
ENDBRANCH  19  21
ENDBRANCH  18  19
BRANCH  18  33
HETATM   33  C   UNL     1     -11.554  10.345  70.336  1.00  0.00    -0.423 A  
HETATM   34  C   UNL     1     -13.275   9.351  72.330  1.00  0.00    -0.528 A  
HETATM   35  C   UNL     1     -11.513   8.990  70.718  1.00  0.00    -0.331 A  
HETATM   36  C   UNL     1     -12.370   8.500  71.703  1.00  0.00    -0.371 A  
HETATM   37  C   UNL     1     -13.323  10.697  71.973  1.00  0.00    -0.409 A  
HETATM   38  C   UNL     1     -12.471  11.192  70.983  1.00  0.00    -0.506 A  
ENDBRANCH  18  33
ENDBRANCH  15  18
ENDBRANCH  12  14
TORSDOF 7
ENDMDL
MODEL       28
REMARK 921   NORMALIZED FREE ENERGY PREDICTED BY IDOCK:   -7.06 KCAL/MOL
REMARK 922        TOTAL FREE ENERGY PREDICTED BY IDOCK:  -11.47 KCAL/MOL
REMARK 923 INTER-LIGAND FREE ENERGY PREDICTED BY IDOCK:   -9.94 KCAL/MOL
REMARK 924 INTRA-LIGAND FREE ENERGY PREDICTED BY IDOCK:   -1.52 KCAL/MOL
REMARK 927      BINDING AFFINITY PREDICTED BY RF-SCORE:    0.00 PKD
ROOT
HETATM    1  C   UNL     1     -12.276  13.148  66.346  1.00  0.00    -0.329 C  
HETATM    2  S   UNL     1     -11.792  14.434  67.558  1.00  0.00    -0.360 SA 
HETATM    3  C   UNL     1     -10.431  15.135  66.523  1.00  0.00    -0.291 C  
HETATM    4  CA  UNL     1     -10.748  14.697  65.071  1.00  0.00    -0.430 C  
HETATM    5  C   UNL     1      -9.111  14.526  67.032  1.00  0.00    -0.254 C  
HETATM    6  C   UNL     1     -10.351  16.648  66.753  1.00  0.00    -0.295 C  
HETATM    7  C   UNL     1     -11.607  15.686  64.262  1.00  0.00    -0.189 C  
HETATM    8  N   UNL     1     -11.444  13.398  65.146  1.00  0.00    -0.291 N  
HETATM    9  OXT UNL     1     -11.291  16.843  64.021  1.00  0.00    -1.109 OA 
HETATM   10  O   UNL     1     -12.756  15.153  63.773  1.00  0.00    -0.722 OA 
HETATM   11  C   UNL     1     -10.695  12.258  65.322  1.00  0.00    -0.292 C  
HETATM   12  CA  UNL     1     -11.616  11.749  66.455  1.00  0.00    -0.181 C  
HETATM   13  O   UNL     1      -9.624  11.946  64.859  1.00  0.00    -0.185 OA 
ENDROOT
BRANCH  12  14
HETATM   14  N   UNL     1     -10.959  11.407  67.743  1.00  0.00    -0.229 N  
HETATM   15  C   UNL     1     -10.450  10.143  67.963  1.00  0.00    -0.209 C  
HETATM   16  H   UNL     1     -10.883  12.115  68.474  1.00  0.00     0.000 HD 
HETATM   17  O   UNL     1     -10.546   9.275  67.093  1.00  0.00    -0.258 OA 
BRANCH  15  18
HETATM   18  CA  UNL     1      -9.924   9.833  69.386  1.00  0.00    -0.205 C  
BRANCH  18  19
HETATM   19  N   UNL     1      -8.556   9.333  69.276  1.00  0.00    -0.134 N  
HETATM   20  H   UNL     1      -8.223   8.999  68.373  1.00  0.00     0.000 HD 
BRANCH  19  21
HETATM   21  C   UNL     1      -7.712   9.299  70.346  1.00  0.00    -0.143 C  
HETATM   22  O   UNL     1      -7.051  10.275  70.697  1.00  0.00    -0.322 OA 
BRANCH  21  23
HETATM   23  N   UNL     1      -7.638   8.101  71.019  1.00  0.00    -0.077 N  
HETATM   24  C   UNL     1      -7.871   5.745  71.018  1.00  0.00    -0.106 C  
HETATM   25  N   UNL     1      -8.251   6.358  72.296  1.00  0.00    -0.108 N  
HETATM   26  C   UNL     1      -7.124   6.906  70.369  1.00  0.00    -0.067 C  
HETATM   27  O   UNL     1      -8.627   8.525  73.093  1.00  0.00    -0.362 OA 
HETATM   28  C   UNL     1      -8.220   7.761  72.239  1.00  0.00    -0.118 C  
BRANCH  25  29
HETATM   29  S   UNL     1      -8.651   5.419  73.599  1.00  0.00    -0.109 S  
HETATM   30  O   UNL     1      -7.491   5.361  74.466  1.00  0.00    -0.082 OA 
HETATM   31  C   UNL     1      -8.861   3.795  72.896  1.00  0.00    -0.094 C  
HETATM   32  O   UNL     1      -9.928   5.859  74.110  1.00  0.00    -0.193 OA 
ENDBRANCH  25  29
ENDBRANCH  21  23
ENDBRANCH  19  21
ENDBRANCH  18  19
BRANCH  18  33
HETATM   33  C   UNL     1     -10.816   8.905  70.198  1.00  0.00    -0.251 A  
HETATM   34  C   UNL     1     -12.398   7.114  71.687  1.00  0.00    -0.398 A  
HETATM   35  C   UNL     1     -10.901   7.545  69.841  1.00  0.00    -0.250 A  
HETATM   36  C   UNL     1     -11.690   6.661  70.578  1.00  0.00    -0.453 A  
HETATM   37  C   UNL     1     -12.317   8.453  72.062  1.00  0.00    -0.413 A  
HETATM   38  C   UNL     1     -11.534   9.343  71.324  1.00  0.00    -0.433 A  
ENDBRANCH  18  33
ENDBRANCH  15  18
ENDBRANCH  12  14
TORSDOF 7
ENDMDL
MODEL       29
REMARK 921   NORMALIZED FREE ENERGY PREDICTED BY IDOCK:   -7.04 KCAL/MOL
REMARK 922        TOTAL FREE ENERGY PREDICTED BY IDOCK:  -11.45 KCAL/MOL
REMARK 923 INTER-LIGAND FREE ENERGY PREDICTED BY IDOCK:  -10.65 KCAL/MOL
REMARK 924 INTRA-LIGAND FREE ENERGY PREDICTED BY IDOCK:   -0.79 KCAL/MOL
REMARK 927      BINDING AFFINITY PREDICTED BY RF-SCORE:    0.00 PKD
ROOT
HETATM    1  C   UNL     1      -8.878   6.823  70.631  1.00  0.00    -0.151 C  
HETATM    2  S   UNL     1      -8.800   7.619  72.279  1.00  0.00    -0.140 SA 
HETATM    3  C   UNL     1     -10.277   6.738  72.959  1.00  0.00    -0.214 C  
HETATM    4  CA  UNL     1     -10.451   5.479  72.072  1.00  0.00    -0.222 C  
HETATM    5  C   UNL     1     -11.476   7.698  72.838  1.00  0.00    -0.342 C  
HETATM    6  C   UNL     1     -10.059   6.468  74.452  1.00  0.00    -0.371 C  
HETATM    7  C   UNL     1      -9.717   4.221  72.569  1.00  0.00    -0.147 C  
HETATM    8  N   UNL     1      -9.967   5.823  70.721  1.00  0.00    -0.185 N  
HETATM    9  OXT UNL     1      -9.910   3.689  73.653  1.00  0.00    -0.108 OA 
HETATM   10  O   UNL     1      -8.847   3.695  71.671  1.00  0.00    -0.094 OA 
HETATM   11  C   UNL     1     -10.799   6.526  69.881  1.00  0.00    -0.286 C  
HETATM   12  CA  UNL     1      -9.683   7.530  69.510  1.00  0.00    -0.164 C  
HETATM   13  O   UNL     1     -11.991   6.440  69.709  1.00  0.00    -0.257 OA 
ENDROOT
BRANCH  12  14
HETATM   14  N   UNL     1      -9.993   8.971  69.702  1.00  0.00    -0.185 N  
HETATM   15  C   UNL     1     -10.631   9.694  68.715  1.00  0.00    -0.216 C  
HETATM   16  H   UNL     1      -9.732   9.431  70.575  1.00  0.00     0.000 HD 
HETATM   17  O   UNL     1     -10.942   9.153  67.651  1.00  0.00    -0.173 OA 
BRANCH  15  18
HETATM   18  CA  UNL     1     -10.774  11.219  68.940  1.00  0.00    -0.207 C  
BRANCH  18  19
HETATM   19  N   UNL     1      -9.442  11.789  69.115  1.00  0.00    -0.377 N  
HETATM   20  H   UNL     1      -8.957  11.651  70.001  1.00  0.00     0.000 HD 
BRANCH  19  21
HETATM   21  C   UNL     1      -8.826  12.502  68.129  1.00  0.00    -0.191 C  
HETATM   22  O   UNL     1      -7.604  12.632  68.073  1.00  0.00    -0.109 OA 
BRANCH  21  23
HETATM   23  N   UNL     1      -9.653  13.074  67.190  1.00  0.00    -0.223 N  
HETATM   24  C   UNL     1     -11.558  14.384  66.681  1.00  0.00    -0.384 C  
HETATM   25  N   UNL     1     -11.337  13.298  65.719  1.00  0.00    -0.303 N  
HETATM   26  C   UNL     1     -10.207  14.404  67.388  1.00  0.00    -0.247 C  
HETATM   27  O   UNL     1      -9.967  11.406  65.583  1.00  0.00    -0.219 OA 
HETATM   28  C   UNL     1     -10.275  12.461  66.104  1.00  0.00    -0.242 C  
BRANCH  25  29
HETATM   29  S   UNL     1     -12.279  13.160  64.366  1.00  0.00    -0.393 S  
HETATM   30  O   UNL     1     -13.403  12.311  64.702  1.00  0.00    -0.717 OA 
HETATM   31  C   UNL     1     -11.251  12.245  63.233  1.00  0.00    -0.324 C  
HETATM   32  O   UNL     1     -12.493  14.479  63.817  1.00  0.00    -0.809 OA 
ENDBRANCH  25  29
ENDBRANCH  21  23
ENDBRANCH  19  21
ENDBRANCH  18  19
BRANCH  18  33
HETATM   33  C   UNL     1     -11.721  11.603  70.068  1.00  0.00    -0.402 A  
HETATM   34  C   UNL     1     -13.505  12.390  72.099  1.00  0.00    -0.481 A  
HETATM   35  C   UNL     1     -11.982  12.965  70.314  1.00  0.00    -0.359 A  
HETATM   36  C   UNL     1     -12.863  13.352  71.324  1.00  0.00    -0.407 A  
HETATM   37  C   UNL     1     -13.268  11.038  71.863  1.00  0.00    -0.503 A  
HETATM   38  C   UNL     1     -12.382  10.646  70.857  1.00  0.00    -0.502 A  
ENDBRANCH  18  33
ENDBRANCH  15  18
ENDBRANCH  12  14
TORSDOF 7
ENDMDL
MODEL       30
REMARK 921   NORMALIZED FREE ENERGY PREDICTED BY IDOCK:   -7.03 KCAL/MOL
REMARK 922        TOTAL FREE ENERGY PREDICTED BY IDOCK:  -11.43 KCAL/MOL
REMARK 923 INTER-LIGAND FREE ENERGY PREDICTED BY IDOCK:  -10.06 KCAL/MOL
REMARK 924 INTRA-LIGAND FREE ENERGY PREDICTED BY IDOCK:   -1.37 KCAL/MOL
REMARK 927      BINDING AFFINITY PREDICTED BY RF-SCORE:    0.00 PKD
ROOT
HETATM    1  C   UNL     1     -10.911   7.840  70.098  1.00  0.00    -0.244 C  
HETATM    2  S   UNL     1      -9.907   7.424  68.623  1.00  0.00    -0.168 SA 
HETATM    3  C   UNL     1      -8.480   6.742  69.580  1.00  0.00    -0.133 C  
HETATM    4  CA  UNL     1      -9.053   6.376  70.972  1.00  0.00    -0.154 C  
HETATM    5  C   UNL     1      -7.418   7.854  69.669  1.00  0.00    -0.092 C  
HETATM    6  C   UNL     1      -7.857   5.581  68.797  1.00  0.00    -0.095 C  
HETATM    7  C   UNL     1      -9.577   4.935  71.107  1.00  0.00    -0.170 C  
HETATM    8  N   UNL     1     -10.149   7.322  71.259  1.00  0.00    -0.189 N  
HETATM    9  OXT UNL     1      -8.898   3.932  70.938  1.00  0.00    -0.075 OA 
HETATM   10  O   UNL     1     -10.877   4.851  71.489  1.00  0.00    -0.057 OA 
HETATM   11  C   UNL     1      -9.834   8.578  71.722  1.00  0.00    -0.269 C  
HETATM   12  CA  UNL     1     -10.775   9.261  70.703  1.00  0.00    -0.269 C  
HETATM   13  O   UNL     1      -8.983   8.933  72.502  1.00  0.00    -0.367 OA 
ENDROOT
BRANCH  12  14
HETATM   14  N   UNL     1     -10.172  10.311  69.841  1.00  0.00    -0.371 N  
HETATM   15  C   UNL     1     -10.957  11.066  68.993  1.00  0.00    -0.233 C  
HETATM   16  H   UNL     1      -9.165  10.476  69.875  1.00  0.00     0.000 HD 
HETATM   17  O   UNL     1     -12.172  10.869  68.932  1.00  0.00    -0.494 OA 
BRANCH  15  18
HETATM   18  CA  UNL     1     -10.225  12.025  68.023  1.00  0.00    -0.198 C  
BRANCH  18  19
HETATM   19  N   UNL     1      -9.962  13.280  68.722  1.00  0.00    -0.423 N  
HETATM   20  H   UNL     1     -10.658  13.637  69.376  1.00  0.00     0.000 HD 
BRANCH  19  21
HETATM   21  C   UNL     1      -8.814  13.989  68.526  1.00  0.00    -0.160 C  
HETATM   22  O   UNL     1      -7.706  13.457  68.496  1.00  0.00    -0.131 OA 
BRANCH  21  23
HETATM   23  N   UNL     1      -8.964  15.347  68.363  1.00  0.00    -0.184 N  
HETATM   24  C   UNL     1     -10.198  17.326  68.775  1.00  0.00    -0.353 C  
HETATM   25  N   UNL     1      -9.570  17.308  67.448  1.00  0.00    -0.249 N  
HETATM   26  C   UNL     1      -9.443  16.186  69.451  1.00  0.00    -0.198 C  
HETATM   27  O   UNL     1      -8.478  15.730  66.109  1.00  0.00    -0.291 OA 
HETATM   28  C   UNL     1      -8.944  16.079  67.177  1.00  0.00    -0.202 C  
BRANCH  25  29
HETATM   29  S   UNL     1      -9.641  18.633  66.460  1.00  0.00    -0.338 S  
HETATM   30  O   UNL     1      -8.307  18.866  65.946  1.00  0.00    -0.483 OA 
HETATM   31  C   UNL     1     -10.013  19.969  67.579  1.00  0.00    -0.427 C  
HETATM   32  O   UNL     1     -10.758  18.475  65.557  1.00  0.00    -0.586 OA 
ENDBRANCH  25  29
ENDBRANCH  21  23
ENDBRANCH  19  21
ENDBRANCH  18  19
BRANCH  18  33
HETATM   33  C   UNL     1     -10.937  12.241  66.695  1.00  0.00    -0.321 A  
HETATM   34  C   UNL     1     -12.250  12.741  64.255  1.00  0.00    -0.499 A  
HETATM   35  C   UNL     1     -11.867  13.293  66.575  1.00  0.00    -0.450 A  
HETATM   36  C   UNL     1     -12.520  13.535  65.367  1.00  0.00    -0.540 A  
HETATM   37  C   UNL     1     -11.325  11.704  64.351  1.00  0.00    -0.334 A  
HETATM   38  C   UNL     1     -10.674  11.454  65.561  1.00  0.00    -0.313 A  
ENDBRANCH  18  33
ENDBRANCH  15  18
ENDBRANCH  12  14
TORSDOF 7
ENDMDL
MODEL       31
REMARK 921   NORMALIZED FREE ENERGY PREDICTED BY IDOCK:   -7.02 KCAL/MOL
REMARK 922        TOTAL FREE ENERGY PREDICTED BY IDOCK:  -11.41 KCAL/MOL
REMARK 923 INTER-LIGAND FREE ENERGY PREDICTED BY IDOCK:  -10.23 KCAL/MOL
REMARK 924 INTRA-LIGAND FREE ENERGY PREDICTED BY IDOCK:   -1.18 KCAL/MOL
REMARK 927      BINDING AFFINITY PREDICTED BY RF-SCORE:    0.00 PKD
ROOT
HETATM    1  C   UNL     1     -11.216  15.867  68.237  1.00  0.00    -0.354 C  
HETATM    2  S   UNL     1      -9.794  15.654  69.372  1.00  0.00    -0.295 SA 
HETATM    3  C   UNL     1      -8.512  16.106  68.119  1.00  0.00    -0.175 C  
HETATM    4  CA  UNL     1      -9.263  16.912  67.030  1.00  0.00    -0.234 C  
HETATM    5  C   UNL     1      -7.933  14.790  67.565  1.00  0.00    -0.207 C  
HETATM    6  C   UNL     1      -7.366  16.847  68.816  1.00  0.00    -0.227 C  
HETATM    7  C   UNL     1      -9.301  18.435  67.252  1.00  0.00    -0.270 C  
HETATM    8  N   UNL     1     -10.644  16.394  66.975  1.00  0.00    -0.292 N  
HETATM    9  OXT UNL     1      -8.310  19.147  67.332  1.00  0.00    -0.275 OA 
HETATM   10  O   UNL     1     -10.552  18.958  67.302  1.00  0.00    -0.417 OA 
HETATM   11  C   UNL     1     -10.887  15.234  66.279  1.00  0.00    -0.312 C  
HETATM   12  CA  UNL     1     -11.712  14.632  67.441  1.00  0.00    -0.390 C  
HETATM   13  O   UNL     1     -10.426  14.836  65.236  1.00  0.00    -0.346 OA 
ENDROOT
BRANCH  12  14
HETATM   14  N   UNL     1     -11.291  13.294  67.932  1.00  0.00    -0.268 N  
HETATM   15  C   UNL     1     -11.618  12.149  67.232  1.00  0.00    -0.334 C  
HETATM   16  H   UNL     1     -10.755  13.219  68.796  1.00  0.00     0.000 HD 
HETATM   17  O   UNL     1     -12.275  12.224  66.192  1.00  0.00    -0.647 OA 
BRANCH  15  18
HETATM   18  CA  UNL     1     -11.273  10.795  67.897  1.00  0.00    -0.318 C  
BRANCH  18  19
HETATM   19  N   UNL     1     -10.778  11.053  69.246  1.00  0.00    -0.253 N  
HETATM   20  H   UNL     1      -9.983  11.677  69.370  1.00  0.00     0.000 HD 
BRANCH  19  21
HETATM   21  C   UNL     1     -11.349  10.483  70.346  1.00  0.00    -0.328 C  
HETATM   22  O   UNL     1     -12.491  10.756  70.714  1.00  0.00    -0.324 OA 
BRANCH  21  23
HETATM   23  N   UNL     1     -10.571   9.577  71.029  1.00  0.00    -0.319 N  
HETATM   24  C   UNL     1      -8.914   7.885  71.003  1.00  0.00    -0.142 C  
HETATM   25  N   UNL     1      -9.944   7.663  72.025  1.00  0.00    -0.171 N  
HETATM   26  C   UNL     1      -9.184   9.346  70.655  1.00  0.00    -0.242 C  
HETATM   27  O   UNL     1     -12.028   8.582  72.561  1.00  0.00    -0.389 OA 
HETATM   28  C   UNL     1     -10.979   8.610  71.946  1.00  0.00    -0.342 C  
BRANCH  25  29
HETATM   29  S   UNL     1      -9.810   6.416  73.105  1.00  0.00    -0.176 S  
HETATM   30  O   UNL     1      -8.620   5.667  72.760  1.00  0.00    -0.120 OA 
HETATM   31  C   UNL     1     -11.210   5.381  72.723  1.00  0.00    -0.300 C  
HETATM   32  O   UNL     1      -9.987   6.940  74.439  1.00  0.00    -0.309 OA 
ENDBRANCH  25  29
ENDBRANCH  21  23
ENDBRANCH  19  21
ENDBRANCH  18  19
BRANCH  18  33
HETATM   33  C   UNL     1     -10.323   9.921  67.090  1.00  0.00    -0.304 A  
HETATM   34  C   UNL     1      -8.493   8.375  65.611  1.00  0.00    -0.179 A  
HETATM   35  C   UNL     1      -9.365  10.533  66.257  1.00  0.00    -0.202 A  
HETATM   36  C   UNL     1      -8.463   9.764  65.522  1.00  0.00    -0.150 A  
HETATM   37  C   UNL     1      -9.425   7.753  66.438  1.00  0.00    -0.245 A  
HETATM   38  C   UNL     1     -10.335   8.518  67.171  1.00  0.00    -0.377 A  
ENDBRANCH  18  33
ENDBRANCH  15  18
ENDBRANCH  12  14
TORSDOF 7
ENDMDL
MODEL       32
REMARK 921   NORMALIZED FREE ENERGY PREDICTED BY IDOCK:   -7.01 KCAL/MOL
REMARK 922        TOTAL FREE ENERGY PREDICTED BY IDOCK:  -11.41 KCAL/MOL
REMARK 923 INTER-LIGAND FREE ENERGY PREDICTED BY IDOCK:   -9.49 KCAL/MOL
REMARK 924 INTRA-LIGAND FREE ENERGY PREDICTED BY IDOCK:   -1.91 KCAL/MOL
REMARK 927      BINDING AFFINITY PREDICTED BY RF-SCORE:    0.00 PKD
ROOT
HETATM    1  C   UNL     1     -11.839   6.336  72.300  1.00  0.00    -0.278 C  
HETATM    2  S   UNL     1     -11.118   5.950  70.661  1.00  0.00    -0.207 SA 
HETATM    3  C   UNL     1      -9.617   5.107  71.334  1.00  0.00    -0.161 C  
HETATM    4  CA  UNL     1      -9.989   4.692  72.780  1.00  0.00    -0.155 C  
HETATM    5  C   UNL     1      -8.468   6.134  71.309  1.00  0.00    -0.125 C  
HETATM    6  C   UNL     1      -9.221   3.960  70.399  1.00  0.00    -0.209 C  
HETATM    7  C   UNL     1     -10.599   3.285  72.920  1.00  0.00    -0.119 C  
HETATM    8  N   UNL     1     -10.947   5.691  73.292  1.00  0.00    -0.277 N  
HETATM    9  OXT UNL     1     -10.038   2.250  72.588  1.00  0.00    -0.123 OA 
HETATM   10  O   UNL     1     -11.825   3.267  73.503  1.00  0.00    -0.043 OA 
HETATM   11  C   UNL     1     -10.463   6.888  73.765  1.00  0.00    -0.357 C  
HETATM   12  CA  UNL     1     -11.496   7.702  72.951  1.00  0.00    -0.290 C  
HETATM   13  O   UNL     1      -9.474   7.129  74.414  1.00  0.00    -0.231 OA 
ENDROOT
BRANCH  12  14
HETATM   14  N   UNL     1     -10.955   8.761  72.060  1.00  0.00    -0.362 N  
HETATM   15  C   UNL     1     -11.796   9.675  71.458  1.00  0.00    -0.407 C  
HETATM   16  H   UNL     1      -9.950   8.814  71.892  1.00  0.00     0.000 HD 
HETATM   17  O   UNL     1     -13.013   9.615  71.644  1.00  0.00    -0.349 OA 
BRANCH  15  18
HETATM   18  CA  UNL     1     -11.163  10.643  70.428  1.00  0.00    -0.252 C  
BRANCH  18  19
HETATM   19  N   UNL     1     -12.232  11.413  69.798  1.00  0.00    -0.288 N  
HETATM   20  H   UNL     1     -12.978  10.918  69.312  1.00  0.00     0.000 HD 
BRANCH  19  21
HETATM   21  C   UNL     1     -12.261  12.775  69.841  1.00  0.00    -0.175 C  
HETATM   22  O   UNL     1     -12.695  13.397  70.809  1.00  0.00    -0.298 OA 
BRANCH  21  23
HETATM   23  N   UNL     1     -11.776  13.425  68.729  1.00  0.00    -0.318 N  
HETATM   24  C   UNL     1     -11.517  15.424  67.486  1.00  0.00    -0.225 C  
HETATM   25  N   UNL     1     -11.676  14.238  66.637  1.00  0.00    -0.384 N  
HETATM   26  C   UNL     1     -11.212  14.762  68.826  1.00  0.00    -0.270 C  
HETATM   27  O   UNL     1     -12.270  11.996  66.946  1.00  0.00    -0.529 OA 
HETATM   28  C   UNL     1     -11.947  13.082  67.388  1.00  0.00    -0.316 C  
BRANCH  25  29
HETATM   29  S   UNL     1     -11.530  14.349  64.992  1.00  0.00    -0.391 S  
HETATM   30  O   UNL     1     -10.559  13.360  64.572  1.00  0.00    -0.392 OA 
HETATM   31  C   UNL     1     -10.788  15.950  64.745  1.00  0.00    -0.324 C  
HETATM   32  O   UNL     1     -12.853  14.371  64.412  1.00  0.00    -0.615 OA 
ENDBRANCH  25  29
ENDBRANCH  21  23
ENDBRANCH  19  21
ENDBRANCH  18  19
BRANCH  18  33
HETATM   33  C   UNL     1     -10.256   9.970  69.408  1.00  0.00    -0.239 A  
HETATM   34  C   UNL     1      -8.658   8.718  67.458  1.00  0.00    -0.127 A  
HETATM   35  C   UNL     1     -10.770   8.929  68.610  1.00  0.00    -0.118 A  
HETATM   36  C   UNL     1      -9.974   8.307  67.648  1.00  0.00    -0.245 A  
HETATM   37  C   UNL     1      -8.135   9.753  68.229  1.00  0.00    -0.104 A  
HETATM   38  C   UNL     1      -8.926  10.375  69.198  1.00  0.00    -0.188 A  
ENDBRANCH  18  33
ENDBRANCH  15  18
ENDBRANCH  12  14
TORSDOF 7
ENDMDL
MODEL       33
REMARK 921   NORMALIZED FREE ENERGY PREDICTED BY IDOCK:   -7.00 KCAL/MOL
REMARK 922        TOTAL FREE ENERGY PREDICTED BY IDOCK:  -11.39 KCAL/MOL
REMARK 923 INTER-LIGAND FREE ENERGY PREDICTED BY IDOCK:  -10.07 KCAL/MOL
REMARK 924 INTRA-LIGAND FREE ENERGY PREDICTED BY IDOCK:   -1.32 KCAL/MOL
REMARK 927      BINDING AFFINITY PREDICTED BY RF-SCORE:    0.00 PKD
ROOT
HETATM    1  C   UNL     1      -9.272  14.005  67.061  1.00  0.00    -0.254 C  
HETATM    2  S   UNL     1     -10.264  13.204  65.745  1.00  0.00    -0.285 SA 
HETATM    3  C   UNL     1     -11.642  14.436  65.803  1.00  0.00    -0.353 C  
HETATM    4  CA  UNL     1     -11.037  15.702  66.459  1.00  0.00    -0.135 C  
HETATM    5  C   UNL     1     -12.764  13.822  66.663  1.00  0.00     0.018 C  
HETATM    6  C   UNL     1     -12.206  14.629  64.392  1.00  0.00    -0.473 C  
HETATM    7  C   UNL     1     -10.431  16.722  65.478  1.00  0.00    -0.237 C  
HETATM    8  N   UNL     1      -9.993  15.254  67.401  1.00  0.00    -0.222 N  
HETATM    9  OXT UNL     1     -11.055  17.278  64.585  1.00  0.00    -1.052 OA 
HETATM   10  O   UNL     1      -9.126  17.009  65.712  1.00  0.00    -0.530 OA 
HETATM   11  C   UNL     1     -10.374  14.798  68.641  1.00  0.00    -0.245 C  
HETATM   12  CA  UNL     1      -9.482  13.540  68.525  1.00  0.00    -0.131 C  
HETATM   13  O   UNL     1     -11.237  15.193  69.388  1.00  0.00    -0.251 OA 
ENDROOT
BRANCH  12  14
HETATM   14  N   UNL     1     -10.151  12.229  68.732  1.00  0.00    -0.401 N  
HETATM   15  C   UNL     1      -9.411  11.070  68.857  1.00  0.00    -0.155 C  
HETATM   16  H   UNL     1     -11.169  12.184  68.782  1.00  0.00     0.000 HD 
HETATM   17  O   UNL     1      -8.181  11.109  68.787  1.00  0.00    -0.142 OA 
BRANCH  15  18
HETATM   18  CA  UNL     1     -10.195   9.737  68.914  1.00  0.00    -0.200 C  
BRANCH  18  19
HETATM   19  N   UNL     1     -10.913   9.566  67.654  1.00  0.00    -0.471 N  
HETATM   20  H   UNL     1     -11.918   9.736  67.631  1.00  0.00     0.000 HD 
BRANCH  19  21
HETATM   21  C   UNL     1     -10.280   9.186  66.508  1.00  0.00    -0.252 C  
HETATM   22  O   UNL     1     -10.342   9.843  65.470  1.00  0.00    -0.213 OA 
BRANCH  21  23
HETATM   23  N   UNL     1      -9.561   8.014  66.576  1.00  0.00    -0.222 N  
HETATM   24  C   UNL     1      -7.855   6.617  65.713  1.00  0.00    -0.105 C  
HETATM   25  N   UNL     1      -8.996   5.865  66.248  1.00  0.00    -0.144 N  
HETATM   26  C   UNL     1      -8.132   7.994  66.310  1.00  0.00    -0.112 C  
HETATM   27  O   UNL     1     -11.162   6.360  66.980  1.00  0.00    -0.373 OA 
HETATM   28  C   UNL     1     -10.047   6.709  66.644  1.00  0.00    -0.135 C  
BRANCH  25  29
HETATM   29  S   UNL     1      -8.954   4.213  66.336  1.00  0.00    -0.132 S  
HETATM   30  O   UNL     1      -7.578   3.801  66.148  1.00  0.00    -0.085 OA 
HETATM   31  C   UNL     1      -9.858   3.694  64.890  1.00  0.00    -0.164 C  
HETATM   32  O   UNL     1      -9.692   3.794  67.505  1.00  0.00    -0.186 OA 
ENDBRANCH  25  29
ENDBRANCH  21  23
ENDBRANCH  19  21
ENDBRANCH  18  19
BRANCH  18  33
HETATM   33  C   UNL     1     -11.107   9.594  70.124  1.00  0.00    -0.314 A  
HETATM   34  C   UNL     1     -12.874   9.357  72.303  1.00  0.00    -0.452 A  
HETATM   35  C   UNL     1     -12.199  10.473  70.270  1.00  0.00    -0.393 A  
HETATM   36  C   UNL     1     -13.069  10.356  71.354  1.00  0.00    -0.512 A  
HETATM   37  C   UNL     1     -11.808   8.471  72.169  1.00  0.00    -0.448 A  
HETATM   38  C   UNL     1     -10.929   8.588  71.089  1.00  0.00    -0.306 A  
ENDBRANCH  18  33
ENDBRANCH  15  18
ENDBRANCH  12  14
TORSDOF 7
ENDMDL
MODEL       34
REMARK 921   NORMALIZED FREE ENERGY PREDICTED BY IDOCK:   -7.00 KCAL/MOL
REMARK 922        TOTAL FREE ENERGY PREDICTED BY IDOCK:  -11.38 KCAL/MOL
REMARK 923 INTER-LIGAND FREE ENERGY PREDICTED BY IDOCK:   -9.61 KCAL/MOL
REMARK 924 INTRA-LIGAND FREE ENERGY PREDICTED BY IDOCK:   -1.77 KCAL/MOL
REMARK 927      BINDING AFFINITY PREDICTED BY RF-SCORE:    0.00 PKD
ROOT
HETATM    1  C   UNL     1      -9.695  14.398  68.773  1.00  0.00    -0.190 C  
HETATM    2  S   UNL     1      -8.286  14.707  67.643  1.00  0.00    -0.191 SA 
HETATM    3  C   UNL     1      -9.231  15.805  66.495  1.00  0.00    -0.283 C  
HETATM    4  CA  UNL     1     -10.445  16.314  67.314  1.00  0.00    -0.300 C  
HETATM    5  C   UNL     1      -9.668  14.942  65.296  1.00  0.00    -0.126 C  
HETATM    6  C   UNL     1      -8.297  16.894  65.955  1.00  0.00    -0.180 C  
HETATM    7  C   UNL     1     -10.216  17.634  68.072  1.00  0.00    -0.362 C  
HETATM    8  N   UNL     1     -10.799  15.254  68.279  1.00  0.00    -0.253 N  
HETATM    9  OXT UNL     1      -9.917  18.695  67.542  1.00  0.00    -0.312 OA 
HETATM   10  O   UNL     1     -10.425  17.549  69.411  1.00  0.00    -0.278 OA 
HETATM   11  C   UNL     1     -11.546  14.186  67.841  1.00  0.00    -0.338 C  
HETATM   12  CA  UNL     1     -10.595  13.164  68.504  1.00  0.00    -0.259 C  
HETATM   13  O   UNL     1     -12.473  14.145  67.067  1.00  0.00    -0.325 OA 
ENDROOT
BRANCH  12  14
HETATM   14  N   UNL     1     -10.044  12.100  67.625  1.00  0.00    -0.196 N  
HETATM   15  C   UNL     1     -10.790  10.980  67.319  1.00  0.00    -0.281 C  
HETATM   16  H   UNL     1      -9.103  12.198  67.244  1.00  0.00     0.000 HD 
HETATM   17  O   UNL     1     -11.924  10.843  67.783  1.00  0.00    -0.553 OA 
BRANCH  15  18
HETATM   18  CA  UNL     1     -10.080   9.856  66.526  1.00  0.00    -0.232 C  
BRANCH  18  19
HETATM   19  N   UNL     1      -8.945   9.379  67.311  1.00  0.00    -0.130 N  
HETATM   20  H   UNL     1      -8.210  10.038  67.568  1.00  0.00     0.000 HD 
BRANCH  19  21
HETATM   21  C   UNL     1      -8.838   8.081  67.711  1.00  0.00    -0.126 C  
HETATM   22  O   UNL     1      -8.130   7.264  67.124  1.00  0.00    -0.111 OA 
BRANCH  21  23
HETATM   23  N   UNL     1      -9.573   7.728  68.820  1.00  0.00    -0.153 N  
HETATM   24  C   UNL     1     -11.491   6.697  69.750  1.00  0.00    -0.328 C  
HETATM   25  N   UNL     1     -11.053   7.877  70.504  1.00  0.00    -0.257 N  
HETATM   26  C   UNL     1     -10.255   6.446  68.892  1.00  0.00    -0.184 C  
HETATM   27  O   UNL     1      -9.527   9.623  70.188  1.00  0.00    -0.229 OA 
HETATM   28  C   UNL     1      -9.989   8.543  69.872  1.00  0.00    -0.189 C  
BRANCH  25  29
HETATM   29  S   UNL     1     -11.786   8.292  71.928  1.00  0.00    -0.350 S  
HETATM   30  O   UNL     1     -11.005   7.718  73.005  1.00  0.00    -0.386 OA 
HETATM   31  C   UNL     1     -13.333   7.407  71.875  1.00  0.00    -0.231 C  
HETATM   32  O   UNL     1     -12.075   9.707  71.903  1.00  0.00    -0.376 OA 
ENDBRANCH  25  29
ENDBRANCH  21  23
ENDBRANCH  19  21
ENDBRANCH  18  19
BRANCH  18  33
HETATM   33  C   UNL     1      -9.682  10.241  65.108  1.00  0.00    -0.364 A  
HETATM   34  C   UNL     1      -8.939  10.854  62.463  1.00  0.00    -0.360 A  
HETATM   35  C   UNL     1      -8.746   9.447  64.416  1.00  0.00    -0.227 A  
HETATM   36  C   UNL     1      -8.376   9.756  63.108  1.00  0.00    -0.166 A  
HETATM   37  C   UNL     1      -9.875  11.644  63.126  1.00  0.00    -0.407 A  
HETATM   38  C   UNL     1     -10.244  11.342  64.439  1.00  0.00    -0.377 A  
ENDBRANCH  18  33
ENDBRANCH  15  18
ENDBRANCH  12  14
TORSDOF 7
ENDMDL
MODEL       35
REMARK 921   NORMALIZED FREE ENERGY PREDICTED BY IDOCK:   -6.99 KCAL/MOL
REMARK 922        TOTAL FREE ENERGY PREDICTED BY IDOCK:  -11.37 KCAL/MOL
REMARK 923 INTER-LIGAND FREE ENERGY PREDICTED BY IDOCK:   -9.87 KCAL/MOL
REMARK 924 INTRA-LIGAND FREE ENERGY PREDICTED BY IDOCK:   -1.50 KCAL/MOL
REMARK 927      BINDING AFFINITY PREDICTED BY RF-SCORE:    0.00 PKD
ROOT
HETATM    1  C   UNL     1     -12.179  13.123  66.406  1.00  0.00    -0.329 C  
HETATM    2  S   UNL     1     -11.669  14.396  67.621  1.00  0.00    -0.388 SA 
HETATM    3  C   UNL     1     -10.338  15.116  66.559  1.00  0.00    -0.282 C  
HETATM    4  CA  UNL     1     -10.691  14.693  65.110  1.00  0.00    -0.414 C  
HETATM    5  C   UNL     1      -9.002  14.506  67.026  1.00  0.00    -0.258 C  
HETATM    6  C   UNL     1     -10.258  16.626  66.805  1.00  0.00    -0.301 C  
HETATM    7  C   UNL     1     -11.574  15.688  64.335  1.00  0.00    -0.249 C  
HETATM    8  N   UNL     1     -11.379  13.390  65.188  1.00  0.00    -0.294 N  
HETATM    9  OXT UNL     1     -11.269  16.849  64.100  1.00  0.00    -1.176 OA 
HETATM   10  O   UNL     1     -12.733  15.156  63.871  1.00  0.00    -0.759 OA 
HETATM   11  C   UNL     1     -10.621  12.251  65.331  1.00  0.00    -0.274 C  
HETATM   12  CA  UNL     1     -11.511  11.725  66.482  1.00  0.00    -0.255 C  
HETATM   13  O   UNL     1      -9.561  11.950  64.837  1.00  0.00    -0.185 OA 
ENDROOT
BRANCH  12  14
HETATM   14  N   UNL     1     -10.819  11.371  67.749  1.00  0.00    -0.216 N  
HETATM   15  C   UNL     1     -10.242  10.128  67.915  1.00  0.00    -0.180 C  
HETATM   16  H   UNL     1     -10.771  12.054  68.505  1.00  0.00     0.000 HD 
HETATM   17  O   UNL     1     -10.303   9.289  67.014  1.00  0.00    -0.243 OA 
BRANCH  15  18
HETATM   18  CA  UNL     1      -9.681   9.794  69.318  1.00  0.00    -0.196 C  
BRANCH  18  19
HETATM   19  N   UNL     1     -10.612  10.302  70.323  1.00  0.00    -0.419 N  
HETATM   20  H   UNL     1     -10.557  11.283  70.596  1.00  0.00     0.000 HD 
BRANCH  19  21
HETATM   21  C   UNL     1     -11.551   9.505  70.906  1.00  0.00    -0.326 C  
HETATM   22  O   UNL     1     -12.752   9.770  70.879  1.00  0.00    -0.304 OA 
BRANCH  21  23
HETATM   23  N   UNL     1     -11.079   8.375  71.534  1.00  0.00    -0.252 N  
HETATM   24  C   UNL     1      -9.277   7.189  72.511  1.00  0.00    -0.138 C  
HETATM   25  N   UNL     1     -10.225   6.315  71.809  1.00  0.00    -0.194 N  
HETATM   26  C   UNL     1     -10.105   8.466  72.610  1.00  0.00    -0.251 C  
HETATM   27  O   UNL     1     -12.039   6.599  70.358  1.00  0.00    -0.374 OA 
HETATM   28  C   UNL     1     -11.219   7.047  71.137  1.00  0.00    -0.270 C  
BRANCH  25  29
HETATM   29  S   UNL     1     -10.061   4.670  71.864  1.00  0.00    -0.187 S  
HETATM   30  O   UNL     1     -10.960   4.176  72.887  1.00  0.00    -0.167 OA 
HETATM   31  C   UNL     1      -8.401   4.435  72.469  1.00  0.00    -0.109 C  
HETATM   32  O   UNL     1     -10.128   4.153  70.517  1.00  0.00    -0.170 OA 
ENDBRANCH  25  29
ENDBRANCH  21  23
ENDBRANCH  19  21
ENDBRANCH  18  19
BRANCH  18  33
HETATM   33  C   UNL     1      -8.256  10.271  69.557  1.00  0.00    -0.165 A  
HETATM   34  C   UNL     1      -5.652  11.248  69.995  1.00  0.00    -0.095 A  
HETATM   35  C   UNL     1      -7.812  11.454  68.934  1.00  0.00    -0.096 A  
HETATM   36  C   UNL     1      -6.520  11.933  69.149  1.00  0.00    -0.098 A  
HETATM   37  C   UNL     1      -6.076  10.083  70.628  1.00  0.00    -0.101 A  
HETATM   38  C   UNL     1      -7.367   9.595  70.411  1.00  0.00    -0.156 A  
ENDBRANCH  18  33
ENDBRANCH  15  18
ENDBRANCH  12  14
TORSDOF 7
ENDMDL
MODEL       36
REMARK 921   NORMALIZED FREE ENERGY PREDICTED BY IDOCK:   -6.98 KCAL/MOL
REMARK 922        TOTAL FREE ENERGY PREDICTED BY IDOCK:  -11.36 KCAL/MOL
REMARK 923 INTER-LIGAND FREE ENERGY PREDICTED BY IDOCK:  -10.15 KCAL/MOL
REMARK 924 INTRA-LIGAND FREE ENERGY PREDICTED BY IDOCK:   -1.21 KCAL/MOL
REMARK 927      BINDING AFFINITY PREDICTED BY RF-SCORE:    0.00 PKD
ROOT
HETATM    1  C   UNL     1     -11.014  16.753  67.595  1.00  0.00    -0.178 C  
HETATM    2  S   UNL     1      -9.738  16.836  68.907  1.00  0.00    -0.243 SA 
HETATM    3  C   UNL     1      -8.317  17.050  67.744  1.00  0.00    -0.196 C  
HETATM    4  CA  UNL     1      -8.938  17.578  66.426  1.00  0.00    -0.238 C  
HETATM    5  C   UNL     1      -7.667  15.665  67.559  1.00  0.00    -0.192 C  
HETATM    6  C   UNL     1      -7.269  17.961  68.391  1.00  0.00    -0.256 C  
HETATM    7  C   UNL     1      -9.012  19.110  66.305  1.00  0.00    -0.309 C  
HETATM    8  N   UNL     1     -10.299  17.015  66.325  1.00  0.00    -0.321 N  
HETATM    9  OXT UNL     1      -8.043  19.856  66.343  1.00  0.00    -0.310 OA 
HETATM   10  O   UNL     1     -10.264  19.591  66.095  1.00  0.00    -0.428 OA 
HETATM   11  C   UNL     1     -10.448  15.725  65.874  1.00  0.00    -0.352 C  
HETATM   12  CA  UNL     1     -11.402  15.360  67.034  1.00  0.00    -0.175 C  
HETATM   13  O   UNL     1      -9.862  15.128  65.003  1.00  0.00    -0.242 OA 
ENDROOT
BRANCH  12  14
HETATM   14  N   UNL     1     -11.035  14.173  67.850  1.00  0.00    -0.247 N  
HETATM   15  C   UNL     1     -11.562  12.930  67.565  1.00  0.00    -0.356 C  
HETATM   16  H   UNL     1     -10.385  14.279  68.630  1.00  0.00     0.000 HD 
HETATM   17  O   UNL     1     -12.357  12.790  66.633  1.00  0.00    -0.456 OA 
BRANCH  15  18
HETATM   18  CA  UNL     1     -11.245  11.786  68.559  1.00  0.00    -0.252 C  
BRANCH  18  19
HETATM   19  N   UNL     1     -11.480  10.510  67.889  1.00  0.00    -0.431 N  
HETATM   20  H   UNL     1     -12.438  10.181  67.776  1.00  0.00     0.000 HD 
BRANCH  19  21
HETATM   21  C   UNL     1     -10.458   9.746  67.411  1.00  0.00    -0.259 C  
HETATM   22  O   UNL     1      -9.783  10.079  66.438  1.00  0.00    -0.187 OA 
BRANCH  21  23
HETATM   23  N   UNL     1     -10.220   8.568  68.081  1.00  0.00    -0.201 N  
HETATM   24  C   UNL     1     -10.920   6.388  68.683  1.00  0.00    -0.330 C  
HETATM   25  N   UNL     1     -10.170   7.063  69.749  1.00  0.00    -0.197 N  
HETATM   26  C   UNL     1     -10.580   7.286  67.498  1.00  0.00    -0.274 C  
HETATM   27  O   UNL     1      -9.391   9.230  70.164  1.00  0.00    -0.192 OA 
HETATM   28  C   UNL     1      -9.867   8.395  69.419  1.00  0.00    -0.185 C  
BRANCH  25  29
HETATM   29  S   UNL     1      -9.770   6.263  71.141  1.00  0.00    -0.176 S  
HETATM   30  O   UNL     1     -10.401   6.961  72.242  1.00  0.00    -0.193 OA 
HETATM   31  C   UNL     1      -8.014   6.531  71.288  1.00  0.00    -0.108 C  
HETATM   32  O   UNL     1      -9.996   4.850  70.942  1.00  0.00    -0.192 OA 
ENDBRANCH  25  29
ENDBRANCH  21  23
ENDBRANCH  19  21
ENDBRANCH  18  19
BRANCH  18  33
HETATM   33  C   UNL     1     -11.979  11.886  69.889  1.00  0.00    -0.398 A  
HETATM   34  C   UNL     1     -13.380  12.157  72.315  1.00  0.00    -0.316 A  
HETATM   35  C   UNL     1     -12.194  13.154  70.463  1.00  0.00    -0.405 A  
HETATM   36  C   UNL     1     -12.884  13.285  71.668  1.00  0.00    -0.397 A  
HETATM   37  C   UNL     1     -13.188  10.895  71.757  1.00  0.00    -0.513 A  
HETATM   38  C   UNL     1     -12.492  10.759  70.554  1.00  0.00    -0.447 A  
ENDBRANCH  18  33
ENDBRANCH  15  18
ENDBRANCH  12  14
TORSDOF 7
ENDMDL
MODEL       37
REMARK 921   NORMALIZED FREE ENERGY PREDICTED BY IDOCK:   -6.98 KCAL/MOL
REMARK 922        TOTAL FREE ENERGY PREDICTED BY IDOCK:  -11.35 KCAL/MOL
REMARK 923 INTER-LIGAND FREE ENERGY PREDICTED BY IDOCK:  -10.17 KCAL/MOL
REMARK 924 INTRA-LIGAND FREE ENERGY PREDICTED BY IDOCK:   -1.18 KCAL/MOL
REMARK 927      BINDING AFFINITY PREDICTED BY RF-SCORE:    0.00 PKD
ROOT
HETATM    1  C   UNL     1     -11.674   6.890  71.929  1.00  0.00    -0.299 C  
HETATM    2  S   UNL     1     -11.375   6.695  70.132  1.00  0.00    -0.388 SA 
HETATM    3  C   UNL     1      -9.611   6.172  70.312  1.00  0.00    -0.163 C  
HETATM    4  CA  UNL     1      -9.479   5.660  71.768  1.00  0.00    -0.149 C  
HETATM    5  C   UNL     1      -8.739   7.417  70.058  1.00  0.00    -0.140 C  
HETATM    6  C   UNL     1      -9.274   5.151  69.220  1.00  0.00    -0.151 C  
HETATM    7  C   UNL     1      -9.739   4.154  71.959  1.00  0.00    -0.167 C  
HETATM    8  N   UNL     1     -10.433   6.427  72.593  1.00  0.00    -0.203 N  
HETATM    9  OXT UNL     1      -9.100   3.266  71.411  1.00  0.00    -0.089 OA 
HETATM   10  O   UNL     1     -10.726   3.870  72.846  1.00  0.00    -0.170 OA 
HETATM   11  C   UNL     1     -10.081   7.689  73.008  1.00  0.00    -0.304 C  
HETATM   12  CA  UNL     1     -11.437   8.285  72.566  1.00  0.00    -0.384 C  
HETATM   13  O   UNL     1      -9.017   8.120  73.385  1.00  0.00    -0.254 OA 
ENDROOT
BRANCH  12  14
HETATM   14  N   UNL     1     -11.383   9.451  71.646  1.00  0.00    -0.389 N  
HETATM   15  C   UNL     1     -12.473  10.285  71.497  1.00  0.00    -0.422 C  
HETATM   16  H   UNL     1     -10.530   9.638  71.118  1.00  0.00     0.000 HD 
HETATM   17  O   UNL     1     -13.514  10.064  72.121  1.00  0.00    -0.428 OA 
BRANCH  15  18
HETATM   18  CA  UNL     1     -12.380  11.379  70.406  1.00  0.00    -0.319 C  
BRANCH  18  19
HETATM   19  N   UNL     1     -11.058  11.308  69.790  1.00  0.00    -0.437 N  
HETATM   20  H   UNL     1     -10.232  11.416  70.378  1.00  0.00     0.000 HD 
BRANCH  19  21
HETATM   21  C   UNL     1     -10.894  11.103  68.453  1.00  0.00    -0.205 C  
HETATM   22  O   UNL     1     -11.781  10.630  67.743  1.00  0.00    -0.503 OA 
BRANCH  21  23
HETATM   23  N   UNL     1      -9.669  11.455  67.933  1.00  0.00    -0.175 N  
HETATM   24  C   UNL     1      -7.402  10.918  67.515  1.00  0.00    -0.096 C  
HETATM   25  N   UNL     1      -7.609  12.342  67.804  1.00  0.00    -0.122 N  
HETATM   26  C   UNL     1      -8.838  10.482  67.244  1.00  0.00    -0.136 C  
HETATM   27  O   UNL     1      -9.361  13.674  68.599  1.00  0.00    -0.164 OA 
HETATM   28  C   UNL     1      -8.939  12.619  68.166  1.00  0.00    -0.199 C  
BRANCH  25  29
HETATM   29  S   UNL     1      -6.360  13.421  67.686  1.00  0.00    -0.114 S  
HETATM   30  O   UNL     1      -5.259  12.743  67.032  1.00  0.00    -0.340 OA 
HETATM   31  C   UNL     1      -5.878  13.690  69.380  1.00  0.00    -0.093 C  
HETATM   32  O   UNL     1      -6.873  14.665  67.159  1.00  0.00    -0.225 OA 
ENDBRANCH  25  29
ENDBRANCH  21  23
ENDBRANCH  19  21
ENDBRANCH  18  19
BRANCH  18  33
HETATM   33  C   UNL     1     -12.719  12.781  70.891  1.00  0.00    -0.277 A  
HETATM   34  C   UNL     1     -13.334  15.343  71.882  1.00  0.00    -0.554 A  
HETATM   35  C   UNL     1     -13.454  12.939  72.082  1.00  0.00    -0.619 A  
HETATM   36  C   UNL     1     -13.761  14.210  72.568  1.00  0.00    -0.626 A  
HETATM   37  C   UNL     1     -12.596  15.207  70.708  1.00  0.00    -0.452 A  
HETATM   38  C   UNL     1     -12.291  13.937  70.214  1.00  0.00    -0.413 A  
ENDBRANCH  18  33
ENDBRANCH  15  18
ENDBRANCH  12  14
TORSDOF 7
ENDMDL
MODEL       38
REMARK 921   NORMALIZED FREE ENERGY PREDICTED BY IDOCK:   -6.95 KCAL/MOL
REMARK 922        TOTAL FREE ENERGY PREDICTED BY IDOCK:  -11.32 KCAL/MOL
REMARK 923 INTER-LIGAND FREE ENERGY PREDICTED BY IDOCK:   -9.68 KCAL/MOL
REMARK 924 INTRA-LIGAND FREE ENERGY PREDICTED BY IDOCK:   -1.64 KCAL/MOL
REMARK 927      BINDING AFFINITY PREDICTED BY RF-SCORE:    0.00 PKD
ROOT
HETATM    1  C   UNL     1     -10.907  16.227  68.007  1.00  0.00    -0.339 C  
HETATM    2  S   UNL     1      -9.426  16.058  69.072  1.00  0.00    -0.255 SA 
HETATM    3  C   UNL     1      -8.277  16.902  67.894  1.00  0.00    -0.197 C  
HETATM    4  CA  UNL     1      -9.185  17.745  66.964  1.00  0.00    -0.255 C  
HETATM    5  C   UNL     1      -7.528  15.799  67.121  1.00  0.00    -0.259 C  
HETATM    6  C   UNL     1      -7.231  17.691  68.688  1.00  0.00    -0.255 C  
HETATM    7  C   UNL     1      -9.445  19.188  67.435  1.00  0.00    -0.305 C  
HETATM    8  N   UNL     1     -10.473  17.034  66.843  1.00  0.00    -0.299 N  
HETATM    9  OXT UNL     1      -8.572  20.024  67.619  1.00  0.00    -0.322 OA 
HETATM   10  O   UNL     1     -10.758  19.493  67.589  1.00  0.00    -0.457 OA 
HETATM   11  C   UNL     1     -10.564  15.978  65.968  1.00  0.00    -0.316 C  
HETATM   12  CA  UNL     1     -11.241  15.074  67.024  1.00  0.00    -0.328 C  
HETATM   13  O   UNL     1     -10.089  15.831  64.867  1.00  0.00    -0.399 OA 
ENDROOT
BRANCH  12  14
HETATM   14  N   UNL     1     -10.602  13.757  67.281  1.00  0.00    -0.273 N  
HETATM   15  C   UNL     1     -11.218  12.585  66.890  1.00  0.00    -0.303 C  
HETATM   16  H   UNL     1      -9.698  13.718  67.752  1.00  0.00     0.000 HD 
HETATM   17  O   UNL     1     -12.316  12.618  66.330  1.00  0.00    -0.550 OA 
BRANCH  15  18
HETATM   18  CA  UNL     1     -10.557  11.259  67.335  1.00  0.00    -0.224 C  
BRANCH  18  19
HETATM   19  N   UNL     1     -10.826  10.242  66.321  1.00  0.00     0.000 N  
HETATM   20  H   UNL     1     -11.782   9.911  66.196  1.00  0.00     0.000 HD 
BRANCH  19  21
HETATM   21  C   UNL     1      -9.839   9.723  65.538  1.00  0.00    -0.308 C  
HETATM   22  O   UNL     1      -9.526  10.217  64.456  1.00  0.00    -0.261 OA 
BRANCH  21  23
HETATM   23  N   UNL     1      -9.205   8.605  66.029  1.00  0.00    -0.210 N  
HETATM   24  C   UNL     1      -7.655   6.841  65.721  1.00  0.00    -0.088 C  
HETATM   25  N   UNL     1      -8.817   6.449  66.528  1.00  0.00    -0.131 N  
HETATM   26  C   UNL     1      -7.798   8.359  65.757  1.00  0.00    -0.101 C  
HETATM   27  O   UNL     1     -10.898   7.373  67.067  1.00  0.00    -0.354 OA 
HETATM   28  C   UNL     1      -9.780   7.470  66.599  1.00  0.00    -0.203 C  
BRANCH  25  29
HETATM   29  S   UNL     1      -8.891   4.955  67.235  1.00  0.00    -0.103 S  
HETATM   30  O   UNL     1      -8.997   5.155  68.666  1.00  0.00    -0.103 OA 
HETATM   31  C   UNL     1      -7.279   4.263  66.921  1.00  0.00    -0.068 C  
HETATM   32  O   UNL     1      -9.869   4.158  66.531  1.00  0.00    -0.213 OA 
ENDBRANCH  25  29
ENDBRANCH  21  23
ENDBRANCH  19  21
ENDBRANCH  18  19
BRANCH  18  33
HETATM   33  C   UNL     1     -10.945  10.800  68.733  1.00  0.00    -0.295 A  
HETATM   34  C   UNL     1     -11.762   9.954  71.291  1.00  0.00    -0.472 A  
HETATM   35  C   UNL     1     -12.122  11.303  69.320  1.00  0.00    -0.372 A  
HETATM   36  C   UNL     1     -12.522  10.886  70.590  1.00  0.00    -0.460 A  
HETATM   37  C   UNL     1     -10.601   9.436  70.721  1.00  0.00    -0.371 A  
HETATM   38  C   UNL     1     -10.193   9.856  69.453  1.00  0.00    -0.231 A  
ENDBRANCH  18  33
ENDBRANCH  15  18
ENDBRANCH  12  14
TORSDOF 7
ENDMDL
MODEL       39
REMARK 921   NORMALIZED FREE ENERGY PREDICTED BY IDOCK:   -6.93 KCAL/MOL
REMARK 922        TOTAL FREE ENERGY PREDICTED BY IDOCK:  -11.29 KCAL/MOL
REMARK 923 INTER-LIGAND FREE ENERGY PREDICTED BY IDOCK:   -9.90 KCAL/MOL
REMARK 924 INTRA-LIGAND FREE ENERGY PREDICTED BY IDOCK:   -1.39 KCAL/MOL
REMARK 927      BINDING AFFINITY PREDICTED BY RF-SCORE:    0.00 PKD
ROOT
HETATM    1  C   UNL     1     -12.122  13.126  66.481  1.00  0.00    -0.358 C  
HETATM    2  S   UNL     1     -11.809  14.461  67.696  1.00  0.00    -0.352 SA 
HETATM    3  C   UNL     1     -10.426  15.233  66.743  1.00  0.00    -0.293 C  
HETATM    4  CA  UNL     1     -10.610  14.750  65.282  1.00  0.00    -0.395 C  
HETATM    5  C   UNL     1      -9.108  14.720  67.357  1.00  0.00    -0.202 C  
HETATM    6  C   UNL     1     -10.460  16.752  66.945  1.00  0.00    -0.269 C  
HETATM    7  C   UNL     1     -11.470  15.666  64.394  1.00  0.00    -0.262 C  
HETATM    8  N   UNL     1     -11.223  13.409  65.337  1.00  0.00    -0.286 N  
HETATM    9  OXT UNL     1     -11.213  16.837  64.151  1.00  0.00    -1.155 OA 
HETATM   10  O   UNL     1     -12.545  15.050  63.838  1.00  0.00    -0.813 OA 
HETATM   11  C   UNL     1     -10.417  12.324  65.590  1.00  0.00    -0.261 C  
HETATM   12  CA  UNL     1     -11.382  11.775  66.666  1.00  0.00    -0.316 C  
HETATM   13  O   UNL     1      -9.298  12.076  65.210  1.00  0.00    -0.098 OA 
ENDROOT
BRANCH  12  14
HETATM   14  N   UNL     1     -10.798  11.499  68.005  1.00  0.00    -0.201 N  
HETATM   15  C   UNL     1     -10.533  10.206  68.407  1.00  0.00    -0.208 C  
HETATM   16  H   UNL     1     -10.591  12.275  68.635  1.00  0.00     0.000 HD 
HETATM   17  O   UNL     1     -10.789   9.259  67.660  1.00  0.00    -0.250 OA 
BRANCH  15  18
HETATM   18  CA  UNL     1     -10.071  10.004  69.871  1.00  0.00    -0.246 C  
BRANCH  18  19
HETATM   19  N   UNL     1      -8.990   9.022  69.885  1.00  0.00    -0.153 N  
HETATM   20  H   UNL     1      -9.094   8.165  69.343  1.00  0.00     0.000 HD 
BRANCH  19  21
HETATM   21  C   UNL     1      -7.847   9.217  70.602  1.00  0.00    -0.158 C  
HETATM   22  O   UNL     1      -7.149  10.221  70.472  1.00  0.00    -0.298 OA 
BRANCH  21  23
HETATM   23  N   UNL     1      -7.513   8.218  71.488  1.00  0.00    -0.081 N  
HETATM   24  C   UNL     1      -5.873   7.119  72.795  1.00  0.00    -0.041 C  
HETATM   25  N   UNL     1      -6.883   6.202  72.254  1.00  0.00    -0.072 N  
HETATM   26  C   UNL     1      -6.568   8.458  72.567  1.00  0.00    -0.088 C  
HETATM   27  O   UNL     1      -8.613   6.320  70.683  1.00  0.00    -0.135 OA 
HETATM   28  C   UNL     1      -7.776   6.853  71.386  1.00  0.00    -0.092 C  
BRANCH  25  29
HETATM   29  S   UNL     1      -6.890   4.604  72.680  1.00  0.00    -0.067 S  
HETATM   30  O   UNL     1      -5.727   4.369  73.511  1.00  0.00    -0.008 OA 
HETATM   31  C   UNL     1      -6.610   3.758  71.136  1.00  0.00    -0.030 C  
HETATM   32  O   UNL     1      -8.211   4.257  73.151  1.00  0.00    -0.089 OA 
ENDBRANCH  25  29
ENDBRANCH  21  23
ENDBRANCH  19  21
ENDBRANCH  18  19
BRANCH  18  33
HETATM   33  C   UNL     1     -11.190   9.647  70.839  1.00  0.00    -0.422 A  
HETATM   34  C   UNL     1     -13.325   9.028  72.566  1.00  0.00    -0.480 A  
HETATM   35  C   UNL     1     -12.290  10.517  70.970  1.00  0.00    -0.503 A  
HETATM   36  C   UNL     1     -13.344  10.210  71.831  1.00  0.00    -0.505 A  
HETATM   37  C   UNL     1     -12.251   8.151  72.441  1.00  0.00    -0.374 A  
HETATM   38  C   UNL     1     -11.190   8.456  71.586  1.00  0.00    -0.343 A  
ENDBRANCH  18  33
ENDBRANCH  15  18
ENDBRANCH  12  14
TORSDOF 7
ENDMDL
MODEL       40
REMARK 921   NORMALIZED FREE ENERGY PREDICTED BY IDOCK:   -6.93 KCAL/MOL
REMARK 922        TOTAL FREE ENERGY PREDICTED BY IDOCK:  -11.29 KCAL/MOL
REMARK 923 INTER-LIGAND FREE ENERGY PREDICTED BY IDOCK:  -10.81 KCAL/MOL
REMARK 924 INTRA-LIGAND FREE ENERGY PREDICTED BY IDOCK:   -0.48 KCAL/MOL
REMARK 927      BINDING AFFINITY PREDICTED BY RF-SCORE:    0.00 PKD
ROOT
HETATM    1  C   UNL     1      -9.090   7.602  69.859  1.00  0.00    -0.147 C  
HETATM    2  S   UNL     1      -9.960   7.937  71.436  1.00  0.00    -0.174 SA 
HETATM    3  C   UNL     1     -11.158   6.539  71.265  1.00  0.00    -0.273 C  
HETATM    4  CA  UNL     1     -10.503   5.553  70.264  1.00  0.00    -0.295 C  
HETATM    5  C   UNL     1     -12.471   7.128  70.714  1.00  0.00    -0.232 C  
HETATM    6  C   UNL     1     -11.464   5.964  72.652  1.00  0.00    -0.319 C  
HETATM    7  C   UNL     1      -9.623   4.462  70.902  1.00  0.00    -0.185 C  
HETATM    8  N   UNL     1      -9.686   6.353  69.331  1.00  0.00    -0.145 N  
HETATM    9  OXT UNL     1     -10.021   3.637  71.712  1.00  0.00    -0.174 OA 
HETATM   10  O   UNL     1      -8.343   4.446  70.449  1.00  0.00    -0.072 OA 
HETATM   11  C   UNL     1     -10.312   6.991  68.286  1.00  0.00    -0.194 C  
HETATM   12  CA  UNL     1      -9.585   8.324  68.578  1.00  0.00    -0.149 C  
HETATM   13  O   UNL     1     -11.222   6.627  67.580  1.00  0.00    -0.319 OA 
ENDROOT
BRANCH  12  14
HETATM   14  N   UNL     1     -10.444   9.523  68.764  1.00  0.00    -0.215 N  
HETATM   15  C   UNL     1     -10.809  10.304  67.686  1.00  0.00    -0.307 C  
HETATM   16  H   UNL     1     -10.767   9.772  69.699  1.00  0.00     0.000 HD 
HETATM   17  O   UNL     1     -10.416  10.021  66.552  1.00  0.00    -0.215 OA 
BRANCH  15  18
HETATM   18  CA  UNL     1     -11.573  11.615  67.993  1.00  0.00    -0.313 C  
BRANCH  18  19
HETATM   19  N   UNL     1     -10.722  12.744  67.627  1.00  0.00    -0.217 N  
HETATM   20  H   UNL     1      -9.790  12.812  68.033  1.00  0.00     0.000 HD 
BRANCH  19  21
HETATM   21  C   UNL     1     -11.138  13.710  66.759  1.00  0.00    -0.307 C  
HETATM   22  O   UNL     1     -11.910  13.476  65.831  1.00  0.00    -0.338 OA 
BRANCH  21  23
HETATM   23  N   UNL     1     -10.640  14.974  66.979  1.00  0.00    -0.287 N  
HETATM   24  C   UNL     1     -10.669  16.988  68.222  1.00  0.00    -0.372 C  
HETATM   25  N   UNL     1     -10.376  17.198  66.799  1.00  0.00    -0.314 N  
HETATM   26  C   UNL     1     -10.451  15.482  68.328  1.00  0.00    -0.242 C  
HETATM   27  O   UNL     1     -10.441  15.910  64.846  1.00  0.00    -0.542 OA 
HETATM   28  C   UNL     1     -10.481  16.008  66.058  1.00  0.00    -0.345 C  
BRANCH  25  29
HETATM   29  S   UNL     1      -9.975  18.698  66.230  1.00  0.00    -0.349 S  
HETATM   30  O   UNL     1      -8.554  18.692  65.948  1.00  0.00    -0.488 OA 
HETATM   31  C   UNL     1     -10.225  19.761  67.638  1.00  0.00    -0.434 C  
HETATM   32  O   UNL     1     -10.925  19.073  65.207  1.00  0.00    -0.511 OA 
ENDBRANCH  25  29
ENDBRANCH  21  23
ENDBRANCH  19  21
ENDBRANCH  18  19
BRANCH  18  33
HETATM   33  C   UNL     1     -12.094  11.721  69.419  1.00  0.00    -0.301 A  
HETATM   34  C   UNL     1     -13.103  12.005  72.031  1.00  0.00    -0.456 A  
HETATM   35  C   UNL     1     -12.198  12.990  70.021  1.00  0.00    -0.306 A  
HETATM   36  C   UNL     1     -12.693  13.127  71.317  1.00  0.00    -0.396 A  
HETATM   37  C   UNL     1     -13.019  10.743  71.448  1.00  0.00    -0.535 A  
HETATM   38  C   UNL     1     -12.517  10.600  70.153  1.00  0.00    -0.342 A  
ENDBRANCH  18  33
ENDBRANCH  15  18
ENDBRANCH  12  14
TORSDOF 7
ENDMDL
MODEL       41
REMARK 921   NORMALIZED FREE ENERGY PREDICTED BY IDOCK:   -6.89 KCAL/MOL
REMARK 922        TOTAL FREE ENERGY PREDICTED BY IDOCK:  -11.23 KCAL/MOL
REMARK 923 INTER-LIGAND FREE ENERGY PREDICTED BY IDOCK:   -9.75 KCAL/MOL
REMARK 924 INTRA-LIGAND FREE ENERGY PREDICTED BY IDOCK:   -1.48 KCAL/MOL
REMARK 927      BINDING AFFINITY PREDICTED BY RF-SCORE:    0.00 PKD
ROOT
HETATM    1  C   UNL     1     -11.313  14.334  66.598  1.00  0.00    -0.349 C  
HETATM    2  S   UNL     1     -11.949  15.369  67.969  1.00  0.00     0.185 SA 
HETATM    3  C   UNL     1     -10.521  16.544  67.966  1.00  0.00    -0.313 C  
HETATM    4  CA  UNL     1      -9.873  16.404  66.566  1.00  0.00    -0.274 C  
HETATM    5  C   UNL     1      -9.565  16.100  69.090  1.00  0.00    -0.249 C  
HETATM    6  C   UNL     1     -11.023  17.947  68.324  1.00  0.00     0.041 C  
HETATM    7  C   UNL     1     -10.415  17.369  65.495  1.00  0.00    -0.101 C  
HETATM    8  N   UNL     1     -10.086  15.013  66.120  1.00  0.00    -0.277 N  
HETATM    9  OXT UNL     1     -10.373  18.588  65.576  1.00  0.00    -0.555 OA 
HETATM   10  O   UNL     1     -10.912  16.752  64.393  1.00  0.00    -0.974 OA 
HETATM   11  C   UNL     1      -9.252  14.032  66.600  1.00  0.00    -0.244 C  
HETATM   12  CA  UNL     1     -10.438  13.104  66.951  1.00  0.00    -0.256 C  
HETATM   13  O   UNL     1      -8.063  14.051  66.813  1.00  0.00     0.019 OA 
ENDROOT
BRANCH  12  14
HETATM   14  N   UNL     1     -10.501  12.604  68.349  1.00  0.00    -0.234 N  
HETATM   15  C   UNL     1     -11.400  11.620  68.708  1.00  0.00    -0.264 C  
HETATM   16  H   UNL     1      -9.873  12.994  69.053  1.00  0.00     0.000 HD 
HETATM   17  O   UNL     1     -12.172  11.149  67.870  1.00  0.00    -0.521 OA 
BRANCH  15  18
HETATM   18  CA  UNL     1     -11.501  11.273  70.213  1.00  0.00    -0.193 C  
BRANCH  18  19
HETATM   19  N   UNL     1     -11.994   9.905  70.342  1.00  0.00    -0.410 N  
HETATM   20  H   UNL     1     -12.929   9.682  70.001  1.00  0.00     0.000 HD 
BRANCH  19  21
HETATM   21  C   UNL     1     -11.243   8.916  70.905  1.00  0.00    -0.279 C  
HETATM   22  O   UNL     1     -10.735   9.025  72.020  1.00  0.00    -0.349 OA 
BRANCH  21  23
HETATM   23  N   UNL     1     -11.079   7.778  70.149  1.00  0.00    -0.242 N  
HETATM   24  C   UNL     1     -10.498   5.486  70.015  1.00  0.00    -0.303 C  
HETATM   25  N   UNL     1     -10.104   6.248  68.824  1.00  0.00    -0.151 N  
HETATM   26  C   UNL     1     -11.464   6.473  70.664  1.00  0.00    -0.374 C  
HETATM   27  O   UNL     1      -9.988   8.504  68.214  1.00  0.00    -0.171 OA 
HETATM   28  C   UNL     1     -10.349   7.624  68.972  1.00  0.00    -0.213 C  
BRANCH  25  29
HETATM   29  S   UNL     1      -9.458   5.484  67.506  1.00  0.00    -0.122 S  
HETATM   30  O   UNL     1     -10.453   5.514  66.453  1.00  0.00    -0.245 OA 
HETATM   31  C   UNL     1      -9.309   3.789  68.037  1.00  0.00    -0.179 C  
HETATM   32  O   UNL     1      -8.130   6.003  67.276  1.00  0.00    -0.105 OA 
ENDBRANCH  25  29
ENDBRANCH  21  23
ENDBRANCH  19  21
ENDBRANCH  18  19
BRANCH  18  33
HETATM   33  C   UNL     1     -12.318  12.262  71.033  1.00  0.00    -0.320 A  
HETATM   34  C   UNL     1     -13.822  14.157  72.472  1.00  0.00    -0.590 A  
HETATM   35  C   UNL     1     -12.037  13.638  70.931  1.00  0.00    -0.330 A  
HETATM   36  C   UNL     1     -12.781  14.575  71.649  1.00  0.00    -0.414 A  
HETATM   37  C   UNL     1     -14.122  12.801  72.578  1.00  0.00     0.016 A  
HETATM   38  C   UNL     1     -13.376  11.859  71.865  1.00  0.00    -0.405 A  
ENDBRANCH  18  33
ENDBRANCH  15  18
ENDBRANCH  12  14
TORSDOF 7
ENDMDL
MODEL       42
REMARK 921   NORMALIZED FREE ENERGY PREDICTED BY IDOCK:   -6.83 KCAL/MOL
REMARK 922        TOTAL FREE ENERGY PREDICTED BY IDOCK:  -11.15 KCAL/MOL
REMARK 923 INTER-LIGAND FREE ENERGY PREDICTED BY IDOCK:   -9.21 KCAL/MOL
REMARK 924 INTRA-LIGAND FREE ENERGY PREDICTED BY IDOCK:   -1.94 KCAL/MOL
REMARK 927      BINDING AFFINITY PREDICTED BY RF-SCORE:    0.00 PKD
ROOT
HETATM    1  C   UNL     1      -8.978   9.904  69.410  1.00  0.00    -0.195 C  
HETATM    2  S   UNL     1     -10.594   9.294  68.801  1.00  0.00    -0.156 SA 
HETATM    3  C   UNL     1      -9.875   8.138  67.551  1.00  0.00    -0.177 C  
HETATM    4  CA  UNL     1      -8.421   7.878  68.016  1.00  0.00    -0.123 C  
HETATM    5  C   UNL     1      -9.924   8.854  66.187  1.00  0.00    -0.290 C  
HETATM    6  C   UNL     1     -10.766   6.895  67.443  1.00  0.00    -0.396 C  
HETATM    7  C   UNL     1      -8.238   6.668  68.950  1.00  0.00    -0.120 C  
HETATM    8  N   UNL     1      -7.955   9.098  68.704  1.00  0.00    -0.100 N  
HETATM    9  OXT UNL     1      -8.527   5.516  68.657  1.00  0.00    -0.103 OA 
HETATM   10  O   UNL     1      -7.668   6.969  70.144  1.00  0.00    -0.096 OA 
HETATM   11  C   UNL     1      -7.519  10.158  67.945  1.00  0.00    -0.088 C  
HETATM   12  CA  UNL     1      -8.372  11.168  68.747  1.00  0.00    -0.136 C  
HETATM   13  O   UNL     1      -6.868  10.176  66.928  1.00  0.00    -0.081 OA 
ENDROOT
BRANCH  12  14
HETATM   14  N   UNL     1      -9.293  12.031  67.963  1.00  0.00    -0.190 N  
HETATM   15  C   UNL     1      -8.823  13.148  67.301  1.00  0.00    -0.208 C  
HETATM   16  H   UNL     1     -10.285  11.796  67.913  1.00  0.00     0.000 HD 
HETATM   17  O   UNL     1      -7.630  13.450  67.363  1.00  0.00    -0.162 OA 
BRANCH  15  18
HETATM   18  CA  UNL     1      -9.876  14.070  66.641  1.00  0.00    -0.284 C  
BRANCH  18  19
HETATM   19  N   UNL     1     -10.682  14.684  67.693  1.00  0.00    -0.267 N  
HETATM   20  H   UNL     1     -11.689  14.526  67.700  1.00  0.00     0.000 HD 
BRANCH  19  21
HETATM   21  C   UNL     1     -10.127  15.460  68.667  1.00  0.00    -0.212 C  
HETATM   22  O   UNL     1     -10.322  15.259  69.864  1.00  0.00    -0.269 OA 
BRANCH  21  23
HETATM   23  N   UNL     1      -9.330  16.494  68.232  1.00  0.00    -0.212 N  
HETATM   24  C   UNL     1      -7.722  18.167  68.708  1.00  0.00    -0.264 C  
HETATM   25  N   UNL     1      -8.689  18.576  67.682  1.00  0.00    -0.266 N  
HETATM   26  C   UNL     1      -7.977  16.663  68.739  1.00  0.00    -0.239 C  
HETATM   27  O   UNL     1     -10.710  17.759  66.832  1.00  0.00    -0.284 OA 
HETATM   28  C   UNL     1      -9.703  17.621  67.501  1.00  0.00    -0.280 C  
BRANCH  25  29
HETATM   29  S   UNL     1      -8.518  20.016  66.885  1.00  0.00    -0.327 S  
HETATM   30  O   UNL     1      -8.127  19.716  65.522  1.00  0.00    -0.358 OA 
HETATM   31  C   UNL     1      -7.111  20.769  67.679  1.00  0.00    -0.309 C  
HETATM   32  O   UNL     1      -9.679  20.833  67.152  1.00  0.00    -0.462 OA 
ENDBRANCH  25  29
ENDBRANCH  21  23
ENDBRANCH  19  21
ENDBRANCH  18  19
BRANCH  18  33
HETATM   33  C   UNL     1     -10.731  13.391  65.580  1.00  0.00    -0.301 A  
HETATM   34  C   UNL     1     -12.242  12.061  63.612  1.00  0.00    -0.642 A  
HETATM   35  C   UNL     1     -10.100  12.703  64.525  1.00  0.00    -0.271 A  
HETATM   36  C   UNL     1     -10.852  12.049  63.549  1.00  0.00    -0.509 A  
HETATM   37  C   UNL     1     -12.883  12.727  64.654  1.00  0.00    -0.355 A  
HETATM   38  C   UNL     1     -12.135  13.388  65.630  1.00  0.00    -0.476 A  
ENDBRANCH  18  33
ENDBRANCH  15  18
ENDBRANCH  12  14
TORSDOF 7
ENDMDL
MODEL       43
REMARK 921   NORMALIZED FREE ENERGY PREDICTED BY IDOCK:   -6.81 KCAL/MOL
REMARK 922        TOTAL FREE ENERGY PREDICTED BY IDOCK:  -11.12 KCAL/MOL
REMARK 923 INTER-LIGAND FREE ENERGY PREDICTED BY IDOCK:   -9.85 KCAL/MOL
REMARK 924 INTRA-LIGAND FREE ENERGY PREDICTED BY IDOCK:   -1.27 KCAL/MOL
REMARK 927      BINDING AFFINITY PREDICTED BY RF-SCORE:    0.00 PKD
ROOT
HETATM    1  C   UNL     1     -12.254  12.909  66.131  1.00  0.00    -0.317 C  
HETATM    2  S   UNL     1     -11.993  14.117  67.483  1.00  0.00    -0.335 SA 
HETATM    3  C   UNL     1     -10.559  14.961  66.678  1.00  0.00    -0.305 C  
HETATM    4  CA  UNL     1     -10.673  14.623  65.170  1.00  0.00    -0.414 C  
HETATM    5  C   UNL     1      -9.277  14.377  67.303  1.00  0.00    -0.214 C  
HETATM    6  C   UNL     1     -10.592  16.454  67.024  1.00  0.00    -0.260 C  
HETATM    7  C   UNL     1     -11.483  15.631  64.333  1.00  0.00    -0.262 C  
HETATM    8  N   UNL     1     -11.298  13.290  65.065  1.00  0.00    -0.299 N  
HETATM    9  OXT UNL     1     -11.205  16.816  64.218  1.00  0.00    -1.163 OA 
HETATM   10  O   UNL     1     -12.532  15.084  63.669  1.00  0.00    -0.667 OA 
HETATM   11  C   UNL     1     -10.513  12.177  65.251  1.00  0.00    -0.276 C  
HETATM   12  CA  UNL     1     -11.534  11.539  66.221  1.00  0.00    -0.049 C  
HETATM   13  O   UNL     1      -9.378  11.953  64.904  1.00  0.00    -0.055 OA 
ENDROOT
BRANCH  12  14
HETATM   14  N   UNL     1     -11.019  11.128  67.554  1.00  0.00    -0.256 N  
HETATM   15  C   UNL     1     -10.642   9.822  67.794  1.00  0.00    -0.266 C  
HETATM   16  H   UNL     1     -10.943  11.820  68.300  1.00  0.00     0.000 HD 
HETATM   17  O   UNL     1     -10.740   8.974  66.905  1.00  0.00    -0.215 OA 
BRANCH  15  18
HETATM   18  CA  UNL     1     -10.266   9.454  69.250  1.00  0.00    -0.202 C  
BRANCH  18  19
HETATM   19  N   UNL     1      -9.776   8.079  69.269  1.00  0.00    -0.165 N  
HETATM   20  H   UNL     1     -10.338   7.348  68.835  1.00  0.00     0.000 HD 
BRANCH  19  21
HETATM   21  C   UNL     1      -8.588   7.744  69.849  1.00  0.00    -0.137 C  
HETATM   22  O   UNL     1      -7.547   8.360  69.627  1.00  0.00    -0.084 OA 
BRANCH  21  23
HETATM   23  N   UNL     1      -8.618   6.666  70.705  1.00  0.00    -0.141 N  
HETATM   24  C   UNL     1      -7.480   4.904  71.803  1.00  0.00    -0.087 C  
HETATM   25  N   UNL     1      -8.854   4.552  71.427  1.00  0.00    -0.120 N  
HETATM   26  C   UNL     1      -7.531   6.420  71.639  1.00  0.00    -0.093 C  
HETATM   27  O   UNL     1     -10.543   5.486  70.104  1.00  0.00    -0.285 OA 
HETATM   28  C   UNL     1      -9.471   5.565  70.673  1.00  0.00    -0.165 C  
BRANCH  25  29
HETATM   29  S   UNL     1      -9.514   3.107  71.888  1.00  0.00    -0.151 S  
HETATM   30  O   UNL     1     -10.636   3.397  72.758  1.00  0.00    -0.152 OA 
HETATM   31  C   UNL     1      -8.245   2.371  72.900  1.00  0.00    -0.059 C  
HETATM   32  O   UNL     1      -9.689   2.284  70.714  1.00  0.00    -0.124 OA 
ENDBRANCH  25  29
ENDBRANCH  21  23
ENDBRANCH  19  21
ENDBRANCH  18  19
BRANCH  18  33
HETATM   33  C   UNL     1     -11.376   9.687  70.265  1.00  0.00    -0.311 A  
HETATM   34  C   UNL     1     -13.385  10.048  72.203  1.00  0.00    -0.469 A  
HETATM   35  C   UNL     1     -11.853   8.601  71.024  1.00  0.00    -0.303 A  
HETATM   36  C   UNL     1     -12.852   8.781  71.980  1.00  0.00    -0.442 A  
HETATM   37  C   UNL     1     -12.918  11.136  71.470  1.00  0.00    -0.542 A  
HETATM   38  C   UNL     1     -11.923  10.959  70.507  1.00  0.00    -0.466 A  
ENDBRANCH  18  33
ENDBRANCH  15  18
ENDBRANCH  12  14
TORSDOF 7
ENDMDL
MODEL       44
REMARK 921   NORMALIZED FREE ENERGY PREDICTED BY IDOCK:   -6.76 KCAL/MOL
REMARK 922        TOTAL FREE ENERGY PREDICTED BY IDOCK:  -11.05 KCAL/MOL
REMARK 923 INTER-LIGAND FREE ENERGY PREDICTED BY IDOCK:   -9.32 KCAL/MOL
REMARK 924 INTRA-LIGAND FREE ENERGY PREDICTED BY IDOCK:   -1.73 KCAL/MOL
REMARK 927      BINDING AFFINITY PREDICTED BY RF-SCORE:    0.00 PKD
ROOT
HETATM    1  C   UNL     1      -8.658  10.090  69.101  1.00  0.00    -0.158 C  
HETATM    2  S   UNL     1     -10.198   9.098  69.083  1.00  0.00    -0.212 SA 
HETATM    3  C   UNL     1      -9.993   8.505  67.344  1.00  0.00    -0.214 C  
HETATM    4  CA  UNL     1      -8.486   8.666  67.026  1.00  0.00    -0.110 C  
HETATM    5  C   UNL     1     -10.869   9.404  66.450  1.00  0.00     0.258 C  
HETATM    6  C   UNL     1     -10.543   7.078  67.230  1.00  0.00    -0.395 C  
HETATM    7  C   UNL     1      -7.615   7.436  67.340  1.00  0.00    -0.112 C  
HETATM    8  N   UNL     1      -7.994   9.821  67.804  1.00  0.00    -0.101 N  
HETATM    9  OXT UNL     1      -7.772   6.331  66.841  1.00  0.00    -0.097 OA 
HETATM   10  O   UNL     1      -6.594   7.683  68.199  1.00  0.00    -0.051 OA 
HETATM   11  C   UNL     1      -8.227  11.088  67.323  1.00  0.00    -0.125 C  
HETATM   12  CA  UNL     1      -8.741  11.585  68.694  1.00  0.00    -0.103 C  
HETATM   13  O   UNL     1      -8.200  11.513  66.193  1.00  0.00    -0.107 OA 
ENDROOT
BRANCH  12  14
HETATM   14  N   UNL     1     -10.086  12.219  68.711  1.00  0.00    -0.401 N  
HETATM   15  C   UNL     1     -10.226  13.570  68.953  1.00  0.00    -0.057 C  
HETATM   16  H   UNL     1     -10.914  11.648  68.541  1.00  0.00     0.000 HD 
HETATM   17  O   UNL     1      -9.234  14.269  69.171  1.00  0.00    -0.031 OA 
BRANCH  15  18
HETATM   18  CA  UNL     1     -11.668  14.112  69.105  1.00  0.00    -0.327 C  
BRANCH  18  19
HETATM   19  N   UNL     1     -11.830  15.255  68.210  1.00  0.00    -0.495 N  
HETATM   20  H   UNL     1     -12.195  16.130  68.587  1.00  0.00     0.000 HD 
BRANCH  19  21
HETATM   21  C   UNL     1     -11.510  15.188  66.887  1.00  0.00    -0.214 C  
HETATM   22  O   UNL     1     -12.121  14.473  66.094  1.00  0.00    -0.367 OA 
BRANCH  21  23
HETATM   23  N   UNL     1     -10.453  15.971  66.482  1.00  0.00    -0.302 N  
HETATM   24  C   UNL     1      -8.118  16.272  66.231  1.00  0.00    -0.232 C  
HETATM   25  N   UNL     1      -8.825  17.517  66.552  1.00  0.00    -0.264 N  
HETATM   26  C   UNL     1      -9.293  15.386  65.828  1.00  0.00    -0.229 C  
HETATM   27  O   UNL     1     -10.977  18.116  67.249  1.00  0.00    -0.294 OA 
HETATM   28  C   UNL     1     -10.188  17.298  66.814  1.00  0.00    -0.318 C  
BRANCH  25  29
HETATM   29  S   UNL     1      -8.023  18.964  66.573  1.00  0.00    -0.285 S  
HETATM   30  O   UNL     1      -8.769  19.889  65.745  1.00  0.00    -0.336 OA 
HETATM   31  C   UNL     1      -6.499  18.610  65.720  1.00  0.00    -0.261 C  
HETATM   32  O   UNL     1      -7.706  19.296  67.943  1.00  0.00    -0.268 OA 
ENDBRANCH  25  29
ENDBRANCH  21  23
ENDBRANCH  19  21
ENDBRANCH  18  19
BRANCH  18  33
HETATM   33  C   UNL     1     -12.072  14.436  70.536  1.00  0.00    -0.404 A  
HETATM   34  C   UNL     1     -12.808  14.936  73.207  1.00  0.00    -0.646 A  
HETATM   35  C   UNL     1     -12.840  13.504  71.262  1.00  0.00    -0.420 A  
HETATM   36  C   UNL     1     -13.207  13.757  72.583  1.00  0.00    -0.571 A  
HETATM   37  C   UNL     1     -12.038  15.863  72.509  1.00  0.00    -0.611 A  
HETATM   38  C   UNL     1     -11.673  15.618  71.184  1.00  0.00    -0.461 A  
ENDBRANCH  18  33
ENDBRANCH  15  18
ENDBRANCH  12  14
TORSDOF 7
ENDMDL
MODEL       45
REMARK 921   NORMALIZED FREE ENERGY PREDICTED BY IDOCK:   -6.76 KCAL/MOL
REMARK 922        TOTAL FREE ENERGY PREDICTED BY IDOCK:  -11.04 KCAL/MOL
REMARK 923 INTER-LIGAND FREE ENERGY PREDICTED BY IDOCK:   -9.59 KCAL/MOL
REMARK 924 INTRA-LIGAND FREE ENERGY PREDICTED BY IDOCK:   -1.45 KCAL/MOL
REMARK 927      BINDING AFFINITY PREDICTED BY RF-SCORE:    0.00 PKD
ROOT
HETATM    1  C   UNL     1     -12.311  13.266  65.523  1.00  0.00    -0.480 C  
HETATM    2  S   UNL     1     -11.906  14.077  67.115  1.00  0.00    -0.421 SA 
HETATM    3  C   UNL     1     -10.476  15.042  66.450  1.00  0.00    -0.294 C  
HETATM    4  CA  UNL     1     -10.697  15.106  64.918  1.00  0.00    -0.398 C  
HETATM    5  C   UNL     1      -9.195  14.268  66.815  1.00  0.00    -0.282 C  
HETATM    6  C   UNL     1     -10.407  16.397  67.164  1.00  0.00    -0.290 C  
HETATM    7  C   UNL     1     -11.497  16.325  64.422  1.00  0.00    -0.111 C  
HETATM    8  N   UNL     1     -11.399  13.870  64.523  1.00  0.00    -0.377 N  
HETATM    9  OXT UNL     1     -11.161  17.489  64.590  1.00  0.00    -0.934 OA 
HETATM   10  O   UNL     1     -12.612  16.007  63.716  1.00  0.00    -0.665 OA 
HETATM   11  C   UNL     1     -10.668  12.716  64.366  1.00  0.00    -0.359 C  
HETATM   12  CA  UNL     1     -11.664  11.891  65.213  1.00  0.00    -0.169 C  
HETATM   13  O   UNL     1      -9.569  12.545  63.894  1.00  0.00    -0.084 OA 
ENDROOT
BRANCH  12  14
HETATM   14  N   UNL     1     -11.096  11.134  66.358  1.00  0.00    -0.202 N  
HETATM   15  C   UNL     1     -10.269  10.048  66.148  1.00  0.00    -0.213 C  
HETATM   16  H   UNL     1     -11.319  11.420  67.312  1.00  0.00     0.000 HD 
HETATM   17  O   UNL     1     -10.001   9.685  65.001  1.00  0.00    -0.224 OA 
BRANCH  15  18
HETATM   18  CA  UNL     1      -9.851   9.230  67.393  1.00  0.00    -0.178 C  
BRANCH  18  19
HETATM   19  N   UNL     1      -9.741  10.139  68.531  1.00  0.00    -0.150 N  
HETATM   20  H   UNL     1      -8.957  10.789  68.569  1.00  0.00     0.000 HD 
BRANCH  19  21
HETATM   21  C   UNL     1     -10.654  10.143  69.543  1.00  0.00    -0.245 C  
HETATM   22  O   UNL     1     -11.590  10.941  69.585  1.00  0.00    -0.264 OA 
BRANCH  21  23
HETATM   23  N   UNL     1     -10.470   9.199  70.527  1.00  0.00    -0.218 N  
HETATM   24  C   UNL     1     -11.251   8.109  72.478  1.00  0.00    -0.391 C  
HETATM   25  N   UNL     1      -9.792   8.266  72.455  1.00  0.00    -0.278 N  
HETATM   26  C   UNL     1     -11.581   8.399  71.017  1.00  0.00    -0.275 C  
HETATM   27  O   UNL     1      -8.231   9.430  71.157  1.00  0.00    -0.314 OA 
HETATM   28  C   UNL     1      -9.359   9.019  71.350  1.00  0.00    -0.240 C  
BRANCH  25  29
HETATM   29  S   UNL     1      -8.850   7.594  73.637  1.00  0.00    -0.266 S  
HETATM   30  O   UNL     1      -7.961   8.628  74.127  1.00  0.00    -0.391 OA 
HETATM   31  C   UNL     1      -7.845   6.417  72.753  1.00  0.00    -0.103 C  
HETATM   32  O   UNL     1      -9.702   6.866  74.549  1.00  0.00    -0.268 OA 
ENDBRANCH  25  29
ENDBRANCH  21  23
ENDBRANCH  19  21
ENDBRANCH  18  19
BRANCH  18  33
HETATM   33  C   UNL     1      -8.598   8.388  67.201  1.00  0.00    -0.123 A  
HETATM   34  C   UNL     1      -6.246   6.864  66.937  1.00  0.00    -0.041 A  
HETATM   35  C   UNL     1      -7.364   8.871  67.680  1.00  0.00    -0.085 A  
HETATM   36  C   UNL     1      -6.199   8.116  67.543  1.00  0.00    -0.052 A  
HETATM   37  C   UNL     1      -7.458   6.364  66.467  1.00  0.00    -0.086 A  
HETATM   38  C   UNL     1      -8.626   7.120  66.597  1.00  0.00    -0.124 A  
ENDBRANCH  18  33
ENDBRANCH  15  18
ENDBRANCH  12  14
TORSDOF 7
ENDMDL
MODEL       46
REMARK 921   NORMALIZED FREE ENERGY PREDICTED BY IDOCK:   -6.72 KCAL/MOL
REMARK 922        TOTAL FREE ENERGY PREDICTED BY IDOCK:  -10.99 KCAL/MOL
REMARK 923 INTER-LIGAND FREE ENERGY PREDICTED BY IDOCK:   -9.29 KCAL/MOL
REMARK 924 INTRA-LIGAND FREE ENERGY PREDICTED BY IDOCK:   -1.70 KCAL/MOL
REMARK 927      BINDING AFFINITY PREDICTED BY RF-SCORE:    0.00 PKD
ROOT
HETATM    1  C   UNL     1     -10.195   5.922  69.915  1.00  0.00    -0.218 C  
HETATM    2  S   UNL     1      -8.643   6.700  70.498  1.00  0.00    -0.144 SA 
HETATM    3  C   UNL     1      -9.242   6.996  72.221  1.00  0.00    -0.133 C  
HETATM    4  CA  UNL     1     -10.420   6.010  72.425  1.00  0.00    -0.201 C  
HETATM    5  C   UNL     1      -9.702   8.465  72.297  1.00  0.00    -0.386 C  
HETATM    6  C   UNL     1      -8.071   6.836  73.197  1.00  0.00    -0.114 C  
HETATM    7  C   UNL     1     -10.032   4.639  73.006  1.00  0.00    -0.149 C  
HETATM    8  N   UNL     1     -11.063   5.817  71.111  1.00  0.00    -0.230 N  
HETATM    9  OXT UNL     1      -9.488   4.474  74.089  1.00  0.00    -0.115 OA 
HETATM   10  O   UNL     1     -10.393   3.585  72.231  1.00  0.00    -0.147 OA 
HETATM   11  C   UNL     1     -11.945   6.771  70.661  1.00  0.00    -0.362 C  
HETATM   12  CA  UNL     1     -11.275   6.829  69.269  1.00  0.00    -0.205 C  
HETATM   13  O   UNL     1     -12.777   7.412  71.259  1.00  0.00    -0.349 OA 
ENDROOT
BRANCH  12  14
HETATM   14  N   UNL     1     -10.840   8.169  68.795  1.00  0.00    -0.421 N  
HETATM   15  C   UNL     1     -10.553   8.388  67.462  1.00  0.00    -0.215 C  
HETATM   16  H   UNL     1     -10.753   8.936  69.462  1.00  0.00     0.000 HD 
HETATM   17  O   UNL     1     -10.644   7.467  66.648  1.00  0.00    -0.268 OA 
BRANCH  15  18
HETATM   18  CA  UNL     1      -9.961   9.768  67.087  1.00  0.00    -0.198 C  
BRANCH  18  19
HETATM   19  N   UNL     1     -11.062  10.711  66.903  1.00  0.00    -0.170 N  
HETATM   20  H   UNL     1     -11.527  10.757  65.997  1.00  0.00     0.000 HD 
BRANCH  19  21
HETATM   21  C   UNL     1     -11.486  11.531  67.906  1.00  0.00    -0.301 C  
HETATM   22  O   UNL     1     -12.171  11.127  68.845  1.00  0.00    -0.522 OA 
BRANCH  21  23
HETATM   23  N   UNL     1     -11.102  12.849  67.811  1.00  0.00    -0.248 N  
HETATM   24  C   UNL     1     -11.605  15.144  68.103  1.00  0.00    -0.341 C  
HETATM   25  N   UNL     1     -10.759  14.888  66.931  1.00  0.00    -0.302 N  
HETATM   26  C   UNL     1     -11.468  13.813  68.836  1.00  0.00    -0.304 C  
HETATM   27  O   UNL     1     -10.045  13.009  65.732  1.00  0.00    -0.286 OA 
HETATM   28  C   UNL     1     -10.571  13.513  66.707  1.00  0.00    -0.272 C  
BRANCH  25  29
HETATM   29  S   UNL     1     -10.142  16.139  66.043  1.00  0.00    -0.370 S  
HETATM   30  O   UNL     1      -8.703  15.973  65.997  1.00  0.00    -0.331 OA 
HETATM   31  C   UNL     1     -10.471  17.571  67.052  1.00  0.00    -0.293 C  
HETATM   32  O   UNL     1     -10.906  16.261  64.823  1.00  0.00    -0.671 OA 
ENDBRANCH  25  29
ENDBRANCH  21  23
ENDBRANCH  19  21
ENDBRANCH  18  19
BRANCH  18  33
HETATM   33  C   UNL     1      -9.015   9.744  65.895  1.00  0.00    -0.189 A  
HETATM   34  C   UNL     1      -7.210   9.627  63.738  1.00  0.00    -0.114 A  
HETATM   35  C   UNL     1      -7.641   9.522  66.112  1.00  0.00    -0.100 A  
HETATM   36  C   UNL     1      -6.748   9.470  65.042  1.00  0.00    -0.089 A  
HETATM   37  C   UNL     1      -8.567   9.836  63.503  1.00  0.00    -0.204 A  
HETATM   38  C   UNL     1      -9.464   9.896  64.572  1.00  0.00    -0.328 A  
ENDBRANCH  18  33
ENDBRANCH  15  18
ENDBRANCH  12  14
TORSDOF 7
ENDMDL
MODEL       47
REMARK 921   NORMALIZED FREE ENERGY PREDICTED BY IDOCK:   -6.71 KCAL/MOL
REMARK 922        TOTAL FREE ENERGY PREDICTED BY IDOCK:  -10.98 KCAL/MOL
REMARK 923 INTER-LIGAND FREE ENERGY PREDICTED BY IDOCK:   -9.32 KCAL/MOL
REMARK 924 INTRA-LIGAND FREE ENERGY PREDICTED BY IDOCK:   -1.65 KCAL/MOL
REMARK 927      BINDING AFFINITY PREDICTED BY RF-SCORE:    0.00 PKD
ROOT
HETATM    1  C   UNL     1     -10.864   6.416  67.059  1.00  0.00    -0.392 C  
HETATM    2  S   UNL     1      -9.546   7.582  66.550  1.00  0.00    -0.139 SA 
HETATM    3  C   UNL     1      -8.211   6.304  66.484  1.00  0.00    -0.112 C  
HETATM    4  CA  UNL     1      -8.945   4.946  66.342  1.00  0.00    -0.117 C  
HETATM    5  C   UNL     1      -7.425   6.397  67.806  1.00  0.00    -0.093 C  
HETATM    6  C   UNL     1      -7.238   6.649  65.351  1.00  0.00    -0.073 C  
HETATM    7  C   UNL     1      -9.189   4.482  64.895  1.00  0.00    -0.156 C  
HETATM    8  N   UNL     1     -10.241   5.073  67.038  1.00  0.00    -0.213 N  
HETATM    9  OXT UNL     1      -8.306   4.280  64.073  1.00  0.00    -0.095 OA 
HETATM   10  O   UNL     1     -10.494   4.256  64.597  1.00  0.00    -0.189 OA 
HETATM   11  C   UNL     1     -10.271   4.942  68.406  1.00  0.00    -0.028 C  
HETATM   12  CA  UNL     1     -11.126   6.219  68.575  1.00  0.00    -0.308 C  
HETATM   13  O   UNL     1      -9.664   4.192  69.134  1.00  0.00    -0.183 OA 
ENDROOT
BRANCH  12  14
HETATM   14  N   UNL     1     -10.595   7.257  69.497  1.00  0.00    -0.231 N  
HETATM   15  C   UNL     1     -11.320   7.660  70.600  1.00  0.00    -0.272 C  
HETATM   16  H   UNL     1      -9.684   7.678  69.312  1.00  0.00     0.000 HD 
HETATM   17  O   UNL     1     -12.428   7.169  70.828  1.00  0.00    -0.301 OA 
BRANCH  15  18
HETATM   18  CA  UNL     1     -10.761   8.853  71.413  1.00  0.00    -0.312 C  
BRANCH  18  19
HETATM   19  N   UNL     1     -10.655  10.009  70.528  1.00  0.00    -0.362 N  
HETATM   20  H   UNL     1      -9.770  10.190  70.055  1.00  0.00     0.000 HD 
BRANCH  19  21
HETATM   21  C   UNL     1     -11.703  10.854  70.314  1.00  0.00    -0.347 C  
HETATM   22  O   UNL     1     -12.733  10.813  70.985  1.00  0.00    -0.360 OA 
BRANCH  21  23
HETATM   23  N   UNL     1     -11.545  11.765  69.294  1.00  0.00    -0.289 N  
HETATM   24  C   UNL     1     -12.134  13.830  68.297  1.00  0.00    -0.279 C  
HETATM   25  N   UNL     1     -11.834  12.783  67.312  1.00  0.00    -0.373 N  
HETATM   26  C   UNL     1     -11.554  13.195  69.557  1.00  0.00    -0.283 C  
HETATM   27  O   UNL     1     -11.484  10.470  67.349  1.00  0.00    -0.405 OA 
HETATM   28  C   UNL     1     -11.604  11.537  67.920  1.00  0.00    -0.282 C  
BRANCH  25  29
HETATM   29  S   UNL     1     -11.792  13.130  65.695  1.00  0.00    -0.411 S  
HETATM   30  O   UNL     1     -10.657  12.429  65.129  1.00  0.00    -0.276 OA 
HETATM   31  C   UNL     1     -11.408  14.870  65.650  1.00  0.00    -0.325 C  
HETATM   32  O   UNL     1     -13.116  12.945  65.148  1.00  0.00    -0.753 OA 
ENDBRANCH  25  29
ENDBRANCH  21  23
ENDBRANCH  19  21
ENDBRANCH  18  19
BRANCH  18  33
HETATM   33  C   UNL     1      -9.459   8.561  72.144  1.00  0.00    -0.375 A  
HETATM   34  C   UNL     1      -7.007   8.103  73.450  1.00  0.00    -0.152 A  
HETATM   35  C   UNL     1      -8.234   8.816  71.496  1.00  0.00    -0.190 A  
HETATM   36  C   UNL     1      -7.021   8.584  72.143  1.00  0.00    -0.096 A  
HETATM   37  C   UNL     1      -8.208   7.855  74.111  1.00  0.00    -0.303 A  
HETATM   38  C   UNL     1      -9.425   8.081  73.464  1.00  0.00    -0.248 A  
ENDBRANCH  18  33
ENDBRANCH  15  18
ENDBRANCH  12  14
TORSDOF 7
ENDMDL
MODEL       48
REMARK 921   NORMALIZED FREE ENERGY PREDICTED BY IDOCK:   -6.70 KCAL/MOL
REMARK 922        TOTAL FREE ENERGY PREDICTED BY IDOCK:  -10.96 KCAL/MOL
REMARK 923 INTER-LIGAND FREE ENERGY PREDICTED BY IDOCK:   -9.97 KCAL/MOL
REMARK 924 INTRA-LIGAND FREE ENERGY PREDICTED BY IDOCK:   -0.99 KCAL/MOL
REMARK 927      BINDING AFFINITY PREDICTED BY RF-SCORE:    0.00 PKD
ROOT
HETATM    1  C   UNL     1      -9.651   9.790  66.480  1.00  0.00    -0.194 C  
HETATM    2  S   UNL     1      -8.091  10.692  66.810  1.00  0.00    -0.137 SA 
HETATM    3  C   UNL     1      -7.364   9.375  67.886  1.00  0.00    -0.083 C  
HETATM    4  CA  UNL     1      -8.122   8.075  67.519  1.00  0.00    -0.123 C  
HETATM    5  C   UNL     1      -7.612   9.793  69.348  1.00  0.00    -0.104 C  
HETATM    6  C   UNL     1      -5.846   9.335  67.676  1.00  0.00    -0.045 C  
HETATM    7  C   UNL     1      -7.481   7.238  66.397  1.00  0.00    -0.084 C  
HETATM    8  N   UNL     1      -9.489   8.462  67.116  1.00  0.00    -0.154 N  
HETATM    9  OXT UNL     1      -6.354   6.765  66.443  1.00  0.00    -0.042 OA 
HETATM   10  O   UNL     1      -8.299   7.009  65.339  1.00  0.00    -0.136 OA 
HETATM   11  C   UNL     1     -10.417   8.723  68.097  1.00  0.00    -0.191 C  
HETATM   12  CA  UNL     1     -10.859  10.041  67.420  1.00  0.00    -0.249 C  
HETATM   13  O   UNL     1     -10.609   8.175  69.156  1.00  0.00    -0.219 OA 
ENDROOT
BRANCH  12  14
HETATM   14  N   UNL     1     -10.821  11.266  68.261  1.00  0.00    -0.190 N  
HETATM   15  C   UNL     1     -11.556  12.382  67.917  1.00  0.00    -0.356 C  
HETATM   16  H   UNL     1     -10.245  11.282  69.104  1.00  0.00     0.000 HD 
HETATM   17  O   UNL     1     -12.247  12.380  66.896  1.00  0.00    -0.527 OA 
BRANCH  15  18
HETATM   18  CA  UNL     1     -11.336  13.659  68.763  1.00  0.00    -0.289 C  
BRANCH  18  19
HETATM   19  N   UNL     1      -9.902  13.836  68.973  1.00  0.00    -0.425 N  
HETATM   20  H   UNL     1      -9.467  13.416  69.794  1.00  0.00     0.000 HD 
BRANCH  19  21
HETATM   21  C   UNL     1      -9.126  14.544  68.104  1.00  0.00    -0.191 C  
HETATM   22  O   UNL     1      -8.014  14.159  67.745  1.00  0.00    -0.140 OA 
BRANCH  21  23
HETATM   23  N   UNL     1      -9.660  15.726  67.644  1.00  0.00    -0.220 N  
HETATM   24  C   UNL     1     -10.401  17.060  65.834  1.00  0.00    -0.298 C  
HETATM   25  N   UNL     1      -9.768  17.844  66.902  1.00  0.00    -0.296 N  
HETATM   26  C   UNL     1     -10.633  15.741  66.563  1.00  0.00    -0.306 C  
HETATM   27  O   UNL     1      -8.523  17.389  68.830  1.00  0.00    -0.276 OA 
HETATM   28  C   UNL     1      -9.229  17.025  67.909  1.00  0.00    -0.239 C  
BRANCH  25  29
HETATM   29  S   UNL     1      -9.745  19.497  66.839  1.00  0.00    -0.386 S  
HETATM   30  O   UNL     1     -10.477  19.898  65.654  1.00  0.00    -0.477 OA 
HETATM   31  C   UNL     1      -8.029  19.881  66.549  1.00  0.00    -0.321 C  
HETATM   32  O   UNL     1     -10.111  20.013  68.137  1.00  0.00    -0.413 OA 
ENDBRANCH  25  29
ENDBRANCH  21  23
ENDBRANCH  19  21
ENDBRANCH  18  19
BRANCH  18  33
HETATM   33  C   UNL     1     -12.120  13.693  70.067  1.00  0.00    -0.417 A  
HETATM   34  C   UNL     1     -13.625  13.832  72.442  1.00  0.00    -0.690 A  
HETATM   35  C   UNL     1     -12.563  14.931  70.572  1.00  0.00    -0.414 A  
HETATM   36  C   UNL     1     -13.304  14.998  71.752  1.00  0.00    -0.478 A  
HETATM   37  C   UNL     1     -13.205  12.598  71.952  1.00  0.00    -0.504 A  
HETATM   38  C   UNL     1     -12.457  12.527  70.775  1.00  0.00    -0.357 A  
ENDBRANCH  18  33
ENDBRANCH  15  18
ENDBRANCH  12  14
TORSDOF 7
ENDMDL
MODEL       49
REMARK 921   NORMALIZED FREE ENERGY PREDICTED BY IDOCK:   -6.66 KCAL/MOL
REMARK 922        TOTAL FREE ENERGY PREDICTED BY IDOCK:  -10.91 KCAL/MOL
REMARK 923 INTER-LIGAND FREE ENERGY PREDICTED BY IDOCK:   -9.28 KCAL/MOL
REMARK 924 INTRA-LIGAND FREE ENERGY PREDICTED BY IDOCK:   -1.63 KCAL/MOL
REMARK 927      BINDING AFFINITY PREDICTED BY RF-SCORE:    0.00 PKD
ROOT
HETATM    1  C   UNL     1      -9.410   8.963  71.113  1.00  0.00    -0.257 C  
HETATM    2  S   UNL     1     -11.215   8.960  70.800  1.00  0.00    -0.281 SA 
HETATM    3  C   UNL     1     -11.379   7.118  70.790  1.00  0.00    -0.289 C  
HETATM    4  CA  UNL     1     -10.139   6.589  71.552  1.00  0.00    -0.190 C  
HETATM    5  C   UNL     1     -11.384   6.669  69.316  1.00  0.00    -0.301 C  
HETATM    6  C   UNL     1     -12.736   6.730  71.388  1.00  0.00    -0.317 C  
HETATM    7  C   UNL     1     -10.332   6.401  73.068  1.00  0.00    -0.214 C  
HETATM    8  N   UNL     1      -9.038   7.543  71.317  1.00  0.00    -0.141 N  
HETATM    9  OXT UNL     1     -11.166   5.663  73.574  1.00  0.00    -0.209 OA 
HETATM   10  O   UNL     1      -9.451   7.096  73.830  1.00  0.00    -0.213 OA 
HETATM   11  C   UNL     1      -8.340   7.467  70.135  1.00  0.00    -0.136 C  
HETATM   12  CA  UNL     1      -8.452   8.990  69.894  1.00  0.00    -0.138 C  
HETATM   13  O   UNL     1      -7.982   6.504  69.499  1.00  0.00    -0.112 OA 
ENDROOT
BRANCH  12  14
HETATM   14  N   UNL     1      -9.024   9.417  68.591  1.00  0.00    -0.131 N  
HETATM   15  C   UNL     1      -8.630  10.601  68.000  1.00  0.00    -0.122 C  
HETATM   16  H   UNL     1      -9.717   8.829  68.127  1.00  0.00     0.000 HD 
HETATM   17  O   UNL     1      -7.803  11.327  68.555  1.00  0.00    -0.123 OA 
BRANCH  15  18
HETATM   18  CA  UNL     1      -9.390  11.039  66.725  1.00  0.00    -0.181 C  
BRANCH  18  19
HETATM   19  N   UNL     1     -10.810  10.755  66.910  1.00  0.00    -0.254 N  
HETATM   20  H   UNL     1     -11.179   9.856  66.601  1.00  0.00     0.000 HD 
BRANCH  19  21
HETATM   21  C   UNL     1     -11.658  11.655  67.483  1.00  0.00    -0.272 C  
HETATM   22  O   UNL     1     -12.391  11.364  68.428  1.00  0.00    -0.505 OA 
BRANCH  21  23
HETATM   23  N   UNL     1     -11.651  12.920  66.942  1.00  0.00    -0.348 N  
HETATM   24  C   UNL     1     -11.431  14.327  65.050  1.00  0.00    -0.364 C  
HETATM   25  N   UNL     1     -10.885  14.924  66.275  1.00  0.00    -0.325 N  
HETATM   26  C   UNL     1     -12.251  13.186  65.644  1.00  0.00    -0.466 C  
HETATM   27  O   UNL     1     -10.398  14.199  68.445  1.00  0.00    -0.236 OA 
HETATM   28  C   UNL     1     -10.917  14.030  67.358  1.00  0.00    -0.293 C  
BRANCH  25  29
HETATM   29  S   UNL     1     -10.325  16.481  66.280  1.00  0.00    -0.303 S  
HETATM   30  O   UNL     1     -10.694  17.081  65.014  1.00  0.00    -0.713 OA 
HETATM   31  C   UNL     1      -8.554  16.289  66.272  1.00  0.00    -0.339 C  
HETATM   32  O   UNL     1     -10.707  17.105  67.526  1.00  0.00    -0.342 OA 
ENDBRANCH  25  29
ENDBRANCH  21  23
ENDBRANCH  19  21
ENDBRANCH  18  19
BRANCH  18  33
HETATM   33  C   UNL     1      -8.845  10.447  65.433  1.00  0.00    -0.197 A  
HETATM   34  C   UNL     1      -7.898   9.415  62.991  1.00  0.00    -0.131 A  
HETATM   35  C   UNL     1      -9.703  10.307  64.324  1.00  0.00    -0.373 A  
HETATM   36  C   UNL     1      -9.232   9.790  63.117  1.00  0.00    -0.221 A  
HETATM   37  C   UNL     1      -7.031   9.556  64.072  1.00  0.00    -0.105 A  
HETATM   38  C   UNL     1      -7.500  10.067  65.285  1.00  0.00    -0.137 A  
ENDBRANCH  18  33
ENDBRANCH  15  18
ENDBRANCH  12  14
TORSDOF 7
ENDMDL
MODEL       50
REMARK 921   NORMALIZED FREE ENERGY PREDICTED BY IDOCK:   -6.63 KCAL/MOL
REMARK 922        TOTAL FREE ENERGY PREDICTED BY IDOCK:  -10.87 KCAL/MOL
REMARK 923 INTER-LIGAND FREE ENERGY PREDICTED BY IDOCK:   -9.64 KCAL/MOL
REMARK 924 INTRA-LIGAND FREE ENERGY PREDICTED BY IDOCK:   -1.23 KCAL/MOL
REMARK 927      BINDING AFFINITY PREDICTED BY RF-SCORE:    0.00 PKD
ROOT
HETATM    1  C   UNL     1     -11.243  15.251  66.527  1.00  0.00    -0.228 C  
HETATM    2  S   UNL     1     -11.613  15.988  68.163  1.00  0.00    -0.067 SA 
HETATM    3  C   UNL     1     -10.075  17.012  68.235  1.00  0.00    -0.306 C  
HETATM    4  CA  UNL     1      -9.600  17.149  66.766  1.00  0.00    -0.270 C  
HETATM    5  C   UNL     1      -9.056  16.244  69.100  1.00  0.00    -0.230 C  
HETATM    6  C   UNL     1     -10.380  18.330  68.955  1.00  0.00    -0.104 C  
HETATM    7  C   UNL     1     -10.146  18.376  66.014  1.00  0.00    -0.279 C  
HETATM    8  N   UNL     1     -10.009  15.921  66.056  1.00  0.00    -0.310 N  
HETATM    9  OXT UNL     1      -9.964  19.536  66.356  1.00  0.00    -0.370 OA 
HETATM   10  O   UNL     1     -10.823  18.074  64.877  1.00  0.00    -0.715 OA 
HETATM   11  C   UNL     1      -9.239  14.791  66.196  1.00  0.00    -0.202 C  
HETATM   12  CA  UNL     1     -10.474  13.906  66.484  1.00  0.00    -0.282 C  
HETATM   13  O   UNL     1      -8.039  14.663  66.252  1.00  0.00     0.506 OA 
ENDROOT
BRANCH  12  14
HETATM   14  N   UNL     1     -10.440  13.102  67.734  1.00  0.00    -0.225 N  
HETATM   15  C   UNL     1     -11.365  12.102  67.956  1.00  0.00    -0.295 C  
HETATM   16  H   UNL     1      -9.724  13.292  68.436  1.00  0.00     0.000 HD 
HETATM   17  O   UNL     1     -12.242  11.870  67.121  1.00  0.00    -0.501 OA 
BRANCH  15  18
HETATM   18  CA  UNL     1     -11.349  11.425  69.348  1.00  0.00    -0.297 C  
BRANCH  18  19
HETATM   19  N   UNL     1     -11.776  10.037  69.193  1.00  0.00    -0.479 N  
HETATM   20  H   UNL     1     -12.772   9.828  69.144  1.00  0.00     0.000 HD 
BRANCH  19  21
HETATM   21  C   UNL     1     -10.881   9.011  69.113  1.00  0.00    -0.089 C  
HETATM   22  O   UNL     1     -10.312   8.710  68.064  1.00  0.00    -0.214 OA 
BRANCH  21  23
HETATM   23  N   UNL     1     -10.647   8.322  70.280  1.00  0.00    -0.223 N  
HETATM   24  C   UNL     1      -9.117   7.497  71.889  1.00  0.00    -0.129 C  
HETATM   25  N   UNL     1     -10.259   6.602  71.673  1.00  0.00    -0.192 N  
HETATM   26  C   UNL     1      -9.637   8.769  71.227  1.00  0.00    -0.253 C  
HETATM   27  O   UNL     1     -12.019   6.435  70.139  1.00  0.00    -0.354 OA 
HETATM   28  C   UNL     1     -11.092   7.048  70.632  1.00  0.00    -0.272 C  
BRANCH  25  29
HETATM   29  S   UNL     1     -10.460   5.247  72.602  1.00  0.00    -0.229 S  
HETATM   30  O   UNL     1     -11.845   5.212  73.027  1.00  0.00    -0.273 OA 
HETATM   31  C   UNL     1      -9.477   5.583  74.050  1.00  0.00    -0.137 C  
HETATM   32  O   UNL     1      -9.876   4.122  71.910  1.00  0.00    -0.165 OA 
ENDBRANCH  25  29
ENDBRANCH  21  23
ENDBRANCH  19  21
ENDBRANCH  18  19
BRANCH  18  33
HETATM   33  C   UNL     1     -12.147  12.160  70.415  1.00  0.00    -0.395 A  
HETATM   34  C   UNL     1     -13.602  13.445  72.454  1.00  0.00    -0.708 A  
HETATM   35  C   UNL     1     -12.888  11.416  71.355  1.00  0.00    -0.502 A  
HETATM   36  C   UNL     1     -13.611  12.056  72.361  1.00  0.00    -0.009 A  
HETATM   37  C   UNL     1     -12.866  14.196  71.541  1.00  0.00    -0.430 A  
HETATM   38  C   UNL     1     -12.145  13.561  70.528  1.00  0.00    -0.409 A  
ENDBRANCH  18  33
ENDBRANCH  15  18
ENDBRANCH  12  14
TORSDOF 7
ENDMDL
MODEL       51
REMARK 921   NORMALIZED FREE ENERGY PREDICTED BY IDOCK:   -6.62 KCAL/MOL
REMARK 922        TOTAL FREE ENERGY PREDICTED BY IDOCK:  -10.85 KCAL/MOL
REMARK 923 INTER-LIGAND FREE ENERGY PREDICTED BY IDOCK:   -9.21 KCAL/MOL
REMARK 924 INTRA-LIGAND FREE ENERGY PREDICTED BY IDOCK:   -1.64 KCAL/MOL
REMARK 927      BINDING AFFINITY PREDICTED BY RF-SCORE:    0.00 PKD
ROOT
HETATM    1  C   UNL     1      -9.267  13.913  66.910  1.00  0.00    -0.259 C  
HETATM    2  S   UNL     1      -9.964  12.920  65.538  1.00  0.00    -0.161 SA 
HETATM    3  C   UNL     1     -11.536  13.885  65.416  1.00  0.00    -0.325 C  
HETATM    4  CA  UNL     1     -11.234  15.253  66.077  1.00  0.00    -0.231 C  
HETATM    5  C   UNL     1     -12.614  13.099  66.188  1.00  0.00    -0.116 C  
HETATM    6  C   UNL     1     -11.980  13.943  63.950  1.00  0.00    -0.372 C  
HETATM    7  C   UNL     1     -10.721  16.344  65.119  1.00  0.00    -0.291 C  
HETATM    8  N   UNL     1     -10.227  15.019  67.131  1.00  0.00    -0.247 N  
HETATM    9  OXT UNL     1     -11.339  16.760  64.149  1.00  0.00    -1.194 OA 
HETATM   10  O   UNL     1      -9.517  16.865  65.465  1.00  0.00    -0.496 OA 
HETATM   11  C   UNL     1     -10.645  14.530  68.346  1.00  0.00    -0.244 C  
HETATM   12  CA  UNL     1      -9.539  13.450  68.365  1.00  0.00    -0.188 C  
HETATM   13  O   UNL     1     -11.635  14.780  68.991  1.00  0.00    -0.268 OA 
ENDROOT
BRANCH  12  14
HETATM   14  N   UNL     1      -9.983  12.045  68.558  1.00  0.00    -0.273 N  
HETATM   15  C   UNL     1      -9.070  11.046  68.831  1.00  0.00    -0.123 C  
HETATM   16  H   UNL     1     -10.975  11.815  68.488  1.00  0.00     0.000 HD 
HETATM   17  O   UNL     1      -7.868  11.308  68.907  1.00  0.00    -0.136 OA 
BRANCH  15  18
HETATM   18  CA  UNL     1      -9.604   9.593  68.863  1.00  0.00    -0.161 C  
BRANCH  18  19
HETATM   19  N   UNL     1     -10.328   9.338  67.621  1.00  0.00    -0.237 N  
HETATM   20  H   UNL     1     -10.953  10.056  67.256  1.00  0.00     0.000 HD 
BRANCH  19  21
HETATM   21  C   UNL     1     -10.195   8.167  66.936  1.00  0.00    -0.316 C  
HETATM   22  O   UNL     1     -10.980   7.229  67.070  1.00  0.00    -0.358 OA 
BRANCH  21  23
HETATM   23  N   UNL     1      -9.123   8.089  66.076  1.00  0.00    -0.167 N  
HETATM   24  C   UNL     1      -6.795   7.820  65.741  1.00  0.00    -0.053 C  
HETATM   25  N   UNL     1      -7.409   8.741  64.778  1.00  0.00    -0.091 N  
HETATM   26  C   UNL     1      -8.040   7.147  66.310  1.00  0.00    -0.118 C  
HETATM   27  O   UNL     1      -9.477   9.808  64.532  1.00  0.00    -0.282 OA 
HETATM   28  C   UNL     1      -8.764   8.980  65.066  1.00  0.00    -0.183 C  
BRANCH  25  29
HETATM   29  S   UNL     1      -6.527   9.370  63.528  1.00  0.00    -0.098 S  
HETATM   30  O   UNL     1      -7.389   9.414  62.364  1.00  0.00    -0.103 OA 
HETATM   31  C   UNL     1      -5.293   8.123  63.217  1.00  0.00    -0.051 C  
HETATM   32  O   UNL     1      -5.857  10.563  63.990  1.00  0.00    -0.137 OA 
ENDBRANCH  25  29
ENDBRANCH  21  23
ENDBRANCH  19  21
ENDBRANCH  18  19
BRANCH  18  33
HETATM   33  C   UNL     1     -10.430   9.253  70.096  1.00  0.00    -0.265 A  
HETATM   34  C   UNL     1     -11.876   8.644  72.433  1.00  0.00    -0.402 A  
HETATM   35  C   UNL     1      -9.809   8.610  71.185  1.00  0.00    -0.285 A  
HETATM   36  C   UNL     1     -10.529   8.305  72.339  1.00  0.00    -0.404 A  
HETATM   37  C   UNL     1     -12.505   9.291  71.371  1.00  0.00    -0.418 A  
HETATM   38  C   UNL     1     -11.789   9.592  70.210  1.00  0.00    -0.157 A  
ENDBRANCH  18  33
ENDBRANCH  15  18
ENDBRANCH  12  14
TORSDOF 7
ENDMDL
MODEL       52
REMARK 921   NORMALIZED FREE ENERGY PREDICTED BY IDOCK:   -6.61 KCAL/MOL
REMARK 922        TOTAL FREE ENERGY PREDICTED BY IDOCK:  -10.84 KCAL/MOL
REMARK 923 INTER-LIGAND FREE ENERGY PREDICTED BY IDOCK:   -9.50 KCAL/MOL
REMARK 924 INTRA-LIGAND FREE ENERGY PREDICTED BY IDOCK:   -1.34 KCAL/MOL
REMARK 927      BINDING AFFINITY PREDICTED BY RF-SCORE:    0.00 PKD
ROOT
HETATM    1  C   UNL     1      -8.930   7.223  66.636  1.00  0.00    -0.150 C  
HETATM    2  S   UNL     1      -7.691   8.122  67.643  1.00  0.00    -0.103 SA 
HETATM    3  C   UNL     1      -7.753   6.948  69.070  1.00  0.00    -0.110 C  
HETATM    4  CA  UNL     1      -8.330   5.629  68.496  1.00  0.00    -0.106 C  
HETATM    5  C   UNL     1      -8.683   7.569  70.130  1.00  0.00    -0.142 C  
HETATM    6  C   UNL     1      -6.358   6.841  69.695  1.00  0.00    -0.042 C  
HETATM    7  C   UNL     1      -7.282   4.629  67.973  1.00  0.00    -0.065 C  
HETATM    8  N   UNL     1      -9.246   5.992  67.397  1.00  0.00    -0.110 N  
HETATM    9  OXT UNL     1      -6.392   4.139  68.654  1.00  0.00    -0.034 OA 
HETATM   10  O   UNL     1      -7.450   4.278  66.673  1.00  0.00    -0.079 OA 
HETATM   11  C   UNL     1     -10.519   6.408  67.710  1.00  0.00    -0.226 C  
HETATM   12  CA  UNL     1     -10.421   7.631  66.769  1.00  0.00    -0.249 C  
HETATM   13  O   UNL     1     -11.283   6.017  68.559  1.00  0.00    -0.299 OA 
ENDROOT
BRANCH  12  14
HETATM   14  N   UNL     1     -10.710   8.959  67.372  1.00  0.00    -0.431 N  
HETATM   15  C   UNL     1     -10.625  10.111  66.616  1.00  0.00    -0.144 C  
HETATM   16  H   UNL     1     -10.973   9.020  68.356  1.00  0.00     0.000 HD 
HETATM   17  O   UNL     1     -10.296  10.053  65.430  1.00  0.00    -0.245 OA 
BRANCH  15  18
HETATM   18  CA  UNL     1     -10.792  11.457  67.363  1.00  0.00    -0.254 C  
BRANCH  18  19
HETATM   19  N   UNL     1     -11.874  11.318  68.334  1.00  0.00    -0.296 N  
HETATM   20  H   UNL     1     -12.834  11.478  68.030  1.00  0.00     0.000 HD 
BRANCH  19  21
HETATM   21  C   UNL     1     -11.639  10.982  69.634  1.00  0.00    -0.318 C  
HETATM   22  O   UNL     1     -11.084   9.931  69.955  1.00  0.00    -0.251 OA 
BRANCH  21  23
HETATM   23  N   UNL     1     -12.061  11.890  70.578  1.00  0.00    -0.372 N  
HETATM   24  C   UNL     1     -13.660  12.558  72.191  1.00  0.00    -0.360 C  
HETATM   25  N   UNL     1     -13.064  13.690  71.473  1.00  0.00    -0.354 N  
HETATM   26  C   UNL     1     -12.680  11.450  71.818  1.00  0.00    -0.254 C  
HETATM   27  O   UNL     1     -11.700  13.978  69.593  1.00  0.00    -0.274 OA 
HETATM   28  C   UNL     1     -12.208  13.269  70.440  1.00  0.00    -0.332 C  
BRANCH  25  29
HETATM   29  S   UNL     1     -13.417  15.248  71.905  1.00  0.00    -0.495 S  
HETATM   30  O   UNL     1     -14.195  15.832  70.832  1.00  0.00    -0.287 OA 
HETATM   31  C   UNL     1     -11.828  16.054  71.900  1.00  0.00    -0.534 C  
HETATM   32  O   UNL     1     -13.919  15.248  73.260  1.00  0.00    -0.265 OA 
ENDBRANCH  25  29
ENDBRANCH  21  23
ENDBRANCH  19  21
ENDBRANCH  18  19
BRANCH  18  33
HETATM   33  C   UNL     1     -10.982  12.662  66.453  1.00  0.00    -0.304 A  
HETATM   34  C   UNL     1     -11.424  14.907  64.813  1.00  0.00    -0.410 A  
HETATM   35  C   UNL     1     -12.267  12.953  65.956  1.00  0.00    -0.431 A  
HETATM   36  C   UNL     1     -12.482  14.063  65.139  1.00  0.00    -0.472 A  
HETATM   37  C   UNL     1     -10.148  14.642  65.305  1.00  0.00    -0.393 A  
HETATM   38  C   UNL     1      -9.926  13.528  66.118  1.00  0.00    -0.310 A  
ENDBRANCH  18  33
ENDBRANCH  15  18
ENDBRANCH  12  14
TORSDOF 7
ENDMDL
MODEL       53
REMARK 921   NORMALIZED FREE ENERGY PREDICTED BY IDOCK:   -6.60 KCAL/MOL
REMARK 922        TOTAL FREE ENERGY PREDICTED BY IDOCK:  -10.82 KCAL/MOL
REMARK 923 INTER-LIGAND FREE ENERGY PREDICTED BY IDOCK:   -9.29 KCAL/MOL
REMARK 924 INTRA-LIGAND FREE ENERGY PREDICTED BY IDOCK:   -1.53 KCAL/MOL
REMARK 927      BINDING AFFINITY PREDICTED BY RF-SCORE:    0.00 PKD
ROOT
HETATM    1  C   UNL     1      -8.318   8.366  68.787  1.00  0.00    -0.116 C  
HETATM    2  S   UNL     1      -8.655   9.497  70.188  1.00  0.00    -0.231 SA 
HETATM    3  C   UNL     1     -10.074   8.517  70.855  1.00  0.00    -0.201 C  
HETATM    4  CA  UNL     1      -9.894   7.088  70.284  1.00  0.00    -0.175 C  
HETATM    5  C   UNL     1     -11.367   9.182  70.344  1.00  0.00    -0.260 C  
HETATM    6  C   UNL     1     -10.084   8.621  72.384  1.00  0.00    -0.321 C  
HETATM    7  C   UNL     1      -9.074   6.129  71.166  1.00  0.00    -0.146 C  
HETATM    8  N   UNL     1      -9.239   7.220  68.968  1.00  0.00    -0.140 N  
HETATM    9  OXT UNL     1      -9.370   5.815  72.310  1.00  0.00    -0.145 OA 
HETATM   10  O   UNL     1      -7.988   5.598  70.547  1.00  0.00    -0.099 OA 
HETATM   11  C   UNL     1     -10.008   7.554  67.878  1.00  0.00    -0.165 C  
HETATM   12  CA  UNL     1      -9.013   8.649  67.430  1.00  0.00    -0.133 C  
HETATM   13  O   UNL     1     -11.124   7.208  67.572  1.00  0.00    -0.208 OA 
ENDROOT
BRANCH  12  14
HETATM   14  N   UNL     1      -9.570  10.011  67.224  1.00  0.00    -0.153 N  
HETATM   15  C   UNL     1      -8.956  10.905  66.369  1.00  0.00    -0.175 C  
HETATM   16  H   UNL     1     -10.417  10.290  67.720  1.00  0.00     0.000 HD 
HETATM   17  O   UNL     1      -7.926  10.585  65.772  1.00  0.00    -0.151 OA 
BRANCH  15  18
HETATM   18  CA  UNL     1      -9.517  12.347  66.336  1.00  0.00    -0.240 C  
BRANCH  18  19
HETATM   19  N   UNL     1      -9.993  12.691  67.673  1.00  0.00    -0.212 N  
HETATM   20  H   UNL     1     -10.652  12.069  68.139  1.00  0.00     0.000 HD 
BRANCH  19  21
HETATM   21  C   UNL     1      -9.582  13.820  68.317  1.00  0.00    -0.219 C  
HETATM   22  O   UNL     1      -8.433  14.251  68.227  1.00  0.00    -0.153 OA 
BRANCH  21  23
HETATM   23  N   UNL     1     -10.531  14.457  69.083  1.00  0.00    -0.223 N  
HETATM   24  C   UNL     1     -11.069  16.031  70.769  1.00  0.00    -0.293 C  
HETATM   25  N   UNL     1     -11.954  14.860  70.774  1.00  0.00    -0.292 N  
HETATM   26  C   UNL     1     -10.413  15.872  69.401  1.00  0.00    -0.265 C  
HETATM   27  O   UNL     1     -11.997  12.761  69.741  1.00  0.00    -0.314 OA 
HETATM   28  C   UNL     1     -11.546  13.885  69.848  1.00  0.00    -0.241 C  
BRANCH  25  29
HETATM   29  S   UNL     1     -13.260  14.790  71.789  1.00  0.00    -0.381 S  
HETATM   30  O   UNL     1     -14.372  15.424  71.111  1.00  0.00    -0.490 OA 
HETATM   31  C   UNL     1     -12.796  15.854  73.141  1.00  0.00    -0.537 C  
HETATM   32  O   UNL     1     -13.379  13.442  72.295  1.00  0.00    -0.486 OA 
ENDBRANCH  25  29
ENDBRANCH  21  23
ENDBRANCH  19  21
ENDBRANCH  18  19
BRANCH  18  33
HETATM   33  C   UNL     1     -10.574  12.587  65.267  1.00  0.00    -0.319 A  
HETATM   34  C   UNL     1     -12.507  13.131  63.294  1.00  0.00    -0.252 A  
HETATM   35  C   UNL     1     -11.359  13.755  65.325  1.00  0.00    -0.310 A  
HETATM   36  C   UNL     1     -12.319  14.020  64.349  1.00  0.00    -0.401 A  
HETATM   37  C   UNL     1     -11.732  11.976  63.214  1.00  0.00    -0.425 A  
HETATM   38  C   UNL     1     -10.774  11.704  64.192  1.00  0.00    -0.418 A  
ENDBRANCH  18  33
ENDBRANCH  15  18
ENDBRANCH  12  14
TORSDOF 7
ENDMDL
MODEL       54
REMARK 921   NORMALIZED FREE ENERGY PREDICTED BY IDOCK:   -6.52 KCAL/MOL
REMARK 922        TOTAL FREE ENERGY PREDICTED BY IDOCK:  -10.71 KCAL/MOL
REMARK 923 INTER-LIGAND FREE ENERGY PREDICTED BY IDOCK:   -9.53 KCAL/MOL
REMARK 924 INTRA-LIGAND FREE ENERGY PREDICTED BY IDOCK:   -1.18 KCAL/MOL
REMARK 927      BINDING AFFINITY PREDICTED BY RF-SCORE:    0.00 PKD
ROOT
HETATM    1  C   UNL     1     -12.311  13.240  65.433  1.00  0.00    -0.479 C  
HETATM    2  S   UNL     1     -11.856  13.914  67.074  1.00  0.00    -0.426 SA 
HETATM    3  C   UNL     1     -10.416  14.897  66.456  1.00  0.00    -0.297 C  
HETATM    4  CA  UNL     1     -10.665  15.085  64.939  1.00  0.00    -0.397 C  
HETATM    5  C   UNL     1      -9.147  14.067  66.733  1.00  0.00    -0.250 C  
HETATM    6  C   UNL     1     -10.301  16.189  67.272  1.00  0.00    -0.287 C  
HETATM    7  C   UNL     1     -11.444  16.356  64.556  1.00  0.00    -0.073 C  
HETATM    8  N   UNL     1     -11.405  13.899  64.464  1.00  0.00    -0.377 N  
HETATM    9  OXT UNL     1     -11.078  17.496  64.807  1.00  0.00    -0.959 OA 
HETATM   10  O   UNL     1     -12.580  16.120  63.852  1.00  0.00    -0.703 OA 
HETATM   11  C   UNL     1     -10.704  12.745  64.202  1.00  0.00    -0.412 C  
HETATM   12  CA  UNL     1     -11.704  11.879  65.003  1.00  0.00    -0.188 C  
HETATM   13  O   UNL     1      -9.619  12.587  63.696  1.00  0.00    -0.165 OA 
ENDROOT
BRANCH  12  14
HETATM   14  N   UNL     1     -11.132  11.022  66.074  1.00  0.00    -0.067 N  
HETATM   15  C   UNL     1     -10.259   9.997  65.769  1.00  0.00    -0.200 C  
HETATM   16  H   UNL     1     -11.388  11.193  67.047  1.00  0.00     0.000 HD 
HETATM   17  O   UNL     1      -9.951   9.773  64.597  1.00  0.00    -0.172 OA 
BRANCH  15  18
HETATM   18  CA  UNL     1      -9.837   9.063  66.928  1.00  0.00    -0.224 C  
BRANCH  18  19
HETATM   19  N   UNL     1      -8.744   9.696  67.661  1.00  0.00    -0.126 N  
HETATM   20  H   UNL     1      -7.859   9.862  67.182  1.00  0.00     0.000 HD 
BRANCH  19  21
HETATM   21  C   UNL     1      -8.870  10.072  68.965  1.00  0.00    -0.159 C  
HETATM   22  O   UNL     1      -7.940  10.558  69.606  1.00  0.00    -0.143 OA 
BRANCH  21  23
HETATM   23  N   UNL     1     -10.108   9.875  69.532  1.00  0.00    -0.207 N  
HETATM   24  C   UNL     1     -11.906  10.694  70.838  1.00  0.00    -0.331 C  
HETATM   25  N   UNL     1     -11.671   9.258  71.024  1.00  0.00    -0.294 N  
HETATM   26  C   UNL     1     -11.096  10.942  69.569  1.00  0.00    -0.268 C  
HETATM   27  O   UNL     1     -10.013   7.718  70.427  1.00  0.00    -0.187 OA 
HETATM   28  C   UNL     1     -10.529   8.815  70.334  1.00  0.00    -0.209 C  
BRANCH  25  29
HETATM   29  S   UNL     1     -12.692   8.347  71.954  1.00  0.00    -0.371 S  
HETATM   30  O   UNL     1     -13.413   7.456  71.067  1.00  0.00    -0.238 OA 
HETATM   31  C   UNL     1     -13.868   9.535  72.571  1.00  0.00    -0.232 C  
HETATM   32  O   UNL     1     -11.949   7.822  73.076  1.00  0.00    -0.140 OA 
ENDBRANCH  25  29
ENDBRANCH  21  23
ENDBRANCH  19  21
ENDBRANCH  18  19
BRANCH  18  33
HETATM   33  C   UNL     1      -9.499   7.642  66.500  1.00  0.00    -0.250 A  
HETATM   34  C   UNL     1      -8.968   5.006  65.665  1.00  0.00    -0.149 A  
HETATM   35  C   UNL     1     -10.514   6.664  66.497  1.00  0.00    -0.117 A  
HETATM   36  C   UNL     1     -10.246   5.358  66.088  1.00  0.00    -0.181 A  
HETATM   37  C   UNL     1      -7.954   5.962  65.650  1.00  0.00    -0.118 A  
HETATM   38  C   UNL     1      -8.216   7.269  66.065  1.00  0.00    -0.138 A  
ENDBRANCH  18  33
ENDBRANCH  15  18
ENDBRANCH  12  14
TORSDOF 7
ENDMDL
MODEL       55
REMARK 921   NORMALIZED FREE ENERGY PREDICTED BY IDOCK:   -6.51 KCAL/MOL
REMARK 922        TOTAL FREE ENERGY PREDICTED BY IDOCK:  -10.70 KCAL/MOL
REMARK 923 INTER-LIGAND FREE ENERGY PREDICTED BY IDOCK:   -9.63 KCAL/MOL
REMARK 924 INTRA-LIGAND FREE ENERGY PREDICTED BY IDOCK:   -1.07 KCAL/MOL
REMARK 927      BINDING AFFINITY PREDICTED BY RF-SCORE:    0.00 PKD
ROOT
HETATM    1  C   UNL     1     -10.222   5.878  70.143  1.00  0.00    -0.220 C  
HETATM    2  S   UNL     1      -8.748   6.702  70.852  1.00  0.00    -0.139 SA 
HETATM    3  C   UNL     1      -9.489   6.956  72.527  1.00  0.00    -0.138 C  
HETATM    4  CA  UNL     1     -10.643   5.927  72.629  1.00  0.00    -0.221 C  
HETATM    5  C   UNL     1     -10.005   8.407  72.581  1.00  0.00    -0.329 C  
HETATM    6  C   UNL     1      -8.392   6.824  73.589  1.00  0.00    -0.131 C  
HETATM    7  C   UNL     1     -10.253   4.563  73.225  1.00  0.00    -0.169 C  
HETATM    8  N   UNL     1     -11.176   5.728  71.267  1.00  0.00    -0.208 N  
HETATM    9  OXT UNL     1      -9.789   4.403  74.345  1.00  0.00    -0.129 OA 
HETATM   10  O   UNL     1     -10.516   3.507  72.414  1.00  0.00    -0.136 OA 
HETATM   11  C   UNL     1     -12.054   6.657  70.759  1.00  0.00    -0.304 C  
HETATM   12  CA  UNL     1     -11.280   6.756  69.424  1.00  0.00    -0.234 C  
HETATM   13  O   UNL     1     -12.951   7.261  71.297  1.00  0.00    -0.369 OA 
ENDROOT
BRANCH  12  14
HETATM   14  N   UNL     1     -10.858   8.116  68.998  1.00  0.00    -0.421 N  
HETATM   15  C   UNL     1     -10.567   8.384  67.676  1.00  0.00    -0.195 C  
HETATM   16  H   UNL     1     -10.781   8.860  69.692  1.00  0.00     0.000 HD 
HETATM   17  O   UNL     1     -10.644   7.490  66.830  1.00  0.00    -0.318 OA 
BRANCH  15  18
HETATM   18  CA  UNL     1      -9.989   9.782  67.351  1.00  0.00    -0.191 C  
BRANCH  18  19
HETATM   19  N   UNL     1     -11.022  10.782  67.603  1.00  0.00    -0.285 N  
HETATM   20  H   UNL     1     -11.995  10.547  67.411  1.00  0.00     0.000 HD 
BRANCH  19  21
HETATM   21  C   UNL     1     -10.726  12.021  68.088  1.00  0.00    -0.216 C  
HETATM   22  O   UNL     1      -9.996  12.809  67.487  1.00  0.00    -0.205 OA 
BRANCH  21  23
HETATM   23  N   UNL     1     -11.292  12.347  69.299  1.00  0.00    -0.264 N  
HETATM   24  C   UNL     1     -12.883  11.894  70.993  1.00  0.00    -0.198 C  
HETATM   25  N   UNL     1     -12.646  13.329  70.799  1.00  0.00    -0.315 N  
HETATM   26  C   UNL     1     -11.686  11.315  70.245  1.00  0.00    -0.324 C  
HETATM   27  O   UNL     1     -11.542  14.670  69.230  1.00  0.00    -0.268 OA 
HETATM   28  C   UNL     1     -11.791  13.581  69.712  1.00  0.00    -0.329 C  
BRANCH  25  29
HETATM   29  S   UNL     1     -13.347  14.446  71.798  1.00  0.00    -0.396 S  
HETATM   30  O   UNL     1     -13.832  15.530  70.969  1.00  0.00    -0.545 OA 
HETATM   31  C   UNL     1     -11.975  15.082  72.742  1.00  0.00    -0.309 C  
HETATM   32  O   UNL     1     -14.239  13.759  72.704  1.00  0.00    -0.710 OA 
ENDBRANCH  25  29
ENDBRANCH  21  23
ENDBRANCH  19  21
ENDBRANCH  18  19
BRANCH  18  33
HETATM   33  C   UNL     1      -9.390   9.908  65.957  1.00  0.00    -0.240 A  
HETATM   34  C   UNL     1      -8.332  10.228  63.368  1.00  0.00    -0.169 A  
HETATM   35  C   UNL     1     -10.159  10.483  64.927  1.00  0.00    -0.403 A  
HETATM   36  C   UNL     1      -9.635  10.636  63.644  1.00  0.00    -0.360 A  
HETATM   37  C   UNL     1      -7.552   9.667  64.377  1.00  0.00    -0.128 A  
HETATM   38  C   UNL     1      -8.076   9.506  65.661  1.00  0.00    -0.112 A  
ENDBRANCH  18  33
ENDBRANCH  15  18
ENDBRANCH  12  14
TORSDOF 7
ENDMDL
MODEL       56
REMARK 921   NORMALIZED FREE ENERGY PREDICTED BY IDOCK:   -6.51 KCAL/MOL
REMARK 922        TOTAL FREE ENERGY PREDICTED BY IDOCK:  -10.70 KCAL/MOL
REMARK 923 INTER-LIGAND FREE ENERGY PREDICTED BY IDOCK:   -9.73 KCAL/MOL
REMARK 924 INTRA-LIGAND FREE ENERGY PREDICTED BY IDOCK:   -0.96 KCAL/MOL
REMARK 927      BINDING AFFINITY PREDICTED BY RF-SCORE:    0.00 PKD
ROOT
HETATM    1  C   UNL     1     -10.935   8.164  69.620  1.00  0.00    -0.088 C  
HETATM    2  S   UNL     1     -10.482   7.500  67.974  1.00  0.00    -0.172 SA 
HETATM    3  C   UNL     1      -8.866   6.788  68.521  1.00  0.00    -0.123 C  
HETATM    4  CA  UNL     1      -8.983   6.629  70.058  1.00  0.00    -0.144 C  
HETATM    5  C   UNL     1      -7.768   7.796  68.129  1.00  0.00    -0.119 C  
HETATM    6  C   UNL     1      -8.594   5.496  67.743  1.00  0.00    -0.108 C  
HETATM    7  C   UNL     1      -9.520   5.268  70.536  1.00  0.00    -0.167 C  
HETATM    8  N   UNL     1      -9.874   7.701  70.544  1.00  0.00    -0.183 N  
HETATM    9  OXT UNL     1      -8.990   4.192  70.297  1.00  0.00    -0.081 OA 
HETATM   10  O   UNL     1     -10.632   5.350  71.310  1.00  0.00    -0.235 OA 
HETATM   11  C   UNL     1      -9.355   8.962  70.718  1.00  0.00    -0.230 C  
HETATM   12  CA  UNL     1     -10.530   9.622  69.961  1.00  0.00    -0.261 C  
HETATM   13  O   UNL     1      -8.280   9.314  71.142  1.00  0.00    -0.298 OA 
ENDROOT
BRANCH  12  14
HETATM   14  N   UNL     1     -10.175  10.511  68.825  1.00  0.00    -0.180 N  
HETATM   15  C   UNL     1     -11.138  11.275  68.197  1.00  0.00    -0.259 C  
HETATM   16  H   UNL     1      -9.207  10.559  68.505  1.00  0.00     0.000 HD 
HETATM   17  O   UNL     1     -12.313  11.218  68.566  1.00  0.00    -0.543 OA 
BRANCH  15  18
HETATM   18  CA  UNL     1     -10.707  12.050  66.928  1.00  0.00    -0.244 C  
BRANCH  18  19
HETATM   19  N   UNL     1     -11.907  12.485  66.219  1.00  0.00    -0.406 N  
HETATM   20  H   UNL     1     -12.612  11.792  65.971  1.00  0.00     0.000 HD 
BRANCH  19  21
HETATM   21  C   UNL     1     -12.112  13.788  65.877  1.00  0.00    -0.433 C  
HETATM   22  O   UNL     1     -12.880  14.123  64.976  1.00  0.00    -0.687 OA 
BRANCH  21  23
HETATM   23  N   UNL     1     -11.405  14.720  66.602  1.00  0.00    -0.351 N  
HETATM   24  C   UNL     1     -11.360  16.390  68.281  1.00  0.00    -0.241 C  
HETATM   25  N   UNL     1     -10.454  16.677  67.162  1.00  0.00    -0.314 N  
HETATM   26  C   UNL     1     -11.657  14.916  68.021  1.00  0.00    -0.341 C  
HETATM   27  O   UNL     1     -10.072  15.811  65.022  1.00  0.00    -0.425 OA 
HETATM   28  C   UNL     1     -10.583  15.739  66.124  1.00  0.00    -0.313 C  
BRANCH  25  29
HETATM   29  S   UNL     1      -9.432  17.978  67.213  1.00  0.00    -0.265 S  
HETATM   30  O   UNL     1      -8.413  17.693  68.203  1.00  0.00    -0.244 OA 
HETATM   31  C   UNL     1     -10.451  19.284  67.871  1.00  0.00    -0.410 C  
HETATM   32  O   UNL     1      -9.064  18.329  65.861  1.00  0.00    -0.503 OA 
ENDBRANCH  25  29
ENDBRANCH  21  23
ENDBRANCH  19  21
ENDBRANCH  18  19
BRANCH  18  33
HETATM   33  C   UNL     1      -9.743  11.294  66.026  1.00  0.00    -0.253 A  
HETATM   34  C   UNL     1      -8.013   9.927  64.275  1.00  0.00    -0.146 A  
HETATM   35  C   UNL     1     -10.233  10.678  64.857  1.00  0.00    -0.395 A  
HETATM   36  C   UNL     1      -9.374   9.997  63.995  1.00  0.00    -0.324 A  
HETATM   37  C   UNL     1      -7.508  10.539  65.420  1.00  0.00    -0.089 A  
HETATM   38  C   UNL     1      -8.364  11.216  66.290  1.00  0.00    -0.163 A  
ENDBRANCH  18  33
ENDBRANCH  15  18
ENDBRANCH  12  14
TORSDOF 7
ENDMDL
MODEL       57
REMARK 921   NORMALIZED FREE ENERGY PREDICTED BY IDOCK:   -6.51 KCAL/MOL
REMARK 922        TOTAL FREE ENERGY PREDICTED BY IDOCK:  -10.69 KCAL/MOL
REMARK 923 INTER-LIGAND FREE ENERGY PREDICTED BY IDOCK:   -9.08 KCAL/MOL
REMARK 924 INTRA-LIGAND FREE ENERGY PREDICTED BY IDOCK:   -1.62 KCAL/MOL
REMARK 927      BINDING AFFINITY PREDICTED BY RF-SCORE:    0.00 PKD
ROOT
HETATM    1  C   UNL     1      -8.361   8.253  69.089  1.00  0.00    -0.123 C  
HETATM    2  S   UNL     1      -8.885   9.378  70.437  1.00  0.00    -0.241 SA 
HETATM    3  C   UNL     1     -10.410   8.425  70.866  1.00  0.00    -0.194 C  
HETATM    4  CA  UNL     1     -10.175   6.998  70.311  1.00  0.00    -0.193 C  
HETATM    5  C   UNL     1     -11.594   9.125  70.173  1.00  0.00    -0.041 C  
HETATM    6  C   UNL     1     -10.651   8.514  72.377  1.00  0.00    -0.368 C  
HETATM    7  C   UNL     1      -9.520   6.012  71.295  1.00  0.00    -0.163 C  
HETATM    8  N   UNL     1      -9.324   7.127  69.113  1.00  0.00    -0.142 N  
HETATM    9  OXT UNL     1      -9.995   5.694  72.377  1.00  0.00    -0.167 OA 
HETATM   10  O   UNL     1      -8.364   5.462  70.843  1.00  0.00    -0.113 OA 
HETATM   11  C   UNL     1      -9.909   7.490  67.923  1.00  0.00    -0.154 C  
HETATM   12  CA  UNL     1      -8.834   8.566  67.646  1.00  0.00    -0.136 C  
HETATM   13  O   UNL     1     -10.973   7.172  67.446  1.00  0.00    -0.274 OA 
ENDROOT
BRANCH  12  14
HETATM   14  N   UNL     1      -9.325   9.942  67.375  1.00  0.00    -0.137 N  
HETATM   15  C   UNL     1      -8.690  10.749  66.452  1.00  0.00    -0.158 C  
HETATM   16  H   UNL     1     -10.140  10.295  67.877  1.00  0.00     0.000 HD 
HETATM   17  O   UNL     1      -7.697  10.339  65.847  1.00  0.00    -0.124 OA 
BRANCH  15  18
HETATM   18  CA  UNL     1      -9.174  12.216  66.349  1.00  0.00    -0.207 C  
BRANCH  18  19
HETATM   19  N   UNL     1      -9.409  12.723  67.698  1.00  0.00    -0.184 N  
HETATM   20  H   UNL     1     -10.234  12.409  68.207  1.00  0.00     0.000 HD 
BRANCH  19  21
HETATM   21  C   UNL     1      -8.559  13.605  68.296  1.00  0.00    -0.170 C  
HETATM   22  O   UNL     1      -7.513  13.250  68.838  1.00  0.00    -0.089 OA 
BRANCH  21  23
HETATM   23  N   UNL     1      -8.938  14.927  68.262  1.00  0.00    -0.172 N  
HETATM   24  C   UNL     1     -10.479  16.622  68.861  1.00  0.00    -0.322 C  
HETATM   25  N   UNL     1      -9.882  16.833  67.537  1.00  0.00    -0.250 N  
HETATM   26  C   UNL     1      -9.531  15.569  69.425  1.00  0.00    -0.278 C  
HETATM   27  O   UNL     1      -8.565  15.593  66.053  1.00  0.00    -0.242 OA 
HETATM   28  C   UNL     1      -9.063  15.759  67.150  1.00  0.00    -0.212 C  
BRANCH  25  29
HETATM   29  S   UNL     1     -10.194  18.212  66.678  1.00  0.00    -0.389 S  
HETATM   30  O   UNL     1     -10.748  17.814  65.400  1.00  0.00    -0.626 OA 
HETATM   31  C   UNL     1      -8.574  18.882  66.360  1.00  0.00    -0.294 C  
HETATM   32  O   UNL     1     -10.906  19.136  67.530  1.00  0.00    -0.473 OA 
ENDBRANCH  25  29
ENDBRANCH  21  23
ENDBRANCH  19  21
ENDBRANCH  18  19
BRANCH  18  33
HETATM   33  C   UNL     1     -10.375  12.420  65.437  1.00  0.00    -0.303 A  
HETATM   34  C   UNL     1     -12.572  12.711  63.699  1.00  0.00    -0.437 A  
HETATM   35  C   UNL     1     -10.275  12.066  64.077  1.00  0.00    -0.391 A  
HETATM   36  C   UNL     1     -11.363  12.216  63.217  1.00  0.00    -0.410 A  
HETATM   37  C   UNL     1     -12.694  13.056  65.044  1.00  0.00    -0.475 A  
HETATM   38  C   UNL     1     -11.605  12.913  65.906  1.00  0.00    -0.423 A  
ENDBRANCH  18  33
ENDBRANCH  15  18
ENDBRANCH  12  14
TORSDOF 7
ENDMDL
MODEL       58
REMARK 921   NORMALIZED FREE ENERGY PREDICTED BY IDOCK:   -6.50 KCAL/MOL
REMARK 922        TOTAL FREE ENERGY PREDICTED BY IDOCK:  -10.68 KCAL/MOL
REMARK 923 INTER-LIGAND FREE ENERGY PREDICTED BY IDOCK:   -9.36 KCAL/MOL
REMARK 924 INTRA-LIGAND FREE ENERGY PREDICTED BY IDOCK:   -1.33 KCAL/MOL
REMARK 927      BINDING AFFINITY PREDICTED BY RF-SCORE:    0.00 PKD
ROOT
HETATM    1  C   UNL     1     -10.942  14.949  68.916  1.00  0.00    -0.251 C  
HETATM    2  S   UNL     1      -9.153  14.635  68.677  1.00  0.00    -0.176 SA 
HETATM    3  C   UNL     1      -9.107  15.253  66.935  1.00  0.00    -0.240 C  
HETATM    4  CA  UNL     1     -10.352  16.164  66.786  1.00  0.00    -0.291 C  
HETATM    5  C   UNL     1      -9.182  14.021  66.013  1.00  0.00     0.026 C  
HETATM    6  C   UNL     1      -7.758  15.933  66.677  1.00  0.00    -0.199 C  
HETATM    7  C   UNL     1     -10.118  17.650  67.112  1.00  0.00    -0.328 C  
HETATM    8  N   UNL     1     -11.397  15.629  67.680  1.00  0.00    -0.280 N  
HETATM    9  OXT UNL     1      -9.316  18.369  66.532  1.00  0.00    -0.300 OA 
HETATM   10  O   UNL     1     -10.927  18.139  68.086  1.00  0.00    -0.213 OA 
HETATM   11  C   UNL     1     -12.139  14.551  67.257  1.00  0.00    -0.264 C  
HETATM   12  CA  UNL     1     -11.938  13.804  68.596  1.00  0.00    -0.366 C  
HETATM   13  O   UNL     1     -12.580  14.286  66.164  1.00  0.00    -0.436 OA 
ENDROOT
BRANCH  12  14
HETATM   14  N   UNL     1     -11.385  12.427  68.512  1.00  0.00    -0.268 N  
HETATM   15  C   UNL     1     -11.502  11.553  69.575  1.00  0.00    -0.311 C  
HETATM   16  H   UNL     1     -10.914  12.123  67.660  1.00  0.00     0.000 HD 
HETATM   17  O   UNL     1     -12.059  11.911  70.615  1.00  0.00    -0.373 OA 
BRANCH  15  18
HETATM   18  CA  UNL     1     -10.764  10.198  69.457  1.00  0.00    -0.249 C  
BRANCH  18  19
HETATM   19  N   UNL     1     -11.210   9.531  68.236  1.00  0.00    -0.505 N  
HETATM   20  H   UNL     1     -12.111   9.054  68.235  1.00  0.00     0.000 HD 
BRANCH  19  21
HETATM   21  C   UNL     1     -10.458   9.527  67.099  1.00  0.00    -0.253 C  
HETATM   22  O   UNL     1     -10.475  10.455  66.292  1.00  0.00    -0.222 OA 
BRANCH  21  23
HETATM   23  N   UNL     1      -9.670   8.416  66.901  1.00  0.00    -0.205 N  
HETATM   24  C   UNL     1      -8.078   7.255  65.588  1.00  0.00    -0.133 C  
HETATM   25  N   UNL     1      -9.049   6.363  66.232  1.00  0.00    -0.155 N  
HETATM   26  C   UNL     1      -8.319   8.538  66.377  1.00  0.00    -0.114 C  
HETATM   27  O   UNL     1     -11.062   6.606  67.400  1.00  0.00    -0.346 OA 
HETATM   28  C   UNL     1     -10.054   7.076  66.908  1.00  0.00    -0.226 C  
BRANCH  25  29
HETATM   29  S   UNL     1      -8.891   4.720  66.123  1.00  0.00    -0.123 S  
HETATM   30  O   UNL     1      -7.478   4.411  66.206  1.00  0.00    -0.083 OA 
HETATM   31  C   UNL     1      -9.408   4.360  64.456  1.00  0.00    -0.143 C  
HETATM   32  O   UNL     1      -9.832   4.104  67.030  1.00  0.00    -0.212 OA 
ENDBRANCH  25  29
ENDBRANCH  21  23
ENDBRANCH  19  21
ENDBRANCH  18  19
BRANCH  18  33
HETATM   33  C   UNL     1     -10.888   9.304  70.682  1.00  0.00    -0.339 A  
HETATM   34  C   UNL     1     -11.181   7.592  72.898  1.00  0.00    -0.426 A  
HETATM   35  C   UNL     1     -12.125   8.695  70.968  1.00  0.00    -0.247 A  
HETATM   36  C   UNL     1     -12.269   7.851  72.069  1.00  0.00    -0.357 A  
HETATM   37  C   UNL     1      -9.946   8.177  72.625  1.00  0.00    -0.371 A  
HETATM   38  C   UNL     1      -9.799   9.027  71.528  1.00  0.00    -0.381 A  
ENDBRANCH  18  33
ENDBRANCH  15  18
ENDBRANCH  12  14
TORSDOF 7
ENDMDL
MODEL       59
REMARK 921   NORMALIZED FREE ENERGY PREDICTED BY IDOCK:   -6.46 KCAL/MOL
REMARK 922        TOTAL FREE ENERGY PREDICTED BY IDOCK:  -10.62 KCAL/MOL
REMARK 923 INTER-LIGAND FREE ENERGY PREDICTED BY IDOCK:   -9.67 KCAL/MOL
REMARK 924 INTRA-LIGAND FREE ENERGY PREDICTED BY IDOCK:   -0.95 KCAL/MOL
REMARK 927      BINDING AFFINITY PREDICTED BY RF-SCORE:    0.00 PKD
ROOT
HETATM    1  C   UNL     1      -8.155   8.664  68.234  1.00  0.00    -0.118 C  
HETATM    2  S   UNL     1      -9.551   7.889  69.134  1.00  0.00    -0.154 SA 
HETATM    3  C   UNL     1      -9.735   6.469  67.964  1.00  0.00    -0.118 C  
HETATM    4  CA  UNL     1      -8.377   6.363  67.225  1.00  0.00    -0.112 C  
HETATM    5  C   UNL     1     -10.888   6.818  67.002  1.00  0.00    -0.453 C  
HETATM    6  C   UNL     1     -10.159   5.222  68.747  1.00  0.00    -0.248 C  
HETATM    7  C   UNL     1      -7.344   5.431  67.883  1.00  0.00    -0.073 C  
HETATM    8  N   UNL     1      -7.817   7.726  67.138  1.00  0.00    -0.111 N  
HETATM    9  OXT UNL     1      -7.518   4.237  68.084  1.00  0.00    -0.067 OA 
HETATM   10  O   UNL     1      -6.168   6.034  68.190  1.00  0.00    -0.026 OA 
HETATM   11  C   UNL     1      -8.281   8.570  66.156  1.00  0.00    -0.115 C  
HETATM   12  CA  UNL     1      -8.478   9.732  67.157  1.00  0.00    -0.125 C  
HETATM   13  O   UNL     1      -8.578   8.344  65.008  1.00  0.00    -0.169 OA 
ENDROOT
BRANCH  12  14
HETATM   14  N   UNL     1      -9.828  10.352  67.199  1.00  0.00    -0.175 N  
HETATM   15  C   UNL     1     -10.047  11.521  67.899  1.00  0.00    -0.189 C  
HETATM   16  H   UNL     1     -10.603   9.908  66.704  1.00  0.00     0.000 HD 
HETATM   17  O   UNL     1      -9.123  12.062  68.510  1.00  0.00    -0.178 OA 
BRANCH  15  18
HETATM   18  CA  UNL     1     -11.512  12.009  68.015  1.00  0.00    -0.328 C  
BRANCH  18  19
HETATM   19  N   UNL     1     -11.640  13.271  67.291  1.00  0.00    -0.338 N  
HETATM   20  H   UNL     1     -12.480  13.833  67.422  1.00  0.00     0.000 HD 
BRANCH  19  21
HETATM   21  C   UNL     1     -10.669  13.720  66.445  1.00  0.00    -0.281 C  
HETATM   22  O   UNL     1     -10.325  13.095  65.443  1.00  0.00    -0.291 OA 
BRANCH  21  23
HETATM   23  N   UNL     1     -10.088  14.922  66.777  1.00  0.00    -0.247 N  
HETATM   24  C   UNL     1      -9.664  16.605  68.388  1.00  0.00    -0.243 C  
HETATM   25  N   UNL     1      -9.824  17.139  67.029  1.00  0.00    -0.266 N  
HETATM   26  C   UNL     1      -9.472  15.124  68.079  1.00  0.00    -0.199 C  
HETATM   27  O   UNL     1     -10.535  16.318  64.957  1.00  0.00    -0.621 OA 
HETATM   28  C   UNL     1     -10.192  16.141  66.110  1.00  0.00    -0.336 C  
BRANCH  25  29
HETATM   29  S   UNL     1      -9.573  18.744  66.716  1.00  0.00    -0.336 S  
HETATM   30  O   UNL     1      -8.415  18.843  65.850  1.00  0.00    -0.474 OA 
HETATM   31  C   UNL     1      -9.102  19.411  68.300  1.00  0.00    -0.345 C  
HETATM   32  O   UNL     1     -10.831  19.341  66.331  1.00  0.00    -0.387 OA 
ENDBRANCH  25  29
ENDBRANCH  21  23
ENDBRANCH  19  21
ENDBRANCH  18  19
BRANCH  18  33
HETATM   33  C   UNL     1     -12.031  12.106  69.442  1.00  0.00    -0.329 A  
HETATM   34  C   UNL     1     -13.047  12.367  72.055  1.00  0.00    -0.470 A  
HETATM   35  C   UNL     1     -12.256  13.376  70.008  1.00  0.00    -0.367 A  
HETATM   36  C   UNL     1     -12.755  13.503  71.305  1.00  0.00    -0.432 A  
HETATM   37  C   UNL     1     -12.841  11.102  71.509  1.00  0.00    -0.542 A  
HETATM   38  C   UNL     1     -12.336  10.971  70.213  1.00  0.00    -0.410 A  
ENDBRANCH  18  33
ENDBRANCH  15  18
ENDBRANCH  12  14
TORSDOF 7
ENDMDL
MODEL       60
REMARK 921   NORMALIZED FREE ENERGY PREDICTED BY IDOCK:   -6.45 KCAL/MOL
REMARK 922        TOTAL FREE ENERGY PREDICTED BY IDOCK:  -10.62 KCAL/MOL
REMARK 923 INTER-LIGAND FREE ENERGY PREDICTED BY IDOCK:   -9.17 KCAL/MOL
REMARK 924 INTRA-LIGAND FREE ENERGY PREDICTED BY IDOCK:   -1.45 KCAL/MOL
REMARK 927      BINDING AFFINITY PREDICTED BY RF-SCORE:    0.00 PKD
ROOT
HETATM    1  C   UNL     1     -10.863  15.822  67.848  1.00  0.00    -0.314 C  
HETATM    2  S   UNL     1      -9.269  15.680  68.740  1.00  0.00    -0.227 SA 
HETATM    3  C   UNL     1      -8.357  16.851  67.638  1.00  0.00    -0.184 C  
HETATM    4  CA  UNL     1      -9.449  17.707  66.949  1.00  0.00    -0.276 C  
HETATM    5  C   UNL     1      -7.568  16.001  66.623  1.00  0.00    -0.200 C  
HETATM    6  C   UNL     1      -7.333  17.632  68.469  1.00  0.00    -0.256 C  
HETATM    7  C   UNL     1      -9.826  19.005  67.687  1.00  0.00    -0.332 C  
HETATM    8  N   UNL     1     -10.650  16.860  66.812  1.00  0.00    -0.253 N  
HETATM    9  OXT UNL     1      -9.042  19.909  67.942  1.00  0.00    -0.321 OA 
HETATM   10  O   UNL     1     -11.142  19.103  68.001  1.00  0.00    -0.118 OA 
HETATM   11  C   UNL     1     -10.707  15.960  65.775  1.00  0.00    -0.316 C  
HETATM   12  CA  UNL     1     -11.160  14.813  66.708  1.00  0.00    -0.338 C  
HETATM   13  O   UNL     1     -10.336  16.061  64.630  1.00  0.00    -0.414 OA 
ENDROOT
BRANCH  12  14
HETATM   14  N   UNL     1     -10.348  13.568  66.675  1.00  0.00    -0.267 N  
HETATM   15  C   UNL     1     -10.941  12.345  66.436  1.00  0.00    -0.276 C  
HETATM   16  H   UNL     1      -9.341  13.619  66.831  1.00  0.00     0.000 HD 
HETATM   17  O   UNL     1     -12.158  12.269  66.257  1.00  0.00    -0.626 OA 
BRANCH  15  18
HETATM   18  CA  UNL     1     -10.045  11.090  66.573  1.00  0.00    -0.226 C  
BRANCH  18  19
HETATM   19  N   UNL     1     -10.730  10.122  67.426  1.00  0.00    -0.277 N  
HETATM   20  H   UNL     1     -11.431  10.455  68.087  1.00  0.00     0.000 HD 
BRANCH  19  21
HETATM   21  C   UNL     1     -10.459   8.788  67.366  1.00  0.00    -0.279 C  
HETATM   22  O   UNL     1     -10.182   8.216  66.312  1.00  0.00    -0.168 OA 
BRANCH  21  23
HETATM   23  N   UNL     1     -10.514   8.106  68.560  1.00  0.00    -0.193 N  
HETATM   24  C   UNL     1     -11.359   6.303  69.841  1.00  0.00    -0.434 C  
HETATM   25  N   UNL     1     -11.168   7.526  70.630  1.00  0.00    -0.266 N  
HETATM   26  C   UNL     1     -10.553   6.653  68.594  1.00  0.00    -0.234 C  
HETATM   27  O   UNL     1     -10.699   9.775  70.186  1.00  0.00    -0.245 OA 
HETATM   28  C   UNL     1     -10.781   8.615  69.830  1.00  0.00    -0.225 C  
BRANCH  25  29
HETATM   29  S   UNL     1     -11.403   7.522  72.268  1.00  0.00    -0.312 S  
HETATM   30  O   UNL     1     -12.316   8.603  72.580  1.00  0.00    -0.390 OA 
HETATM   31  C   UNL     1      -9.809   7.979  72.920  1.00  0.00    -0.287 C  
HETATM   32  O   UNL     1     -11.694   6.172  72.689  1.00  0.00    -0.246 OA 
ENDBRANCH  25  29
ENDBRANCH  21  23
ENDBRANCH  19  21
ENDBRANCH  18  19
BRANCH  18  33
HETATM   33  C   UNL     1      -8.627  11.377  67.046  1.00  0.00    -0.157 A  
HETATM   34  C   UNL     1      -6.030  11.873  68.012  1.00  0.00    -0.055 A  
HETATM   35  C   UNL     1      -8.419  11.823  68.366  1.00  0.00    -0.155 A  
HETATM   36  C   UNL     1      -7.131  12.073  68.840  1.00  0.00    -0.104 A  
HETATM   37  C   UNL     1      -6.216  11.421  66.708  1.00  0.00    -0.141 A  
HETATM   38  C   UNL     1      -7.503  11.176  66.226  1.00  0.00    -0.064 A  
ENDBRANCH  18  33
ENDBRANCH  15  18
ENDBRANCH  12  14
TORSDOF 7
ENDMDL
MODEL       61
REMARK 921   NORMALIZED FREE ENERGY PREDICTED BY IDOCK:   -6.41 KCAL/MOL
REMARK 922        TOTAL FREE ENERGY PREDICTED BY IDOCK:  -10.55 KCAL/MOL
REMARK 923 INTER-LIGAND FREE ENERGY PREDICTED BY IDOCK:   -9.57 KCAL/MOL
REMARK 924 INTRA-LIGAND FREE ENERGY PREDICTED BY IDOCK:   -0.98 KCAL/MOL
REMARK 927      BINDING AFFINITY PREDICTED BY RF-SCORE:    0.00 PKD
ROOT
HETATM    1  C   UNL     1      -8.343  16.952  66.003  1.00  0.00    -0.145 C  
HETATM    2  S   UNL     1      -9.997  17.740  65.957  1.00  0.00    -0.146 SA 
HETATM    3  C   UNL     1      -9.766  18.702  67.519  1.00  0.00    -0.310 C  
HETATM    4  CA  UNL     1      -8.233  18.787  67.730  1.00  0.00    -0.263 C  
HETATM    5  C   UNL     1     -10.459  17.913  68.647  1.00  0.00    -0.269 C  
HETATM    6  C   UNL     1     -10.490  20.047  67.394  1.00  0.00    -0.490 C  
HETATM    7  C   UNL     1      -7.553  20.018  67.103  1.00  0.00    -0.287 C  
HETATM    8  N   UNL     1      -7.642  17.561  67.158  1.00  0.00    -0.194 N  
HETATM    9  OXT UNL     1      -7.825  21.177  67.383  1.00  0.00    -0.300 OA 
HETATM   10  O   UNL     1      -6.563  19.718  66.224  1.00  0.00    -0.194 OA 
HETATM   11  C   UNL     1      -7.676  16.404  67.900  1.00  0.00    -0.152 C  
HETATM   12  CA  UNL     1      -8.204  15.576  66.705  1.00  0.00    -0.242 C  
HETATM   13  O   UNL     1      -7.524  16.231  69.085  1.00  0.00    -0.205 OA 
ENDROOT
BRANCH  12  14
HETATM   14  N   UNL     1      -9.451  14.800  66.932  1.00  0.00    -0.230 N  
HETATM   15  C   UNL     1      -9.400  13.501  67.395  1.00  0.00    -0.228 C  
HETATM   16  H   UNL     1     -10.355  15.233  66.743  1.00  0.00     0.000 HD 
HETATM   17  O   UNL     1      -8.313  12.962  67.616  1.00  0.00    -0.152 OA 
BRANCH  15  18
HETATM   18  CA  UNL     1     -10.736  12.721  67.454  1.00  0.00    -0.230 C  
BRANCH  18  19
HETATM   19  N   UNL     1     -11.585  13.172  66.354  1.00  0.00    -0.332 N  
HETATM   20  H   UNL     1     -11.921  14.134  66.351  1.00  0.00     0.000 HD 
BRANCH  19  21
HETATM   21  C   UNL     1     -11.941  12.344  65.331  1.00  0.00    -0.398 C  
HETATM   22  O   UNL     1     -12.967  12.511  64.673  1.00  0.00    -0.803 OA 
BRANCH  21  23
HETATM   23  N   UNL     1     -11.083  11.300  65.073  1.00  0.00    -0.154 N  
HETATM   24  C   UNL     1      -9.401   9.811  65.821  1.00  0.00    -0.221 C  
HETATM   25  N   UNL     1      -9.238  10.199  64.415  1.00  0.00    -0.236 N  
HETATM   26  C   UNL     1     -10.835  10.268  66.067  1.00  0.00     0.170 C  
HETATM   27  O   UNL     1     -10.179  11.783  62.972  1.00  0.00    -0.366 OA 
HETATM   28  C   UNL     1     -10.173  11.172  64.024  1.00  0.00    -0.361 C  
BRANCH  25  29
HETATM   29  S   UNL     1      -8.062   9.510  63.477  1.00  0.00    -0.164 S  
HETATM   30  O   UNL     1      -8.718   8.633  62.529  1.00  0.00    -0.182 OA 
HETATM   31  C   UNL     1      -7.171   8.472  64.620  1.00  0.00    -0.086 C  
HETATM   32  O   UNL     1      -7.168  10.549  63.020  1.00  0.00    -0.117 OA 
ENDBRANCH  25  29
ENDBRANCH  21  23
ENDBRANCH  19  21
ENDBRANCH  18  19
BRANCH  18  33
HETATM   33  C   UNL     1     -11.446  12.790  68.798  1.00  0.00    -0.347 A  
HETATM   34  C   UNL     1     -12.825  12.984  71.245  1.00  0.00    -0.370 A  
HETATM   35  C   UNL     1     -11.985  14.018  69.231  1.00  0.00    -0.396 A  
HETATM   36  C   UNL     1     -12.663  14.112  70.446  1.00  0.00    -0.341 A  
HETATM   37  C   UNL     1     -12.309  11.759  70.829  1.00  0.00    -0.433 A  
HETATM   38  C   UNL     1     -11.623  11.661  69.616  1.00  0.00    -0.401 A  
ENDBRANCH  18  33
ENDBRANCH  15  18
ENDBRANCH  12  14
TORSDOF 7
ENDMDL
MODEL       62
REMARK 921   NORMALIZED FREE ENERGY PREDICTED BY IDOCK:   -6.39 KCAL/MOL
REMARK 922        TOTAL FREE ENERGY PREDICTED BY IDOCK:  -10.52 KCAL/MOL
REMARK 923 INTER-LIGAND FREE ENERGY PREDICTED BY IDOCK:   -8.73 KCAL/MOL
REMARK 924 INTRA-LIGAND FREE ENERGY PREDICTED BY IDOCK:   -1.80 KCAL/MOL
REMARK 927      BINDING AFFINITY PREDICTED BY RF-SCORE:    0.00 PKD
ROOT
HETATM    1  C   UNL     1      -8.768   7.027  70.541  1.00  0.00    -0.153 C  
HETATM    2  S   UNL     1      -8.867   7.802  72.199  1.00  0.00    -0.145 SA 
HETATM    3  C   UNL     1     -10.327   6.815  72.757  1.00  0.00    -0.209 C  
HETATM    4  CA  UNL     1     -10.351   5.561  71.847  1.00  0.00    -0.216 C  
HETATM    5  C   UNL     1     -11.576   7.695  72.555  1.00  0.00    -0.382 C  
HETATM    6  C   UNL     1     -10.204   6.538  74.259  1.00  0.00    -0.373 C  
HETATM    7  C   UNL     1      -9.573   4.347  72.385  1.00  0.00    -0.147 C  
HETATM    8  N   UNL     1      -9.792   5.956  70.539  1.00  0.00    -0.178 N  
HETATM    9  OXT UNL     1      -9.810   3.787  73.446  1.00  0.00    -0.110 OA 
HETATM   10  O   UNL     1      -8.605   3.893  71.549  1.00  0.00    -0.092 OA 
HETATM   11  C   UNL     1     -10.603   6.615  69.646  1.00  0.00    -0.234 C  
HETATM   12  CA  UNL     1      -9.533   7.696  69.370  1.00  0.00    -0.152 C  
HETATM   13  O   UNL     1     -11.771   6.453  69.384  1.00  0.00    -0.327 OA 
ENDROOT
BRANCH  12  14
HETATM   14  N   UNL     1      -9.953   9.110  69.553  1.00  0.00    -0.182 N  
HETATM   15  C   UNL     1     -10.663   9.769  68.570  1.00  0.00    -0.215 C  
HETATM   16  H   UNL     1      -9.713   9.600  70.416  1.00  0.00     0.000 HD 
HETATM   17  O   UNL     1     -10.948   9.193  67.518  1.00  0.00    -0.176 OA 
BRANCH  15  18
HETATM   18  CA  UNL     1     -10.922  11.281  68.781  1.00  0.00    -0.220 C  
BRANCH  18  19
HETATM   19  N   UNL     1      -9.635  11.970  68.830  1.00  0.00    -0.398 N  
HETATM   20  H   UNL     1      -9.012  11.798  69.618  1.00  0.00     0.000 HD 
BRANCH  19  21
HETATM   21  C   UNL     1      -9.242  12.836  67.853  1.00  0.00    -0.205 C  
HETATM   22  O   UNL     1      -9.017  14.025  68.076  1.00  0.00    -0.167 OA 
BRANCH  21  23
HETATM   23  N   UNL     1      -9.111  12.304  66.591  1.00  0.00    -0.207 N  
HETATM   24  C   UNL     1     -10.113  11.395  64.648  1.00  0.00    -0.280 C  
HETATM   25  N   UNL     1      -8.817  10.783  64.963  1.00  0.00    -0.195 N  
HETATM   26  C   UNL     1     -10.054  12.634  65.535  1.00  0.00    -0.265 C  
HETATM   27  O   UNL     1      -7.320  10.812  66.762  1.00  0.00    -0.114 OA 
HETATM   28  C   UNL     1      -8.295  11.250  66.182  1.00  0.00    -0.111 C  
BRANCH  25  29
HETATM   29  S   UNL     1      -8.127   9.684  63.937  1.00  0.00    -0.165 S  
HETATM   30  O   UNL     1      -6.883  10.252  63.461  1.00  0.00    -0.136 OA 
HETATM   31  C   UNL     1      -9.249   9.644  62.552  1.00  0.00    -0.201 C  
HETATM   32  O   UNL     1      -8.146   8.386  64.571  1.00  0.00    -0.142 OA 
ENDBRANCH  25  29
ENDBRANCH  21  23
ENDBRANCH  19  21
ENDBRANCH  18  19
BRANCH  18  33
HETATM   33  C   UNL     1     -11.798  11.607  69.982  1.00  0.00    -0.435 A  
HETATM   34  C   UNL     1     -13.455  12.293  72.153  1.00  0.00    -0.431 A  
HETATM   35  C   UNL     1     -12.019  12.955  70.327  1.00  0.00    -0.359 A  
HETATM   36  C   UNL     1     -12.836  13.292  71.406  1.00  0.00    -0.411 A  
HETATM   37  C   UNL     1     -13.257  10.955  71.820  1.00  0.00    -0.513 A  
HETATM   38  C   UNL     1     -12.435  10.613  70.744  1.00  0.00    -0.480 A  
ENDBRANCH  18  33
ENDBRANCH  15  18
ENDBRANCH  12  14
TORSDOF 7
ENDMDL
MODEL       63
REMARK 921   NORMALIZED FREE ENERGY PREDICTED BY IDOCK:   -6.30 KCAL/MOL
REMARK 922        TOTAL FREE ENERGY PREDICTED BY IDOCK:  -10.40 KCAL/MOL
REMARK 923 INTER-LIGAND FREE ENERGY PREDICTED BY IDOCK:   -9.14 KCAL/MOL
REMARK 924 INTRA-LIGAND FREE ENERGY PREDICTED BY IDOCK:   -1.26 KCAL/MOL
REMARK 927      BINDING AFFINITY PREDICTED BY RF-SCORE:    0.00 PKD
ROOT
HETATM    1  C   UNL     1      -9.748   8.603  72.402  1.00  0.00    -0.243 C  
HETATM    2  S   UNL     1     -11.532   8.681  71.994  1.00  0.00    -0.374 SA 
HETATM    3  C   UNL     1     -11.644   6.933  71.404  1.00  0.00    -0.299 C  
HETATM    4  CA  UNL     1     -10.432   6.204  72.037  1.00  0.00    -0.211 C  
HETATM    5  C   UNL     1     -11.555   6.965  69.866  1.00  0.00    -0.255 C  
HETATM    6  C   UNL     1     -13.020   6.365  71.768  1.00  0.00     0.087 C  
HETATM    7  C   UNL     1     -10.702   5.552  73.405  1.00  0.00    -0.278 C  
HETATM    8  N   UNL     1      -9.347   7.195  72.177  1.00  0.00    -0.133 N  
HETATM    9  OXT UNL     1     -11.541   4.684  73.605  1.00  0.00    -0.225 OA 
HETATM   10  O   UNL     1      -9.883   5.983  74.398  1.00  0.00    -0.202 OA 
HETATM   11  C   UNL     1      -8.583   7.498  71.074  1.00  0.00    -0.132 C  
HETATM   12  CA  UNL     1      -8.726   9.019  71.312  1.00  0.00    -0.171 C  
HETATM   13  O   UNL     1      -8.164   6.785  70.194  1.00  0.00    -0.128 OA 
ENDROOT
BRANCH  12  14
HETATM   14  N   UNL     1      -9.238   9.825  70.174  1.00  0.00    -0.312 N  
HETATM   15  C   UNL     1      -8.379  10.577  69.397  1.00  0.00    -0.106 C  
HETATM   16  H   UNL     1     -10.236   9.824  69.963  1.00  0.00     0.000 HD 
HETATM   17  O   UNL     1      -7.172  10.597  69.648  1.00  0.00    -0.129 OA 
BRANCH  15  18
HETATM   18  CA  UNL     1      -9.017  11.503  68.334  1.00  0.00    -0.173 C  
BRANCH  18  19
HETATM   19  N   UNL     1     -10.279  12.015  68.863  1.00  0.00    -0.407 N  
HETATM   20  H   UNL     1     -10.326  12.300  69.840  1.00  0.00     0.000 HD 
BRANCH  19  21
HETATM   21  C   UNL     1     -11.396  12.123  68.089  1.00  0.00    -0.293 C  
HETATM   22  O   UNL     1     -12.238  11.230  68.015  1.00  0.00    -0.621 OA 
BRANCH  21  23
HETATM   23  N   UNL     1     -11.531  13.298  67.385  1.00  0.00    -0.313 N  
HETATM   24  C   UNL     1     -11.603  14.433  65.308  1.00  0.00    -0.353 C  
HETATM   25  N   UNL     1     -10.978  15.226  66.373  1.00  0.00    -0.318 N  
HETATM   26  C   UNL     1     -12.277  13.344  66.137  1.00  0.00    -0.415 C  
HETATM   27  O   UNL     1     -10.223  14.842  68.554  1.00  0.00    -0.223 OA 
HETATM   28  C   UNL     1     -10.836  14.493  67.564  1.00  0.00    -0.289 C  
BRANCH  25  29
HETATM   29  S   UNL     1     -10.529  16.796  66.107  1.00  0.00    -0.231 S  
HETATM   30  O   UNL     1     -10.947  17.148  64.765  1.00  0.00    -0.898 OA 
HETATM   31  C   UNL     1      -8.748  16.727  66.098  1.00  0.00    -0.264 C  
HETATM   32  O   UNL     1     -10.944  17.593  67.238  1.00  0.00    -0.206 OA 
ENDBRANCH  25  29
ENDBRANCH  21  23
ENDBRANCH  19  21
ENDBRANCH  18  19
BRANCH  18  33
HETATM   33  C   UNL     1      -9.181  10.867  66.962  1.00  0.00    -0.165 A  
HETATM   34  C   UNL     1      -9.411   9.752  64.387  1.00  0.00    -0.233 A  
HETATM   35  C   UNL     1      -9.050  11.669  65.811  1.00  0.00    -0.128 A  
HETATM   36  C   UNL     1      -9.170  11.115  64.537  1.00  0.00    -0.126 A  
HETATM   37  C   UNL     1      -9.532   8.941  65.512  1.00  0.00    -0.162 A  
HETATM   38  C   UNL     1      -9.420   9.492  66.790  1.00  0.00    -0.217 A  
ENDBRANCH  18  33
ENDBRANCH  15  18
ENDBRANCH  12  14
TORSDOF 7
ENDMDL
MODEL       64
REMARK 921   NORMALIZED FREE ENERGY PREDICTED BY IDOCK:   -6.30 KCAL/MOL
REMARK 922        TOTAL FREE ENERGY PREDICTED BY IDOCK:  -10.40 KCAL/MOL
REMARK 923 INTER-LIGAND FREE ENERGY PREDICTED BY IDOCK:   -9.04 KCAL/MOL
REMARK 924 INTRA-LIGAND FREE ENERGY PREDICTED BY IDOCK:   -1.36 KCAL/MOL
REMARK 927      BINDING AFFINITY PREDICTED BY RF-SCORE:    0.00 PKD
ROOT
HETATM    1  C   UNL     1      -9.937   9.367  70.348  1.00  0.00    -0.252 C  
HETATM    2  S   UNL     1     -11.057   8.163  69.540  1.00  0.00     0.157 SA 
HETATM    3  C   UNL     1      -9.779   6.838  69.368  1.00  0.00    -0.152 C  
HETATM    4  CA  UNL     1      -8.687   7.178  70.412  1.00  0.00    -0.150 C  
HETATM    5  C   UNL     1      -9.240   6.910  67.926  1.00  0.00    -0.124 C  
HETATM    6  C   UNL     1     -10.448   5.469  69.534  1.00  0.00    -0.368 C  
HETATM    7  C   UNL     1      -8.882   6.536  71.797  1.00  0.00    -0.138 C  
HETATM    8  N   UNL     1      -8.659   8.647  70.557  1.00  0.00    -0.143 N  
HETATM    9  OXT UNL     1      -8.937   5.331  72.001  1.00  0.00    -0.133 OA 
HETATM   10  O   UNL     1      -8.940   7.427  72.819  1.00  0.00    -0.130 OA 
HETATM   11  C   UNL     1      -7.986   9.390  69.616  1.00  0.00    -0.109 C  
HETATM   12  CA  UNL     1      -9.168  10.373  69.451  1.00  0.00    -0.159 C  
HETATM   13  O   UNL     1      -6.944   9.172  69.045  1.00  0.00    -0.061 OA 
ENDROOT
BRANCH  12  14
HETATM   14  N   UNL     1      -9.677  10.576  68.069  1.00  0.00    -0.146 N  
HETATM   15  C   UNL     1      -9.112  11.525  67.241  1.00  0.00    -0.164 C  
HETATM   16  H   UNL     1     -10.453  10.007  67.728  1.00  0.00     0.000 HD 
HETATM   17  O   UNL     1      -8.182  12.226  67.644  1.00  0.00    -0.145 OA 
BRANCH  15  18
HETATM   18  CA  UNL     1      -9.805  11.772  65.878  1.00  0.00    -0.238 C  
BRANCH  18  19
HETATM   19  N   UNL     1     -11.251  11.724  66.077  1.00  0.00    -0.318 N  
HETATM   20  H   UNL     1     -11.656  10.929  66.570  1.00  0.00     0.000 HD 
BRANCH  19  21
HETATM   21  C   UNL     1     -12.075  12.711  65.624  1.00  0.00    -0.443 C  
HETATM   22  O   UNL     1     -13.073  12.478  64.944  1.00  0.00    -0.833 OA 
BRANCH  21  23
HETATM   23  N   UNL     1     -11.726  13.996  65.971  1.00  0.00    -0.354 N  
HETATM   24  C   UNL     1     -10.251  15.836  65.755  1.00  0.00    -0.370 C  
HETATM   25  N   UNL     1     -10.797  15.695  67.110  1.00  0.00    -0.312 N  
HETATM   26  C   UNL     1     -11.198  14.923  64.982  1.00  0.00    -0.404 C  
HETATM   27  O   UNL     1     -12.021  14.085  68.288  1.00  0.00    -0.357 OA 
HETATM   28  C   UNL     1     -11.573  14.532  67.249  1.00  0.00    -0.385 C  
BRANCH  25  29
HETATM   29  S   UNL     1     -10.482  16.830  68.273  1.00  0.00    -0.358 S  
HETATM   30  O   UNL     1     -10.687  18.134  67.676  1.00  0.00    -0.416 OA 
HETATM   31  C   UNL     1      -8.732  16.656  68.562  1.00  0.00    -0.242 C  
HETATM   32  O   UNL     1     -11.178  16.458  69.482  1.00  0.00    -0.308 OA 
ENDBRANCH  25  29
ENDBRANCH  21  23
ENDBRANCH  19  21
ENDBRANCH  18  19
BRANCH  18  33
HETATM   33  C   UNL     1      -9.343  10.848  64.761  1.00  0.00    -0.259 A  
HETATM   34  C   UNL     1      -8.506   9.059  62.755  1.00  0.00    -0.206 A  
HETATM   35  C   UNL     1      -8.604   9.693  65.083  1.00  0.00    -0.175 A  
HETATM   36  C   UNL     1      -8.186   8.811  64.087  1.00  0.00    -0.163 A  
HETATM   37  C   UNL     1      -9.245  10.190  62.418  1.00  0.00    -0.320 A  
HETATM   38  C   UNL     1      -9.661  11.079  63.411  1.00  0.00    -0.361 A  
ENDBRANCH  18  33
ENDBRANCH  15  18
ENDBRANCH  12  14
TORSDOF 7
ENDMDL
MODEL       65
REMARK 921   NORMALIZED FREE ENERGY PREDICTED BY IDOCK:   -6.30 KCAL/MOL
REMARK 922        TOTAL FREE ENERGY PREDICTED BY IDOCK:  -10.40 KCAL/MOL
REMARK 923 INTER-LIGAND FREE ENERGY PREDICTED BY IDOCK:   -9.19 KCAL/MOL
REMARK 924 INTRA-LIGAND FREE ENERGY PREDICTED BY IDOCK:   -1.20 KCAL/MOL
REMARK 927      BINDING AFFINITY PREDICTED BY RF-SCORE:    0.00 PKD
ROOT
HETATM    1  C   UNL     1      -8.740   9.068  68.891  1.00  0.00    -0.136 C  
HETATM    2  S   UNL     1      -8.789   9.357  70.700  1.00  0.00    -0.158 SA 
HETATM    3  C   UNL     1     -10.515   8.732  70.921  1.00  0.00    -0.221 C  
HETATM    4  CA  UNL     1     -10.793   7.838  69.686  1.00  0.00    -0.184 C  
HETATM    5  C   UNL     1     -11.443   9.962  70.961  1.00  0.00    -0.466 C  
HETATM    6  C   UNL     1     -10.628   8.033  72.280  1.00  0.00    -0.356 C  
HETATM    7  C   UNL     1     -10.442   6.350  69.863  1.00  0.00    -0.213 C  
HETATM    8  N   UNL     1     -10.015   8.391  68.560  1.00  0.00    -0.182 N  
HETATM    9  OXT UNL     1     -10.933   5.618  70.712  1.00  0.00    -0.260 OA 
HETATM   10  O   UNL     1      -9.558   5.876  68.949  1.00  0.00    -0.127 OA 
HETATM   11  C   UNL     1     -10.517   9.477  67.882  1.00  0.00    -0.241 C  
HETATM   12  CA  UNL     1      -9.166  10.226  67.951  1.00  0.00    -0.138 C  
HETATM   13  O   UNL     1     -11.650   9.745  67.563  1.00  0.00     0.214 OA 
ENDROOT
BRANCH  12  14
HETATM   14  N   UNL     1      -9.193  11.595  68.529  1.00  0.00    -0.275 N  
HETATM   15  C   UNL     1      -9.877  12.615  67.898  1.00  0.00    -0.218 C  
HETATM   16  H   UNL     1      -8.700  11.784  69.402  1.00  0.00     0.000 HD 
HETATM   17  O   UNL     1     -10.466  12.403  66.836  1.00  0.00    -0.223 OA 
BRANCH  15  18
HETATM   18  CA  UNL     1      -9.722  14.037  68.488  1.00  0.00    -0.215 C  
BRANCH  18  19
HETATM   19  N   UNL     1      -8.353  14.192  68.974  1.00  0.00    -0.347 N  
HETATM   20  H   UNL     1      -8.106  13.805  69.884  1.00  0.00     0.000 HD 
BRANCH  19  21
HETATM   21  C   UNL     1      -7.397  14.837  68.248  1.00  0.00    -0.115 C  
HETATM   22  O   UNL     1      -6.369  14.281  67.865  1.00  0.00    -0.138 OA 
BRANCH  21  23
HETATM   23  N   UNL     1      -7.646  16.161  67.964  1.00  0.00    -0.130 N  
HETATM   24  C   UNL     1      -8.328  18.308  68.692  1.00  0.00    -0.287 C  
HETATM   25  N   UNL     1      -8.750  18.008  67.319  1.00  0.00    -0.240 N  
HETATM   26  C   UNL     1      -7.291  17.211  68.906  1.00  0.00    -0.241 C  
HETATM   27  O   UNL     1      -8.804  16.123  65.934  1.00  0.00    -0.343 OA 
HETATM   28  C   UNL     1      -8.441  16.689  66.948  1.00  0.00    -0.215 C  
BRANCH  25  29
HETATM   29  S   UNL     1      -9.494  19.159  66.392  1.00  0.00    -0.347 S  
HETATM   30  O   UNL     1      -8.458  19.889  65.689  1.00  0.00    -0.330 OA 
HETATM   31  C   UNL     1     -10.197  20.274  67.592  1.00  0.00    -0.329 C  
HETATM   32  O   UNL     1     -10.576  18.538  65.664  1.00  0.00    -0.616 OA 
ENDBRANCH  25  29
ENDBRANCH  21  23
ENDBRANCH  19  21
ENDBRANCH  18  19
BRANCH  18  33
HETATM   33  C   UNL     1     -10.755  14.396  69.546  1.00  0.00    -0.133 A  
HETATM   34  C   UNL     1     -12.659  15.157  71.475  1.00  0.00    -0.425 A  
HETATM   35  C   UNL     1     -10.626  15.608  70.252  1.00  0.00    -0.329 A  
HETATM   36  C   UNL     1     -11.567  15.980  71.211  1.00  0.00    -0.506 A  
HETATM   37  C   UNL     1     -12.810  13.960  70.779  1.00  0.00    -0.329 A  
HETATM   38  C   UNL     1     -11.866  13.580  69.822  1.00  0.00    -0.395 A  
ENDBRANCH  18  33
ENDBRANCH  15  18
ENDBRANCH  12  14
TORSDOF 7
ENDMDL
MODEL       66
REMARK 921   NORMALIZED FREE ENERGY PREDICTED BY IDOCK:   -6.29 KCAL/MOL
REMARK 922        TOTAL FREE ENERGY PREDICTED BY IDOCK:  -10.38 KCAL/MOL
REMARK 923 INTER-LIGAND FREE ENERGY PREDICTED BY IDOCK:   -9.42 KCAL/MOL
REMARK 924 INTRA-LIGAND FREE ENERGY PREDICTED BY IDOCK:   -0.96 KCAL/MOL
REMARK 927      BINDING AFFINITY PREDICTED BY RF-SCORE:    0.00 PKD
ROOT
HETATM    1  C   UNL     1     -10.853   8.580  69.365  1.00  0.00    -0.091 C  
HETATM    2  S   UNL     1      -9.838   8.460  67.845  1.00  0.00    -0.179 SA 
HETATM    3  C   UNL     1      -8.448   7.539  68.645  1.00  0.00    -0.129 C  
HETATM    4  CA  UNL     1      -9.055   6.900  69.920  1.00  0.00    -0.144 C  
HETATM    5  C   UNL     1      -7.354   8.570  68.983  1.00  0.00    -0.081 C  
HETATM    6  C   UNL     1      -7.848   6.555  67.635  1.00  0.00    -0.110 C  
HETATM    7  C   UNL     1      -9.626   5.483  69.733  1.00  0.00    -0.163 C  
HETATM    8  N   UNL     1     -10.127   7.798  70.393  1.00  0.00    -0.193 N  
HETATM    9  OXT UNL     1      -8.975   4.518  69.358  1.00  0.00    -0.086 OA 
HETATM   10  O   UNL     1     -10.934   5.362  70.075  1.00  0.00    -0.249 OA 
HETATM   11  C   UNL     1      -9.781   8.912  71.121  1.00  0.00    -0.274 C  
HETATM   12  CA  UNL     1     -10.683   9.832  70.265  1.00  0.00    -0.302 C  
HETATM   13  O   UNL     1      -8.933   9.061  71.967  1.00  0.00    -0.374 OA 
ENDROOT
BRANCH  12  14
HETATM   14  N   UNL     1     -10.034  11.022  69.657  1.00  0.00    -0.409 N  
HETATM   15  C   UNL     1     -10.790  12.014  69.066  1.00  0.00    -0.177 C  
HETATM   16  H   UNL     1      -9.017  11.107  69.676  1.00  0.00     0.000 HD 
HETATM   17  O   UNL     1     -12.019  11.918  69.025  1.00  0.00    -0.299 OA 
BRANCH  15  18
HETATM   18  CA  UNL     1     -10.024  13.136  68.324  1.00  0.00    -0.236 C  
BRANCH  18  19
HETATM   19  N   UNL     1      -9.761  14.220  69.267  1.00  0.00    -0.415 N  
HETATM   20  H   UNL     1      -8.963  14.144  69.897  1.00  0.00     0.000 HD 
BRANCH  19  21
HETATM   21  C   UNL     1     -10.550  15.330  69.330  1.00  0.00    -0.256 C  
HETATM   22  O   UNL     1     -11.663  15.320  69.854  1.00  0.00    -0.278 OA 
BRANCH  21  23
HETATM   23  N   UNL     1     -10.029  16.474  68.771  1.00  0.00    -0.243 N  
HETATM   24  C   UNL     1      -9.880  17.958  66.932  1.00  0.00    -0.321 C  
HETATM   25  N   UNL     1      -8.616  17.827  67.666  1.00  0.00    -0.228 N  
HETATM   26  C   UNL     1     -10.846  17.342  67.939  1.00  0.00    -0.270 C  
HETATM   27  O   UNL     1      -7.762  16.431  69.338  1.00  0.00    -0.221 OA 
HETATM   28  C   UNL     1      -8.691  16.854  68.678  1.00  0.00    -0.267 C  
BRANCH  25  29
HETATM   29  S   UNL     1      -7.309  18.764  67.276  1.00  0.00    -0.217 S  
HETATM   30  O   UNL     1      -7.068  19.661  68.388  1.00  0.00    -0.287 OA 
HETATM   31  C   UNL     1      -7.898  19.758  65.919  1.00  0.00    -0.301 C  
HETATM   32  O   UNL     1      -6.257  17.906  66.783  1.00  0.00    -0.148 OA 
ENDBRANCH  25  29
ENDBRANCH  21  23
ENDBRANCH  19  21
ENDBRANCH  18  19
BRANCH  18  33
HETATM   33  C   UNL     1     -10.701  13.627  67.053  1.00  0.00    -0.278 A  
HETATM   34  C   UNL     1     -11.873  14.507  64.649  1.00  0.00    -0.462 A  
HETATM   35  C   UNL     1      -9.921  14.222  66.042  1.00  0.00    -0.337 A  
HETATM   36  C   UNL     1     -10.505  14.662  64.854  1.00  0.00    -0.415 A  
HETATM   37  C   UNL     1     -12.659  13.910  65.631  1.00  0.00    -0.553 A  
HETATM   38  C   UNL     1     -12.080  13.475  66.825  1.00  0.00    -0.425 A  
ENDBRANCH  18  33
ENDBRANCH  15  18
ENDBRANCH  12  14
TORSDOF 7
ENDMDL
MODEL       67
REMARK 921   NORMALIZED FREE ENERGY PREDICTED BY IDOCK:   -6.29 KCAL/MOL
REMARK 922        TOTAL FREE ENERGY PREDICTED BY IDOCK:  -10.38 KCAL/MOL
REMARK 923 INTER-LIGAND FREE ENERGY PREDICTED BY IDOCK:   -8.93 KCAL/MOL
REMARK 924 INTRA-LIGAND FREE ENERGY PREDICTED BY IDOCK:   -1.45 KCAL/MOL
REMARK 927      BINDING AFFINITY PREDICTED BY RF-SCORE:    0.00 PKD
ROOT
HETATM    1  C   UNL     1     -10.246  15.275  69.303  1.00  0.00    -0.250 C  
HETATM    2  S   UNL     1      -8.573  15.071  68.584  1.00  0.00    -0.181 SA 
HETATM    3  C   UNL     1      -9.063  15.582  66.876  1.00  0.00    -0.241 C  
HETATM    4  CA  UNL     1     -10.372  16.394  67.047  1.00  0.00    -0.293 C  
HETATM    5  C   UNL     1      -9.288  14.293  66.062  1.00  0.00    -0.143 C  
HETATM    6  C   UNL     1      -7.900  16.336  66.222  1.00  0.00    -0.140 C  
HETATM    7  C   UNL     1     -10.182  17.910  67.234  1.00  0.00    -0.358 C  
HETATM    8  N   UNL     1     -11.080  15.845  68.219  1.00  0.00    -0.330 N  
HETATM    9  OXT UNL     1      -9.635  18.645  66.423  1.00  0.00    -0.322 OA 
HETATM   10  O   UNL     1     -10.727  18.402  68.375  1.00  0.00    -0.216 OA 
HETATM   11  C   UNL     1     -11.818  14.695  68.066  1.00  0.00    -0.311 C  
HETATM   12  CA  UNL     1     -11.192  14.047  69.322  1.00  0.00    -0.261 C  
HETATM   13  O   UNL     1     -12.520  14.332  67.152  1.00  0.00    -0.266 OA 
ENDROOT
BRANCH  12  14
HETATM   14  N   UNL     1     -10.571  12.709  69.142  1.00  0.00    -0.439 N  
HETATM   15  C   UNL     1     -11.352  11.574  69.050  1.00  0.00    -0.276 C  
HETATM   16  H   UNL     1      -9.556  12.627  69.086  1.00  0.00     0.000 HD 
HETATM   17  O   UNL     1     -12.580  11.657  69.129  1.00  0.00    -0.108 OA 
BRANCH  15  18
HETATM   18  CA  UNL     1     -10.616  10.213  69.020  1.00  0.00    -0.223 C  
BRANCH  18  19
HETATM   19  N   UNL     1     -11.131   9.432  67.899  1.00  0.00    -0.503 N  
HETATM   20  H   UNL     1     -12.129   9.464  67.690  1.00  0.00     0.000 HD 
BRANCH  19  21
HETATM   21  C   UNL     1     -10.319   8.660  67.122  1.00  0.00    -0.299 C  
HETATM   22  O   UNL     1      -9.886   9.041  66.035  1.00  0.00    -0.277 OA 
BRANCH  21  23
HETATM   23  N   UNL     1     -10.006   7.417  67.625  1.00  0.00    -0.156 N  
HETATM   24  C   UNL     1     -10.526   5.611  69.065  1.00  0.00    -0.251 C  
HETATM   25  N   UNL     1      -9.083   5.844  68.935  1.00  0.00    -0.120 N  
HETATM   26  C   UNL     1     -11.042   6.431  67.886  1.00  0.00    -0.270 C  
HETATM   27  O   UNL     1      -7.706   7.505  68.030  1.00  0.00    -0.111 OA 
HETATM   28  C   UNL     1      -8.799   6.990  68.174  1.00  0.00    -0.129 C  
BRANCH  25  29
HETATM   29  S   UNL     1      -7.994   4.815  69.638  1.00  0.00    -0.066 S  
HETATM   30  O   UNL     1      -8.746   3.769  70.300  1.00  0.00    -0.069 OA 
HETATM   31  C   UNL     1      -7.244   5.808  70.914  1.00  0.00    -0.080 C  
HETATM   32  O   UNL     1      -6.977   4.485  68.666  1.00  0.00    -0.050 OA 
ENDBRANCH  25  29
ENDBRANCH  21  23
ENDBRANCH  19  21
ENDBRANCH  18  19
BRANCH  18  33
HETATM   33  C   UNL     1     -10.662   9.442  70.331  1.00  0.00    -0.317 A  
HETATM   34  C   UNL     1     -10.826   7.963  72.721  1.00  0.00    -0.451 A  
HETATM   35  C   UNL     1     -11.909   9.033  70.845  1.00  0.00    -0.302 A  
HETATM   36  C   UNL     1     -11.987   8.305  72.032  1.00  0.00    -0.405 A  
HETATM   37  C   UNL     1      -9.585   8.349  72.222  1.00  0.00    -0.374 A  
HETATM   38  C   UNL     1      -9.501   9.084  71.038  1.00  0.00    -0.342 A  
ENDBRANCH  18  33
ENDBRANCH  15  18
ENDBRANCH  12  14
TORSDOF 7
ENDMDL
MODEL       68
REMARK 921   NORMALIZED FREE ENERGY PREDICTED BY IDOCK:   -6.25 KCAL/MOL
REMARK 922        TOTAL FREE ENERGY PREDICTED BY IDOCK:  -10.33 KCAL/MOL
REMARK 923 INTER-LIGAND FREE ENERGY PREDICTED BY IDOCK:   -8.90 KCAL/MOL
REMARK 924 INTRA-LIGAND FREE ENERGY PREDICTED BY IDOCK:   -1.43 KCAL/MOL
REMARK 927      BINDING AFFINITY PREDICTED BY RF-SCORE:    0.00 PKD
ROOT
HETATM    1  C   UNL     1      -9.363  13.966  67.840  1.00  0.00    -0.208 C  
HETATM    2  S   UNL     1      -9.551  13.979  66.018  1.00  0.00    -0.144 SA 
HETATM    3  C   UNL     1     -11.047  15.066  66.013  1.00  0.00    -0.329 C  
HETATM    4  CA  UNL     1     -11.026  15.803  67.376  1.00  0.00    -0.279 C  
HETATM    5  C   UNL     1     -12.277  14.148  65.874  1.00  0.00    -0.458 C  
HETATM    6  C   UNL     1     -11.011  15.968  64.774  1.00  0.00    -0.373 C  
HETATM    7  C   UNL     1     -10.287  17.154  67.378  1.00  0.00    -0.333 C  
HETATM    8  N   UNL     1     -10.392  14.899  68.355  1.00  0.00    -0.229 N  
HETATM    9  OXT UNL     1     -10.588  18.109  66.677  1.00  0.00    -0.351 OA 
HETATM   10  O   UNL     1      -9.276  17.231  68.280  1.00  0.00    -0.249 OA 
HETATM   11  C   UNL     1     -11.147  13.896  68.914  1.00  0.00    -0.266 C  
HETATM   12  CA  UNL     1     -10.057  12.834  68.642  1.00  0.00    -0.124 C  
HETATM   13  O   UNL     1     -12.300  13.894  69.276  1.00  0.00    -0.323 OA 
ENDROOT
BRANCH  12  14
HETATM   14  N   UNL     1     -10.478  11.626  67.886  1.00  0.00    -0.187 N  
HETATM   15  C   UNL     1      -9.586  10.601  67.638  1.00  0.00    -0.161 C  
HETATM   16  H   UNL     1     -11.437  11.552  67.547  1.00  0.00     0.000 HD 
HETATM   17  O   UNL     1      -8.421  10.683  68.032  1.00  0.00    -0.115 OA 
BRANCH  15  18
HETATM   18  CA  UNL     1     -10.068   9.457  66.713  1.00  0.00    -0.256 C  
BRANCH  18  19
HETATM   19  N   UNL     1      -9.637   8.185  67.287  1.00  0.00    -0.153 N  
HETATM   20  H   UNL     1      -8.640   7.982  67.347  1.00  0.00     0.000 HD 
BRANCH  19  21
HETATM   21  C   UNL     1     -10.528   7.260  67.744  1.00  0.00    -0.228 C  
HETATM   22  O   UNL     1     -11.173   6.534  66.989  1.00  0.00    -0.397 OA 
BRANCH  21  23
HETATM   23  N   UNL     1     -10.670   7.183  69.111  1.00  0.00    -0.216 N  
HETATM   24  C   UNL     1     -10.364   8.152  71.250  1.00  0.00    -0.199 C  
HETATM   25  N   UNL     1     -10.210   6.692  71.255  1.00  0.00    -0.199 N  
HETATM   26  C   UNL     1     -11.036   8.352  69.895  1.00  0.00    -0.166 C  
HETATM   27  O   UNL     1     -10.035   4.999  69.649  1.00  0.00    -0.201 OA 
HETATM   28  C   UNL     1     -10.277   6.150  69.960  1.00  0.00    -0.196 C  
BRANCH  25  29
HETATM   29  S   UNL     1      -9.993   5.868  72.673  1.00  0.00    -0.178 S  
HETATM   30  O   UNL     1     -11.170   5.052  72.889  1.00  0.00    -0.270 OA 
HETATM   31  C   UNL     1     -10.012   7.152  73.909  1.00  0.00    -0.318 C  
HETATM   32  O   UNL     1      -8.677   5.271  72.663  1.00  0.00    -0.120 OA 
ENDBRANCH  25  29
ENDBRANCH  21  23
ENDBRANCH  19  21
ENDBRANCH  18  19
BRANCH  18  33
HETATM   33  C   UNL     1      -9.650   9.606  65.258  1.00  0.00    -0.347 A  
HETATM   34  C   UNL     1      -8.881   9.984  62.576  1.00  0.00    -0.254 A  
HETATM   35  C   UNL     1     -10.171  10.673  64.498  1.00  0.00    -0.399 A  
HETATM   36  C   UNL     1      -9.792  10.854  63.168  1.00  0.00    -0.392 A  
HETATM   37  C   UNL     1      -8.347   8.930  63.314  1.00  0.00    -0.180 A  
HETATM   38  C   UNL     1      -8.728   8.741  64.644  1.00  0.00    -0.103 A  
ENDBRANCH  18  33
ENDBRANCH  15  18
ENDBRANCH  12  14
TORSDOF 7
ENDMDL
MODEL       69
REMARK 921   NORMALIZED FREE ENERGY PREDICTED BY IDOCK:   -6.23 KCAL/MOL
REMARK 922        TOTAL FREE ENERGY PREDICTED BY IDOCK:  -10.30 KCAL/MOL
REMARK 923 INTER-LIGAND FREE ENERGY PREDICTED BY IDOCK:   -8.94 KCAL/MOL
REMARK 924 INTRA-LIGAND FREE ENERGY PREDICTED BY IDOCK:   -1.36 KCAL/MOL
REMARK 927      BINDING AFFINITY PREDICTED BY RF-SCORE:    0.00 PKD
ROOT
HETATM    1  C   UNL     1      -8.209  11.080  66.321  1.00  0.00    -0.164 C  
HETATM    2  S   UNL     1      -7.193  11.100  67.845  1.00  0.00    -0.093 SA 
HETATM    3  C   UNL     1      -7.658   9.391  68.377  1.00  0.00    -0.082 C  
HETATM    4  CA  UNL     1      -8.158   8.681  67.094  1.00  0.00    -0.100 C  
HETATM    5  C   UNL     1      -8.775   9.530  69.429  1.00  0.00    -0.166 C  
HETATM    6  C   UNL     1      -6.460   8.736  69.071  1.00  0.00    -0.048 C  
HETATM    7  C   UNL     1      -7.076   7.927  66.300  1.00  0.00    -0.063 C  
HETATM    8  N   UNL     1      -8.766   9.711  66.229  1.00  0.00    -0.140 N  
HETATM    9  OXT UNL     1      -6.402   7.009  66.747  1.00  0.00    -0.045 OA 
HETATM   10  O   UNL     1      -6.952   8.330  65.010  1.00  0.00    -0.072 OA 
HETATM   11  C   UNL     1     -10.051  10.122  66.497  1.00  0.00    -0.234 C  
HETATM   12  CA  UNL     1      -9.663  11.616  66.399  1.00  0.00    -0.214 C  
HETATM   13  O   UNL     1     -11.015   9.490  66.857  1.00  0.00    -0.093 OA 
ENDROOT
BRANCH  12  14
HETATM   14  N   UNL     1     -10.009  12.471  67.564  1.00  0.00    -0.199 N  
HETATM   15  C   UNL     1     -11.290  12.960  67.726  1.00  0.00    -0.299 C  
HETATM   16  H   UNL     1      -9.292  12.699  68.253  1.00  0.00     0.000 HD 
HETATM   17  O   UNL     1     -12.163  12.701  66.895  1.00  0.00    -0.489 OA 
BRANCH  15  18
HETATM   18  CA  UNL     1     -11.520  13.965  68.880  1.00  0.00    -0.301 C  
BRANCH  18  19
HETATM   19  N   UNL     1     -10.231  14.532  69.266  1.00  0.00    -0.396 N  
HETATM   20  H   UNL     1      -9.435  13.908  69.394  1.00  0.00     0.000 HD 
BRANCH  19  21
HETATM   21  C   UNL     1     -10.059  15.870  69.459  1.00  0.00    -0.277 C  
HETATM   22  O   UNL     1     -10.804  16.535  70.179  1.00  0.00    -0.321 OA 
BRANCH  21  23
HETATM   23  N   UNL     1      -8.998  16.444  68.798  1.00  0.00    -0.235 N  
HETATM   24  C   UNL     1      -6.805  17.337  68.852  1.00  0.00    -0.226 C  
HETATM   25  N   UNL     1      -7.681  18.025  67.896  1.00  0.00    -0.225 N  
HETATM   26  C   UNL     1      -7.627  16.080  69.120  1.00  0.00    -0.225 C  
HETATM   27  O   UNL     1      -9.968  18.048  67.402  1.00  0.00    -0.302 OA 
HETATM   28  C   UNL     1      -9.005  17.561  67.964  1.00  0.00    -0.258 C  
BRANCH  25  29
HETATM   29  S   UNL     1      -7.082  19.196  66.891  1.00  0.00    -0.206 S  
HETATM   30  O   UNL     1      -7.263  18.737  65.529  1.00  0.00    -0.493 OA 
HETATM   31  C   UNL     1      -5.331  19.177  67.223  1.00  0.00    -0.158 C  
HETATM   32  O   UNL     1      -7.607  20.475  67.310  1.00  0.00    -0.314 OA 
ENDBRANCH  25  29
ENDBRANCH  21  23
ENDBRANCH  19  21
ENDBRANCH  18  19
BRANCH  18  33
HETATM   33  C   UNL     1     -12.280  13.394  70.069  1.00  0.00    -0.367 A  
HETATM   34  C   UNL     1     -13.611  12.272  72.282  1.00  0.00    -0.299 A  
HETATM   35  C   UNL     1     -12.229  12.009  70.319  1.00  0.00    -0.348 A  
HETATM   36  C   UNL     1     -12.893  11.455  71.413  1.00  0.00    -0.502 A  
HETATM   37  C   UNL     1     -13.664  13.646  72.058  1.00  0.00    -0.583 A  
HETATM   38  C   UNL     1     -13.005  14.204  70.960  1.00  0.00    -0.399 A  
ENDBRANCH  18  33
ENDBRANCH  15  18
ENDBRANCH  12  14
TORSDOF 7
ENDMDL
MODEL       70
REMARK 921   NORMALIZED FREE ENERGY PREDICTED BY IDOCK:   -6.21 KCAL/MOL
REMARK 922        TOTAL FREE ENERGY PREDICTED BY IDOCK:  -10.28 KCAL/MOL
REMARK 923 INTER-LIGAND FREE ENERGY PREDICTED BY IDOCK:   -8.61 KCAL/MOL
REMARK 924 INTRA-LIGAND FREE ENERGY PREDICTED BY IDOCK:   -1.67 KCAL/MOL
REMARK 927      BINDING AFFINITY PREDICTED BY RF-SCORE:    0.00 PKD
ROOT
HETATM    1  C   UNL     1     -10.589  13.619  66.107  1.00  0.00    -0.291 C  
HETATM    2  S   UNL     1     -11.909  13.835  67.359  1.00  0.00    -0.396 SA 
HETATM    3  C   UNL     1     -10.964  15.044  68.390  1.00  0.00    -0.264 C  
HETATM    4  CA  UNL     1      -9.883  15.634  67.449  1.00  0.00    -0.225 C  
HETATM    5  C   UNL     1     -10.341  14.257  69.559  1.00  0.00     0.089 C  
HETATM    6  C   UNL     1     -11.939  16.061  68.994  1.00  0.00    -0.159 C  
HETATM    7  C   UNL     1     -10.300  16.906  66.689  1.00  0.00    -0.299 C  
HETATM    8  N   UNL     1      -9.526  14.582  66.477  1.00  0.00    -0.277 N  
HETATM    9  OXT UNL     1     -10.643  17.951  67.224  1.00  0.00    -0.373 OA 
HETATM   10  O   UNL     1     -10.209  16.802  65.339  1.00  0.00    -0.599 OA 
HETATM   11  C   UNL     1      -8.647  13.597  66.863  1.00  0.00    -0.104 C  
HETATM   12  CA  UNL     1      -9.560  12.476  66.313  1.00  0.00    -0.245 C  
HETATM   13  O   UNL     1      -7.653  13.660  67.546  1.00  0.00    -0.161 OA 
ENDROOT
BRANCH  12  14
HETATM   14  N   UNL     1      -9.929  11.394  67.262  1.00  0.00    -0.192 N  
HETATM   15  C   UNL     1     -10.062  10.090  66.829  1.00  0.00    -0.226 C  
HETATM   16  H   UNL     1     -10.086  11.616  68.245  1.00  0.00     0.000 HD 
HETATM   17  O   UNL     1      -9.886   9.809  65.641  1.00  0.00    -0.277 OA 
BRANCH  15  18
HETATM   18  CA  UNL     1     -10.598   9.059  67.852  1.00  0.00    -0.196 C  
BRANCH  18  19
HETATM   19  N   UNL     1     -10.310   9.547  69.197  1.00  0.00    -0.199 N  
HETATM   20  H   UNL     1      -9.422  10.017  69.373  1.00  0.00     0.000 HD 
BRANCH  19  21
HETATM   21  C   UNL     1     -11.191   9.394  70.225  1.00  0.00    -0.246 C  
HETATM   22  O   UNL     1     -12.203  10.085  70.338  1.00  0.00    -0.246 OA 
BRANCH  21  23
HETATM   23  N   UNL     1     -10.886   8.414  71.142  1.00  0.00    -0.229 N  
HETATM   24  C   UNL     1      -9.283   7.324  72.502  1.00  0.00    -0.139 C  
HETATM   25  N   UNL     1     -10.300   6.409  71.970  1.00  0.00    -0.195 N  
HETATM   26  C   UNL     1      -9.953   8.667  72.229  1.00  0.00    -0.291 C  
HETATM   27  O   UNL     1     -12.005   6.512  70.370  1.00  0.00    -0.397 OA 
HETATM   28  C   UNL     1     -11.169   7.051  71.071  1.00  0.00    -0.274 C  
BRANCH  25  29
HETATM   29  S   UNL     1     -10.339   4.822  72.437  1.00  0.00    -0.196 S  
HETATM   30  O   UNL     1     -11.520   4.637  73.254  1.00  0.00    -0.320 OA 
HETATM   31  C   UNL     1      -8.928   4.669  73.514  1.00  0.00    -0.104 C  
HETATM   32  O   UNL     1     -10.112   3.994  71.275  1.00  0.00    -0.163 OA 
ENDBRANCH  25  29
ENDBRANCH  21  23
ENDBRANCH  19  21
ENDBRANCH  18  19
BRANCH  18  33
HETATM   33  C   UNL     1     -10.099   7.638  67.633  1.00  0.00    -0.249 A  
HETATM   34  C   UNL     1      -9.227   5.007  67.140  1.00  0.00    -0.124 A  
HETATM   35  C   UNL     1     -10.936   6.706  66.987  1.00  0.00    -0.463 A  
HETATM   36  C   UNL     1     -10.504   5.402  66.749  1.00  0.00    -0.347 A  
HETATM   37  C   UNL     1      -8.381   5.917  67.769  1.00  0.00    -0.108 A  
HETATM   38  C   UNL     1      -8.813   7.222  68.016  1.00  0.00    -0.129 A  
ENDBRANCH  18  33
ENDBRANCH  15  18
ENDBRANCH  12  14
TORSDOF 7
ENDMDL
MODEL       71
REMARK 921   NORMALIZED FREE ENERGY PREDICTED BY IDOCK:   -6.19 KCAL/MOL
REMARK 922        TOTAL FREE ENERGY PREDICTED BY IDOCK:  -10.25 KCAL/MOL
REMARK 923 INTER-LIGAND FREE ENERGY PREDICTED BY IDOCK:   -9.43 KCAL/MOL
REMARK 924 INTRA-LIGAND FREE ENERGY PREDICTED BY IDOCK:   -0.82 KCAL/MOL
REMARK 927      BINDING AFFINITY PREDICTED BY RF-SCORE:    0.00 PKD
ROOT
HETATM    1  C   UNL     1      -8.201   7.822  72.766  1.00  0.00    -0.126 C  
HETATM    2  S   UNL     1      -9.878   7.501  73.431  1.00  0.00    -0.317 SA 
HETATM    3  C   UNL     1      -9.996   5.782  72.762  1.00  0.00    -0.176 C  
HETATM    4  CA  UNL     1      -8.534   5.336  72.507  1.00  0.00    -0.118 C  
HETATM    5  C   UNL     1     -10.810   5.857  71.455  1.00  0.00    -0.325 C  
HETATM    6  C   UNL     1     -10.790   4.912  73.742  1.00  0.00    -0.376 C  
HETATM    7  C   UNL     1      -7.854   4.618  73.687  1.00  0.00    -0.094 C  
HETATM    8  N   UNL     1      -7.760   6.544  72.161  1.00  0.00    -0.097 N  
HETATM    9  OXT UNL     1      -8.259   3.581  74.194  1.00  0.00    -0.077 OA 
HETATM   10  O   UNL     1      -6.706   5.208  74.108  1.00  0.00    -0.072 OA 
HETATM   11  C   UNL     1      -7.832   7.028  70.876  1.00  0.00    -0.096 C  
HETATM   12  CA  UNL     1      -8.079   8.474  71.364  1.00  0.00    -0.140 C  
HETATM   13  O   UNL     1      -7.874   6.442  69.820  1.00  0.00    -0.109 OA 
ENDROOT
BRANCH  12  14
HETATM   14  N   UNL     1      -9.282   9.162  70.828  1.00  0.00    -0.245 N  
HETATM   15  C   UNL     1      -9.259   9.759  69.584  1.00  0.00    -0.223 C  
HETATM   16  H   UNL     1     -10.136   9.192  71.386  1.00  0.00     0.000 HD 
HETATM   17  O   UNL     1      -8.230   9.739  68.905  1.00  0.00    -0.108 OA 
BRANCH  15  18
HETATM   18  CA  UNL     1     -10.504  10.582  69.174  1.00  0.00    -0.228 C  
BRANCH  18  19
HETATM   19  N   UNL     1     -10.072  11.928  68.810  1.00  0.00    -0.369 N  
HETATM   20  H   UNL     1      -9.317  12.365  69.338  1.00  0.00     0.000 HD 
BRANCH  19  21
HETATM   21  C   UNL     1     -10.647  12.620  67.786  1.00  0.00    -0.220 C  
HETATM   22  O   UNL     1     -11.326  12.072  66.918  1.00  0.00    -0.306 OA 
BRANCH  21  23
HETATM   23  N   UNL     1     -10.425  13.978  67.774  1.00  0.00    -0.234 N  
HETATM   24  C   UNL     1     -11.144  16.166  68.324  1.00  0.00    -0.348 C  
HETATM   25  N   UNL     1     -10.409  16.106  67.055  1.00  0.00    -0.287 N  
HETATM   26  C   UNL     1     -10.781  14.807  68.915  1.00  0.00    -0.252 C  
HETATM   27  O   UNL     1      -9.628  14.428  65.624  1.00  0.00    -0.255 OA 
HETATM   28  C   UNL     1     -10.095  14.787  66.688  1.00  0.00    -0.264 C  
BRANCH  25  29
HETATM   29  S   UNL     1     -10.035  17.490  66.228  1.00  0.00    -0.285 S  
HETATM   30  O   UNL     1      -8.591  17.603  66.197  1.00  0.00    -0.445 OA 
HETATM   31  C   UNL     1     -10.639  18.788  67.289  1.00  0.00    -0.442 C  
HETATM   32  O   UNL     1     -10.800  17.515  65.003  1.00  0.00    -0.727 OA 
ENDBRANCH  25  29
ENDBRANCH  21  23
ENDBRANCH  19  21
ENDBRANCH  18  19
BRANCH  18  33
HETATM   33  C   UNL     1     -11.620  10.593  70.209  1.00  0.00    -0.424 A  
HETATM   34  C   UNL     1     -13.643  10.529  72.166  1.00  0.00    -0.167 A  
HETATM   35  C   UNL     1     -12.140   9.369  70.674  1.00  0.00    -0.191 A  
HETATM   36  C   UNL     1     -13.146   9.340  71.640  1.00  0.00    -0.451 A  
HETATM   37  C   UNL     1     -13.134  11.749  71.727  1.00  0.00    -0.480 A  
HETATM   38  C   UNL     1     -12.131  11.783  70.756  1.00  0.00    -0.352 A  
ENDBRANCH  18  33
ENDBRANCH  15  18
ENDBRANCH  12  14
TORSDOF 7
ENDMDL
MODEL       72
REMARK 921   NORMALIZED FREE ENERGY PREDICTED BY IDOCK:   -6.19 KCAL/MOL
REMARK 922        TOTAL FREE ENERGY PREDICTED BY IDOCK:  -10.24 KCAL/MOL
REMARK 923 INTER-LIGAND FREE ENERGY PREDICTED BY IDOCK:   -8.75 KCAL/MOL
REMARK 924 INTRA-LIGAND FREE ENERGY PREDICTED BY IDOCK:   -1.49 KCAL/MOL
REMARK 927      BINDING AFFINITY PREDICTED BY RF-SCORE:    0.00 PKD
ROOT
HETATM    1  C   UNL     1      -9.373  16.903  69.291  1.00  0.00    -0.031 C  
HETATM    2  S   UNL     1      -8.119  15.753  68.613  1.00  0.00    -0.174 SA 
HETATM    3  C   UNL     1      -7.738  16.782  67.124  1.00  0.00    -0.181 C  
HETATM    4  CA  UNL     1      -8.206  18.215  67.481  1.00  0.00    -0.236 C  
HETATM    5  C   UNL     1      -8.539  16.192  65.947  1.00  0.00    -0.039 C  
HETATM    6  C   UNL     1      -6.252  16.639  66.780  1.00  0.00    -0.134 C  
HETATM    7  C   UNL     1      -7.135  19.111  68.130  1.00  0.00    -0.258 C  
HETATM    8  N   UNL     1      -9.354  18.087  68.400  1.00  0.00    -0.293 N  
HETATM    9  OXT UNL     1      -6.071  19.408  67.605  1.00  0.00    -0.200 OA 
HETATM   10  O   UNL     1      -7.486  19.606  69.344  1.00  0.00    -0.322 OA 
HETATM   11  C   UNL     1     -10.595  17.817  67.872  1.00  0.00    -0.382 C  
HETATM   12  CA  UNL     1     -10.857  16.689  68.896  1.00  0.00    -0.321 C  
HETATM   13  O   UNL     1     -11.121  18.224  66.864  1.00  0.00    -0.061 OA 
ENDROOT
BRANCH  12  14
HETATM   14  N   UNL     1     -11.226  15.360  68.341  1.00  0.00    -0.299 N  
HETATM   15  C   UNL     1     -11.690  14.354  69.165  1.00  0.00    -0.317 C  
HETATM   16  H   UNL     1     -11.136  15.189  67.339  1.00  0.00     0.000 HD 
HETATM   17  O   UNL     1     -11.792  14.544  70.379  1.00  0.00    -0.280 OA 
BRANCH  15  18
HETATM   18  CA  UNL     1     -11.902  12.961  68.526  1.00  0.00    -0.313 C  
BRANCH  18  19
HETATM   19  N   UNL     1     -11.056  11.996  69.223  1.00  0.00    -0.382 N  
HETATM   20  H   UNL     1     -10.044  12.107  69.183  1.00  0.00     0.000 HD 
BRANCH  19  21
HETATM   21  C   UNL     1     -11.580  10.952  69.926  1.00  0.00    -0.331 C  
HETATM   22  O   UNL     1     -12.723  10.968  70.379  1.00  0.00    -0.288 OA 
BRANCH  21  23
HETATM   23  N   UNL     1     -10.750   9.869  70.105  1.00  0.00    -0.286 N  
HETATM   24  C   UNL     1      -9.020   8.805  71.322  1.00  0.00    -0.231 C  
HETATM   25  N   UNL     1      -8.971   8.516  69.884  1.00  0.00    -0.143 N  
HETATM   26  C   UNL     1     -10.428   9.382  71.437  1.00  0.00    -0.288 C  
HETATM   27  O   UNL     1     -10.018   9.323  67.954  1.00  0.00    -0.170 OA 
HETATM   28  C   UNL     1      -9.930   9.249  69.164  1.00  0.00    -0.179 C  
BRANCH  25  29
HETATM   29  S   UNL     1      -7.878   7.432  69.276  1.00  0.00    -0.117 S  
HETATM   30  O   UNL     1      -7.165   6.855  70.398  1.00  0.00    -0.072 OA 
HETATM   31  C   UNL     1      -6.720   8.458  68.392  1.00  0.00    -0.064 C  
HETATM   32  O   UNL     1      -8.552   6.584  68.320  1.00  0.00    -0.116 OA 
ENDBRANCH  25  29
ENDBRANCH  21  23
ENDBRANCH  19  21
ENDBRANCH  18  19
BRANCH  18  33
HETATM   33  C   UNL     1     -11.700  12.923  67.018  1.00  0.00    -0.447 A  
HETATM   34  C   UNL     1     -11.292  12.758  64.237  1.00  0.00    -0.416 A  
HETATM   35  C   UNL     1     -10.604  12.215  66.487  1.00  0.00    -0.269 A  
HETATM   36  C   UNL     1     -10.401  12.139  65.109  1.00  0.00    -0.311 A  
HETATM   37  C   UNL     1     -12.388  13.454  64.742  1.00  0.00    -0.444 A  
HETATM   38  C   UNL     1     -12.591  13.538  66.121  1.00  0.00    -0.355 A  
ENDBRANCH  18  33
ENDBRANCH  15  18
ENDBRANCH  12  14
TORSDOF 7
ENDMDL
MODEL       73
REMARK 921   NORMALIZED FREE ENERGY PREDICTED BY IDOCK:   -6.18 KCAL/MOL
REMARK 922        TOTAL FREE ENERGY PREDICTED BY IDOCK:  -10.24 KCAL/MOL
REMARK 923 INTER-LIGAND FREE ENERGY PREDICTED BY IDOCK:   -8.71 KCAL/MOL
REMARK 924 INTRA-LIGAND FREE ENERGY PREDICTED BY IDOCK:   -1.53 KCAL/MOL
REMARK 927      BINDING AFFINITY PREDICTED BY RF-SCORE:    0.00 PKD
ROOT
HETATM    1  C   UNL     1     -12.225  12.848  65.321  1.00  0.00    -0.476 C  
HETATM    2  S   UNL     1     -11.795  13.601  66.934  1.00  0.00    -0.419 SA 
HETATM    3  C   UNL     1     -10.461  14.689  66.260  1.00  0.00    -0.298 C  
HETATM    4  CA  UNL     1     -10.757  14.816  64.745  1.00  0.00    -0.358 C  
HETATM    5  C   UNL     1      -9.118  13.981  66.526  1.00  0.00    -0.173 C  
HETATM    6  C   UNL     1     -10.442  16.007  67.042  1.00  0.00    -0.307 C  
HETATM    7  C   UNL     1     -11.653  16.004  64.350  1.00  0.00    -0.212 C  
HETATM    8  N   UNL     1     -11.400  13.559  64.316  1.00  0.00    -0.385 N  
HETATM    9  OXT UNL     1     -11.382  17.177  64.566  1.00  0.00    -1.034 OA 
HETATM   10  O   UNL     1     -12.778  15.652  63.678  1.00  0.00    -0.461 OA 
HETATM   11  C   UNL     1     -10.607  12.464  64.065  1.00  0.00    -0.413 C  
HETATM   12  CA  UNL     1     -11.510  11.534  64.909  1.00  0.00    -0.053 C  
HETATM   13  O   UNL     1      -9.524  12.387  63.537  1.00  0.00    -0.126 OA 
ENDROOT
BRANCH  12  14
HETATM   14  N   UNL     1     -10.843  10.758  65.987  1.00  0.00    -0.100 N  
HETATM   15  C   UNL     1      -9.936   9.762  65.682  1.00  0.00    -0.282 C  
HETATM   16  H   UNL     1     -11.057  10.964  66.963  1.00  0.00     0.000 HD 
HETATM   17  O   UNL     1      -9.677   9.496  64.507  1.00  0.00    -0.064 OA 
BRANCH  15  18
HETATM   18  CA  UNL     1      -9.410   8.906  66.859  1.00  0.00    -0.168 C  
BRANCH  18  19
HETATM   19  N   UNL     1     -10.554   8.353  67.580  1.00  0.00    -0.417 N  
HETATM   20  H   UNL     1     -11.198   8.990  68.048  1.00  0.00     0.000 HD 
BRANCH  19  21
HETATM   21  C   UNL     1     -10.787   7.012  67.645  1.00  0.00    -0.242 C  
HETATM   22  O   UNL     1     -11.384   6.401  66.759  1.00  0.00    -0.257 OA 
BRANCH  21  23
HETATM   23  N   UNL     1     -10.315   6.371  68.767  1.00  0.00    -0.180 N  
HETATM   24  C   UNL     1      -9.856   4.355  69.922  1.00  0.00    -0.220 C  
HETATM   25  N   UNL     1     -10.291   5.439  70.811  1.00  0.00    -0.244 N  
HETATM   26  C   UNL     1      -9.532   5.150  68.661  1.00  0.00    -0.133 C  
HETATM   27  O   UNL     1     -11.212   7.575  70.558  1.00  0.00    -0.267 OA 
HETATM   28  C   UNL     1     -10.672   6.587  70.097  1.00  0.00    -0.252 C  
BRANCH  25  29
HETATM   29  S   UNL     1     -10.294   5.237  72.453  1.00  0.00    -0.215 S  
HETATM   30  O   UNL     1      -9.732   3.931  72.733  1.00  0.00    -0.128 OA 
HETATM   31  C   UNL     1     -12.027   5.158  72.862  1.00  0.00     0.025 C  
HETATM   32  O   UNL     1      -9.739   6.421  73.065  1.00  0.00    -0.153 OA 
ENDBRANCH  25  29
ENDBRANCH  21  23
ENDBRANCH  19  21
ENDBRANCH  18  19
BRANCH  18  33
HETATM   33  C   UNL     1      -8.441   9.631  67.782  1.00  0.00    -0.125 A  
HETATM   34  C   UNL     1      -6.663  11.058  69.434  1.00  0.00    -0.112 A  
HETATM   35  C   UNL     1      -7.586  10.615  67.246  1.00  0.00    -0.100 A  
HETATM   36  C   UNL     1      -6.703  11.316  68.066  1.00  0.00    -0.062 A  
HETATM   37  C   UNL     1      -7.508  10.097  69.983  1.00  0.00    -0.171 A  
HETATM   38  C   UNL     1      -8.390   9.387  69.165  1.00  0.00    -0.125 A  
ENDBRANCH  18  33
ENDBRANCH  15  18
ENDBRANCH  12  14
TORSDOF 7
ENDMDL
MODEL       74
REMARK 921   NORMALIZED FREE ENERGY PREDICTED BY IDOCK:   -6.18 KCAL/MOL
REMARK 922        TOTAL FREE ENERGY PREDICTED BY IDOCK:  -10.22 KCAL/MOL
REMARK 923 INTER-LIGAND FREE ENERGY PREDICTED BY IDOCK:   -8.63 KCAL/MOL
REMARK 924 INTRA-LIGAND FREE ENERGY PREDICTED BY IDOCK:   -1.59 KCAL/MOL
REMARK 927      BINDING AFFINITY PREDICTED BY RF-SCORE:    0.00 PKD
ROOT
HETATM    1  C   UNL     1      -9.326   8.561  72.378  1.00  0.00    -0.278 C  
HETATM    2  S   UNL     1     -10.987   8.916  71.691  1.00  0.00    -0.367 SA 
HETATM    3  C   UNL     1     -11.256   7.215  71.019  1.00  0.00    -0.269 C  
HETATM    4  CA  UNL     1     -10.288   6.300  71.809  1.00  0.00    -0.206 C  
HETATM    5  C   UNL     1     -10.911   7.259  69.518  1.00  0.00    -0.224 C  
HETATM    6  C   UNL     1     -12.742   6.858  71.132  1.00  0.00    -0.331 C  
HETATM    7  C   UNL     1     -10.875   5.675  73.088  1.00  0.00    -0.281 C  
HETATM    8  N   UNL     1      -9.107   7.111  72.163  1.00  0.00    -0.130 N  
HETATM    9  OXT UNL     1     -11.855   4.943  73.114  1.00  0.00    -0.279 OA 
HETATM   10  O   UNL     1     -10.177   5.960  74.216  1.00  0.00    -0.249 OA 
HETATM   11  C   UNL     1      -8.135   7.312  71.211  1.00  0.00    -0.102 C  
HETATM   12  CA  UNL     1      -8.088   8.833  71.485  1.00  0.00    -0.122 C  
HETATM   13  O   UNL     1      -7.685   6.558  70.382  1.00  0.00    -0.094 OA 
ENDROOT
BRANCH  12  14
HETATM   14  N   UNL     1      -8.279   9.726  70.313  1.00  0.00    -0.235 N  
HETATM   15  C   UNL     1      -7.196  10.186  69.591  1.00  0.00    -0.127 C  
HETATM   16  H   UNL     1      -9.222  10.003  70.038  1.00  0.00     0.000 HD 
HETATM   17  O   UNL     1      -6.051   9.869  69.920  1.00  0.00    -0.041 OA 
BRANCH  15  18
HETATM   18  CA  UNL     1      -7.479  11.232  68.486  1.00  0.00    -0.115 C  
BRANCH  18  19
HETATM   19  N   UNL     1      -8.309  12.292  69.052  1.00  0.00    -0.326 N  
HETATM   20  H   UNL     1      -8.798  12.122  69.930  1.00  0.00     0.000 HD 
BRANCH  19  21
HETATM   21  C   UNL     1      -8.449  13.503  68.441  1.00  0.00    -0.143 C  
HETATM   22  O   UNL     1      -7.543  14.335  68.407  1.00  0.00    -0.108 OA 
BRANCH  21  23
HETATM   23  N   UNL     1      -9.672  13.748  67.860  1.00  0.00    -0.222 N  
HETATM   24  C   UNL     1     -11.910  13.084  67.464  1.00  0.00    -0.355 C  
HETATM   25  N   UNL     1     -11.307  13.778  66.319  1.00  0.00    -0.314 N  
HETATM   26  C   UNL     1     -10.910  13.442  68.559  1.00  0.00    -0.265 C  
HETATM   27  O   UNL     1      -9.164  14.485  65.701  1.00  0.00    -0.037 OA 
HETATM   28  C   UNL     1      -9.946  14.057  66.529  1.00  0.00    -0.284 C  
BRANCH  25  29
HETATM   29  S   UNL     1     -12.210  14.149  64.983  1.00  0.00    -0.448 S  
HETATM   30  O   UNL     1     -13.603  13.966  65.334  1.00  0.00    -0.571 OA 
HETATM   31  C   UNL     1     -11.788  12.862  63.824  1.00  0.00    -0.504 C  
HETATM   32  O   UNL     1     -11.746  15.408  64.448  1.00  0.00    -0.387 OA 
ENDBRANCH  25  29
ENDBRANCH  21  23
ENDBRANCH  19  21
ENDBRANCH  18  19
BRANCH  18  33
HETATM   33  C   UNL     1      -8.071  10.654  67.209  1.00  0.00    -0.116 A  
HETATM   34  C   UNL     1      -9.255   9.625  64.871  1.00  0.00    -0.306 A  
HETATM   35  C   UNL     1      -9.405  10.201  67.211  1.00  0.00    -0.173 A  
HETATM   36  C   UNL     1      -9.987   9.687  66.053  1.00  0.00    -0.344 A  
HETATM   37  C   UNL     1      -7.938  10.078  64.846  1.00  0.00    -0.140 A  
HETATM   38  C   UNL     1      -7.348  10.587  66.005  1.00  0.00    -0.137 A  
ENDBRANCH  18  33
ENDBRANCH  15  18
ENDBRANCH  12  14
TORSDOF 7
ENDMDL
MODEL       75
REMARK 921   NORMALIZED FREE ENERGY PREDICTED BY IDOCK:   -6.16 KCAL/MOL
REMARK 922        TOTAL FREE ENERGY PREDICTED BY IDOCK:  -10.21 KCAL/MOL
REMARK 923 INTER-LIGAND FREE ENERGY PREDICTED BY IDOCK:   -8.76 KCAL/MOL
REMARK 924 INTRA-LIGAND FREE ENERGY PREDICTED BY IDOCK:   -1.44 KCAL/MOL
REMARK 927      BINDING AFFINITY PREDICTED BY RF-SCORE:    0.00 PKD
ROOT
HETATM    1  C   UNL     1     -11.186  14.851  68.743  1.00  0.00    -0.275 C  
HETATM    2  S   UNL     1      -9.419  14.372  68.694  1.00  0.00    -0.162 SA 
HETATM    3  C   UNL     1      -9.169  14.841  66.923  1.00  0.00    -0.245 C  
HETATM    4  CA  UNL     1     -10.309  15.836  66.594  1.00  0.00    -0.291 C  
HETATM    5  C   UNL     1      -9.275  13.548  66.090  1.00  0.00     0.006 C  
HETATM    6  C   UNL     1      -7.747  15.382  66.741  1.00  0.00    -0.045 C  
HETATM    7  C   UNL     1      -9.971  17.320  66.829  1.00  0.00    -0.301 C  
HETATM    8  N   UNL     1     -11.471  15.464  67.425  1.00  0.00    -0.258 N  
HETATM    9  OXT UNL     1      -9.061  17.920  66.274  1.00  0.00    -0.398 OA 
HETATM   10  O   UNL     1     -10.813  17.951  67.687  1.00  0.00    -0.375 OA 
HETATM   11  C   UNL     1     -12.268  14.422  67.016  1.00  0.00    -0.239 C  
HETATM   12  CA  UNL     1     -12.250  13.771  68.418  1.00  0.00    -0.146 C  
HETATM   13  O   UNL     1     -12.636  14.106  65.909  1.00  0.00    -0.486 OA 
ENDROOT
BRANCH  12  14
HETATM   14  N   UNL     1     -11.819  12.351  68.487  1.00  0.00    -0.323 N  
HETATM   15  C   UNL     1     -11.878  11.651  69.676  1.00  0.00    -0.352 C  
HETATM   16  H   UNL     1     -11.475  11.886  67.646  1.00  0.00     0.000 HD 
HETATM   17  O   UNL     1     -12.281  12.203  70.702  1.00  0.00    -0.372 OA 
BRANCH  15  18
HETATM   18  CA  UNL     1     -11.265  10.230  69.688  1.00  0.00    -0.269 C  
BRANCH  18  19
HETATM   19  N   UNL     1     -10.781   9.945  71.036  1.00  0.00    -0.319 N  
HETATM   20  H   UNL     1      -9.926  10.395  71.360  1.00  0.00     0.000 HD 
BRANCH  19  21
HETATM   21  C   UNL     1     -11.438   9.094  71.874  1.00  0.00    -0.353 C  
HETATM   22  O   UNL     1     -12.594   9.293  72.245  1.00  0.00    -0.369 OA 
BRANCH  21  23
HETATM   23  N   UNL     1     -10.731   7.989  72.289  1.00  0.00    -0.271 N  
HETATM   24  C   UNL     1      -8.681   6.810  72.415  1.00  0.00    -0.127 C  
HETATM   25  N   UNL     1      -9.843   5.925  72.275  1.00  0.00    -0.161 N  
HETATM   26  C   UNL     1      -9.374   8.114  72.799  1.00  0.00    -0.274 C  
HETATM   27  O   UNL     1     -12.119   6.176  71.789  1.00  0.00    -0.277 OA 
HETATM   28  C   UNL     1     -11.035   6.644  72.082  1.00  0.00    -0.245 C  
BRANCH  25  29
HETATM   29  S   UNL     1      -9.670   4.281  72.352  1.00  0.00    -0.158 S  
HETATM   30  O   UNL     1     -10.000   3.746  71.047  1.00  0.00    -0.167 OA 
HETATM   31  C   UNL     1     -10.964   3.776  73.468  1.00  0.00    -0.247 C  
HETATM   32  O   UNL     1      -8.399   3.980  72.970  1.00  0.00    -0.091 OA 
ENDBRANCH  25  29
ENDBRANCH  21  23
ENDBRANCH  19  21
ENDBRANCH  18  19
BRANCH  18  33
HETATM   33  C   UNL     1     -10.198   9.996  68.629  1.00  0.00    -0.198 A  
HETATM   34  C   UNL     1      -8.155   9.549  66.744  1.00  0.00    -0.109 A  
HETATM   35  C   UNL     1      -8.887  10.459  68.858  1.00  0.00    -0.161 A  
HETATM   36  C   UNL     1      -7.878  10.241  67.920  1.00  0.00    -0.101 A  
HETATM   37  C   UNL     1      -9.442   9.074  66.505  1.00  0.00    -0.266 A  
HETATM   38  C   UNL     1     -10.457   9.296  67.438  1.00  0.00    -0.340 A  
ENDBRANCH  18  33
ENDBRANCH  15  18
ENDBRANCH  12  14
TORSDOF 7
ENDMDL
MODEL       76
REMARK 921   NORMALIZED FREE ENERGY PREDICTED BY IDOCK:   -6.12 KCAL/MOL
REMARK 922        TOTAL FREE ENERGY PREDICTED BY IDOCK:  -10.15 KCAL/MOL
REMARK 923 INTER-LIGAND FREE ENERGY PREDICTED BY IDOCK:   -8.45 KCAL/MOL
REMARK 924 INTRA-LIGAND FREE ENERGY PREDICTED BY IDOCK:   -1.70 KCAL/MOL
REMARK 927      BINDING AFFINITY PREDICTED BY RF-SCORE:    0.00 PKD
ROOT
HETATM    1  C   UNL     1      -8.522   7.412  69.755  1.00  0.00    -0.136 C  
HETATM    2  S   UNL     1      -9.017   8.616  71.045  1.00  0.00    -0.216 SA 
HETATM    3  C   UNL     1     -10.738   7.966  71.226  1.00  0.00    -0.228 C  
HETATM    4  CA  UNL     1     -10.696   6.520  70.671  1.00  0.00    -0.248 C  
HETATM    5  C   UNL     1     -11.659   8.876  70.390  1.00  0.00    -0.123 C  
HETATM    6  C   UNL     1     -11.176   8.098  72.689  1.00  0.00    -0.447 C  
HETATM    7  C   UNL     1     -10.385   5.429  71.711  1.00  0.00    -0.212 C  
HETATM    8  N   UNL     1      -9.670   6.487  69.610  1.00  0.00    -0.156 N  
HETATM    9  OXT UNL     1     -11.063   5.205  72.704  1.00  0.00    -0.247 OA 
HETATM   10  O   UNL     1      -9.299   4.671  71.413  1.00  0.00    -0.136 OA 
HETATM   11  C   UNL     1      -9.999   6.954  68.359  1.00  0.00    -0.147 C  
HETATM   12  CA  UNL     1      -8.714   7.809  68.268  1.00  0.00    -0.127 C  
HETATM   13  O   UNL     1     -11.022   6.842  67.727  1.00  0.00    -0.241 OA 
ENDROOT
BRANCH  12  14
HETATM   14  N   UNL     1      -8.895   9.253  67.968  1.00  0.00    -0.128 N  
HETATM   15  C   UNL     1      -9.117   9.684  66.675  1.00  0.00    -0.148 C  
HETATM   16  H   UNL     1      -8.855   9.935  68.726  1.00  0.00     0.000 HD 
HETATM   17  O   UNL     1      -9.157   8.872  65.748  1.00  0.00    -0.197 OA 
BRANCH  15  18
HETATM   18  CA  UNL     1      -9.140  11.213  66.437  1.00  0.00    -0.187 C  
BRANCH  18  19
HETATM   19  N   UNL     1      -9.210  11.884  67.732  1.00  0.00    -0.178 N  
HETATM   20  H   UNL     1     -10.111  11.955  68.204  1.00  0.00     0.000 HD 
BRANCH  19  21
HETATM   21  C   UNL     1      -8.108  12.419  68.329  1.00  0.00    -0.166 C  
HETATM   22  O   UNL     1      -7.322  11.743  68.993  1.00  0.00    -0.108 OA 
BRANCH  21  23
HETATM   23  N   UNL     1      -7.919  13.770  68.149  1.00  0.00    -0.138 N  
HETATM   24  C   UNL     1      -6.959  15.809  68.876  1.00  0.00    -0.135 C  
HETATM   25  N   UNL     1      -8.282  15.984  68.265  1.00  0.00    -0.155 N  
HETATM   26  C   UNL     1      -6.632  14.391  68.418  1.00  0.00    -0.104 C  
HETATM   27  O   UNL     1     -10.031  14.591  67.576  1.00  0.00    -0.222 OA 
HETATM   28  C   UNL     1      -8.885  14.755  67.949  1.00  0.00    -0.167 C  
BRANCH  25  29
HETATM   29  S   UNL     1      -8.904  17.497  68.013  1.00  0.00    -0.265 S  
HETATM   30  O   UNL     1      -8.846  17.761  66.590  1.00  0.00    -0.249 OA 
HETATM   31  C   UNL     1      -7.717  18.572  68.795  1.00  0.00    -0.280 C  
HETATM   32  O   UNL     1     -10.154  17.606  68.730  1.00  0.00    -0.348 OA 
ENDBRANCH  25  29
ENDBRANCH  21  23
ENDBRANCH  19  21
ENDBRANCH  18  19
BRANCH  18  33
HETATM   33  C   UNL     1     -10.226  11.685  65.481  1.00  0.00    -0.302 A  
HETATM   34  C   UNL     1     -12.262  12.629  63.781  1.00  0.00    -0.600 A  
HETATM   35  C   UNL     1     -11.454  12.137  66.003  1.00  0.00    -0.427 A  
HETATM   36  C   UNL     1     -12.463  12.599  65.158  1.00  0.00    -0.531 A  
HETATM   37  C   UNL     1     -11.050  12.197  63.247  1.00  0.00    -0.408 A  
HETATM   38  C   UNL     1     -10.040  11.728  64.088  1.00  0.00    -0.344 A  
ENDBRANCH  18  33
ENDBRANCH  15  18
ENDBRANCH  12  14
TORSDOF 7
ENDMDL
MODEL       77
REMARK 921   NORMALIZED FREE ENERGY PREDICTED BY IDOCK:   -6.10 KCAL/MOL
REMARK 922        TOTAL FREE ENERGY PREDICTED BY IDOCK:  -10.12 KCAL/MOL
REMARK 923 INTER-LIGAND FREE ENERGY PREDICTED BY IDOCK:   -8.48 KCAL/MOL
REMARK 924 INTRA-LIGAND FREE ENERGY PREDICTED BY IDOCK:   -1.64 KCAL/MOL
REMARK 927      BINDING AFFINITY PREDICTED BY RF-SCORE:    0.00 PKD
ROOT
HETATM    1  C   UNL     1     -10.937  15.466  66.510  1.00  0.00    -0.271 C  
HETATM    2  S   UNL     1     -11.650  15.194  68.175  1.00  0.00    -0.304 SA 
HETATM    3  C   UNL     1     -10.333  16.129  69.075  1.00  0.00    -0.258 C  
HETATM    4  CA  UNL     1      -9.688  17.058  68.015  1.00  0.00    -0.260 C  
HETATM    5  C   UNL     1      -9.330  15.094  69.619  1.00  0.00    -0.091 C  
HETATM    6  C   UNL     1     -10.955  16.838  70.283  1.00  0.00     0.079 C  
HETATM    7  C   UNL     1     -10.323  18.455  67.896  1.00  0.00    -0.401 C  
HETATM    8  N   UNL     1      -9.780  16.369  66.713  1.00  0.00    -0.241 N  
HETATM    9  OXT UNL     1     -10.390  19.266  68.809  1.00  0.00    -0.345 OA 
HETATM   10  O   UNL     1     -10.774  18.755  66.651  1.00  0.00    -0.389 OA 
HETATM   11  C   UNL     1      -8.857  15.394  66.416  1.00  0.00    -0.305 C  
HETATM   12  CA  UNL     1      -9.952  14.406  65.950  1.00  0.00    -0.328 C  
HETATM   13  O   UNL     1      -7.673  15.342  66.648  1.00  0.00    -0.059 OA 
ENDROOT
BRANCH  12  14
HETATM   14  N   UNL     1      -9.957  13.067  66.595  1.00  0.00    -0.244 N  
HETATM   15  C   UNL     1     -10.854  12.096  66.197  1.00  0.00    -0.282 C  
HETATM   16  H   UNL     1      -9.290  12.863  67.339  1.00  0.00     0.000 HD 
HETATM   17  O   UNL     1     -11.673  12.333  65.307  1.00  0.00    -0.362 OA 
BRANCH  15  18
HETATM   18  CA  UNL     1     -10.890  10.789  67.026  1.00  0.00    -0.252 C  
BRANCH  18  19
HETATM   19  N   UNL     1     -10.593  11.114  68.418  1.00  0.00    -0.183 N  
HETATM   20  H   UNL     1     -11.338  11.483  69.010  1.00  0.00     0.000 HD 
BRANCH  19  21
HETATM   21  C   UNL     1      -9.351  10.940  68.952  1.00  0.00    -0.160 C  
HETATM   22  O   UNL     1      -8.408  11.685  68.686  1.00  0.00    -0.151 OA 
BRANCH  21  23
HETATM   23  N   UNL     1      -9.206   9.876  69.811  1.00  0.00    -0.226 N  
HETATM   24  C   UNL     1      -8.606   7.614  70.171  1.00  0.00    -0.140 C  
HETATM   25  N   UNL     1      -9.725   8.050  71.014  1.00  0.00    -0.159 N  
HETATM   26  C   UNL     1      -8.080   8.963  69.694  1.00  0.00    -0.104 C  
HETATM   27  O   UNL     1     -11.135   9.914  71.131  1.00  0.00    -0.350 OA 
HETATM   28  C   UNL     1     -10.143   9.355  70.702  1.00  0.00    -0.291 C  
BRANCH  25  29
HETATM   29  S   UNL     1     -10.351   7.051  72.174  1.00  0.00    -0.193 S  
HETATM   30  O   UNL     1      -9.565   5.834  72.172  1.00  0.00    -0.150 OA 
HETATM   31  C   UNL     1     -11.964   6.633  71.540  1.00  0.00    -0.352 C  
HETATM   32  O   UNL     1     -10.527   7.809  73.391  1.00  0.00    -0.338 OA 
ENDBRANCH  25  29
ENDBRANCH  21  23
ENDBRANCH  19  21
ENDBRANCH  18  19
BRANCH  18  33
HETATM   33  C   UNL     1     -10.000   9.678  66.489  1.00  0.00    -0.313 A  
HETATM   34  C   UNL     1      -8.433   7.561  65.493  1.00  0.00    -0.129 A  
HETATM   35  C   UNL     1     -10.241   8.349  66.888  1.00  0.00    -0.383 A  
HETATM   36  C   UNL     1      -9.460   7.303  66.397  1.00  0.00    -0.185 A  
HETATM   37  C   UNL     1      -8.187   8.868  65.078  1.00  0.00    -0.154 A  
HETATM   38  C   UNL     1      -8.962   9.919  65.572  1.00  0.00    -0.209 A  
ENDBRANCH  18  33
ENDBRANCH  15  18
ENDBRANCH  12  14
TORSDOF 7
ENDMDL
MODEL       78
REMARK 921   NORMALIZED FREE ENERGY PREDICTED BY IDOCK:   -6.06 KCAL/MOL
REMARK 922        TOTAL FREE ENERGY PREDICTED BY IDOCK:  -10.06 KCAL/MOL
REMARK 923 INTER-LIGAND FREE ENERGY PREDICTED BY IDOCK:   -8.69 KCAL/MOL
REMARK 924 INTRA-LIGAND FREE ENERGY PREDICTED BY IDOCK:   -1.37 KCAL/MOL
REMARK 927      BINDING AFFINITY PREDICTED BY RF-SCORE:    0.00 PKD
ROOT
HETATM    1  C   UNL     1      -8.185   8.399  69.360  1.00  0.00    -0.116 C  
HETATM    2  S   UNL     1      -8.723   9.174  70.930  1.00  0.00    -0.183 SA 
HETATM    3  C   UNL     1     -10.265   8.167  71.093  1.00  0.00    -0.195 C  
HETATM    4  CA  UNL     1     -10.034   6.912  70.214  1.00  0.00    -0.179 C  
HETATM    5  C   UNL     1     -11.430   9.030  70.569  1.00  0.00    -0.248 C  
HETATM    6  C   UNL     1     -10.534   7.893  72.576  1.00  0.00    -0.363 C  
HETATM    7  C   UNL     1      -9.407   5.709  70.942  1.00  0.00    -0.160 C  
HETATM    8  N   UNL     1      -9.158   7.314  69.096  1.00  0.00    -0.138 N  
HETATM    9  OXT UNL     1      -9.905   5.147  71.907  1.00  0.00    -0.166 OA 
HETATM   10  O   UNL     1      -8.248   5.268  70.390  1.00  0.00    -0.099 OA 
HETATM   11  C   UNL     1      -9.718   7.960  68.019  1.00  0.00    -0.159 C  
HETATM   12  CA  UNL     1      -8.627   9.056  68.026  1.00  0.00    -0.129 C  
HETATM   13  O   UNL     1     -10.775   7.782  67.462  1.00  0.00    -0.250 OA 
ENDROOT
BRANCH  12  14
HETATM   14  N   UNL     1      -9.099  10.464  68.087  1.00  0.00    -0.139 N  
HETATM   15  C   UNL     1      -8.993  11.293  66.988  1.00  0.00    -0.154 C  
HETATM   16  H   UNL     1      -9.506  10.823  68.951  1.00  0.00     0.000 HD 
HETATM   17  O   UNL     1      -8.493  10.875  65.942  1.00  0.00    -0.162 OA 
BRANCH  15  18
HETATM   18  CA  UNL     1      -9.366  12.781  67.190  1.00  0.00    -0.216 C  
BRANCH  18  19
HETATM   19  N   UNL     1      -9.672  12.996  68.602  1.00  0.00    -0.403 N  
HETATM   20  H   UNL     1      -9.331  12.325  69.289  1.00  0.00     0.000 HD 
BRANCH  19  21
HETATM   21  C   UNL     1     -10.400  14.067  69.028  1.00  0.00    -0.125 C  
HETATM   22  O   UNL     1     -11.606  13.996  69.260  1.00  0.00    -0.268 OA 
BRANCH  21  23
HETATM   23  N   UNL     1      -9.705  15.244  69.187  1.00  0.00    -0.231 N  
HETATM   24  C   UNL     1      -9.394  17.520  68.612  1.00  0.00    -0.277 C  
HETATM   25  N   UNL     1      -8.133  16.822  68.891  1.00  0.00    -0.247 N  
HETATM   26  C   UNL     1     -10.392  16.526  69.197  1.00  0.00    -0.316 C  
HETATM   27  O   UNL     1      -7.457  14.605  69.216  1.00  0.00    -0.146 OA 
HETATM   28  C   UNL     1      -8.328  15.448  69.112  1.00  0.00    -0.242 C  
BRANCH  25  29
HETATM   29  S   UNL     1      -6.699  17.646  68.923  1.00  0.00    -0.243 S  
HETATM   30  O   UNL     1      -6.009  17.274  70.142  1.00  0.00    -0.238 OA 
HETATM   31  C   UNL     1      -7.197  19.347  69.101  1.00  0.00    -0.342 C  
HETATM   32  O   UNL     1      -6.052  17.497  67.639  1.00  0.00    -0.146 OA 
ENDBRANCH  25  29
ENDBRANCH  21  23
ENDBRANCH  19  21
ENDBRANCH  18  19
BRANCH  18  33
HETATM   33  C   UNL     1     -10.475  13.282  66.275  1.00  0.00    -0.289 A  
HETATM   34  C   UNL     1     -12.454  14.251  64.523  1.00  0.00    -0.357 A  
HETATM   35  C   UNL     1     -10.333  14.533  65.644  1.00  0.00    -0.367 A  
HETATM   36  C   UNL     1     -11.318  15.013  64.780  1.00  0.00    -0.409 A  
HETATM   37  C   UNL     1     -12.606  13.006  65.130  1.00  0.00    -0.530 A  
HETATM   38  C   UNL     1     -11.626  12.524  66.000  1.00  0.00    -0.456 A  
ENDBRANCH  18  33
ENDBRANCH  15  18
ENDBRANCH  12  14
TORSDOF 7
ENDMDL
MODEL       79
REMARK 921   NORMALIZED FREE ENERGY PREDICTED BY IDOCK:   -6.06 KCAL/MOL
REMARK 922        TOTAL FREE ENERGY PREDICTED BY IDOCK:  -10.06 KCAL/MOL
REMARK 923 INTER-LIGAND FREE ENERGY PREDICTED BY IDOCK:   -8.95 KCAL/MOL
REMARK 924 INTRA-LIGAND FREE ENERGY PREDICTED BY IDOCK:   -1.10 KCAL/MOL
REMARK 927      BINDING AFFINITY PREDICTED BY RF-SCORE:    0.00 PKD
ROOT
HETATM    1  C   UNL     1     -12.166  13.010  65.513  1.00  0.00    -0.469 C  
HETATM    2  S   UNL     1     -11.789  13.761  67.141  1.00  0.00    -0.411 SA 
HETATM    3  C   UNL     1     -10.428  14.844  66.514  1.00  0.00    -0.297 C  
HETATM    4  CA  UNL     1     -10.671  14.973  64.990  1.00  0.00    -0.427 C  
HETATM    5  C   UNL     1      -9.098  14.130  66.826  1.00  0.00    -0.266 C  
HETATM    6  C   UNL     1     -10.430  16.161  67.297  1.00  0.00    -0.309 C  
HETATM    7  C   UNL     1     -11.548  16.165  64.565  1.00  0.00    -0.164 C  
HETATM    8  N   UNL     1     -11.304  13.718  64.538  1.00  0.00    -0.375 N  
HETATM    9  OXT UNL     1     -11.280  17.337  64.791  1.00  0.00    -0.890 OA 
HETATM   10  O   UNL     1     -12.651  15.818  63.855  1.00  0.00    -0.705 OA 
HETATM   11  C   UNL     1     -10.508  12.620  64.314  1.00  0.00    -0.392 C  
HETATM   12  CA  UNL     1     -11.442  11.694  65.126  1.00  0.00    -0.111 C  
HETATM   13  O   UNL     1      -9.407  12.540  63.823  1.00  0.00     0.114 OA 
ENDROOT
BRANCH  12  14
HETATM   14  N   UNL     1     -10.816  10.915  66.225  1.00  0.00    -0.179 N  
HETATM   15  C   UNL     1      -9.950   9.875  65.950  1.00  0.00    -0.277 C  
HETATM   16  H   UNL     1     -11.028  11.151  67.195  1.00  0.00     0.000 HD 
HETATM   17  O   UNL     1      -9.695   9.573  64.783  1.00  0.00    -0.169 OA 
BRANCH  15  18
HETATM   18  CA  UNL     1      -9.469   9.024  67.149  1.00  0.00    -0.152 C  
BRANCH  18  19
HETATM   19  N   UNL     1      -8.232   9.605  67.665  1.00  0.00    -0.114 N  
HETATM   20  H   UNL     1      -7.429   9.690  67.042  1.00  0.00     0.000 HD 
BRANCH  19  21
HETATM   21  C   UNL     1      -8.119  10.038  68.952  1.00  0.00    -0.111 C  
HETATM   22  O   UNL     1      -7.651  11.138  69.241  1.00  0.00    -0.121 OA 
BRANCH  21  23
HETATM   23  N   UNL     1      -8.561   9.168  69.923  1.00  0.00    -0.136 N  
HETATM   24  C   UNL     1      -8.501   7.018  70.912  1.00  0.00    -0.134 C  
HETATM   25  N   UNL     1      -9.833   7.633  70.958  1.00  0.00    -0.175 N  
HETATM   26  C   UNL     1      -7.649   8.235  70.566  1.00  0.00    -0.076 C  
HETATM   27  O   UNL     1     -10.873   9.501  70.008  1.00  0.00    -0.227 OA 
HETATM   28  C   UNL     1      -9.875   8.853  70.262  1.00  0.00    -0.183 C  
BRANCH  25  29
HETATM   29  S   UNL     1     -11.077   6.898  71.765  1.00  0.00    -0.253 S  
HETATM   30  O   UNL     1     -11.597   7.851  72.724  1.00  0.00    -0.383 OA 
HETATM   31  C   UNL     1     -10.270   5.608  72.693  1.00  0.00    -0.185 C  
HETATM   32  O   UNL     1     -11.953   6.279  70.797  1.00  0.00    -0.262 OA 
ENDBRANCH  25  29
ENDBRANCH  21  23
ENDBRANCH  19  21
ENDBRANCH  18  19
BRANCH  18  33
HETATM   33  C   UNL     1      -9.329   7.538  66.851  1.00  0.00    -0.197 A  
HETATM   34  C   UNL     1      -8.986   4.788  66.355  1.00  0.00    -0.113 A  
HETATM   35  C   UNL     1      -8.042   6.984  66.698  1.00  0.00    -0.110 A  
HETATM   36  C   UNL     1      -7.876   5.623  66.447  1.00  0.00    -0.101 A  
HETATM   37  C   UNL     1     -10.266   5.315  66.514  1.00  0.00    -0.293 A  
HETATM   38  C   UNL     1     -10.438   6.679  66.759  1.00  0.00    -0.298 A  
ENDBRANCH  18  33
ENDBRANCH  15  18
ENDBRANCH  12  14
TORSDOF 7
ENDMDL
MODEL       80
REMARK 921   NORMALIZED FREE ENERGY PREDICTED BY IDOCK:   -6.06 KCAL/MOL
REMARK 922        TOTAL FREE ENERGY PREDICTED BY IDOCK:  -10.06 KCAL/MOL
REMARK 923 INTER-LIGAND FREE ENERGY PREDICTED BY IDOCK:   -8.89 KCAL/MOL
REMARK 924 INTRA-LIGAND FREE ENERGY PREDICTED BY IDOCK:   -1.17 KCAL/MOL
REMARK 927      BINDING AFFINITY PREDICTED BY RF-SCORE:    0.00 PKD
ROOT
HETATM    1  C   UNL     1     -12.194  12.779  66.455  1.00  0.00    -0.172 C  
HETATM    2  S   UNL     1     -11.900  14.032  67.759  1.00  0.00    -0.372 SA 
HETATM    3  C   UNL     1     -10.469  14.830  66.903  1.00  0.00    -0.277 C  
HETATM    4  CA  UNL     1     -10.609  14.439  65.410  1.00  0.00    -0.365 C  
HETATM    5  C   UNL     1      -9.184  14.254  67.529  1.00  0.00    -0.197 C  
HETATM    6  C   UNL     1     -10.481  16.334  67.195  1.00  0.00    -0.297 C  
HETATM    7  C   UNL     1     -11.420  15.425  64.549  1.00  0.00    -0.311 C  
HETATM    8  N   UNL     1     -11.250  13.110  65.362  1.00  0.00    -0.289 N  
HETATM    9  OXT UNL     1     -11.132  16.602  64.386  1.00  0.00    -0.985 OA 
HETATM   10  O   UNL     1     -12.485  14.866  63.920  1.00  0.00    -0.806 OA 
HETATM   11  C   UNL     1     -10.474  11.995  65.577  1.00  0.00    -0.269 C  
HETATM   12  CA  UNL     1     -11.487  11.404  66.584  1.00  0.00    -0.045 C  
HETATM   13  O   UNL     1      -9.347  11.747  65.221  1.00  0.00    -0.168 OA 
ENDROOT
BRANCH  12  14
HETATM   14  N   UNL     1     -10.957  11.037  67.923  1.00  0.00    -0.242 N  
HETATM   15  C   UNL     1     -10.541   9.748  68.189  1.00  0.00    -0.231 C  
HETATM   16  H   UNL     1     -10.900  11.745  68.655  1.00  0.00     0.000 HD 
HETATM   17  O   UNL     1     -10.615   8.879  67.317  1.00  0.00    -0.283 OA 
BRANCH  15  18
HETATM   18  CA  UNL     1     -10.150   9.421  69.650  1.00  0.00    -0.206 C  
BRANCH  18  19
HETATM   19  N   UNL     1      -9.492   8.117  69.674  1.00  0.00    -0.159 N  
HETATM   20  H   UNL     1     -10.065   7.274  69.649  1.00  0.00     0.000 HD 
BRANCH  19  21
HETATM   21  C   UNL     1      -8.136   7.993  69.730  1.00  0.00    -0.115 C  
HETATM   22  O   UNL     1      -7.395   8.944  69.976  1.00  0.00    -0.049 OA 
BRANCH  21  23
HETATM   23  N   UNL     1      -7.634   6.734  69.491  1.00  0.00    -0.097 N  
HETATM   24  C   UNL     1      -5.838   5.197  69.624  1.00  0.00    -0.017 C  
HETATM   25  N   UNL     1      -6.652   5.024  68.415  1.00  0.00    -0.044 N  
HETATM   26  C   UNL     1      -6.766   6.077  70.455  1.00  0.00    -0.053 C  
HETATM   27  O   UNL     1      -8.351   6.211  67.329  1.00  0.00    -0.106 OA 
HETATM   28  C   UNL     1      -7.638   6.018  68.295  1.00  0.00    -0.091 C  
BRANCH  25  29
HETATM   29  S   UNL     1      -6.368   3.768  67.376  1.00  0.00    -0.038 S  
HETATM   30  O   UNL     1      -7.608   3.033  67.230  1.00  0.00    -0.068 OA 
HETATM   31  C   UNL     1      -5.243   2.723  68.281  1.00  0.00    -0.012 C  
HETATM   32  O   UNL     1      -5.676   4.277  66.215  1.00  0.00    -0.017 OA 
ENDBRANCH  25  29
ENDBRANCH  21  23
ENDBRANCH  19  21
ENDBRANCH  18  19
BRANCH  18  33
HETATM   33  C   UNL     1     -11.300   9.507  70.644  1.00  0.00    -0.364 A  
HETATM   34  C   UNL     1     -13.478   9.724  72.414  1.00  0.00    -0.364 A  
HETATM   35  C   UNL     1     -12.043  10.700  70.735  1.00  0.00    -0.474 A  
HETATM   36  C   UNL     1     -13.118  10.807  71.616  1.00  0.00    -0.551 A  
HETATM   37  C   UNL     1     -12.762   8.532  72.330  1.00  0.00    -0.420 A  
HETATM   38  C   UNL     1     -11.680   8.423  71.453  1.00  0.00    -0.332 A  
ENDBRANCH  18  33
ENDBRANCH  15  18
ENDBRANCH  12  14
TORSDOF 7
ENDMDL
MODEL       81
REMARK 921   NORMALIZED FREE ENERGY PREDICTED BY IDOCK:   -6.04 KCAL/MOL
REMARK 922        TOTAL FREE ENERGY PREDICTED BY IDOCK:  -10.04 KCAL/MOL
REMARK 923 INTER-LIGAND FREE ENERGY PREDICTED BY IDOCK:   -9.44 KCAL/MOL
REMARK 924 INTRA-LIGAND FREE ENERGY PREDICTED BY IDOCK:   -0.60 KCAL/MOL
REMARK 927      BINDING AFFINITY PREDICTED BY RF-SCORE:    0.00 PKD
ROOT
HETATM    1  C   UNL     1     -12.091  14.107  66.338  1.00  0.00    -0.451 C  
HETATM    2  S   UNL     1     -12.097  15.092  67.883  1.00  0.00     0.186 SA 
HETATM    3  C   UNL     1     -10.432  15.846  67.606  1.00  0.00    -0.289 C  
HETATM    4  CA  UNL     1     -10.168  15.719  66.085  1.00  0.00    -0.315 C  
HETATM    5  C   UNL     1      -9.420  15.032  68.435  1.00  0.00    -0.201 C  
HETATM    6  C   UNL     1     -10.428  17.275  68.159  1.00  0.00    -0.382 C  
HETATM    7  C   UNL     1     -10.634  16.917  65.237  1.00  0.00    -0.120 C  
HETATM    8  N   UNL     1     -10.856  14.498  65.620  1.00  0.00    -0.311 N  
HETATM    9  OXT UNL     1     -10.234  18.063  65.380  1.00  0.00    -0.488 OA 
HETATM   10  O   UNL     1     -11.511  16.593  64.253  1.00  0.00    -1.075 OA 
HETATM   11  C   UNL     1     -10.249  13.281  65.823  1.00  0.00    -0.292 C  
HETATM   12  CA  UNL     1     -11.543  12.657  66.394  1.00  0.00    -0.384 C  
HETATM   13  O   UNL     1      -9.086  12.964  65.743  1.00  0.00     0.125 OA 
ENDROOT
BRANCH  12  14
HETATM   14  N   UNL     1     -11.441  12.020  67.733  1.00  0.00    -0.305 N  
HETATM   15  C   UNL     1     -10.796  10.810  67.893  1.00  0.00    -0.264 C  
HETATM   16  H   UNL     1     -11.853  12.483  68.544  1.00  0.00     0.000 HD 
HETATM   17  O   UNL     1     -10.305  10.235  66.919  1.00  0.00    -0.222 OA 
BRANCH  15  18
HETATM   18  CA  UNL     1     -10.873  10.150  69.291  1.00  0.00    -0.235 C  
BRANCH  18  19
HETATM   19  N   UNL     1     -11.265   8.754  69.124  1.00  0.00    -0.413 N  
HETATM   20  H   UNL     1     -12.161   8.541  68.685  1.00  0.00     0.000 HD 
BRANCH  19  21
HETATM   21  C   UNL     1     -10.470   7.726  69.536  1.00  0.00    -0.225 C  
HETATM   22  O   UNL     1     -10.636   7.152  70.611  1.00  0.00    -0.219 OA 
BRANCH  21  23
HETATM   23  N   UNL     1      -9.461   7.361  68.675  1.00  0.00    -0.139 N  
HETATM   24  C   UNL     1      -7.401   7.863  67.619  1.00  0.00    -0.096 C  
HETATM   25  N   UNL     1      -8.313   7.096  66.762  1.00  0.00    -0.113 N  
HETATM   26  C   UNL     1      -8.071   7.665  68.976  1.00  0.00    -0.126 C  
HETATM   27  O   UNL     1     -10.561   6.449  66.825  1.00  0.00    -0.256 OA 
HETATM   28  C   UNL     1      -9.571   6.911  67.360  1.00  0.00    -0.136 C  
BRANCH  25  29
HETATM   29  S   UNL     1      -7.822   6.551  65.279  1.00  0.00    -0.115 S  
HETATM   30  O   UNL     1      -6.380   6.415  65.320  1.00  0.00    -0.036 OA 
HETATM   31  C   UNL     1      -8.188   7.913  64.190  1.00  0.00    -0.027 C  
HETATM   32  O   UNL     1      -8.654   5.433  64.899  1.00  0.00    -0.149 OA 
ENDBRANCH  25  29
ENDBRANCH  21  23
ENDBRANCH  19  21
ENDBRANCH  18  19
BRANCH  18  33
HETATM   33  C   UNL     1     -11.760  10.885  70.286  1.00  0.00    -0.437 A  
HETATM   34  C   UNL     1     -13.419  12.314  72.055  1.00  0.00    -0.418 A  
HETATM   35  C   UNL     1     -11.801  12.293  70.262  1.00  0.00    -0.324 A  
HETATM   36  C   UNL     1     -12.620  12.999  71.143  1.00  0.00    -0.388 A  
HETATM   37  C   UNL     1     -13.401  10.922  72.085  1.00  0.00    -0.294 A  
HETATM   38  C   UNL     1     -12.577  10.211  71.209  1.00  0.00    -0.508 A  
ENDBRANCH  18  33
ENDBRANCH  15  18
ENDBRANCH  12  14
TORSDOF 7
ENDMDL
MODEL       82
REMARK 921   NORMALIZED FREE ENERGY PREDICTED BY IDOCK:   -6.01 KCAL/MOL
REMARK 922        TOTAL FREE ENERGY PREDICTED BY IDOCK:   -9.98 KCAL/MOL
REMARK 923 INTER-LIGAND FREE ENERGY PREDICTED BY IDOCK:   -9.37 KCAL/MOL
REMARK 924 INTRA-LIGAND FREE ENERGY PREDICTED BY IDOCK:   -0.62 KCAL/MOL
REMARK 927      BINDING AFFINITY PREDICTED BY RF-SCORE:    0.00 PKD
ROOT
HETATM    1  C   UNL     1      -9.134  13.803  66.884  1.00  0.00    -0.242 C  
HETATM    2  S   UNL     1     -10.185  12.854  65.723  1.00  0.00    -0.287 SA 
HETATM    3  C   UNL     1     -11.629  14.004  65.828  1.00  0.00    -0.339 C  
HETATM    4  CA  UNL     1     -11.051  15.348  66.339  1.00  0.00    -0.230 C  
HETATM    5  C   UNL     1     -12.629  13.390  66.828  1.00  0.00     0.036 C  
HETATM    6  C   UNL     1     -12.328  14.062  64.465  1.00  0.00    -0.409 C  
HETATM    7  C   UNL     1     -10.602  16.327  65.240  1.00  0.00    -0.336 C  
HETATM    8  N   UNL     1      -9.901  15.029  67.207  1.00  0.00    -0.227 N  
HETATM    9  OXT UNL     1     -11.337  16.781  64.374  1.00  0.00    -1.089 OA 
HETATM   10  O   UNL     1      -9.302  16.706  65.331  1.00  0.00    -0.370 OA 
HETATM   11  C   UNL     1     -10.140  14.643  68.505  1.00  0.00    -0.238 C  
HETATM   12  CA  UNL     1      -9.182  13.434  68.390  1.00  0.00    -0.149 C  
HETATM   13  O   UNL     1     -10.956  15.040  69.301  1.00  0.00    -0.241 OA 
ENDROOT
BRANCH  12  14
HETATM   14  N   UNL     1      -9.744  12.104  68.745  1.00  0.00    -0.405 N  
HETATM   15  C   UNL     1      -8.916  11.060  69.102  1.00  0.00     0.015 C  
HETATM   16  H   UNL     1     -10.754  11.962  68.724  1.00  0.00     0.000 HD 
HETATM   17  O   UNL     1      -7.693  11.215  69.120  1.00  0.00    -0.129 OA 
BRANCH  15  18
HETATM   18  CA  UNL     1      -9.576   9.674  69.304  1.00  0.00    -0.185 C  
BRANCH  18  19
HETATM   19  N   UNL     1      -9.965   9.151  67.998  1.00  0.00    -0.169 N  
HETATM   20  H   UNL     1     -10.128   9.804  67.232  1.00  0.00     0.000 HD 
BRANCH  19  21
HETATM   21  C   UNL     1     -10.117   7.815  67.771  1.00  0.00    -0.189 C  
HETATM   22  O   UNL     1     -10.915   7.371  66.947  1.00  0.00    -0.324 OA 
BRANCH  21  23
HETATM   23  N   UNL     1      -9.321   6.981  68.522  1.00  0.00    -0.136 N  
HETATM   24  C   UNL     1      -7.409   5.594  68.691  1.00  0.00    -0.079 C  
HETATM   25  N   UNL     1      -8.546   5.100  69.477  1.00  0.00    -0.092 N  
HETATM   26  C   UNL     1      -7.872   7.020  68.406  1.00  0.00    -0.122 C  
HETATM   27  O   UNL     1     -10.823   5.605  69.669  1.00  0.00    -0.337 OA 
HETATM   28  C   UNL     1      -9.704   5.869  69.270  1.00  0.00    -0.144 C  
BRANCH  25  29
HETATM   29  S   UNL     1      -8.383   3.785  70.467  1.00  0.00    -0.061 S  
HETATM   30  O   UNL     1      -9.534   2.932  70.253  1.00  0.00    -0.154 OA 
HETATM   31  C   UNL     1      -8.537   4.472  72.104  1.00  0.00    -0.114 C  
HETATM   32  O   UNL     1      -7.044   3.261  70.322  1.00  0.00    -0.037 OA 
ENDBRANCH  25  29
ENDBRANCH  21  23
ENDBRANCH  19  21
ENDBRANCH  18  19
BRANCH  18  33
HETATM   33  C   UNL     1     -10.728   9.665  70.298  1.00  0.00    -0.335 A  
HETATM   34  C   UNL     1     -12.922   9.681  72.062  1.00  0.00    -0.518 A  
HETATM   35  C   UNL     1     -11.724  10.658  70.207  1.00  0.00    -0.433 A  
HETATM   36  C   UNL     1     -12.807  10.667  71.086  1.00  0.00    -0.518 A  
HETATM   37  C   UNL     1     -11.954   8.684  72.160  1.00  0.00    -0.449 A  
HETATM   38  C   UNL     1     -10.865   8.676  71.287  1.00  0.00    -0.327 A  
ENDBRANCH  18  33
ENDBRANCH  15  18
ENDBRANCH  12  14
TORSDOF 7
ENDMDL
MODEL       83
REMARK 921   NORMALIZED FREE ENERGY PREDICTED BY IDOCK:   -5.98 KCAL/MOL
REMARK 922        TOTAL FREE ENERGY PREDICTED BY IDOCK:   -9.94 KCAL/MOL
REMARK 923 INTER-LIGAND FREE ENERGY PREDICTED BY IDOCK:   -8.86 KCAL/MOL
REMARK 924 INTRA-LIGAND FREE ENERGY PREDICTED BY IDOCK:   -1.09 KCAL/MOL
REMARK 927      BINDING AFFINITY PREDICTED BY RF-SCORE:    0.00 PKD
ROOT
HETATM    1  C   UNL     1      -9.012  18.610  68.264  1.00  0.00    -0.318 C  
HETATM    2  S   UNL     1      -7.460  17.877  68.904  1.00  0.00    -0.181 SA 
HETATM    3  C   UNL     1      -6.671  17.681  67.243  1.00  0.00    -0.161 C  
HETATM    4  CA  UNL     1      -7.416  18.671  66.313  1.00  0.00    -0.260 C  
HETATM    5  C   UNL     1      -6.879  16.217  66.810  1.00  0.00    -0.123 C  
HETATM    6  C   UNL     1      -5.161  17.906  67.372  1.00  0.00    -0.140 C  
HETATM    7  C   UNL     1      -6.797  20.077  66.222  1.00  0.00    -0.230 C  
HETATM    8  N   UNL     1      -8.802  18.781  66.808  1.00  0.00    -0.295 N  
HETATM    9  OXT UNL     1      -5.659  20.310  65.837  1.00  0.00    -0.169 OA 
HETATM   10  O   UNL     1      -7.644  21.081  66.564  1.00  0.00    -0.003 OA 
HETATM   11  C   UNL     1      -9.702  17.797  66.474  1.00  0.00    -0.320 C  
HETATM   12  CA  UNL     1     -10.192  17.659  67.934  1.00  0.00    -0.357 C  
HETATM   13  O   UNL     1      -9.849  17.188  65.441  1.00  0.00    -0.490 OA 
ENDROOT
BRANCH  12  14
HETATM   14  N   UNL     1     -10.151  16.295  68.525  1.00  0.00    -0.230 N  
HETATM   15  C   UNL     1     -11.239  15.451  68.429  1.00  0.00    -0.315 C  
HETATM   16  H   UNL     1      -9.308  15.979  69.006  1.00  0.00     0.000 HD 
HETATM   17  O   UNL     1     -12.267  15.825  67.861  1.00  0.00     0.267 OA 
BRANCH  15  18
HETATM   18  CA  UNL     1     -11.162  14.113  69.205  1.00  0.00    -0.272 C  
BRANCH  18  19
HETATM   19  N   UNL     1     -11.308  13.016  68.252  1.00  0.00    -0.268 N  
HETATM   20  H   UNL     1     -12.058  12.339  68.389  1.00  0.00     0.000 HD 
BRANCH  19  21
HETATM   21  C   UNL     1     -10.473  12.870  67.185  1.00  0.00    -0.238 C  
HETATM   22  O   UNL     1     -10.460  13.660  66.242  1.00  0.00    -0.282 OA 
BRANCH  21  23
HETATM   23  N   UNL     1      -9.635  11.779  67.220  1.00  0.00    -0.175 N  
HETATM   24  C   UNL     1      -7.890  10.516  66.235  1.00  0.00    -0.141 C  
HETATM   25  N   UNL     1      -8.889   9.682  66.914  1.00  0.00    -0.130 N  
HETATM   26  C   UNL     1      -8.245  11.886  66.806  1.00  0.00    -0.129 C  
HETATM   27  O   UNL     1     -11.010   9.997  67.851  1.00  0.00    -0.274 OA 
HETATM   28  C   UNL     1      -9.975  10.437  67.387  1.00  0.00    -0.187 C  
BRANCH  25  29
HETATM   29  S   UNL     1      -8.670   8.048  67.058  1.00  0.00    -0.131 S  
HETATM   30  O   UNL     1      -8.548   7.747  68.470  1.00  0.00    -0.128 OA 
HETATM   31  C   UNL     1      -7.069   7.774  66.324  1.00  0.00    -0.070 C  
HETATM   32  O   UNL     1      -9.659   7.376  66.247  1.00  0.00    -0.149 OA 
ENDBRANCH  25  29
ENDBRANCH  21  23
ENDBRANCH  19  21
ENDBRANCH  18  19
BRANCH  18  33
HETATM   33  C   UNL     1     -12.137  14.003  70.368  1.00  0.00    -0.426 A  
HETATM   34  C   UNL     1     -13.998  13.873  72.477  1.00  0.00    -0.565 A  
HETATM   35  C   UNL     1     -12.780  15.165  70.840  1.00  0.00    -0.464 A  
HETATM   36  C   UNL     1     -13.697  15.098  71.888  1.00  0.00    -0.577 A  
HETATM   37  C   UNL     1     -13.381  12.712  72.016  1.00  0.00    -0.555 A  
HETATM   38  C   UNL     1     -12.457  12.775  70.971  1.00  0.00    -0.369 A  
ENDBRANCH  18  33
ENDBRANCH  15  18
ENDBRANCH  12  14
TORSDOF 7
ENDMDL
MODEL       84
REMARK 921   NORMALIZED FREE ENERGY PREDICTED BY IDOCK:   -5.95 KCAL/MOL
REMARK 922        TOTAL FREE ENERGY PREDICTED BY IDOCK:   -9.91 KCAL/MOL
REMARK 923 INTER-LIGAND FREE ENERGY PREDICTED BY IDOCK:   -8.43 KCAL/MOL
REMARK 924 INTRA-LIGAND FREE ENERGY PREDICTED BY IDOCK:   -1.49 KCAL/MOL
REMARK 927      BINDING AFFINITY PREDICTED BY RF-SCORE:    0.00 PKD
ROOT
HETATM    1  C   UNL     1      -6.916  17.017  66.504  1.00  0.00    -0.256 C  
HETATM    2  S   UNL     1      -8.638  17.480  66.085  1.00  0.00    -0.063 SA 
HETATM    3  C   UNL     1      -8.869  18.596  67.540  1.00  0.00    -0.270 C  
HETATM    4  CA  UNL     1      -7.440  18.979  67.999  1.00  0.00    -0.260 C  
HETATM    5  C   UNL     1      -9.622  17.790  68.617  1.00  0.00    -0.322 C  
HETATM    6  C   UNL     1      -9.770  19.769  67.138  1.00  0.00    -0.501 C  
HETATM    7  C   UNL     1      -6.867  20.257  67.359  1.00  0.00    -0.255 C  
HETATM    8  N   UNL     1      -6.556  17.840  67.682  1.00  0.00    -0.179 N  
HETATM    9  OXT UNL     1      -7.375  21.366  67.453  1.00  0.00    -0.493 OA 
HETATM   10  O   UNL     1      -5.693  20.072  66.704  1.00  0.00    -0.171 OA 
HETATM   11  C   UNL     1      -6.538  16.762  68.537  1.00  0.00    -0.161 C  
HETATM   12  CA  UNL     1      -6.685  15.754  67.374  1.00  0.00    -0.194 C  
HETATM   13  O   UNL     1      -6.585  16.720  69.743  1.00  0.00    -0.207 OA 
ENDROOT
BRANCH  12  14
HETATM   14  N   UNL     1      -7.806  14.784  67.472  1.00  0.00    -0.173 N  
HETATM   15  C   UNL     1      -7.561  13.428  67.568  1.00  0.00    -0.169 C  
HETATM   16  H   UNL     1      -8.768  15.123  67.469  1.00  0.00     0.000 HD 
HETATM   17  O   UNL     1      -6.404  13.004  67.560  1.00  0.00    -0.154 OA 
BRANCH  15  18
HETATM   18  CA  UNL     1      -8.787  12.485  67.510  1.00  0.00    -0.184 C  
BRANCH  18  19
HETATM   19  N   UNL     1      -8.386  11.242  66.858  1.00  0.00    -0.149 N  
HETATM   20  H   UNL     1      -7.446  11.168  66.470  1.00  0.00     0.000 HD 
BRANCH  19  21
HETATM   21  C   UNL     1      -9.230  10.176  66.754  1.00  0.00    -0.151 C  
HETATM   22  O   UNL     1      -9.613   9.740  65.669  1.00  0.00    -0.223 OA 
BRANCH  21  23
HETATM   23  N   UNL     1      -9.635   9.609  67.940  1.00  0.00    -0.138 N  
HETATM   24  C   UNL     1     -10.890   9.750  69.943  1.00  0.00    -0.272 C  
HETATM   25  N   UNL     1      -9.627   9.020  70.108  1.00  0.00    -0.181 N  
HETATM   26  C   UNL     1     -10.998   9.769  68.422  1.00  0.00    -0.152 C  
HETATM   27  O   UNL     1      -7.695   8.662  68.837  1.00  0.00    -0.096 OA 
HETATM   28  C   UNL     1      -8.843   9.050  68.942  1.00  0.00    -0.139 C  
BRANCH  25  29
HETATM   29  S   UNL     1      -9.259   8.278  71.540  1.00  0.00    -0.196 S  
HETATM   30  O   UNL     1      -8.821   6.931  71.234  1.00  0.00    -0.134 OA 
HETATM   31  C   UNL     1     -10.837   8.141  72.358  1.00  0.00    -0.339 C  
HETATM   32  O   UNL     1      -8.423   9.162  72.318  1.00  0.00    -0.280 OA 
ENDBRANCH  25  29
ENDBRANCH  21  23
ENDBRANCH  19  21
ENDBRANCH  18  19
BRANCH  18  33
HETATM   33  C   UNL     1     -10.025  13.100  66.871  1.00  0.00    -0.245 A  
HETATM   34  C   UNL     1     -12.292  14.186  65.604  1.00  0.00    -0.473 A  
HETATM   35  C   UNL     1      -9.997  13.440  65.504  1.00  0.00    -0.226 A  
HETATM   36  C   UNL     1     -11.120  13.983  64.881  1.00  0.00    -0.378 A  
HETATM   37  C   UNL     1     -12.342  13.845  66.954  1.00  0.00    -0.331 A  
HETATM   38  C   UNL     1     -11.218  13.308  67.585  1.00  0.00    -0.307 A  
ENDBRANCH  18  33
ENDBRANCH  15  18
ENDBRANCH  12  14
TORSDOF 7
ENDMDL
MODEL       85
REMARK 921   NORMALIZED FREE ENERGY PREDICTED BY IDOCK:   -5.93 KCAL/MOL
REMARK 922        TOTAL FREE ENERGY PREDICTED BY IDOCK:   -9.88 KCAL/MOL
REMARK 923 INTER-LIGAND FREE ENERGY PREDICTED BY IDOCK:   -8.97 KCAL/MOL
REMARK 924 INTRA-LIGAND FREE ENERGY PREDICTED BY IDOCK:   -0.91 KCAL/MOL
REMARK 927      BINDING AFFINITY PREDICTED BY RF-SCORE:    0.00 PKD
ROOT
HETATM    1  C   UNL     1     -12.109  12.879  66.138  1.00  0.00    -0.393 C  
HETATM    2  S   UNL     1     -11.627  14.012  67.494  1.00  0.00    -0.388 SA 
HETATM    3  C   UNL     1     -10.314  14.882  66.526  1.00  0.00    -0.293 C  
HETATM    4  CA  UNL     1     -10.659  14.625  65.038  1.00  0.00    -0.439 C  
HETATM    5  C   UNL     1      -8.964  14.252  66.922  1.00  0.00    -0.255 C  
HETATM    6  C   UNL     1     -10.269  16.355  66.948  1.00  0.00    -0.290 C  
HETATM    7  C   UNL     1     -11.566  15.683  64.384  1.00  0.00    -0.249 C  
HETATM    8  N   UNL     1     -11.316  13.305  64.961  1.00  0.00    -0.299 N  
HETATM    9  OXT UNL     1     -11.287  16.870  64.287  1.00  0.00    -1.202 OA 
HETATM   10  O   UNL     1     -12.712  15.182  63.858  1.00  0.00    -0.759 OA 
HETATM   11  C   UNL     1     -10.532  12.176  64.971  1.00  0.00    -0.290 C  
HETATM   12  CA  UNL     1     -11.408  11.498  66.050  1.00  0.00    -0.116 C  
HETATM   13  O   UNL     1      -9.466  11.959  64.446  1.00  0.00    -0.067 OA 
ENDROOT
BRANCH  12  14
HETATM   14  N   UNL     1     -10.708  11.014  67.268  1.00  0.00    -0.249 N  
HETATM   15  C   UNL     1     -10.021   9.816  67.258  1.00  0.00    -0.191 C  
HETATM   16  H   UNL     1     -10.734  11.572  68.121  1.00  0.00     0.000 HD 
HETATM   17  O   UNL     1      -9.990   9.126  66.237  1.00  0.00    -0.270 OA 
BRANCH  15  18
HETATM   18  CA  UNL     1      -9.454   9.318  68.610  1.00  0.00    -0.146 C  
BRANCH  18  19
HETATM   19  N   UNL     1     -10.542   9.279  69.583  1.00  0.00    -0.224 N  
HETATM   20  H   UNL     1     -11.040  10.141  69.803  1.00  0.00     0.000 HD 
BRANCH  19  21
HETATM   21  C   UNL     1     -10.913   8.125  70.205  1.00  0.00    -0.240 C  
HETATM   22  O   UNL     1     -11.743   8.100  71.114  1.00  0.00    -0.280 OA 
BRANCH  21  23
HETATM   23  N   UNL     1     -10.303   6.975  69.759  1.00  0.00    -0.205 N  
HETATM   24  C   UNL     1      -8.323   5.729  69.394  1.00  0.00    -0.112 C  
HETATM   25  N   UNL     1      -9.339   5.506  68.359  1.00  0.00    -0.109 N  
HETATM   26  C   UNL     1      -9.170   6.402  70.469  1.00  0.00    -0.158 C  
HETATM   27  O   UNL     1     -11.375   6.480  67.742  1.00  0.00    -0.258 OA 
HETATM   28  C   UNL     1     -10.456   6.341  68.527  1.00  0.00    -0.229 C  
BRANCH  25  29
HETATM   29  S   UNL     1      -9.107   4.375  67.173  1.00  0.00    -0.141 S  
HETATM   30  O   UNL     1     -10.333   4.287  66.407  1.00  0.00    -0.169 OA 
HETATM   31  C   UNL     1      -8.945   2.848  68.078  1.00  0.00    -0.153 C  
HETATM   32  O   UNL     1      -7.849   4.646  66.517  1.00  0.00    -0.097 OA 
ENDBRANCH  25  29
ENDBRANCH  21  23
ENDBRANCH  19  21
ENDBRANCH  18  19
BRANCH  18  33
HETATM   33  C   UNL     1      -8.253  10.104  69.117  1.00  0.00    -0.145 A  
HETATM   34  C   UNL     1      -5.986  11.469  70.077  1.00  0.00    -0.143 A  
HETATM   35  C   UNL     1      -7.538   9.625  70.232  1.00  0.00    -0.175 A  
HETATM   36  C   UNL     1      -6.418  10.306  70.709  1.00  0.00     0.002 A  
HETATM   37  C   UNL     1      -6.674  11.952  68.966  1.00  0.00    -0.099 A  
HETATM   38  C   UNL     1      -7.799  11.277  68.489  1.00  0.00    -0.138 A  
ENDBRANCH  18  33
ENDBRANCH  15  18
ENDBRANCH  12  14
TORSDOF 7
ENDMDL
MODEL       86
REMARK 921   NORMALIZED FREE ENERGY PREDICTED BY IDOCK:   -5.90 KCAL/MOL
REMARK 922        TOTAL FREE ENERGY PREDICTED BY IDOCK:   -9.84 KCAL/MOL
REMARK 923 INTER-LIGAND FREE ENERGY PREDICTED BY IDOCK:   -8.37 KCAL/MOL
REMARK 924 INTRA-LIGAND FREE ENERGY PREDICTED BY IDOCK:   -1.47 KCAL/MOL
REMARK 927      BINDING AFFINITY PREDICTED BY RF-SCORE:    0.00 PKD
ROOT
HETATM    1  C   UNL     1      -8.125  16.678  66.149  1.00  0.00    -0.238 C  
HETATM    2  S   UNL     1      -9.827  17.280  65.835  1.00  0.00    -0.052 SA 
HETATM    3  C   UNL     1      -9.921  18.316  67.364  1.00  0.00    -0.334 C  
HETATM    4  CA  UNL     1      -8.451  18.573  67.781  1.00  0.00    -0.270 C  
HETATM    5  C   UNL     1     -10.685  17.496  68.422  1.00  0.00    -0.280 C  
HETATM    6  C   UNL     1     -10.754  19.569  67.073  1.00  0.00    -0.592 C  
HETATM    7  C   UNL     1      -7.818  19.847  67.194  1.00  0.00    -0.290 C  
HETATM    8  N   UNL     1      -7.663  17.399  67.358  1.00  0.00    -0.189 N  
HETATM    9  OXT UNL     1      -8.243  20.979  67.377  1.00  0.00    -0.203 OA 
HETATM   10  O   UNL     1      -6.687  19.626  66.477  1.00  0.00    -0.185 OA 
HETATM   11  C   UNL     1      -7.685  16.271  68.145  1.00  0.00    -0.157 C  
HETATM   12  CA  UNL     1      -7.948  15.350  66.931  1.00  0.00    -0.195 C  
HETATM   13  O   UNL     1      -7.687  16.156  69.347  1.00  0.00    -0.236 OA 
ENDROOT
BRANCH  12  14
HETATM   14  N   UNL     1      -9.129  14.452  67.021  1.00  0.00    -0.225 N  
HETATM   15  C   UNL     1      -8.982  13.124  67.365  1.00  0.00    -0.201 C  
HETATM   16  H   UNL     1     -10.060  14.822  66.826  1.00  0.00     0.000 HD 
HETATM   17  O   UNL     1      -7.862  12.661  67.592  1.00  0.00    -0.137 OA 
BRANCH  15  18
HETATM   18  CA  UNL     1     -10.244  12.231  67.283  1.00  0.00    -0.210 C  
BRANCH  18  19
HETATM   19  N   UNL     1      -9.872  10.866  67.645  1.00  0.00    -0.169 N  
HETATM   20  H   UNL     1      -9.204  10.364  67.060  1.00  0.00     0.000 HD 
BRANCH  19  21
HETATM   21  C   UNL     1     -10.389  10.243  68.741  1.00  0.00    -0.195 C  
HETATM   22  O   UNL     1     -11.412  10.634  69.302  1.00  0.00    -0.252 OA 
BRANCH  21  23
HETATM   23  N   UNL     1      -9.698   9.142  69.192  1.00  0.00    -0.160 N  
HETATM   24  C   UNL     1      -7.968   8.226  70.525  1.00  0.00    -0.099 C  
HETATM   25  N   UNL     1      -8.170   7.496  69.268  1.00  0.00    -0.129 N  
HETATM   26  C   UNL     1      -9.252   9.048  70.573  1.00  0.00    -0.220 C  
HETATM   27  O   UNL     1      -9.370   7.828  67.287  1.00  0.00    -0.137 OA 
HETATM   28  C   UNL     1      -9.116   8.123  68.439  1.00  0.00    -0.136 C  
BRANCH  25  29
HETATM   29  S   UNL     1      -7.336   6.101  68.956  1.00  0.00    -0.087 S  
HETATM   30  O   UNL     1      -6.499   5.827  70.106  1.00  0.00    -0.035 OA 
HETATM   31  C   UNL     1      -6.253   6.553  67.615  1.00  0.00    -0.035 C  
HETATM   32  O   UNL     1      -8.265   5.107  68.470  1.00  0.00    -0.089 OA 
ENDBRANCH  25  29
ENDBRANCH  21  23
ENDBRANCH  19  21
ENDBRANCH  18  19
BRANCH  18  33
HETATM   33  C   UNL     1     -10.976  12.297  65.950  1.00  0.00    -0.338 A  
HETATM   34  C   UNL     1     -12.295  12.325  63.463  1.00  0.00    -0.670 A  
HETATM   35  C   UNL     1     -10.394  11.698  64.815  1.00  0.00    -0.331 A  
HETATM   36  C   UNL     1     -11.048  11.718  63.583  1.00  0.00    -0.518 A  
HETATM   37  C   UNL     1     -12.891  12.912  64.576  1.00  0.00    -0.273 A  
HETATM   38  C   UNL     1     -12.237  12.901  65.811  1.00  0.00    -0.498 A  
ENDBRANCH  18  33
ENDBRANCH  15  18
ENDBRANCH  12  14
TORSDOF 7
ENDMDL
MODEL       87
REMARK 921   NORMALIZED FREE ENERGY PREDICTED BY IDOCK:   -5.88 KCAL/MOL
REMARK 922        TOTAL FREE ENERGY PREDICTED BY IDOCK:   -9.81 KCAL/MOL
REMARK 923 INTER-LIGAND FREE ENERGY PREDICTED BY IDOCK:   -8.02 KCAL/MOL
REMARK 924 INTRA-LIGAND FREE ENERGY PREDICTED BY IDOCK:   -1.79 KCAL/MOL
REMARK 927      BINDING AFFINITY PREDICTED BY RF-SCORE:    0.00 PKD
ROOT
HETATM    1  C   UNL     1      -9.143  11.923  67.891  1.00  0.00    -0.183 C  
HETATM    2  S   UNL     1      -8.092  10.853  66.838  1.00  0.00    -0.142 SA 
HETATM    3  C   UNL     1      -9.406  10.514  65.582  1.00  0.00    -0.200 C  
HETATM    4  CA  UNL     1     -10.436  11.660  65.742  1.00  0.00    -0.263 C  
HETATM    5  C   UNL     1     -10.016   9.140  65.920  1.00  0.00    -0.232 C  
HETATM    6  C   UNL     1      -8.760  10.396  64.197  1.00  0.00    -0.205 C  
HETATM    7  C   UNL     1     -10.185  12.895  64.857  1.00  0.00    -0.275 C  
HETATM    8  N   UNL     1     -10.424  12.067  67.160  1.00  0.00    -0.216 N  
HETATM    9  OXT UNL     1     -10.147  12.875  63.635  1.00  0.00    -0.339 OA 
HETATM   10  O   UNL     1     -10.055  14.055  65.548  1.00  0.00    -0.322 OA 
HETATM   11  C   UNL     1     -11.127  11.313  68.070  1.00  0.00    -0.266 C  
HETATM   12  CA  UNL     1      -9.933  11.264  69.051  1.00  0.00    -0.105 C  
HETATM   13  O   UNL     1     -12.201  10.770  67.971  1.00  0.00    -0.297 OA 
ENDROOT
BRANCH  12  14
HETATM   14  N   UNL     1      -9.491   9.916  69.494  1.00  0.00    -0.210 N  
HETATM   15  C   UNL     1     -10.058   9.313  70.599  1.00  0.00    -0.276 C  
HETATM   16  H   UNL     1      -8.759   9.429  68.975  1.00  0.00     0.000 HD 
HETATM   17  O   UNL     1     -10.935   9.895  71.241  1.00  0.00    -0.320 OA 
BRANCH  15  18
HETATM   18  CA  UNL     1      -9.430   7.982  71.076  1.00  0.00    -0.157 C  
BRANCH  18  19
HETATM   19  N   UNL     1     -10.505   7.077  71.473  1.00  0.00    -0.204 N  
HETATM   20  H   UNL     1     -10.609   6.834  72.458  1.00  0.00     0.000 HD 
BRANCH  19  21
HETATM   21  C   UNL     1     -11.375   6.547  70.567  1.00  0.00    -0.367 C  
HETATM   22  O   UNL     1     -12.583   6.776  70.598  1.00  0.00    -0.268 OA 
BRANCH  21  23
HETATM   23  N   UNL     1     -10.822   5.732  69.605  1.00  0.00    -0.353 N  
HETATM   24  C   UNL     1      -9.002   4.423  68.843  1.00  0.00    -0.109 C  
HETATM   25  N   UNL     1      -9.713   5.105  67.755  1.00  0.00    -0.141 N  
HETATM   26  C   UNL     1     -10.016   4.578  69.972  1.00  0.00    -0.210 C  
HETATM   27  O   UNL     1     -11.351   6.767  67.578  1.00  0.00    -0.242 OA 
HETATM   28  C   UNL     1     -10.712   5.969  68.236  1.00  0.00    -0.279 C  
BRANCH  25  29
HETATM   29  S   UNL     1      -9.313   4.822  66.175  1.00  0.00    -0.165 S  
HETATM   30  O   UNL     1     -10.528   4.453  65.477  1.00  0.00    -0.265 OA 
HETATM   31  C   UNL     1      -8.293   3.362  66.257  1.00  0.00    -0.103 C  
HETATM   32  O   UNL     1      -8.498   5.916  65.701  1.00  0.00    -0.143 OA 
ENDBRANCH  25  29
ENDBRANCH  21  23
ENDBRANCH  19  21
ENDBRANCH  18  19
BRANCH  18  33
HETATM   33  C   UNL     1      -8.374   8.137  72.161  1.00  0.00    -0.209 A  
HETATM   34  C   UNL     1      -6.472   8.357  74.225  1.00  0.00    -0.155 A  
HETATM   35  C   UNL     1      -8.763   8.075  73.514  1.00  0.00    -0.330 A  
HETATM   36  C   UNL     1      -7.819   8.190  74.534  1.00  0.00    -0.301 A  
HETATM   37  C   UNL     1      -6.067   8.410  72.893  1.00  0.00    -0.079 A  
HETATM   38  C   UNL     1      -7.009   8.302  71.868  1.00  0.00    -0.089 A  
ENDBRANCH  18  33
ENDBRANCH  15  18
ENDBRANCH  12  14
TORSDOF 7
ENDMDL
MODEL       88
REMARK 921   NORMALIZED FREE ENERGY PREDICTED BY IDOCK:   -5.83 KCAL/MOL
REMARK 922        TOTAL FREE ENERGY PREDICTED BY IDOCK:   -9.74 KCAL/MOL
REMARK 923 INTER-LIGAND FREE ENERGY PREDICTED BY IDOCK:   -8.79 KCAL/MOL
REMARK 924 INTRA-LIGAND FREE ENERGY PREDICTED BY IDOCK:   -0.94 KCAL/MOL
REMARK 927      BINDING AFFINITY PREDICTED BY RF-SCORE:    0.00 PKD
ROOT
HETATM    1  C   UNL     1     -11.102  15.147  68.872  1.00  0.00    -0.270 C  
HETATM    2  S   UNL     1      -9.299  14.824  68.926  1.00  0.00    -0.151 SA 
HETATM    3  C   UNL     1      -9.030  15.078  67.114  1.00  0.00    -0.217 C  
HETATM    4  CA  UNL     1     -10.240  15.917  66.631  1.00  0.00    -0.288 C  
HETATM    5  C   UNL     1      -8.999  13.684  66.459  1.00  0.00    -0.068 C  
HETATM    6  C   UNL     1      -7.654  15.716  66.893  1.00  0.00    -0.201 C  
HETATM    7  C   UNL     1     -10.038  17.443  66.674  1.00  0.00    -0.317 C  
HETATM    8  N   UNL     1     -11.393  15.555  67.478  1.00  0.00    -0.282 N  
HETATM    9  OXT UNL     1      -9.164  18.044  66.065  1.00  0.00    -0.508 OA 
HETATM   10  O   UNL     1     -10.958  18.104  67.421  1.00  0.00    -0.312 OA 
HETATM   11  C   UNL     1     -12.085  14.401  67.193  1.00  0.00    -0.333 C  
HETATM   12  CA  UNL     1     -12.058  13.943  68.670  1.00  0.00    -0.302 C  
HETATM   13  O   UNL     1     -12.387  13.913  66.131  1.00  0.00    -0.452 OA 
ENDROOT
BRANCH  12  14
HETATM   14  N   UNL     1     -11.510  12.588  68.937  1.00  0.00    -0.285 N  
HETATM   15  C   UNL     1     -11.836  11.909  70.094  1.00  0.00    -0.308 C  
HETATM   16  H   UNL     1     -10.885  12.154  68.257  1.00  0.00     0.000 HD 
HETATM   17  O   UNL     1     -12.580  12.427  70.929  1.00  0.00    -0.340 OA 
BRANCH  15  18
HETATM   18  CA  UNL     1     -11.098  10.574  70.359  1.00  0.00    -0.244 C  
BRANCH  18  19
HETATM   19  N   UNL     1     -10.303  10.242  69.180  1.00  0.00    -0.208 N  
HETATM   20  H   UNL     1     -10.772   9.866  68.357  1.00  0.00     0.000 HD 
BRANCH  19  21
HETATM   21  C   UNL     1      -8.952  10.418  69.147  1.00  0.00    -0.179 C  
HETATM   22  O   UNL     1      -8.431  11.472  68.782  1.00  0.00    -0.137 OA 
BRANCH  21  23
HETATM   23  N   UNL     1      -8.192   9.343  69.548  1.00  0.00    -0.114 N  
HETATM   24  C   UNL     1      -7.444   7.127  69.183  1.00  0.00    -0.094 C  
HETATM   25  N   UNL     1      -7.614   7.447  70.605  1.00  0.00    -0.085 N  
HETATM   26  C   UNL     1      -7.474   8.528  68.581  1.00  0.00    -0.093 C  
HETATM   27  O   UNL     1      -8.558   9.187  71.852  1.00  0.00    -0.332 OA 
HETATM   28  C   UNL     1      -8.171   8.722  70.796  1.00  0.00    -0.156 C  
BRANCH  25  29
HETATM   29  S   UNL     1      -7.167   6.365  71.775  1.00  0.00    -0.088 S  
HETATM   30  O   UNL     1      -6.564   5.228  71.111  1.00  0.00    -0.039 OA 
HETATM   31  C   UNL     1      -8.722   5.814  72.450  1.00  0.00    -0.128 C  
HETATM   32  O   UNL     1      -6.452   7.075  72.810  1.00  0.00    -0.056 OA 
ENDBRANCH  25  29
ENDBRANCH  21  23
ENDBRANCH  19  21
ENDBRANCH  18  19
BRANCH  18  33
HETATM   33  C   UNL     1     -12.004   9.429  70.787  1.00  0.00    -0.298 A  
HETATM   34  C   UNL     1     -13.760   7.362  71.543  1.00  0.00    -0.467 A  
HETATM   35  C   UNL     1     -13.297   9.717  71.266  1.00  0.00    -0.403 A  
HETATM   36  C   UNL     1     -14.163   8.691  71.645  1.00  0.00    -0.463 A  
HETATM   37  C   UNL     1     -12.489   7.058  71.061  1.00  0.00    -0.373 A  
HETATM   38  C   UNL     1     -11.616   8.082  70.687  1.00  0.00    -0.203 A  
ENDBRANCH  18  33
ENDBRANCH  15  18
ENDBRANCH  12  14
TORSDOF 7
ENDMDL
MODEL       89
REMARK 921   NORMALIZED FREE ENERGY PREDICTED BY IDOCK:   -5.83 KCAL/MOL
REMARK 922        TOTAL FREE ENERGY PREDICTED BY IDOCK:   -9.73 KCAL/MOL
REMARK 923 INTER-LIGAND FREE ENERGY PREDICTED BY IDOCK:   -8.48 KCAL/MOL
REMARK 924 INTRA-LIGAND FREE ENERGY PREDICTED BY IDOCK:   -1.25 KCAL/MOL
REMARK 927      BINDING AFFINITY PREDICTED BY RF-SCORE:    0.00 PKD
ROOT
HETATM    1  C   UNL     1      -7.614   8.658  69.012  1.00  0.00    -0.090 C  
HETATM    2  S   UNL     1      -7.246   9.433  70.630  1.00  0.00    -0.116 SA 
HETATM    3  C   UNL     1      -8.151   8.169  71.630  1.00  0.00    -0.124 C  
HETATM    4  CA  UNL     1      -8.252   6.918  70.722  1.00  0.00    -0.122 C  
HETATM    5  C   UNL     1      -9.538   8.755  71.957  1.00  0.00    -0.356 C  
HETATM    6  C   UNL     1      -7.421   7.961  72.961  1.00  0.00    -0.146 C  
HETATM    7  C   UNL     1      -7.094   5.912  70.861  1.00  0.00    -0.068 C  
HETATM    8  N   UNL     1      -8.317   7.393  69.326  1.00  0.00    -0.131 N  
HETATM    9  OXT UNL     1      -6.795   5.340  71.900  1.00  0.00    -0.060 OA 
HETATM   10  O   UNL     1      -6.437   5.657  69.702  1.00  0.00    -0.038 OA 
HETATM   11  C   UNL     1      -9.522   7.840  68.836  1.00  0.00    -0.150 C  
HETATM   12  CA  UNL     1      -8.883   9.119  68.248  1.00  0.00    -0.129 C  
HETATM   13  O   UNL     1     -10.642   7.424  69.016  1.00  0.00    -0.214 OA 
ENDROOT
BRANCH  12  14
HETATM   14  N   UNL     1      -9.489  10.413  68.657  1.00  0.00    -0.159 N  
HETATM   15  C   UNL     1     -10.711  10.811  68.154  1.00  0.00    -0.214 C  
HETATM   16  H   UNL     1      -8.995  11.015  69.316  1.00  0.00     0.000 HD 
HETATM   17  O   UNL     1     -11.313  10.099  67.347  1.00  0.00    -0.257 OA 
BRANCH  15  18
HETATM   18  CA  UNL     1     -11.190  12.239  68.514  1.00  0.00    -0.271 C  
BRANCH  18  19
HETATM   19  N   UNL     1     -10.039  13.137  68.479  1.00  0.00    -0.324 N  
HETATM   20  H   UNL     1      -9.269  12.979  69.128  1.00  0.00     0.000 HD 
BRANCH  19  21
HETATM   21  C   UNL     1      -9.963  14.180  67.605  1.00  0.00    -0.233 C  
HETATM   22  O   UNL     1     -10.150  14.045  66.396  1.00  0.00    -0.278 OA 
BRANCH  21  23
HETATM   23  N   UNL     1      -9.660  15.406  68.152  1.00  0.00    -0.202 N  
HETATM   24  C   UNL     1     -10.175  17.701  68.421  1.00  0.00    -0.381 C  
HETATM   25  N   UNL     1      -8.732  17.437  68.392  1.00  0.00    -0.264 N  
HETATM   26  C   UNL     1     -10.707  16.288  68.642  1.00  0.00    -0.309 C  
HETATM   27  O   UNL     1      -7.349  15.621  67.881  1.00  0.00    -0.120 OA 
HETATM   28  C   UNL     1      -8.446  16.090  68.113  1.00  0.00    -0.169 C  
BRANCH  25  29
HETATM   29  S   UNL     1      -7.644  18.652  68.672  1.00  0.00    -0.306 S  
HETATM   30  O   UNL     1      -8.365  19.751  69.281  1.00  0.00    -0.157 OA 
HETATM   31  C   UNL     1      -7.173  19.178  67.036  1.00  0.00    -0.204 C  
HETATM   32  O   UNL     1      -6.480  18.090  69.318  1.00  0.00    -0.243 OA 
ENDBRANCH  25  29
ENDBRANCH  21  23
ENDBRANCH  19  21
ENDBRANCH  18  19
BRANCH  18  33
HETATM   33  C   UNL     1     -11.958  12.334  69.824  1.00  0.00    -0.365 A  
HETATM   34  C   UNL     1     -13.323  12.433  72.284  1.00  0.00    -0.427 A  
HETATM   35  C   UNL     1     -12.237  11.156  70.545  1.00  0.00    -0.475 A  
HETATM   36  C   UNL     1     -12.918  11.208  71.761  1.00  0.00    -0.526 A  
HETATM   37  C   UNL     1     -13.046  13.609  71.591  1.00  0.00    -0.455 A  
HETATM   38  C   UNL     1     -12.370  13.561  70.370  1.00  0.00    -0.397 A  
ENDBRANCH  18  33
ENDBRANCH  15  18
ENDBRANCH  12  14
TORSDOF 7
ENDMDL
MODEL       90
REMARK 921   NORMALIZED FREE ENERGY PREDICTED BY IDOCK:   -5.80 KCAL/MOL
REMARK 922        TOTAL FREE ENERGY PREDICTED BY IDOCK:   -9.69 KCAL/MOL
REMARK 923 INTER-LIGAND FREE ENERGY PREDICTED BY IDOCK:   -9.23 KCAL/MOL
REMARK 924 INTRA-LIGAND FREE ENERGY PREDICTED BY IDOCK:   -0.46 KCAL/MOL
REMARK 927      BINDING AFFINITY PREDICTED BY RF-SCORE:    0.00 PKD
ROOT
HETATM    1  C   UNL     1     -12.110  13.034  65.667  1.00  0.00    -0.454 C  
HETATM    2  S   UNL     1     -11.708  13.998  67.173  1.00  0.00    -0.413 SA 
HETATM    3  C   UNL     1     -10.375  15.002  66.377  1.00  0.00    -0.287 C  
HETATM    4  CA  UNL     1     -10.654  14.925  64.854  1.00  0.00    -0.391 C  
HETATM    5  C   UNL     1      -9.030  14.349  66.749  1.00  0.00    -0.256 C  
HETATM    6  C   UNL     1     -10.379  16.411  66.978  1.00  0.00    -0.293 C  
HETATM    7  C   UNL     1     -11.555  16.042  64.297  1.00  0.00    -0.138 C  
HETATM    8  N   UNL     1     -11.279  13.616  64.587  1.00  0.00    -0.358 N  
HETATM    9  OXT UNL     1     -11.298  17.236  64.359  1.00  0.00    -1.052 OA 
HETATM   10  O   UNL     1     -12.669  15.592  63.664  1.00  0.00    -0.461 OA 
HETATM   11  C   UNL     1     -10.473  12.506  64.491  1.00  0.00    -0.341 C  
HETATM   12  CA  UNL     1     -11.378  11.686  65.440  1.00  0.00    -0.153 C  
HETATM   13  O   UNL     1      -9.382  12.373  63.990  1.00  0.00     0.209 OA 
ENDROOT
BRANCH  12  14
HETATM   14  N   UNL     1     -10.717  11.065  66.618  1.00  0.00    -0.260 N  
HETATM   15  C   UNL     1      -9.965   9.916  66.482  1.00  0.00    -0.228 C  
HETATM   16  H   UNL     1     -10.820  11.494  67.538  1.00  0.00     0.000 HD 
HETATM   17  O   UNL     1      -9.842   9.381  65.378  1.00  0.00    -0.270 OA 
BRANCH  15  18
HETATM   18  CA  UNL     1      -9.445   9.256  67.782  1.00  0.00    -0.140 C  
BRANCH  18  19
HETATM   19  N   UNL     1      -9.367   7.813  67.572  1.00  0.00    -0.138 N  
HETATM   20  H   UNL     1      -8.469   7.397  67.329  1.00  0.00     0.000 HD 
BRANCH  19  21
HETATM   21  C   UNL     1     -10.459   7.006  67.691  1.00  0.00    -0.237 C  
HETATM   22  O   UNL     1     -11.370   7.000  66.864  1.00  0.00    -0.199 OA 
BRANCH  21  23
HETATM   23  N   UNL     1     -10.489   6.191  68.799  1.00  0.00    -0.215 N  
HETATM   24  C   UNL     1     -10.953   5.897  71.102  1.00  0.00    -0.260 C  
HETATM   25  N   UNL     1      -9.797   5.117  70.647  1.00  0.00    -0.190 N  
HETATM   26  C   UNL     1     -11.577   6.270  69.761  1.00  0.00    -0.260 C  
HETATM   27  O   UNL     1      -8.472   5.012  68.721  1.00  0.00    -0.087 OA 
HETATM   28  C   UNL     1      -9.465   5.395  69.310  1.00  0.00    -0.133 C  
BRANCH  25  29
HETATM   29  S   UNL     1      -9.040   4.054  71.664  1.00  0.00    -0.129 S  
HETATM   30  O   UNL     1      -9.236   2.722  71.128  1.00  0.00    -0.102 OA 
HETATM   31  C   UNL     1      -9.995   4.159  73.165  1.00  0.00    -0.140 C  
HETATM   32  O   UNL     1      -7.710   4.545  71.939  1.00  0.00    -0.086 OA 
ENDBRANCH  25  29
ENDBRANCH  21  23
ENDBRANCH  19  21
ENDBRANCH  18  19
BRANCH  18  33
HETATM   33  C   UNL     1     -10.236   9.617  69.031  1.00  0.00    -0.209 A  
HETATM   34  C   UNL     1     -11.786  10.267  71.290  1.00  0.00    -0.425 A  
HETATM   35  C   UNL     1     -11.464  10.296  68.896  1.00  0.00    -0.190 A  
HETATM   36  C   UNL     1     -12.227  10.621  70.017  1.00  0.00    -0.373 A  
HETATM   37  C   UNL     1     -10.581   9.586  71.442  1.00  0.00    -0.307 A  
HETATM   38  C   UNL     1      -9.810   9.264  70.323  1.00  0.00    -0.265 A  
ENDBRANCH  18  33
ENDBRANCH  15  18
ENDBRANCH  12  14
TORSDOF 7
ENDMDL
MODEL       91
REMARK 921   NORMALIZED FREE ENERGY PREDICTED BY IDOCK:   -5.68 KCAL/MOL
REMARK 922        TOTAL FREE ENERGY PREDICTED BY IDOCK:   -9.53 KCAL/MOL
REMARK 923 INTER-LIGAND FREE ENERGY PREDICTED BY IDOCK:   -8.33 KCAL/MOL
REMARK 924 INTRA-LIGAND FREE ENERGY PREDICTED BY IDOCK:   -1.20 KCAL/MOL
REMARK 927      BINDING AFFINITY PREDICTED BY RF-SCORE:    0.00 PKD
ROOT
HETATM    1  C   UNL     1     -10.521  16.341  68.195  1.00  0.00    -0.289 C  
HETATM    2  S   UNL     1      -8.924  16.079  69.055  1.00  0.00    -0.247 SA 
HETATM    3  C   UNL     1      -7.926  17.075  67.860  1.00  0.00    -0.189 C  
HETATM    4  CA  UNL     1      -8.941  18.003  67.146  1.00  0.00    -0.255 C  
HETATM    5  C   UNL     1      -7.266  16.085  66.881  1.00  0.00    -0.212 C  
HETATM    6  C   UNL     1      -6.799  17.787  68.615  1.00  0.00    -0.242 C  
HETATM    7  C   UNL     1      -9.153  19.376  67.811  1.00  0.00    -0.315 C  
HETATM    8  N   UNL     1     -10.230  17.286  67.092  1.00  0.00    -0.311 N  
HETATM    9  OXT UNL     1      -8.269  20.202  67.990  1.00  0.00    -0.262 OA 
HETATM   10  O   UNL     1     -10.441  19.636  68.150  1.00  0.00    -0.432 OA 
HETATM   11  C   UNL     1     -10.417  16.337  66.114  1.00  0.00    -0.322 C  
HETATM   12  CA  UNL     1     -10.960  15.304  67.129  1.00  0.00    -0.331 C  
HETATM   13  O   UNL     1     -10.073  16.329  64.957  1.00  0.00    -0.484 OA 
ENDROOT
BRANCH  12  14
HETATM   14  N   UNL     1     -10.289  13.979  67.153  1.00  0.00    -0.264 N  
HETATM   15  C   UNL     1     -10.876  12.901  67.785  1.00  0.00    -0.229 C  
HETATM   16  H   UNL     1      -9.383  13.864  66.698  1.00  0.00     0.000 HD 
HETATM   17  O   UNL     1     -11.965  13.029  68.349  1.00  0.00    -0.336 OA 
BRANCH  15  18
HETATM   18  CA  UNL     1     -10.037  11.605  67.893  1.00  0.00    -0.187 C  
BRANCH  18  19
HETATM   19  N   UNL     1      -9.003  11.805  68.905  1.00  0.00    -0.386 N  
HETATM   20  H   UNL     1      -8.741  12.756  69.163  1.00  0.00     0.000 HD 
BRANCH  19  21
HETATM   21  C   UNL     1      -8.378  10.759  69.515  1.00  0.00     0.082 C  
HETATM   22  O   UNL     1      -7.200  10.807  69.869  1.00  0.00    -0.143 OA 
BRANCH  21  23
HETATM   23  N   UNL     1      -9.142   9.632  69.716  1.00  0.00    -0.200 N  
HETATM   24  C   UNL     1     -10.129   8.077  71.204  1.00  0.00    -0.188 C  
HETATM   25  N   UNL     1      -9.683   7.464  69.947  1.00  0.00    -0.171 N  
HETATM   26  C   UNL     1     -10.087   9.552  70.819  1.00  0.00    -0.282 C  
HETATM   27  O   UNL     1      -8.389   8.112  68.108  1.00  0.00    -0.127 OA 
HETATM   28  C   UNL     1      -8.995   8.376  69.129  1.00  0.00    -0.147 C  
BRANCH  25  29
HETATM   29  S   UNL     1     -10.006   5.874  69.619  1.00  0.00    -0.195 S  
HETATM   30  O   UNL     1      -8.782   5.273  69.130  1.00  0.00    -0.099 OA 
HETATM   31  C   UNL     1     -11.137   5.952  68.244  1.00  0.00    -0.043 C  
HETATM   32  O   UNL     1     -10.705   5.303  70.747  1.00  0.00    -0.221 OA 
ENDBRANCH  25  29
ENDBRANCH  21  23
ENDBRANCH  19  21
ENDBRANCH  18  19
BRANCH  18  33
HETATM   33  C   UNL     1      -9.465  11.113  66.571  1.00  0.00    -0.215 A  
HETATM   34  C   UNL     1      -8.483  10.252  64.078  1.00  0.00    -0.177 A  
HETATM   35  C   UNL     1     -10.344  10.789  65.519  1.00  0.00    -0.308 A  
HETATM   36  C   UNL     1      -9.855  10.358  64.286  1.00  0.00    -0.388 A  
HETATM   37  C   UNL     1      -7.598  10.578  65.103  1.00  0.00    -0.046 A  
HETATM   38  C   UNL     1      -8.083  11.004  66.341  1.00  0.00    -0.166 A  
ENDBRANCH  18  33
ENDBRANCH  15  18
ENDBRANCH  12  14
TORSDOF 7
ENDMDL
MODEL       92
REMARK 921   NORMALIZED FREE ENERGY PREDICTED BY IDOCK:   -5.68 KCAL/MOL
REMARK 922        TOTAL FREE ENERGY PREDICTED BY IDOCK:   -9.52 KCAL/MOL
REMARK 923 INTER-LIGAND FREE ENERGY PREDICTED BY IDOCK:   -8.60 KCAL/MOL
REMARK 924 INTRA-LIGAND FREE ENERGY PREDICTED BY IDOCK:   -0.92 KCAL/MOL
REMARK 927      BINDING AFFINITY PREDICTED BY RF-SCORE:    0.00 PKD
ROOT
HETATM    1  C   UNL     1     -10.297  10.698  66.042  1.00  0.00    -0.225 C  
HETATM    2  S   UNL     1      -8.973  11.900  65.642  1.00  0.00     0.220 SA 
HETATM    3  C   UNL     1      -7.693  11.096  66.707  1.00  0.00    -0.153 C  
HETATM    4  CA  UNL     1      -8.180   9.640  66.912  1.00  0.00    -0.113 C  
HETATM    5  C   UNL     1      -7.647  11.880  68.033  1.00  0.00    -0.122 C  
HETATM    6  C   UNL     1      -6.320  11.245  66.044  1.00  0.00     0.077 C  
HETATM    7  C   UNL     1      -7.669   8.626  65.873  1.00  0.00    -0.101 C  
HETATM    8  N   UNL     1      -9.656   9.662  66.885  1.00  0.00    -0.159 N  
HETATM    9  OXT UNL     1      -6.489   8.379  65.668  1.00  0.00    -0.051 OA 
HETATM   10  O   UNL     1      -8.653   7.965  65.212  1.00  0.00    -0.139 OA 
HETATM   11  C   UNL     1     -10.332  10.044  68.020  1.00  0.00    -0.198 C  
HETATM   12  CA  UNL     1     -11.242  11.014  67.231  1.00  0.00    -0.258 C  
HETATM   13  O   UNL     1     -10.103   9.809  69.182  1.00  0.00    -0.173 OA 
ENDROOT
BRANCH  12  14
HETATM   14  N   UNL     1     -11.287  12.421  67.708  1.00  0.00    -0.277 N  
HETATM   15  C   UNL     1     -11.972  12.755  68.858  1.00  0.00    -0.244 C  
HETATM   16  H   UNL     1     -10.806  13.148  67.178  1.00  0.00     0.000 HD 
HETATM   17  O   UNL     1     -12.567  11.888  69.501  1.00  0.00     0.034 OA 
BRANCH  15  18
HETATM   18  CA  UNL     1     -12.094  14.262  69.193  1.00  0.00    -0.302 C  
BRANCH  18  19
HETATM   19  N   UNL     1     -10.877  14.936  68.747  1.00  0.00    -0.243 N  
HETATM   20  H   UNL     1     -10.030  14.848  69.307  1.00  0.00     0.000 HD 
BRANCH  19  21
HETATM   21  C   UNL     1     -10.841  15.680  67.606  1.00  0.00    -0.307 C  
HETATM   22  O   UNL     1     -11.302  15.278  66.539  1.00  0.00    -0.287 OA 
BRANCH  21  23
HETATM   23  N   UNL     1     -10.252  16.920  67.712  1.00  0.00    -0.296 N  
HETATM   24  C   UNL     1      -9.732  19.019  66.748  1.00  0.00    -0.330 C  
HETATM   25  N   UNL     1      -8.678  18.521  67.638  1.00  0.00    -0.266 N  
HETATM   26  C   UNL     1     -10.884  18.102  67.147  1.00  0.00    -0.188 C  
HETATM   27  O   UNL     1      -8.189  16.510  68.732  1.00  0.00    -0.225 OA 
HETATM   28  C   UNL     1      -8.950  17.224  68.106  1.00  0.00    -0.254 C  
BRANCH  25  29
HETATM   29  S   UNL     1      -7.359  19.455  67.994  1.00  0.00    -0.282 S  
HETATM   30  O   UNL     1      -7.440  19.807  69.397  1.00  0.00    -0.295 OA 
HETATM   31  C   UNL     1      -7.641  20.948  67.063  1.00  0.00    -0.189 C  
HETATM   32  O   UNL     1      -6.180  18.809  67.466  1.00  0.00    -0.182 OA 
ENDBRANCH  25  29
ENDBRANCH  21  23
ENDBRANCH  19  21
ENDBRANCH  18  19
BRANCH  18  33
HETATM   33  C   UNL     1     -12.420  14.559  70.649  1.00  0.00    -0.409 A  
HETATM   34  C   UNL     1     -13.026  15.008  73.362  1.00  0.00    -0.622 A  
HETATM   35  C   UNL     1     -13.291  13.700  71.349  1.00  0.00    -0.321 A  
HETATM   36  C   UNL     1     -13.593  13.928  72.691  1.00  0.00    -0.626 A  
HETATM   37  C   UNL     1     -12.154  15.862  72.690  1.00  0.00    -0.615 A  
HETATM   38  C   UNL     1     -11.854  15.641  71.344  1.00  0.00    -0.482 A  
ENDBRANCH  18  33
ENDBRANCH  15  18
ENDBRANCH  12  14
TORSDOF 7
ENDMDL
MODEL       93
REMARK 921   NORMALIZED FREE ENERGY PREDICTED BY IDOCK:   -5.66 KCAL/MOL
REMARK 922        TOTAL FREE ENERGY PREDICTED BY IDOCK:   -9.50 KCAL/MOL
REMARK 923 INTER-LIGAND FREE ENERGY PREDICTED BY IDOCK:   -7.86 KCAL/MOL
REMARK 924 INTRA-LIGAND FREE ENERGY PREDICTED BY IDOCK:   -1.64 KCAL/MOL
REMARK 927      BINDING AFFINITY PREDICTED BY RF-SCORE:    0.00 PKD
ROOT
HETATM    1  C   UNL     1      -8.341   8.981  71.222  1.00  0.00    -0.120 C  
HETATM    2  S   UNL     1     -10.128   9.117  70.845  1.00  0.00    -0.308 SA 
HETATM    3  C   UNL     1     -10.167   7.667  69.699  1.00  0.00    -0.204 C  
HETATM    4  CA  UNL     1      -8.922   6.819  70.063  1.00  0.00    -0.141 C  
HETATM    5  C   UNL     1     -10.086   8.219  68.263  1.00  0.00    -0.231 C  
HETATM    6  C   UNL     1     -11.515   6.952  69.835  1.00  0.00    -0.294 C  
HETATM    7  C   UNL     1      -9.159   5.732  71.128  1.00  0.00    -0.146 C  
HETATM    8  N   UNL     1      -7.880   7.749  70.540  1.00  0.00    -0.095 N  
HETATM    9  OXT UNL     1      -9.958   4.814  71.015  1.00  0.00    -0.190 OA 
HETATM   10  O   UNL     1      -8.355   5.838  72.216  1.00  0.00    -0.117 OA 
HETATM   11  C   UNL     1      -7.135   8.438  69.612  1.00  0.00    -0.052 C  
HETATM   12  CA  UNL     1      -7.342   9.782  70.347  1.00  0.00    -0.141 C  
HETATM   13  O   UNL     1      -6.689   8.082  68.547  1.00  0.00    -0.062 OA 
ENDROOT
BRANCH  12  14
HETATM   14  N   UNL     1      -7.893  10.903  69.541  1.00  0.00    -0.363 N  
HETATM   15  C   UNL     1      -7.067  11.683  68.758  1.00  0.00    -0.106 C  
HETATM   16  H   UNL     1      -8.894  11.099  69.567  1.00  0.00     0.000 HD 
HETATM   17  O   UNL     1      -5.854  11.465  68.726  1.00  0.00    -0.043 OA 
BRANCH  15  18
HETATM   18  CA  UNL     1      -7.702  12.920  68.077  1.00  0.00    -0.143 C  
BRANCH  18  19
HETATM   19  N   UNL     1      -7.434  14.094  68.903  1.00  0.00    -0.144 N  
HETATM   20  H   UNL     1      -7.940  14.207  69.781  1.00  0.00     0.000 HD 
BRANCH  19  21
HETATM   21  C   UNL     1      -6.527  15.043  68.536  1.00  0.00    -0.094 C  
HETATM   22  O   UNL     1      -5.314  14.837  68.546  1.00  0.00    -0.091 OA 
BRANCH  21  23
HETATM   23  N   UNL     1      -7.047  16.257  68.150  1.00  0.00    -0.132 N  
HETATM   24  C   UNL     1      -8.069  18.313  68.728  1.00  0.00    -0.241 C  
HETATM   25  N   UNL     1      -8.532  17.785  67.439  1.00  0.00    -0.224 N  
HETATM   26  C   UNL     1      -6.827  17.455  68.945  1.00  0.00    -0.241 C  
HETATM   27  O   UNL     1      -8.331  15.776  66.258  1.00  0.00    -0.281 OA 
HETATM   28  C   UNL     1      -8.006  16.511  67.171  1.00  0.00    -0.180 C  
BRANCH  25  29
HETATM   29  S   UNL     1      -9.553  18.667  66.481  1.00  0.00    -0.338 S  
HETATM   30  O   UNL     1      -8.749  19.627  65.754  1.00  0.00    -0.398 OA 
HETATM   31  C   UNL     1     -10.535  19.586  67.651  1.00  0.00    -0.467 C  
HETATM   32  O   UNL     1     -10.426  17.757  65.777  1.00  0.00    -0.556 OA 
ENDBRANCH  25  29
ENDBRANCH  21  23
ENDBRANCH  19  21
ENDBRANCH  18  19
BRANCH  18  33
HETATM   33  C   UNL     1      -9.181  12.768  67.751  1.00  0.00    -0.199 A  
HETATM   34  C   UNL     1     -11.901  12.388  67.130  1.00  0.00    -0.361 A  
HETATM   35  C   UNL     1      -9.574  11.873  66.737  1.00  0.00    -0.214 A  
HETATM   36  C   UNL     1     -10.922  11.690  66.428  1.00  0.00    -0.345 A  
HETATM   37  C   UNL     1     -11.532  13.269  68.144  1.00  0.00    -0.347 A  
HETATM   38  C   UNL     1     -10.184  13.460  68.453  1.00  0.00    -0.251 A  
ENDBRANCH  18  33
ENDBRANCH  15  18
ENDBRANCH  12  14
TORSDOF 7
ENDMDL
MODEL       94
REMARK 921   NORMALIZED FREE ENERGY PREDICTED BY IDOCK:   -5.66 KCAL/MOL
REMARK 922        TOTAL FREE ENERGY PREDICTED BY IDOCK:   -9.50 KCAL/MOL
REMARK 923 INTER-LIGAND FREE ENERGY PREDICTED BY IDOCK:   -7.99 KCAL/MOL
REMARK 924 INTRA-LIGAND FREE ENERGY PREDICTED BY IDOCK:   -1.50 KCAL/MOL
REMARK 927      BINDING AFFINITY PREDICTED BY RF-SCORE:    0.00 PKD
ROOT
HETATM    1  C   UNL     1      -7.602   6.930  68.107  1.00  0.00    -0.108 C  
HETATM    2  S   UNL     1      -8.961   5.940  68.834  1.00  0.00    -0.117 SA 
HETATM    3  C   UNL     1      -9.136   4.806  67.385  1.00  0.00    -0.117 C  
HETATM    4  CA  UNL     1      -7.790   4.900  66.621  1.00  0.00    -0.099 C  
HETATM    5  C   UNL     1     -10.314   5.326  66.539  1.00  0.00    -0.332 C  
HETATM    6  C   UNL     1      -9.516   3.407  67.882  1.00  0.00    -0.220 C  
HETATM    7  C   UNL     1      -6.724   3.874  67.045  1.00  0.00    -0.047 C  
HETATM    8  N   UNL     1      -7.263   6.264  66.827  1.00  0.00    -0.073 N  
HETATM    9  OXT UNL     1      -6.866   2.661  66.982  1.00  0.00    -0.043 OA 
HETATM   10  O   UNL     1      -5.556   4.427  67.460  1.00  0.00    -0.016 OA 
HETATM   11  C   UNL     1      -7.766   7.289  66.061  1.00  0.00    -0.095 C  
HETATM   12  CA  UNL     1      -7.970   8.199  67.294  1.00  0.00    -0.113 C  
HETATM   13  O   UNL     1      -8.080   7.312  64.895  1.00  0.00    -0.125 OA 
ENDROOT
BRANCH  12  14
HETATM   14  N   UNL     1      -9.333   8.758  67.490  1.00  0.00    -0.135 N  
HETATM   15  C   UNL     1      -9.553   9.784  68.387  1.00  0.00    -0.148 C  
HETATM   16  H   UNL     1     -10.115   8.380  66.955  1.00  0.00     0.000 HD 
HETATM   17  O   UNL     1      -8.619  10.242  69.048  1.00  0.00    -0.141 OA 
BRANCH  15  18
HETATM   18  CA  UNL     1     -11.024  10.197  68.637  1.00  0.00    -0.230 C  
BRANCH  18  19
HETATM   19  N   UNL     1     -11.136  11.643  68.463  1.00  0.00    -0.216 N  
HETATM   20  H   UNL     1     -11.397  12.218  69.263  1.00  0.00     0.000 HD 
BRANCH  19  21
HETATM   21  C   UNL     1     -10.902  12.246  67.263  1.00  0.00    -0.245 C  
HETATM   22  O   UNL     1     -11.302  11.778  66.198  1.00  0.00    -0.330 OA 
BRANCH  21  23
HETATM   23  N   UNL     1     -10.184  13.420  67.308  1.00  0.00    -0.240 N  
HETATM   24  C   UNL     1      -8.795  14.916  68.508  1.00  0.00    -0.174 C  
HETATM   25  N   UNL     1      -9.721  15.599  67.597  1.00  0.00    -0.224 N  
HETATM   26  C   UNL     1      -8.897  13.488  67.980  1.00  0.00    -0.181 C  
HETATM   27  O   UNL     1     -11.580  15.005  66.306  1.00  0.00    -0.286 OA 
HETATM   28  C   UNL     1     -10.616  14.705  66.985  1.00  0.00    -0.280 C  
BRANCH  25  29
HETATM   29  S   UNL     1      -9.640  17.238  67.380  1.00  0.00    -0.257 S  
HETATM   30  O   UNL     1      -9.272  17.477  66.000  1.00  0.00    -0.489 OA 
HETATM   31  C   UNL     1      -8.250  17.724  68.384  1.00  0.00    -0.298 C  
HETATM   32  O   UNL     1     -10.831  17.836  67.937  1.00  0.00    -0.365 OA 
ENDBRANCH  25  29
ENDBRANCH  21  23
ENDBRANCH  19  21
ENDBRANCH  18  19
BRANCH  18  33
HETATM   33  C   UNL     1     -11.591   9.729  69.969  1.00  0.00    -0.185 A  
HETATM   34  C   UNL     1     -12.729   8.906  72.409  1.00  0.00    -0.436 A  
HETATM   35  C   UNL     1     -12.513  10.548  70.651  1.00  0.00    -0.456 A  
HETATM   36  C   UNL     1     -13.071  10.140  71.862  1.00  0.00    -0.571 A  
HETATM   37  C   UNL     1     -11.828   8.078  71.744  1.00  0.00    -0.339 A  
HETATM   38  C   UNL     1     -11.262   8.485  70.534  1.00  0.00    -0.262 A  
ENDBRANCH  18  33
ENDBRANCH  15  18
ENDBRANCH  12  14
TORSDOF 7
ENDMDL
MODEL       95
REMARK 921   NORMALIZED FREE ENERGY PREDICTED BY IDOCK:   -5.65 KCAL/MOL
REMARK 922        TOTAL FREE ENERGY PREDICTED BY IDOCK:   -9.48 KCAL/MOL
REMARK 923 INTER-LIGAND FREE ENERGY PREDICTED BY IDOCK:   -7.44 KCAL/MOL
REMARK 924 INTRA-LIGAND FREE ENERGY PREDICTED BY IDOCK:   -2.04 KCAL/MOL
REMARK 927      BINDING AFFINITY PREDICTED BY RF-SCORE:    0.00 PKD
ROOT
HETATM    1  C   UNL     1     -10.284  13.053  67.622  1.00  0.00    -0.216 C  
HETATM    2  S   UNL     1      -9.178  12.673  66.212  1.00  0.00    -0.037 SA 
HETATM    3  C   UNL     1     -10.444  11.716  65.262  1.00  0.00    -0.273 C  
HETATM    4  CA  UNL     1     -11.814  12.175  65.820  1.00  0.00    -0.274 C  
HETATM    5  C   UNL     1     -10.183  10.222  65.534  1.00  0.00    -0.308 C  
HETATM    6  C   UNL     1     -10.230  11.948  63.762  1.00  0.00    -0.442 C  
HETATM    7  C   UNL     1     -12.453  13.369  65.087  1.00  0.00    -0.459 C  
HETATM    8  N   UNL     1     -11.615  12.527  67.240  1.00  0.00    -0.348 N  
HETATM    9  OXT UNL     1     -12.746  13.376  63.899  1.00  0.00    -0.670 OA 
HETATM   10  O   UNL     1     -12.725  14.431  65.887  1.00  0.00    -0.377 OA 
HETATM   11  C   UNL     1     -11.579  11.516  68.171  1.00  0.00    -0.308 C  
HETATM   12  CA  UNL     1     -10.298  12.079  68.829  1.00  0.00    -0.160 C  
HETATM   13  O   UNL     1     -12.230  10.501  68.250  1.00  0.00    -0.203 OA 
ENDROOT
BRANCH  12  14
HETATM   14  N   UNL     1      -9.151  11.143  68.959  1.00  0.00    -0.377 N  
HETATM   15  C   UNL     1      -9.201  10.082  69.841  1.00  0.00    -0.158 C  
HETATM   16  H   UNL     1      -8.316  11.286  68.390  1.00  0.00     0.000 HD 
HETATM   17  O   UNL     1     -10.199   9.905  70.543  1.00  0.00    -0.278 OA 
BRANCH  15  18
HETATM   18  CA  UNL     1      -7.905   9.255  70.022  1.00  0.00    -0.116 C  
BRANCH  18  19
HETATM   19  N   UNL     1      -6.760  10.120  69.750  1.00  0.00    -0.080 N  
HETATM   20  H   UNL     1      -6.499  10.304  68.782  1.00  0.00     0.000 HD 
BRANCH  19  21
HETATM   21  C   UNL     1      -6.031  10.688  70.752  1.00  0.00    -0.058 C  
HETATM   22  O   UNL     1      -5.643  10.051  71.730  1.00  0.00    -0.223 OA 
BRANCH  21  23
HETATM   23  N   UNL     1      -5.748  12.027  70.608  1.00  0.00    -0.158 N  
HETATM   24  C   UNL     1      -5.693  14.209  71.527  1.00  0.00    -0.212 C  
HETATM   25  N   UNL     1      -6.023  14.197  70.097  1.00  0.00    -0.139 N  
HETATM   26  C   UNL     1      -5.157  12.791  71.695  1.00  0.00    -0.118 C  
HETATM   27  O   UNL     1      -6.582  12.584  68.497  1.00  0.00    -0.066 OA 
HETATM   28  C   UNL     1      -6.168  12.892  69.598  1.00  0.00    -0.114 C  
BRANCH  25  29
HETATM   29  S   UNL     1      -6.181  15.612  69.253  1.00  0.00    -0.136 S  
HETATM   30  O   UNL     1      -5.749  16.688  70.122  1.00  0.00    -0.211 OA 
HETATM   31  C   UNL     1      -7.943  15.782  69.047  1.00  0.00    -0.214 C  
HETATM   32  O   UNL     1      -5.588  15.440  67.948  1.00  0.00    -0.127 OA 
ENDBRANCH  25  29
ENDBRANCH  21  23
ENDBRANCH  19  21
ENDBRANCH  18  19
BRANCH  18  33
HETATM   33  C   UNL     1      -7.863   7.967  69.211  1.00  0.00    -0.114 A  
HETATM   34  C   UNL     1      -7.779   5.533  67.800  1.00  0.00    -0.092 A  
HETATM   35  C   UNL     1      -7.077   6.891  69.669  1.00  0.00    -0.068 A  
HETATM   36  C   UNL     1      -7.033   5.688  68.965  1.00  0.00    -0.063 A  
HETATM   37  C   UNL     1      -8.570   6.582  67.337  1.00  0.00    -0.118 A  
HETATM   38  C   UNL     1      -8.612   7.790  68.036  1.00  0.00    -0.123 A  
ENDBRANCH  18  33
ENDBRANCH  15  18
ENDBRANCH  12  14
TORSDOF 7
ENDMDL
MODEL       96
REMARK 921   NORMALIZED FREE ENERGY PREDICTED BY IDOCK:   -5.64 KCAL/MOL
REMARK 922        TOTAL FREE ENERGY PREDICTED BY IDOCK:   -9.47 KCAL/MOL
REMARK 923 INTER-LIGAND FREE ENERGY PREDICTED BY IDOCK:   -7.87 KCAL/MOL
REMARK 924 INTRA-LIGAND FREE ENERGY PREDICTED BY IDOCK:   -1.60 KCAL/MOL
REMARK 927      BINDING AFFINITY PREDICTED BY RF-SCORE:    0.00 PKD
ROOT
HETATM    1  C   UNL     1      -9.028  10.390  65.726  1.00  0.00    -0.168 C  
HETATM    2  S   UNL     1      -7.534  11.204  66.405  1.00  0.00    -0.058 SA 
HETATM    3  C   UNL     1      -7.237   9.938  67.719  1.00  0.00    -0.088 C  
HETATM    4  CA  UNL     1      -7.989   8.668  67.247  1.00  0.00    -0.101 C  
HETATM    5  C   UNL     1      -7.822  10.498  69.031  1.00  0.00    -0.129 C  
HETATM    6  C   UNL     1      -5.728   9.772  67.928  1.00  0.00    -0.040 C  
HETATM    7  C   UNL     1      -7.156   7.693  66.396  1.00  0.00    -0.071 C  
HETATM    8  N   UNL     1      -9.161   9.115  66.468  1.00  0.00    -0.148 N  
HETATM    9  OXT UNL     1      -6.129   7.147  66.773  1.00  0.00    -0.035 OA 
HETATM   10  O   UNL     1      -7.685   7.431  65.173  1.00  0.00    -0.097 OA 
HETATM   11  C   UNL     1     -10.285   9.524  67.144  1.00  0.00    -0.242 C  
HETATM   12  CA  UNL     1     -10.412  10.807  66.290  1.00  0.00    -0.226 C  
HETATM   13  O   UNL     1     -10.799   9.086  68.146  1.00  0.00    -0.151 OA 
ENDROOT
BRANCH  12  14
HETATM   14  N   UNL     1     -10.484  12.094  67.029  1.00  0.00    -0.218 N  
HETATM   15  C   UNL     1     -11.611  12.889  66.955  1.00  0.00    -0.362 C  
HETATM   16  H   UNL     1      -9.692  12.395  67.598  1.00  0.00     0.000 HD 
HETATM   17  O   UNL     1     -12.570  12.544  66.262  1.00  0.00    -0.334 OA 
BRANCH  15  18
HETATM   18  CA  UNL     1     -11.537  14.280  67.630  1.00  0.00    -0.368 C  
BRANCH  18  19
HETATM   19  N   UNL     1     -10.204  14.834  67.407  1.00  0.00    -0.236 N  
HETATM   20  H   UNL     1      -9.428  14.500  67.977  1.00  0.00     0.000 HD 
BRANCH  19  21
HETATM   21  C   UNL     1      -9.967  15.785  66.460  1.00  0.00    -0.269 C  
HETATM   22  O   UNL     1     -10.563  15.810  65.384  1.00  0.00    -0.372 OA 
BRANCH  21  23
HETATM   23  N   UNL     1      -9.013  16.725  66.774  1.00  0.00    -0.226 N  
HETATM   24  C   UNL     1      -6.871  17.661  66.396  1.00  0.00    -0.262 C  
HETATM   25  N   UNL     1      -7.272  17.700  67.807  1.00  0.00    -0.187 N  
HETATM   26  C   UNL     1      -8.214  17.360  65.738  1.00  0.00     0.229 C  
HETATM   27  O   UNL     1      -8.984  16.781  69.110  1.00  0.00    -0.226 OA 
HETATM   28  C   UNL     1      -8.490  17.035  68.028  1.00  0.00    -0.216 C  
BRANCH  25  29
HETATM   29  S   UNL     1      -6.333  18.468  68.933  1.00  0.00    -0.241 S  
HETATM   30  O   UNL     1      -5.128  18.915  68.264  1.00  0.00    -0.175 OA 
HETATM   31  C   UNL     1      -5.859  17.158  70.045  1.00  0.00    -0.225 C  
HETATM   32  O   UNL     1      -7.158  19.403  69.662  1.00  0.00    -0.256 OA 
ENDBRANCH  25  29
ENDBRANCH  21  23
ENDBRANCH  19  21
ENDBRANCH  18  19
BRANCH  18  33
HETATM   33  C   UNL     1     -11.928  14.287  69.101  1.00  0.00    -0.372 A  
HETATM   34  C   UNL     1     -12.715  14.377  71.802  1.00  0.00    -0.427 A  
HETATM   35  C   UNL     1     -12.229  15.513  69.727  1.00  0.00    -0.328 A  
HETATM   36  C   UNL     1     -12.614  15.554  71.067  1.00  0.00    -0.513 A  
HETATM   37  C   UNL     1     -12.433  13.154  71.197  1.00  0.00    -0.378 A  
HETATM   38  C   UNL     1     -12.040  13.108  69.858  1.00  0.00    -0.357 A  
ENDBRANCH  18  33
ENDBRANCH  15  18
ENDBRANCH  12  14
TORSDOF 7
ENDMDL
MODEL       97
REMARK 921   NORMALIZED FREE ENERGY PREDICTED BY IDOCK:   -5.64 KCAL/MOL
REMARK 922        TOTAL FREE ENERGY PREDICTED BY IDOCK:   -9.47 KCAL/MOL
REMARK 923 INTER-LIGAND FREE ENERGY PREDICTED BY IDOCK:   -7.61 KCAL/MOL
REMARK 924 INTRA-LIGAND FREE ENERGY PREDICTED BY IDOCK:   -1.85 KCAL/MOL
REMARK 927      BINDING AFFINITY PREDICTED BY RF-SCORE:    0.00 PKD
ROOT
HETATM    1  C   UNL     1     -10.689  14.240  69.279  1.00  0.00    -0.172 C  
HETATM    2  S   UNL     1      -8.904  14.248  68.866  1.00  0.00     0.056 SA 
HETATM    3  C   UNL     1      -9.150  14.636  67.075  1.00  0.00    -0.238 C  
HETATM    4  CA  UNL     1     -10.563  15.264  66.978  1.00  0.00    -0.306 C  
HETATM    5  C   UNL     1      -9.057  13.305  66.304  1.00  0.00     0.011 C  
HETATM    6  C   UNL     1      -7.999  15.523  66.589  1.00  0.00    -0.134 C  
HETATM    7  C   UNL     1     -10.609  16.797  67.114  1.00  0.00    -0.256 C  
HETATM    8  N   UNL     1     -11.388  14.656  68.041  1.00  0.00    -0.296 N  
HETATM    9  OXT UNL     1     -10.029  17.576  66.370  1.00  0.00    -0.300 OA 
HETATM   10  O   UNL     1     -11.406  17.241  68.119  1.00  0.00    -0.073 OA 
HETATM   11  C   UNL     1     -11.930  13.411  67.825  1.00  0.00    -0.324 C  
HETATM   12  CA  UNL     1     -11.455  12.893  69.202  1.00  0.00    -0.306 C  
HETATM   13  O   UNL     1     -12.408  12.929  66.826  1.00  0.00    -0.405 OA 
ENDROOT
BRANCH  12  14
HETATM   14  N   UNL     1     -10.642  11.649  69.201  1.00  0.00    -0.388 N  
HETATM   15  C   UNL     1     -10.981  10.584  70.011  1.00  0.00    -0.286 C  
HETATM   16  H   UNL     1      -9.825  11.581  68.595  1.00  0.00     0.000 HD 
HETATM   17  O   UNL     1     -11.960  10.657  70.757  1.00  0.00    -0.320 OA 
BRANCH  15  18
HETATM   18  CA  UNL     1      -9.992   9.393  70.059  1.00  0.00    -0.221 C  
BRANCH  18  19
HETATM   19  N   UNL     1      -9.769   8.921  68.695  1.00  0.00    -0.158 N  
HETATM   20  H   UNL     1     -10.564   8.849  68.061  1.00  0.00     0.000 HD 
BRANCH  19  21
HETATM   21  C   UNL     1      -8.531   8.572  68.245  1.00  0.00    -0.135 C  
HETATM   22  O   UNL     1      -7.696   8.025  68.964  1.00  0.00    -0.096 OA 
BRANCH  21  23
HETATM   23  N   UNL     1      -8.261   8.870  66.929  1.00  0.00    -0.111 N  
HETATM   24  C   UNL     1      -6.947  10.014  65.326  1.00  0.00    -0.132 C  
HETATM   25  N   UNL     1      -8.358   9.906  64.938  1.00  0.00    -0.141 N  
HETATM   26  C   UNL     1      -6.892   8.985  66.450  1.00  0.00    -0.079 C  
HETATM   27  O   UNL     1     -10.356   9.257  65.968  1.00  0.00    -0.205 OA 
HETATM   28  C   UNL     1      -9.142   9.331  65.953  1.00  0.00    -0.197 C  
BRANCH  25  29
HETATM   29  S   UNL     1      -8.870  10.426  63.453  1.00  0.00    -0.235 S  
HETATM   30  O   UNL     1      -9.256   9.256  62.691  1.00  0.00    -0.171 OA 
HETATM   31  C   UNL     1      -7.388  11.074  62.703  1.00  0.00     0.189 C  
HETATM   32  O   UNL     1      -9.796  11.519  63.640  1.00  0.00    -0.298 OA 
ENDBRANCH  25  29
ENDBRANCH  21  23
ENDBRANCH  19  21
ENDBRANCH  18  19
BRANCH  18  33
HETATM   33  C   UNL     1     -10.404   8.271  71.000  1.00  0.00    -0.230 A  
HETATM   34  C   UNL     1     -11.176   6.263  72.816  1.00  0.00    -0.272 A  
HETATM   35  C   UNL     1     -10.024   8.335  72.355  1.00  0.00    -0.379 A  
HETATM   36  C   UNL     1     -10.404   7.336  73.252  1.00  0.00    -0.389 A  
HETATM   37  C   UNL     1     -11.571   6.188  71.483  1.00  0.00    -0.304 A  
HETATM   38  C   UNL     1     -11.188   7.183  70.580  1.00  0.00    -0.311 A  
ENDBRANCH  18  33
ENDBRANCH  15  18
ENDBRANCH  12  14
TORSDOF 7
ENDMDL
MODEL       98
REMARK 921   NORMALIZED FREE ENERGY PREDICTED BY IDOCK:   -5.64 KCAL/MOL
REMARK 922        TOTAL FREE ENERGY PREDICTED BY IDOCK:   -9.46 KCAL/MOL
REMARK 923 INTER-LIGAND FREE ENERGY PREDICTED BY IDOCK:   -8.73 KCAL/MOL
REMARK 924 INTRA-LIGAND FREE ENERGY PREDICTED BY IDOCK:   -0.74 KCAL/MOL
REMARK 927      BINDING AFFINITY PREDICTED BY RF-SCORE:    0.00 PKD
ROOT
HETATM    1  C   UNL     1      -8.605   7.284  69.960  1.00  0.00    -0.140 C  
HETATM    2  S   UNL     1      -9.080   8.232  71.454  1.00  0.00    -0.187 SA 
HETATM    3  C   UNL     1     -10.643   7.291  71.757  1.00  0.00    -0.205 C  
HETATM    4  CA  UNL     1     -10.467   5.946  71.009  1.00  0.00    -0.237 C  
HETATM    5  C   UNL     1     -11.798   8.128  71.175  1.00  0.00    -0.303 C  
HETATM    6  C   UNL     1     -10.878   7.180  73.268  1.00  0.00    -0.378 C  
HETATM    7  C   UNL     1      -9.852   4.808  71.843  1.00  0.00    -0.176 C  
HETATM    8  N   UNL     1      -9.612   6.205  69.834  1.00  0.00    -0.157 N  
HETATM    9  OXT UNL     1     -10.338   4.363  72.873  1.00  0.00    -0.164 OA 
HETATM   10  O   UNL     1      -8.720   4.280  71.312  1.00  0.00    -0.098 OA 
HETATM   11  C   UNL     1     -10.184   6.752  68.709  1.00  0.00    -0.175 C  
HETATM   12  CA  UNL     1      -9.066   7.812  68.576  1.00  0.00    -0.132 C  
HETATM   13  O   UNL     1     -11.260   6.547  68.200  1.00  0.00    -0.275 OA 
ENDROOT
BRANCH  12  14
HETATM   14  N   UNL     1      -9.500   9.231  68.502  1.00  0.00    -0.145 N  
HETATM   15  C   UNL     1      -8.646  10.207  68.028  1.00  0.00    -0.118 C  
HETATM   16  H   UNL     1     -10.440   9.488  68.804  1.00  0.00     0.000 HD 
HETATM   17  O   UNL     1      -7.503   9.912  67.670  1.00  0.00    -0.089 OA 
BRANCH  15  18
HETATM   18  CA  UNL     1      -9.127  11.675  68.131  1.00  0.00    -0.183 C  
BRANCH  18  19
HETATM   19  N   UNL     1     -10.100  11.920  67.070  1.00  0.00    -0.204 N  
HETATM   20  H   UNL     1      -9.830  11.748  66.102  1.00  0.00     0.000 HD 
BRANCH  19  21
HETATM   21  C   UNL     1     -11.359  12.371  67.335  1.00  0.00    -0.321 C  
HETATM   22  O   UNL     1     -12.257  12.356  66.494  1.00  0.00    -0.586 OA 
BRANCH  21  23
HETATM   23  N   UNL     1     -11.572  12.853  68.606  1.00  0.00    -0.294 N  
HETATM   24  C   UNL     1     -12.567  12.601  70.740  1.00  0.00    -0.217 C  
HETATM   25  N   UNL     1     -12.504  14.000  70.298  1.00  0.00    -0.349 N  
HETATM   26  C   UNL     1     -11.598  11.959  69.753  1.00  0.00    -0.286 C  
HETATM   27  O   UNL     1     -12.005  15.131  68.312  1.00  0.00    -0.298 OA 
HETATM   28  C   UNL     1     -12.022  14.117  68.984  1.00  0.00    -0.340 C  
BRANCH  25  29
HETATM   29  S   UNL     1     -12.967  15.227  71.306  1.00  0.00    -0.476 S  
HETATM   30  O   UNL     1     -11.872  16.173  71.373  1.00  0.00    -0.441 OA 
HETATM   31  C   UNL     1     -13.076  14.440  72.902  1.00  0.00    -0.517 C  
HETATM   32  O   UNL     1     -14.291  15.662  70.926  1.00  0.00    -0.350 OA 
ENDBRANCH  25  29
ENDBRANCH  21  23
ENDBRANCH  19  21
ENDBRANCH  18  19
BRANCH  18  33
HETATM   33  C   UNL     1      -8.007  12.705  68.138  1.00  0.00    -0.158 A  
HETATM   34  C   UNL     1      -6.006  14.685  68.150  1.00  0.00    -0.143 A  
HETATM   35  C   UNL     1      -8.171  13.905  67.419  1.00  0.00    -0.198 A  
HETATM   36  C   UNL     1      -7.176  14.882  67.422  1.00  0.00    -0.213 A  
HETATM   37  C   UNL     1      -5.830  13.510  68.877  1.00  0.00    -0.076 A  
HETATM   38  C   UNL     1      -6.821  12.526  68.871  1.00  0.00    -0.098 A  
ENDBRANCH  18  33
ENDBRANCH  15  18
ENDBRANCH  12  14
TORSDOF 7
ENDMDL
MODEL       99
REMARK 921   NORMALIZED FREE ENERGY PREDICTED BY IDOCK:   -5.60 KCAL/MOL
REMARK 922        TOTAL FREE ENERGY PREDICTED BY IDOCK:   -9.41 KCAL/MOL
REMARK 923 INTER-LIGAND FREE ENERGY PREDICTED BY IDOCK:   -8.31 KCAL/MOL
REMARK 924 INTRA-LIGAND FREE ENERGY PREDICTED BY IDOCK:   -1.10 KCAL/MOL
REMARK 927      BINDING AFFINITY PREDICTED BY RF-SCORE:    0.00 PKD
ROOT
HETATM    1  C   UNL     1     -10.197  12.984  67.886  1.00  0.00    -0.234 C  
HETATM    2  S   UNL     1      -9.120  12.551  66.469  1.00  0.00    -0.126 SA 
HETATM    3  C   UNL     1     -10.468  11.777  65.467  1.00  0.00    -0.267 C  
HETATM    4  CA  UNL     1     -11.789  12.354  66.034  1.00  0.00    -0.395 C  
HETATM    5  C   UNL     1     -10.370  10.253  65.673  1.00  0.00    -0.232 C  
HETATM    6  C   UNL     1     -10.212  12.052  63.981  1.00  0.00    -0.391 C  
HETATM    7  C   UNL     1     -12.288  13.640  65.350  1.00  0.00    -0.476 C  
HETATM    8  N   UNL     1     -11.572  12.620  67.470  1.00  0.00    -0.339 N  
HETATM    9  OXT UNL     1     -12.563  13.731  64.162  1.00  0.00    -0.669 OA 
HETATM   10  O   UNL     1     -12.456  14.689  66.195  1.00  0.00    -0.222 OA 
HETATM   11  C   UNL     1     -11.655  11.571  68.355  1.00  0.00    -0.308 C  
HETATM   12  CA  UNL     1     -10.330  11.965  69.048  1.00  0.00    -0.030 C  
HETATM   13  O   UNL     1     -12.410  10.628  68.382  1.00  0.00    -0.269 OA 
ENDROOT
BRANCH  12  14
HETATM   14  N   UNL     1      -9.290  10.907  69.145  1.00  0.00    -0.378 N  
HETATM   15  C   UNL     1      -9.361   9.934  70.120  1.00  0.00    -0.149 C  
HETATM   16  H   UNL     1      -8.513  10.901  68.482  1.00  0.00     0.000 HD 
HETATM   17  O   UNL     1     -10.287   9.936  70.934  1.00  0.00    -0.253 OA 
BRANCH  15  18
HETATM   18  CA  UNL     1      -8.157   8.969  70.242  1.00  0.00    -0.136 C  
BRANCH  18  19
HETATM   19  N   UNL     1      -8.467   7.744  69.510  1.00  0.00    -0.130 N  
HETATM   20  H   UNL     1      -7.701   7.168  69.163  1.00  0.00     0.000 HD 
BRANCH  19  21
HETATM   21  C   UNL     1      -9.750   7.348  69.276  1.00  0.00    -0.165 C  
HETATM   22  O   UNL     1     -10.389   7.723  68.294  1.00  0.00    -0.197 OA 
BRANCH  21  23
HETATM   23  N   UNL     1     -10.299   6.498  70.209  1.00  0.00    -0.195 N  
HETATM   24  C   UNL     1     -11.653   6.174  72.124  1.00  0.00    -0.317 C  
HETATM   25  N   UNL     1     -10.504   5.262  72.074  1.00  0.00    -0.218 N  
HETATM   26  C   UNL     1     -11.660   6.686  70.687  1.00  0.00    -0.382 C  
HETATM   27  O   UNL     1      -8.554   5.058  70.796  1.00  0.00    -0.117 OA 
HETATM   28  C   UNL     1      -9.650   5.548  70.996  1.00  0.00    -0.170 C  
BRANCH  25  29
HETATM   29  S   UNL     1     -10.325   4.063  73.200  1.00  0.00    -0.176 S  
HETATM   30  O   UNL     1     -11.506   4.074  74.040  1.00  0.00    -0.050 OA 
HETATM   31  C   UNL     1      -8.964   4.629  74.201  1.00  0.00    -0.108 C  
HETATM   32  O   UNL     1      -9.917   2.853  72.524  1.00  0.00    -0.140 OA 
ENDBRANCH  25  29
ENDBRANCH  21  23
ENDBRANCH  19  21
ENDBRANCH  18  19
BRANCH  18  33
HETATM   33  C   UNL     1      -7.714   8.692  71.672  1.00  0.00    -0.146 A  
HETATM   34  C   UNL     1      -6.827   8.255  74.308  1.00  0.00    -0.175 A  
HETATM   35  C   UNL     1      -6.354   8.831  72.010  1.00  0.00    -0.069 A  
HETATM   36  C   UNL     1      -5.916   8.608  73.316  1.00  0.00    -0.105 A  
HETATM   37  C   UNL     1      -8.178   8.124  73.994  1.00  0.00    -0.314 A  
HETATM   38  C   UNL     1      -8.620   8.339  72.687  1.00  0.00    -0.264 A  
ENDBRANCH  18  33
ENDBRANCH  15  18
ENDBRANCH  12  14
TORSDOF 7
ENDMDL
MODEL      100
REMARK 921   NORMALIZED FREE ENERGY PREDICTED BY IDOCK:   -5.59 KCAL/MOL
REMARK 922        TOTAL FREE ENERGY PREDICTED BY IDOCK:   -9.40 KCAL/MOL
REMARK 923 INTER-LIGAND FREE ENERGY PREDICTED BY IDOCK:   -8.14 KCAL/MOL
REMARK 924 INTRA-LIGAND FREE ENERGY PREDICTED BY IDOCK:   -1.26 KCAL/MOL
REMARK 927      BINDING AFFINITY PREDICTED BY RF-SCORE:    0.00 PKD
ROOT
HETATM    1  C   UNL     1      -7.838   6.250  72.337  1.00  0.00    -0.103 C  
HETATM    2  S   UNL     1      -9.532   5.645  72.682  1.00  0.00    -0.145 SA 
HETATM    3  C   UNL     1      -9.298   4.010  71.852  1.00  0.00    -0.133 C  
HETATM    4  CA  UNL     1      -7.765   3.786  71.805  1.00  0.00    -0.062 C  
HETATM    5  C   UNL     1      -9.906   4.125  70.441  1.00  0.00    -0.237 C  
HETATM    6  C   UNL     1     -10.098   2.942  72.606  1.00  0.00    -0.232 C  
HETATM    7  C   UNL     1      -7.176   3.035  73.013  1.00  0.00    -0.045 C  
HETATM    8  N   UNL     1      -7.130   5.114  71.701  1.00  0.00    -0.064 N  
HETATM    9  OXT UNL     1      -7.500   1.905  73.351  1.00  0.00    -0.031 OA 
HETATM   10  O   UNL     1      -6.204   3.716  73.670  1.00  0.00    -0.021 OA 
HETATM   11  C   UNL     1      -7.074   5.725  70.471  1.00  0.00    -0.067 C  
HETATM   12  CA  UNL     1      -7.598   7.064  71.038  1.00  0.00    -0.086 C  
HETATM   13  O   UNL     1      -6.870   5.259  69.375  1.00  0.00    -0.050 OA 
ENDROOT
BRANCH  12  14
HETATM   14  N   UNL     1      -8.793   7.647  70.373  1.00  0.00    -0.143 N  
HETATM   15  C   UNL     1      -9.337   8.836  70.814  1.00  0.00    -0.208 C  
HETATM   16  H   UNL     1      -9.215   7.163  69.580  1.00  0.00     0.000 HD 
HETATM   17  O   UNL     1      -8.843   9.426  71.778  1.00  0.00    -0.203 OA 
BRANCH  15  18
HETATM   18  CA  UNL     1     -10.667   9.287  70.163  1.00  0.00    -0.235 C  
BRANCH  18  19
HETATM   19  N   UNL     1     -10.644  10.740  70.018  1.00  0.00    -0.459 N  
HETATM   20  H   UNL     1     -10.224  11.303  70.756  1.00  0.00     0.000 HD 
BRANCH  19  21
HETATM   21  C   UNL     1     -11.167  11.364  68.925  1.00  0.00    -0.248 C  
HETATM   22  O   UNL     1     -11.811  10.765  68.065  1.00  0.00    -0.546 OA 
BRANCH  21  23
HETATM   23  N   UNL     1     -10.933  12.718  68.834  1.00  0.00    -0.247 N  
HETATM   24  C   UNL     1     -11.772  14.922  68.633  1.00  0.00    -0.330 C  
HETATM   25  N   UNL     1     -10.501  14.727  67.926  1.00  0.00    -0.244 N  
HETATM   26  C   UNL     1     -11.791  13.676  69.512  1.00  0.00    -0.337 C  
HETATM   27  O   UNL     1      -9.152  12.909  67.332  1.00  0.00    -0.180 OA 
HETATM   28  C   UNL     1     -10.081  13.386  67.956  1.00  0.00    -0.241 C  
BRANCH  25  29
HETATM   29  S   UNL     1      -9.726  16.001  67.210  1.00  0.00    -0.234 S  
HETATM   30  O   UNL     1      -8.475  16.201  67.912  1.00  0.00    -0.161 OA 
HETATM   31  C   UNL     1     -10.770  17.394  67.593  1.00  0.00    -0.310 C  
HETATM   32  O   UNL     1      -9.742  15.806  65.778  1.00  0.00    -0.324 OA 
ENDBRANCH  25  29
ENDBRANCH  21  23
ENDBRANCH  19  21
ENDBRANCH  18  19
BRANCH  18  33
HETATM   33  C   UNL     1     -11.917   8.797  70.880  1.00  0.00    -0.235 A  
HETATM   34  C   UNL     1     -14.276   7.977  72.179  1.00  0.00    -0.395 A  
HETATM   35  C   UNL     1     -12.733   9.726  71.554  1.00  0.00    -0.504 A  
HETATM   36  C   UNL     1     -13.898   9.316  72.201  1.00  0.00    -0.478 A  
HETATM   37  C   UNL     1     -13.488   7.044  71.508  1.00  0.00    -0.363 A  
HETATM   38  C   UNL     1     -12.317   7.449  70.864  1.00  0.00    -0.236 A  
ENDBRANCH  18  33
ENDBRANCH  15  18
ENDBRANCH  12  14
TORSDOF 7
ENDMDL
MODEL      101
REMARK 921   NORMALIZED FREE ENERGY PREDICTED BY IDOCK:   -5.58 KCAL/MOL
REMARK 922        TOTAL FREE ENERGY PREDICTED BY IDOCK:   -9.38 KCAL/MOL
REMARK 923 INTER-LIGAND FREE ENERGY PREDICTED BY IDOCK:   -8.55 KCAL/MOL
REMARK 924 INTRA-LIGAND FREE ENERGY PREDICTED BY IDOCK:   -0.83 KCAL/MOL
REMARK 927      BINDING AFFINITY PREDICTED BY RF-SCORE:    0.00 PKD
ROOT
HETATM    1  C   UNL     1      -9.468  13.632  66.625  1.00  0.00    -0.277 C  
HETATM    2  S   UNL     1      -9.937  12.677  65.134  1.00  0.00    -0.114 SA 
HETATM    3  C   UNL     1     -11.598  13.468  64.946  1.00  0.00    -0.335 C  
HETATM    4  CA  UNL     1     -11.508  14.806  65.722  1.00  0.00    -0.322 C  
HETATM    5  C   UNL     1     -12.632  12.510  65.569  1.00  0.00    -0.045 C  
HETATM    6  C   UNL     1     -11.932  13.591  63.456  1.00  0.00    -0.388 C  
HETATM    7  C   UNL     1     -11.055  16.018  64.888  1.00  0.00    -0.370 C  
HETATM    8  N   UNL     1     -10.565  14.605  66.839  1.00  0.00    -0.277 N  
HETATM    9  OXT UNL     1     -11.642  16.437  63.900  1.00  0.00    -1.100 OA 
HETATM   10  O   UNL     1      -9.950  16.641  65.369  1.00  0.00    -0.565 OA 
HETATM   11  C   UNL     1     -11.014  13.979  67.978  1.00  0.00    -0.251 C  
HETATM   12  CA  UNL     1      -9.794  13.030  68.017  1.00  0.00    -0.224 C  
HETATM   13  O   UNL     1     -12.073  14.066  68.553  1.00  0.00    -0.357 OA 
ENDROOT
BRANCH  12  14
HETATM   14  N   UNL     1     -10.084  11.574  68.075  1.00  0.00    -0.181 N  
HETATM   15  C   UNL     1      -9.212  10.703  68.698  1.00  0.00    -0.181 C  
HETATM   16  H   UNL     1     -10.939  11.212  67.650  1.00  0.00     0.000 HD 
HETATM   17  O   UNL     1      -8.171  11.125  69.205  1.00  0.00    -0.058 OA 
BRANCH  15  18
HETATM   18  CA  UNL     1      -9.519   9.191  68.575  1.00  0.00    -0.146 C  
BRANCH  18  19
HETATM   19  N   UNL     1      -9.978   8.919  67.216  1.00  0.00    -0.197 N  
HETATM   20  H   UNL     1     -10.980   8.888  67.030  1.00  0.00     0.000 HD 
BRANCH  19  21
HETATM   21  C   UNL     1      -9.108   8.707  66.188  1.00  0.00    -0.201 C  
HETATM   22  O   UNL     1      -8.646   9.625  65.513  1.00  0.00    -0.134 OA 
BRANCH  21  23
HETATM   23  N   UNL     1      -8.772   7.395  65.944  1.00  0.00    -0.156 N  
HETATM   24  C   UNL     1      -7.698   5.403  66.639  1.00  0.00    -0.100 C  
HETATM   25  N   UNL     1      -7.624   5.617  65.189  1.00  0.00    -0.075 N  
HETATM   26  C   UNL     1      -8.787   6.405  67.009  1.00  0.00    -0.115 C  
HETATM   27  O   UNL     1      -8.097   7.364  63.706  1.00  0.00    -0.111 OA 
HETATM   28  C   UNL     1      -8.160   6.860  64.811  1.00  0.00    -0.095 C  
BRANCH  25  29
HETATM   29  S   UNL     1      -6.969   4.468  64.195  1.00  0.00    -0.046 S  
HETATM   30  O   UNL     1      -8.008   4.037  63.283  1.00  0.00    -0.076 OA 
HETATM   31  C   UNL     1      -6.639   3.104  65.294  1.00  0.00    -0.036 C  
HETATM   32  O   UNL     1      -5.707   4.957  63.692  1.00  0.00    -0.016 OA 
ENDBRANCH  25  29
ENDBRANCH  21  23
ENDBRANCH  19  21
ENDBRANCH  18  19
BRANCH  18  33
HETATM   33  C   UNL     1     -10.478   8.656  69.628  1.00  0.00    -0.220 A  
HETATM   34  C   UNL     1     -12.305   7.753  71.571  1.00  0.00    -0.345 A  
HETATM   35  C   UNL     1     -11.020   9.542  70.580  1.00  0.00    -0.370 A  
HETATM   36  C   UNL     1     -11.920   9.091  71.544  1.00  0.00    -0.414 A  
HETATM   37  C   UNL     1     -11.789   6.864  70.630  1.00  0.00    -0.418 A  
HETATM   38  C   UNL     1     -10.882   7.310  69.667  1.00  0.00    -0.238 A  
ENDBRANCH  18  33
ENDBRANCH  15  18
ENDBRANCH  12  14
TORSDOF 7
ENDMDL
MODEL      102
REMARK 921   NORMALIZED FREE ENERGY PREDICTED BY IDOCK:   -5.55 KCAL/MOL
REMARK 922        TOTAL FREE ENERGY PREDICTED BY IDOCK:   -9.35 KCAL/MOL
REMARK 923 INTER-LIGAND FREE ENERGY PREDICTED BY IDOCK:   -8.14 KCAL/MOL
REMARK 924 INTRA-LIGAND FREE ENERGY PREDICTED BY IDOCK:   -1.21 KCAL/MOL
REMARK 927      BINDING AFFINITY PREDICTED BY RF-SCORE:    0.00 PKD
ROOT
HETATM    1  C   UNL     1     -11.260   7.264  70.497  1.00  0.00    -0.279 C  
HETATM    2  S   UNL     1     -10.122   6.454  69.312  1.00  0.00    -0.183 SA 
HETATM    3  C   UNL     1      -8.844   6.023  70.577  1.00  0.00    -0.145 C  
HETATM    4  CA  UNL     1      -9.584   6.050  71.938  1.00  0.00    -0.150 C  
HETATM    5  C   UNL     1      -7.745   7.100  70.498  1.00  0.00    -0.094 C  
HETATM    6  C   UNL     1      -8.197   4.685  70.204  1.00  0.00    -0.068 C  
HETATM    7  C   UNL     1     -10.191   4.706  72.380  1.00  0.00    -0.189 C  
HETATM    8  N   UNL     1     -10.657   7.058  71.835  1.00  0.00    -0.213 N  
HETATM    9  OXT UNL     1      -9.548   3.681  72.560  1.00  0.00    -0.122 OA 
HETATM   10  O   UNL     1     -11.527   4.750  72.613  1.00  0.00    -0.092 OA 
HETATM   11  C   UNL     1     -10.333   8.385  71.989  1.00  0.00    -0.304 C  
HETATM   12  CA  UNL     1     -11.121   8.793  70.722  1.00  0.00    -0.260 C  
HETATM   13  O   UNL     1      -9.557   8.918  72.745  1.00  0.00    -0.151 OA 
ENDROOT
BRANCH  12  14
HETATM   14  N   UNL     1     -10.376   9.565  69.695  1.00  0.00    -0.207 N  
HETATM   15  C   UNL     1     -10.692  10.884  69.435  1.00  0.00    -0.225 C  
HETATM   16  H   UNL     1      -9.621   9.116  69.175  1.00  0.00     0.000 HD 
HETATM   17  O   UNL     1     -11.609  11.435  70.047  1.00  0.00    -0.298 OA 
BRANCH  15  18
HETATM   18  CA  UNL     1      -9.969  11.560  68.245  1.00  0.00    -0.202 C  
BRANCH  18  19
HETATM   19  N   UNL     1      -8.896  12.400  68.770  1.00  0.00    -0.381 N  
HETATM   20  H   UNL     1      -8.961  12.743  69.727  1.00  0.00     0.000 HD 
BRANCH  19  21
HETATM   21  C   UNL     1      -7.811  12.738  68.019  1.00  0.00    -0.150 C  
HETATM   22  O   UNL     1      -7.242  11.936  67.279  1.00  0.00    -0.127 OA 
BRANCH  21  23
HETATM   23  N   UNL     1      -7.379  14.040  68.133  1.00  0.00    -0.113 N  
HETATM   24  C   UNL     1      -6.617  15.823  69.492  1.00  0.00    -0.183 C  
HETATM   25  N   UNL     1      -7.452  16.273  68.373  1.00  0.00    -0.157 N  
HETATM   26  C   UNL     1      -6.305  14.398  69.045  1.00  0.00    -0.097 C  
HETATM   27  O   UNL     1      -8.832  15.266  66.774  1.00  0.00    -0.232 OA 
HETATM   28  C   UNL     1      -7.992  15.195  67.650  1.00  0.00    -0.161 C  
BRANCH  25  29
HETATM   29  S   UNL     1      -7.670  17.886  68.075  1.00  0.00    -0.252 S  
HETATM   30  O   UNL     1      -9.097  18.138  68.063  1.00  0.00    -0.270 OA 
HETATM   31  C   UNL     1      -7.090  18.084  66.402  1.00  0.00    -0.247 C  
HETATM   32  O   UNL     1      -6.799  18.638  68.947  1.00  0.00    -0.267 OA 
ENDBRANCH  25  29
ENDBRANCH  21  23
ENDBRANCH  19  21
ENDBRANCH  18  19
BRANCH  18  33
HETATM   33  C   UNL     1     -10.889  12.319  67.299  1.00  0.00    -0.283 A  
HETATM   34  C   UNL     1     -12.627  13.636  65.518  1.00  0.00    -0.541 A  
HETATM   35  C   UNL     1     -11.187  11.768  66.038  1.00  0.00    -0.352 A  
HETATM   36  C   UNL     1     -12.044  12.425  65.155  1.00  0.00    -0.464 A  
HETATM   37  C   UNL     1     -12.353  14.191  66.766  1.00  0.00    -0.333 A  
HETATM   38  C   UNL     1     -11.490  13.540  67.650  1.00  0.00    -0.351 A  
ENDBRANCH  18  33
ENDBRANCH  15  18
ENDBRANCH  12  14
TORSDOF 7
ENDMDL
MODEL      103
REMARK 921   NORMALIZED FREE ENERGY PREDICTED BY IDOCK:   -5.55 KCAL/MOL
REMARK 922        TOTAL FREE ENERGY PREDICTED BY IDOCK:   -9.34 KCAL/MOL
REMARK 923 INTER-LIGAND FREE ENERGY PREDICTED BY IDOCK:   -7.52 KCAL/MOL
REMARK 924 INTRA-LIGAND FREE ENERGY PREDICTED BY IDOCK:   -1.82 KCAL/MOL
REMARK 927      BINDING AFFINITY PREDICTED BY RF-SCORE:    0.00 PKD
ROOT
HETATM    1  C   UNL     1      -9.066  16.665  68.070  1.00  0.00    -0.218 C  
HETATM    2  S   UNL     1      -8.077  15.761  69.319  1.00  0.00    -0.217 SA 
HETATM    3  C   UNL     1      -6.522  16.717  69.023  1.00  0.00    -0.195 C  
HETATM    4  CA  UNL     1      -6.972  18.040  68.352  1.00  0.00    -0.236 C  
HETATM    5  C   UNL     1      -5.638  15.870  68.087  1.00  0.00    -0.119 C  
HETATM    6  C   UNL     1      -5.766  16.872  70.346  1.00  0.00    -0.114 C  
HETATM    7  C   UNL     1      -7.266  19.198  69.323  1.00  0.00    -0.248 C  
HETATM    8  N   UNL     1      -8.185  17.744  67.566  1.00  0.00    -0.223 N  
HETATM    9  OXT UNL     1      -6.451  19.674  70.101  1.00  0.00    -0.280 OA 
HETATM   10  O   UNL     1      -8.520  19.706  69.217  1.00  0.00    -0.202 OA 
HETATM   11  C   UNL     1      -8.044  17.168  66.326  1.00  0.00    -0.290 C  
HETATM   12  CA  UNL     1      -9.121  16.100  66.626  1.00  0.00    -0.252 C  
HETATM   13  O   UNL     1      -7.223  17.364  65.461  1.00  0.00    -0.240 OA 
ENDROOT
BRANCH  12  14
HETATM   14  N   UNL     1      -8.722  14.681  66.437  1.00  0.00    -0.459 N  
HETATM   15  C   UNL     1      -9.609  13.657  66.699  1.00  0.00    -0.283 C  
HETATM   16  H   UNL     1      -7.781  14.461  66.109  1.00  0.00     0.000 HD 
HETATM   17  O   UNL     1     -10.745  13.908  67.106  1.00  0.00    -0.279 OA 
BRANCH  15  18
HETATM   18  CA  UNL     1      -9.059  12.212  66.622  1.00  0.00    -0.206 C  
BRANCH  18  19
HETATM   19  N   UNL     1     -10.103  11.294  67.070  1.00  0.00    -0.201 N  
HETATM   20  H   UNL     1     -10.876  11.658  67.626  1.00  0.00     0.000 HD 
BRANCH  19  21
HETATM   21  C   UNL     1     -10.074   9.965  66.768  1.00  0.00    -0.230 C  
HETATM   22  O   UNL     1     -10.119   9.549  65.611  1.00  0.00    -0.285 OA 
BRANCH  21  23
HETATM   23  N   UNL     1      -9.992   9.104  67.839  1.00  0.00    -0.176 N  
HETATM   24  C   UNL     1     -10.207   6.915  68.715  1.00  0.00    -0.174 C  
HETATM   25  N   UNL     1     -10.596   7.956  69.673  1.00  0.00    -0.237 N  
HETATM   26  C   UNL     1      -9.467   7.757  67.681  1.00  0.00    -0.144 C  
HETATM   27  O   UNL     1     -10.992  10.261  69.606  1.00  0.00    -0.234 OA 
HETATM   28  C   UNL     1     -10.576   9.238  69.098  1.00  0.00    -0.212 C  
BRANCH  25  29
HETATM   29  S   UNL     1     -10.992   7.567  71.232  1.00  0.00    -0.245 S  
HETATM   30  O   UNL     1     -10.524   6.218  71.477  1.00  0.00    -0.212 OA 
HETATM   31  C   UNL     1     -12.773   7.505  71.208  1.00  0.00    -0.302 C  
HETATM   32  O   UNL     1     -10.589   8.652  72.095  1.00  0.00    -0.321 OA 
ENDBRANCH  25  29
ENDBRANCH  21  23
ENDBRANCH  19  21
ENDBRANCH  18  19
BRANCH  18  33
HETATM   33  C   UNL     1      -7.745  11.998  67.360  1.00  0.00    -0.162 A  
HETATM   34  C   UNL     1      -5.265  11.643  68.645  1.00  0.00    -0.046 A  
HETATM   35  C   UNL     1      -6.596  11.637  66.630  1.00  0.00    -0.040 A  
HETATM   36  C   UNL     1      -5.370  11.457  67.270  1.00  0.00    -0.064 A  
HETATM   37  C   UNL     1      -6.388  12.012  69.383  1.00  0.00    -0.116 A  
HETATM   38  C   UNL     1      -7.619  12.187  68.747  1.00  0.00    -0.056 A  
ENDBRANCH  18  33
ENDBRANCH  15  18
ENDBRANCH  12  14
TORSDOF 7
ENDMDL
MODEL      104
REMARK 921   NORMALIZED FREE ENERGY PREDICTED BY IDOCK:   -5.54 KCAL/MOL
REMARK 922        TOTAL FREE ENERGY PREDICTED BY IDOCK:   -9.33 KCAL/MOL
REMARK 923 INTER-LIGAND FREE ENERGY PREDICTED BY IDOCK:   -8.50 KCAL/MOL
REMARK 924 INTRA-LIGAND FREE ENERGY PREDICTED BY IDOCK:   -0.84 KCAL/MOL
REMARK 927      BINDING AFFINITY PREDICTED BY RF-SCORE:    0.00 PKD
ROOT
HETATM    1  C   UNL     1     -10.826  16.134  68.275  1.00  0.00    -0.326 C  
HETATM    2  S   UNL     1      -9.299  15.675  69.177  1.00  0.00    -0.265 SA 
HETATM    3  C   UNL     1      -8.160  16.614  68.064  1.00  0.00    -0.180 C  
HETATM    4  CA  UNL     1      -9.048  17.670  67.359  1.00  0.00    -0.239 C  
HETATM    5  C   UNL     1      -7.564  15.604  67.065  1.00  0.00    -0.245 C  
HETATM    6  C   UNL     1      -6.997  17.175  68.890  1.00  0.00    -0.232 C  
HETATM    7  C   UNL     1      -9.147  19.028  68.077  1.00  0.00    -0.307 C  
HETATM    8  N   UNL     1     -10.399  17.090  67.227  1.00  0.00    -0.308 N  
HETATM    9  OXT UNL     1      -8.192  19.752  68.325  1.00  0.00    -0.318 OA 
HETATM   10  O   UNL     1     -10.414  19.403  68.383  1.00  0.00    -0.383 OA 
HETATM   11  C   UNL     1     -10.641  16.207  66.201  1.00  0.00    -0.283 C  
HETATM   12  CA  UNL     1     -11.325  15.194  67.147  1.00  0.00    -0.290 C  
HETATM   13  O   UNL     1     -10.254  16.213  65.057  1.00  0.00    -0.535 OA 
ENDROOT
BRANCH  12  14
HETATM   14  N   UNL     1     -10.791  13.807  67.135  1.00  0.00    -0.281 N  
HETATM   15  C   UNL     1     -11.250  12.881  66.218  1.00  0.00    -0.301 C  
HETATM   16  H   UNL     1     -10.077  13.535  67.811  1.00  0.00     0.000 HD 
HETATM   17  O   UNL     1     -12.120  13.193  65.403  1.00  0.00    -0.380 OA 
BRANCH  15  18
HETATM   18  CA  UNL     1     -10.752  11.425  66.379  1.00  0.00    -0.275 C  
BRANCH  18  19
HETATM   19  N   UNL     1     -11.416  10.832  67.537  1.00  0.00    -0.213 N  
HETATM   20  H   UNL     1     -12.314  10.367  67.407  1.00  0.00     0.000 HD 
BRANCH  19  21
HETATM   21  C   UNL     1     -10.872  10.882  68.786  1.00  0.00    -0.209 C  
HETATM   22  O   UNL     1     -10.686  11.941  69.384  1.00  0.00    -0.113 OA 
BRANCH  21  23
HETATM   23  N   UNL     1     -10.537   9.671  69.347  1.00  0.00    -0.217 N  
HETATM   24  C   UNL     1      -9.111   8.396  70.743  1.00  0.00    -0.156 C  
HETATM   25  N   UNL     1      -9.600   7.642  69.583  1.00  0.00    -0.160 N  
HETATM   26  C   UNL     1     -10.068   9.584  70.721  1.00  0.00    -0.282 C  
HETATM   27  O   UNL     1     -10.742   8.132  67.600  1.00  0.00    -0.221 OA 
HETATM   28  C   UNL     1     -10.346   8.448  68.705  1.00  0.00    -0.206 C  
BRANCH  25  29
HETATM   29  S   UNL     1      -9.264   6.031  69.417  1.00  0.00    -0.132 S  
HETATM   30  O   UNL     1     -10.513   5.309  69.544  1.00  0.00    -0.273 OA 
HETATM   31  C   UNL     1      -8.293   5.656  70.864  1.00  0.00    -0.124 C  
HETATM   32  O   UNL     1      -8.427   5.851  68.253  1.00  0.00    -0.114 OA 
ENDBRANCH  25  29
ENDBRANCH  21  23
ENDBRANCH  19  21
ENDBRANCH  18  19
BRANCH  18  33
HETATM   33  C   UNL     1      -9.238  11.280  66.444  1.00  0.00    -0.206 A  
HETATM   34  C   UNL     1      -6.440  11.053  66.659  1.00  0.00    -0.129 A  
HETATM   35  C   UNL     1      -8.482  12.256  67.124  1.00  0.00    -0.184 A  
HETATM   36  C   UNL     1      -7.095  12.143  67.224  1.00  0.00    -0.144 A  
HETATM   37  C   UNL     1      -7.172  10.072  65.993  1.00  0.00    -0.112 A  
HETATM   38  C   UNL     1      -8.559  10.184  65.884  1.00  0.00    -0.156 A  
ENDBRANCH  18  33
ENDBRANCH  15  18
ENDBRANCH  12  14
TORSDOF 7
ENDMDL
MODEL      105
REMARK 921   NORMALIZED FREE ENERGY PREDICTED BY IDOCK:   -5.52 KCAL/MOL
REMARK 922        TOTAL FREE ENERGY PREDICTED BY IDOCK:   -9.30 KCAL/MOL
REMARK 923 INTER-LIGAND FREE ENERGY PREDICTED BY IDOCK:   -7.65 KCAL/MOL
REMARK 924 INTRA-LIGAND FREE ENERGY PREDICTED BY IDOCK:   -1.65 KCAL/MOL
REMARK 927      BINDING AFFINITY PREDICTED BY RF-SCORE:    0.00 PKD
ROOT
HETATM    1  C   UNL     1      -9.377   5.445  70.357  1.00  0.00    -0.159 C  
HETATM    2  S   UNL     1      -8.309   6.447  71.458  1.00  0.00    -0.125 SA 
HETATM    3  C   UNL     1      -9.652   6.862  72.659  1.00  0.00    -0.145 C  
HETATM    4  CA  UNL     1     -10.742   5.781  72.451  1.00  0.00    -0.235 C  
HETATM    5  C   UNL     1     -10.163   8.271  72.301  1.00  0.00    -0.375 C  
HETATM    6  C   UNL     1      -9.060   6.939  74.071  1.00  0.00    -0.225 C  
HETATM    7  C   UNL     1     -10.604   4.532  73.339  1.00  0.00    -0.225 C  
HETATM    8  N   UNL     1     -10.694   5.377  71.032  1.00  0.00    -0.209 N  
HETATM    9  OXT UNL     1     -10.617   4.547  74.562  1.00  0.00    -0.263 OA 
HETATM   10  O   UNL     1     -10.515   3.367  72.649  1.00  0.00    -0.158 OA 
HETATM   11  C   UNL     1     -11.311   6.174  70.097  1.00  0.00    -0.363 C  
HETATM   12  CA  UNL     1     -10.076   6.152  69.167  1.00  0.00    -0.170 C  
HETATM   13  O   UNL     1     -12.354   6.781  70.152  1.00  0.00    -0.158 OA 
ENDROOT
BRANCH  12  14
HETATM   14  N   UNL     1      -9.534   7.472  68.750  1.00  0.00    -0.148 N  
HETATM   15  C   UNL     1      -9.383   7.782  67.413  1.00  0.00    -0.141 C  
HETATM   16  H   UNL     1      -9.271   8.157  69.459  1.00  0.00     0.000 HD 
HETATM   17  O   UNL     1      -9.685   6.960  66.546  1.00  0.00    -0.175 OA 
BRANCH  15  18
HETATM   18  CA  UNL     1      -8.669   9.114  67.076  1.00  0.00    -0.123 C  
BRANCH  18  19
HETATM   19  N   UNL     1      -8.986  10.087  68.118  1.00  0.00    -0.121 N  
HETATM   20  H   UNL     1      -9.824   9.952  68.682  1.00  0.00     0.000 HD 
BRANCH  19  21
HETATM   21  C   UNL     1      -8.196  11.172  68.358  1.00  0.00    -0.144 C  
HETATM   22  O   UNL     1      -7.028  11.069  68.732  1.00  0.00    -0.068 OA 
BRANCH  21  23
HETATM   23  N   UNL     1      -8.781  12.401  68.158  1.00  0.00    -0.186 N  
HETATM   24  C   UNL     1      -8.828  14.729  68.585  1.00  0.00    -0.180 C  
HETATM   25  N   UNL     1     -10.167  14.147  68.435  1.00  0.00    -0.241 N  
HETATM   26  C   UNL     1      -7.974  13.602  68.014  1.00  0.00    -0.154 C  
HETATM   27  O   UNL     1     -11.078  11.995  68.311  1.00  0.00    -0.211 OA 
HETATM   28  C   UNL     1     -10.123  12.749  68.301  1.00  0.00    -0.237 C  
BRANCH  25  29
HETATM   29  S   UNL     1     -11.513  15.110  68.431  1.00  0.00    -0.340 S  
HETATM   30  O   UNL     1     -11.065  16.486  68.489  1.00  0.00    -0.348 OA 
HETATM   31  C   UNL     1     -12.291  14.747  69.993  1.00  0.00    -0.316 C  
HETATM   32  O   UNL     1     -12.394  14.668  67.375  1.00  0.00    -0.193 OA 
ENDBRANCH  25  29
ENDBRANCH  21  23
ENDBRANCH  19  21
ENDBRANCH  18  19
BRANCH  18  33
HETATM   33  C   UNL     1      -8.958   9.647  65.680  1.00  0.00    -0.208 A  
HETATM   34  C   UNL     1      -9.543  10.709  63.139  1.00  0.00    -0.382 A  
HETATM   35  C   UNL     1     -10.196  10.268  65.422  1.00  0.00    -0.312 A  
HETATM   36  C   UNL     1     -10.485  10.788  64.161  1.00  0.00    -0.309 A  
HETATM   37  C   UNL     1      -8.309  10.109  63.378  1.00  0.00    -0.168 A  
HETATM   38  C   UNL     1      -8.017   9.580  64.637  1.00  0.00    -0.128 A  
ENDBRANCH  18  33
ENDBRANCH  15  18
ENDBRANCH  12  14
TORSDOF 7
ENDMDL
MODEL      106
REMARK 921   NORMALIZED FREE ENERGY PREDICTED BY IDOCK:   -5.51 KCAL/MOL
REMARK 922        TOTAL FREE ENERGY PREDICTED BY IDOCK:   -9.29 KCAL/MOL
REMARK 923 INTER-LIGAND FREE ENERGY PREDICTED BY IDOCK:   -7.90 KCAL/MOL
REMARK 924 INTRA-LIGAND FREE ENERGY PREDICTED BY IDOCK:   -1.38 KCAL/MOL
REMARK 927      BINDING AFFINITY PREDICTED BY RF-SCORE:    0.00 PKD
ROOT
HETATM    1  C   UNL     1      -8.819  17.239  68.447  1.00  0.00    -0.269 C  
HETATM    2  S   UNL     1      -7.790  16.013  69.339  1.00  0.00    -0.077 SA 
HETATM    3  C   UNL     1      -6.173  16.732  68.803  1.00  0.00    -0.151 C  
HETATM    4  CA  UNL     1      -6.486  18.194  68.395  1.00  0.00    -0.208 C  
HETATM    5  C   UNL     1      -5.676  15.895  67.609  1.00  0.00    -0.163 C  
HETATM    6  C   UNL     1      -5.150  16.566  69.932  1.00  0.00    -0.155 C  
HETATM    7  C   UNL     1      -6.349  19.232  69.524  1.00  0.00    -0.304 C  
HETATM    8  N   UNL     1      -7.867  18.219  67.875  1.00  0.00    -0.244 N  
HETATM    9  OXT UNL     1      -5.318  19.449  70.144  1.00  0.00    -0.196 OA 
HETATM   10  O   UNL     1      -7.477  19.950  69.757  1.00  0.00    -0.105 OA 
HETATM   11  C   UNL     1      -8.093  17.813  66.581  1.00  0.00    -0.258 C  
HETATM   12  CA  UNL     1      -9.272  16.906  67.002  1.00  0.00    -0.234 C  
HETATM   13  O   UNL     1      -7.441  17.994  65.580  1.00  0.00    -0.542 OA 
ENDROOT
BRANCH  12  14
HETATM   14  N   UNL     1      -9.200  15.483  66.579  1.00  0.00    -0.268 N  
HETATM   15  C   UNL     1     -10.147  14.572  67.000  1.00  0.00    -0.254 C  
HETATM   16  H   UNL     1      -8.441  15.175  65.969  1.00  0.00     0.000 HD 
HETATM   17  O   UNL     1     -11.062  14.927  67.746  1.00  0.00    -0.286 OA 
BRANCH  15  18
HETATM   18  CA  UNL     1      -9.906  13.086  66.638  1.00  0.00    -0.252 C  
BRANCH  18  19
HETATM   19  N   UNL     1      -8.466  12.854  66.566  1.00  0.00    -0.415 N  
HETATM   20  H   UNL     1      -7.947  13.217  65.768  1.00  0.00     0.000 HD 
BRANCH  19  21
HETATM   21  C   UNL     1      -7.797  12.166  67.533  1.00  0.00    -0.162 C  
HETATM   22  O   UNL     1      -7.306  12.717  68.517  1.00  0.00    -0.107 OA 
BRANCH  21  23
HETATM   23  N   UNL     1      -7.696  10.806  67.347  1.00  0.00    -0.105 N  
HETATM   24  C   UNL     1      -8.162   8.888  66.039  1.00  0.00    -0.117 C  
HETATM   25  N   UNL     1      -8.184   8.617  67.481  1.00  0.00    -0.110 N  
HETATM   26  C   UNL     1      -7.464  10.244  66.026  1.00  0.00    -0.128 C  
HETATM   27  O   UNL     1      -8.151   9.886  69.447  1.00  0.00    -0.112 OA 
HETATM   28  C   UNL     1      -8.024   9.788  68.241  1.00  0.00    -0.096 C  
BRANCH  25  29
HETATM   29  S   UNL     1      -8.376   7.075  68.050  1.00  0.00    -0.118 S  
HETATM   30  O   UNL     1      -8.573   6.209  66.905  1.00  0.00    -0.109 OA 
HETATM   31  C   UNL     1      -9.926   7.143  68.928  1.00  0.00    -0.163 C  
HETATM   32  O   UNL     1      -7.328   6.801  69.006  1.00  0.00    -0.088 OA 
ENDBRANCH  25  29
ENDBRANCH  21  23
ENDBRANCH  19  21
ENDBRANCH  18  19
BRANCH  18  33
HETATM   33  C   UNL     1     -10.632  12.619  65.384  1.00  0.00    -0.307 A  
HETATM   34  C   UNL     1     -12.043  11.827  63.080  1.00  0.00    -0.252 A  
HETATM   35  C   UNL     1     -12.039  12.668  65.344  1.00  0.00    -0.516 A  
HETATM   36  C   UNL     1     -12.736  12.270  64.203  1.00  0.00    -0.431 A  
HETATM   37  C   UNL     1     -10.650  11.782  63.097  1.00  0.00    -0.341 A  
HETATM   38  C   UNL     1      -9.949  12.173  64.240  1.00  0.00    -0.262 A  
ENDBRANCH  18  33
ENDBRANCH  15  18
ENDBRANCH  12  14
TORSDOF 7
ENDMDL
MODEL      107
REMARK 921   NORMALIZED FREE ENERGY PREDICTED BY IDOCK:   -5.47 KCAL/MOL
REMARK 922        TOTAL FREE ENERGY PREDICTED BY IDOCK:   -9.23 KCAL/MOL
REMARK 923 INTER-LIGAND FREE ENERGY PREDICTED BY IDOCK:   -7.71 KCAL/MOL
REMARK 924 INTRA-LIGAND FREE ENERGY PREDICTED BY IDOCK:   -1.52 KCAL/MOL
REMARK 927      BINDING AFFINITY PREDICTED BY RF-SCORE:    0.00 PKD
ROOT
HETATM    1  C   UNL     1     -10.153   7.022  66.886  1.00  0.00    -0.226 C  
HETATM    2  S   UNL     1      -8.349   7.346  66.893  1.00  0.00    -0.124 SA 
HETATM    3  C   UNL     1      -7.946   6.015  68.111  1.00  0.00    -0.110 C  
HETATM    4  CA  UNL     1      -9.144   5.033  68.062  1.00  0.00    -0.114 C  
HETATM    5  C   UNL     1      -7.810   6.687  69.491  1.00  0.00    -0.106 C  
HETATM    6  C   UNL     1      -6.582   5.410  67.764  1.00  0.00    -0.053 C  
HETATM    7  C   UNL     1      -9.003   3.879  67.053  1.00  0.00    -0.138 C  
HETATM    8  N   UNL     1     -10.346   5.822  67.733  1.00  0.00    -0.193 N  
HETATM    9  OXT UNL     1      -8.106   3.047  67.072  1.00  0.00    -0.078 OA 
HETATM   10  O   UNL     1     -10.004   3.815  66.139  1.00  0.00    -0.124 OA 
HETATM   11  C   UNL     1     -10.969   6.525  68.737  1.00  0.00    -0.305 C  
HETATM   12  CA  UNL     1     -11.044   7.810  67.881  1.00  0.00     0.284 C  
HETATM   13  O   UNL     1     -11.167   6.231  69.892  1.00  0.00    -0.366 OA 
ENDROOT
BRANCH  12  14
HETATM   14  N   UNL     1     -10.469   9.043  68.478  1.00  0.00    -0.261 N  
HETATM   15  C   UNL     1     -10.836  10.291  68.016  1.00  0.00    -0.275 C  
HETATM   16  H   UNL     1      -9.794   8.967  69.240  1.00  0.00     0.000 HD 
HETATM   17  O   UNL     1     -11.641  10.397  67.088  1.00  0.00    -0.166 OA 
BRANCH  15  18
HETATM   18  CA  UNL     1     -10.072  11.508  68.590  1.00  0.00    -0.207 C  
BRANCH  18  19
HETATM   19  N   UNL     1     -10.671  12.727  68.054  1.00  0.00    -0.224 N  
HETATM   20  H   UNL     1     -10.842  12.795  67.052  1.00  0.00     0.000 HD 
BRANCH  19  21
HETATM   21  C   UNL     1     -11.010  13.778  68.854  1.00  0.00    -0.252 C  
HETATM   22  O   UNL     1     -11.681  13.642  69.876  1.00  0.00    -0.288 OA 
BRANCH  21  23
HETATM   23  N   UNL     1     -10.555  15.013  68.453  1.00  0.00    -0.234 N  
HETATM   24  C   UNL     1     -10.503  17.362  68.751  1.00  0.00    -0.333 C  
HETATM   25  N   UNL     1     -10.448  16.962  67.340  1.00  0.00    -0.317 N  
HETATM   26  C   UNL     1     -10.187  16.030  69.425  1.00  0.00    -0.270 C  
HETATM   27  O   UNL     1     -10.744  14.985  66.123  1.00  0.00    -0.310 OA 
HETATM   28  C   UNL     1     -10.600  15.574  67.178  1.00  0.00    -0.300 C  
BRANCH  25  29
HETATM   29  S   UNL     1     -10.226  18.089  66.149  1.00  0.00    -0.311 S  
HETATM   30  O   UNL     1      -8.803  18.171  65.886  1.00  0.00    -0.500 OA 
HETATM   31  C   UNL     1     -10.704  19.619  66.926  1.00  0.00    -0.453 C  
HETATM   32  O   UNL     1     -11.155  17.817  65.077  1.00  0.00    -0.717 OA 
ENDBRANCH  25  29
ENDBRANCH  21  23
ENDBRANCH  19  21
ENDBRANCH  18  19
BRANCH  18  33
HETATM   33  C   UNL     1      -8.566  11.463  68.379  1.00  0.00    -0.156 A  
HETATM   34  C   UNL     1      -5.783  11.473  67.950  1.00  0.00    -0.045 A  
HETATM   35  C   UNL     1      -8.010  12.087  67.245  1.00  0.00    -0.174 A  
HETATM   36  C   UNL     1      -6.632  12.085  67.032  1.00  0.00    -0.108 A  
HETATM   37  C   UNL     1      -6.313  10.862  69.084  1.00  0.00    -0.058 A  
HETATM   38  C   UNL     1      -7.693  10.854  69.298  1.00  0.00    -0.100 A  
ENDBRANCH  18  33
ENDBRANCH  15  18
ENDBRANCH  12  14
TORSDOF 7
ENDMDL
MODEL      108
REMARK 921   NORMALIZED FREE ENERGY PREDICTED BY IDOCK:   -5.47 KCAL/MOL
REMARK 922        TOTAL FREE ENERGY PREDICTED BY IDOCK:   -9.23 KCAL/MOL
REMARK 923 INTER-LIGAND FREE ENERGY PREDICTED BY IDOCK:   -7.25 KCAL/MOL
REMARK 924 INTRA-LIGAND FREE ENERGY PREDICTED BY IDOCK:   -1.98 KCAL/MOL
REMARK 927      BINDING AFFINITY PREDICTED BY RF-SCORE:    0.00 PKD
ROOT
HETATM    1  C   UNL     1      -9.178   9.714  70.173  1.00  0.00    -0.246 C  
HETATM    2  S   UNL     1     -10.860   9.111  69.766  1.00  0.00    -0.178 SA 
HETATM    3  C   UNL     1     -10.537   7.363  70.273  1.00  0.00    -0.231 C  
HETATM    4  CA  UNL     1      -9.318   7.427  71.227  1.00  0.00    -0.153 C  
HETATM    5  C   UNL     1     -10.223   6.567  68.991  1.00  0.00    -0.204 C  
HETATM    6  C   UNL     1     -11.815   6.768  70.875  1.00  0.00    -0.438 C  
HETATM    7  C   UNL     1      -9.662   7.589  72.719  1.00  0.00    -0.187 C  
HETATM    8  N   UNL     1      -8.481   8.564  70.795  1.00  0.00    -0.135 N  
HETATM    9  OXT UNL     1     -10.336   6.798  73.364  1.00  0.00    -0.235 OA 
HETATM   10  O   UNL     1      -9.104   8.680  73.302  1.00  0.00    -0.246 OA 
HETATM   11  C   UNL     1      -7.632   8.390  69.728  1.00  0.00    -0.087 C  
HETATM   12  CA  UNL     1      -8.102   9.701  69.056  1.00  0.00    -0.103 C  
HETATM   13  O   UNL     1      -6.952   7.442  69.415  1.00  0.00    -0.058 OA 
ENDROOT
BRANCH  12  14
HETATM   14  N   UNL     1      -8.582   9.595  67.653  1.00  0.00    -0.125 N  
HETATM   15  C   UNL     1      -8.479  10.666  66.788  1.00  0.00    -0.134 C  
HETATM   16  H   UNL     1      -8.992   8.720  67.325  1.00  0.00     0.000 HD 
HETATM   17  O   UNL     1      -7.996  11.732  67.175  1.00  0.00    -0.152 OA 
BRANCH  15  18
HETATM   18  CA  UNL     1      -9.143  10.515  65.398  1.00  0.00    -0.187 C  
BRANCH  18  19
HETATM   19  N   UNL     1      -8.112  10.663  64.373  1.00  0.00    -0.355 N  
HETATM   20  H   UNL     1      -8.234  11.369  63.649  1.00  0.00     0.000 HD 
BRANCH  19  21
HETATM   21  C   UNL     1      -6.993   9.884  64.357  1.00  0.00    -0.128 C  
HETATM   22  O   UNL     1      -5.879  10.322  64.641  1.00  0.00    -0.114 OA 
BRANCH  21  23
HETATM   23  N   UNL     1      -7.179   8.568  64.001  1.00  0.00    -0.090 N  
HETATM   24  C   UNL     1      -8.197   6.962  62.590  1.00  0.00    -0.007 C  
HETATM   25  N   UNL     1      -8.037   6.492  63.971  1.00  0.00    -0.076 N  
HETATM   26  C   UNL     1      -7.271   8.174  62.604  1.00  0.00    -0.096 C  
HETATM   27  O   UNL     1      -7.452   7.439  66.029  1.00  0.00    -0.079 OA 
HETATM   28  C   UNL     1      -7.541   7.498  64.817  1.00  0.00    -0.102 C  
BRANCH  25  29
HETATM   29  S   UNL     1      -8.418   4.936  64.385  1.00  0.00    -0.138 S  
HETATM   30  O   UNL     1      -7.193   4.282  64.799  1.00  0.00    -0.067 OA 
HETATM   31  C   UNL     1      -8.906   4.199  62.837  1.00  0.00    -0.109 C  
HETATM   32  O   UNL     1      -9.569   4.959  65.257  1.00  0.00    -0.147 OA 
ENDBRANCH  25  29
ENDBRANCH  21  23
ENDBRANCH  19  21
ENDBRANCH  18  19
BRANCH  18  33
HETATM   33  C   UNL     1     -10.329  11.439  65.163  1.00  0.00    -0.344 A  
HETATM   34  C   UNL     1     -12.496  13.202  64.812  1.00  0.00    -0.460 A  
HETATM   35  C   UNL     1     -11.023  11.963  66.271  1.00  0.00    -0.345 A  
HETATM   36  C   UNL     1     -12.100  12.832  66.094  1.00  0.00    -0.429 A  
HETATM   37  C   UNL     1     -11.814  12.703  63.704  1.00  0.00    -0.606 A  
HETATM   38  C   UNL     1     -10.740  11.827  63.877  1.00  0.00    -0.457 A  
ENDBRANCH  18  33
ENDBRANCH  15  18
ENDBRANCH  12  14
TORSDOF 7
ENDMDL
MODEL      109
REMARK 921   NORMALIZED FREE ENERGY PREDICTED BY IDOCK:   -5.46 KCAL/MOL
REMARK 922        TOTAL FREE ENERGY PREDICTED BY IDOCK:   -9.21 KCAL/MOL
REMARK 923 INTER-LIGAND FREE ENERGY PREDICTED BY IDOCK:   -7.47 KCAL/MOL
REMARK 924 INTRA-LIGAND FREE ENERGY PREDICTED BY IDOCK:   -1.74 KCAL/MOL
REMARK 927      BINDING AFFINITY PREDICTED BY RF-SCORE:    0.00 PKD
ROOT
HETATM    1  C   UNL     1      -9.166  16.925  67.960  1.00  0.00    -0.235 C  
HETATM    2  S   UNL     1      -8.161  15.804  69.004  1.00  0.00    -0.238 SA 
HETATM    3  C   UNL     1      -6.567  16.698  68.721  1.00  0.00    -0.169 C  
HETATM    4  CA  UNL     1      -6.968  18.123  68.264  1.00  0.00    -0.233 C  
HETATM    5  C   UNL     1      -5.806  15.933  67.621  1.00  0.00    -0.171 C  
HETATM    6  C   UNL     1      -5.717  16.627  69.994  1.00  0.00    -0.217 C  
HETATM    7  C   UNL     1      -7.118  19.155  69.396  1.00  0.00    -0.213 C  
HETATM    8  N   UNL     1      -8.247  18.008  67.538  1.00  0.00    -0.233 N  
HETATM    9  OXT UNL     1      -6.223  19.473  70.167  1.00  0.00    -0.269 OA 
HETATM   10  O   UNL     1      -8.338  19.746  69.450  1.00  0.00    -0.081 OA 
HETATM   11  C   UNL     1      -8.227  17.597  66.226  1.00  0.00    -0.229 C  
HETATM   12  CA  UNL     1      -9.353  16.564  66.463  1.00  0.00    -0.269 C  
HETATM   13  O   UNL     1      -7.453  17.858  65.336  1.00  0.00    -0.436 OA 
ENDROOT
BRANCH  12  14
HETATM   14  N   UNL     1      -9.065  15.162  66.062  1.00  0.00    -0.472 N  
HETATM   15  C   UNL     1     -10.001  14.166  66.255  1.00  0.00    -0.303 C  
HETATM   16  H   UNL     1      -8.166  14.933  65.639  1.00  0.00     0.000 HD 
HETATM   17  O   UNL     1     -11.088  14.427  66.776  1.00  0.00    -0.308 OA 
BRANCH  15  18
HETATM   18  CA  UNL     1      -9.558  12.714  65.950  1.00  0.00    -0.153 C  
BRANCH  18  19
HETATM   19  N   UNL     1     -10.694  11.990  65.388  1.00  0.00    -0.278 N  
HETATM   20  H   UNL     1     -11.558  11.931  65.926  1.00  0.00     0.000 HD 
BRANCH  19  21
HETATM   21  C   UNL     1     -10.635  11.391  64.165  1.00  0.00    -0.369 C  
HETATM   22  O   UNL     1     -11.481  11.584  63.292  1.00  0.00    -0.309 OA 
BRANCH  21  23
HETATM   23  N   UNL     1      -9.566  10.549  63.956  1.00  0.00    -0.287 N  
HETATM   24  C   UNL     1      -8.228   9.285  62.467  1.00  0.00    -0.156 C  
HETATM   25  N   UNL     1      -8.382   8.648  63.780  1.00  0.00    -0.149 N  
HETATM   26  C   UNL     1      -8.711  10.696  62.789  1.00  0.00    -0.238 C  
HETATM   27  O   UNL     1      -9.706   8.979  65.682  1.00  0.00    -0.243 OA 
HETATM   28  C   UNL     1      -9.275   9.352  64.607  1.00  0.00    -0.122 C  
BRANCH  25  29
HETATM   29  S   UNL     1      -7.556   7.264  64.152  1.00  0.00    -0.117 S  
HETATM   30  O   UNL     1      -6.998   7.432  65.478  1.00  0.00    -0.058 OA 
HETATM   31  C   UNL     1      -6.191   7.271  63.005  1.00  0.00    -0.053 C  
HETATM   32  O   UNL     1      -8.396   6.129  63.847  1.00  0.00    -0.059 OA 
ENDBRANCH  25  29
ENDBRANCH  21  23
ENDBRANCH  19  21
ENDBRANCH  18  19
BRANCH  18  33
HETATM   33  C   UNL     1      -8.935  11.985  67.132  1.00  0.00    -0.185 A  
HETATM   34  C   UNL     1      -7.866  10.578  69.324  1.00  0.00    -0.144 A  
HETATM   35  C   UNL     1      -9.765  11.533  68.177  1.00  0.00    -0.192 A  
HETATM   36  C   UNL     1      -9.232  10.840  69.264  1.00  0.00    -0.068 A  
HETATM   37  C   UNL     1      -7.031  11.008  68.295  1.00  0.00    -0.069 A  
HETATM   38  C   UNL     1      -7.560  11.707  67.208  1.00  0.00    -0.147 A  
ENDBRANCH  18  33
ENDBRANCH  15  18
ENDBRANCH  12  14
TORSDOF 7
ENDMDL
MODEL      110
REMARK 921   NORMALIZED FREE ENERGY PREDICTED BY IDOCK:   -5.45 KCAL/MOL
REMARK 922        TOTAL FREE ENERGY PREDICTED BY IDOCK:   -9.20 KCAL/MOL
REMARK 923 INTER-LIGAND FREE ENERGY PREDICTED BY IDOCK:   -8.21 KCAL/MOL
REMARK 924 INTRA-LIGAND FREE ENERGY PREDICTED BY IDOCK:   -0.99 KCAL/MOL
REMARK 927      BINDING AFFINITY PREDICTED BY RF-SCORE:    0.00 PKD
ROOT
HETATM    1  C   UNL     1     -10.453   5.446  71.124  1.00  0.00    -0.225 C  
HETATM    2  S   UNL     1      -8.709   5.221  70.611  1.00  0.00    -0.127 SA 
HETATM    3  C   UNL     1      -8.039   5.136  72.332  1.00  0.00    -0.110 C  
HETATM    4  CA  UNL     1      -9.245   4.755  73.227  1.00  0.00    -0.114 C  
HETATM    5  C   UNL     1      -7.487   6.533  72.676  1.00  0.00    -0.094 C  
HETATM    6  C   UNL     1      -6.858   4.161  72.366  1.00  0.00    -0.046 C  
HETATM    7  C   UNL     1      -9.449   3.244  73.442  1.00  0.00    -0.099 C  
HETATM    8  N   UNL     1     -10.454   5.324  72.600  1.00  0.00    -0.208 N  
HETATM    9  OXT UNL     1      -8.622   2.499  73.950  1.00  0.00    -0.070 OA 
HETATM   10  O   UNL     1     -10.670   2.789  73.063  1.00  0.00    -0.161 OA 
HETATM   11  C   UNL     1     -10.735   6.656  72.797  1.00  0.00    -0.243 C  
HETATM   12  CA  UNL     1     -10.990   6.891  71.290  1.00  0.00    -0.243 C  
HETATM   13  O   UNL     1     -10.611   7.344  73.781  1.00  0.00    -0.349 OA 
ENDROOT
BRANCH  12  14
HETATM   14  N   UNL     1     -10.213   7.982  70.646  1.00  0.00    -0.195 N  
HETATM   15  C   UNL     1     -10.761   9.239  70.484  1.00  0.00    -0.257 C  
HETATM   16  H   UNL     1      -9.263   7.801  70.321  1.00  0.00     0.000 HD 
HETATM   17  O   UNL     1     -11.912   9.469  70.862  1.00  0.00    -0.286 OA 
BRANCH  15  18
HETATM   18  CA  UNL     1      -9.939  10.265  69.667  1.00  0.00    -0.207 C  
BRANCH  18  19
HETATM   19  N   UNL     1     -10.683  11.521  69.616  1.00  0.00    -0.456 N  
HETATM   20  H   UNL     1     -10.687  12.127  70.436  1.00  0.00     0.000 HD 
BRANCH  19  21
HETATM   21  C   UNL     1     -11.373  11.908  68.506  1.00  0.00    -0.276 C  
HETATM   22  O   UNL     1     -12.279  11.231  68.022  1.00  0.00    -0.621 OA 
BRANCH  21  23
HETATM   23  N   UNL     1     -10.997  13.109  67.950  1.00  0.00    -0.241 N  
HETATM   24  C   UNL     1      -9.539  14.338  66.547  1.00  0.00    -0.297 C  
HETATM   25  N   UNL     1      -9.985  15.101  67.718  1.00  0.00    -0.224 N  
HETATM   26  C   UNL     1     -10.541  13.188  66.571  1.00  0.00    -0.284 C  
HETATM   27  O   UNL     1     -11.123  14.641  69.711  1.00  0.00    -0.260 OA 
HETATM   28  C   UNL     1     -10.751  14.318  68.598  1.00  0.00    -0.249 C  
BRANCH  25  29
HETATM   29  S   UNL     1      -9.584  16.697  67.891  1.00  0.00    -0.237 S  
HETATM   30  O   UNL     1     -10.803  17.425  68.179  1.00  0.00    -0.373 OA 
HETATM   31  C   UNL     1      -9.061  17.177  66.256  1.00  0.00    -0.228 C  
HETATM   32  O   UNL     1      -8.445  16.793  68.775  1.00  0.00    -0.245 OA 
ENDBRANCH  25  29
ENDBRANCH  21  23
ENDBRANCH  19  21
ENDBRANCH  18  19
BRANCH  18  33
HETATM   33  C   UNL     1      -9.525   9.783  68.284  1.00  0.00    -0.148 A  
HETATM   34  C   UNL     1      -8.661   8.898  65.755  1.00  0.00    -0.205 A  
HETATM   35  C   UNL     1      -8.368  10.319  67.686  1.00  0.00    -0.114 A  
HETATM   36  C   UNL     1      -7.946   9.883  66.430  1.00  0.00    -0.111 A  
HETATM   37  C   UNL     1      -9.802   8.348  66.336  1.00  0.00    -0.310 A  
HETATM   38  C   UNL     1     -10.232   8.786  67.589  1.00  0.00    -0.298 A  
ENDBRANCH  18  33
ENDBRANCH  15  18
ENDBRANCH  12  14
TORSDOF 7
ENDMDL
MODEL      111
REMARK 921   NORMALIZED FREE ENERGY PREDICTED BY IDOCK:   -5.44 KCAL/MOL
REMARK 922        TOTAL FREE ENERGY PREDICTED BY IDOCK:   -9.19 KCAL/MOL
REMARK 923 INTER-LIGAND FREE ENERGY PREDICTED BY IDOCK:   -8.14 KCAL/MOL
REMARK 924 INTRA-LIGAND FREE ENERGY PREDICTED BY IDOCK:   -1.05 KCAL/MOL
REMARK 927      BINDING AFFINITY PREDICTED BY RF-SCORE:    0.00 PKD
ROOT
HETATM    1  C   UNL     1      -7.040   6.020  67.569  1.00  0.00    -0.074 C  
HETATM    2  S   UNL     1      -8.440   5.181  68.401  1.00  0.00    -0.094 SA 
HETATM    3  C   UNL     1      -8.953   4.204  66.918  1.00  0.00    -0.127 C  
HETATM    4  CA  UNL     1      -7.708   4.165  65.997  1.00  0.00    -0.090 C  
HETATM    5  C   UNL     1     -10.129   4.954  66.263  1.00  0.00    -0.285 C  
HETATM    6  C   UNL     1      -9.482   2.839  67.371  1.00  0.00    -0.111 C  
HETATM    7  C   UNL     1      -6.768   2.965  66.217  1.00  0.00    -0.047 C  
HETATM    8  N   UNL     1      -6.958   5.417  66.218  1.00  0.00    -0.062 N  
HETATM    9  OXT UNL     1      -7.100   1.794  66.098  1.00  0.00    -0.048 OA 
HETATM   10  O   UNL     1      -5.489   3.309  66.514  1.00  0.00    -0.015 OA 
HETATM   11  C   UNL     1      -7.384   6.562  65.587  1.00  0.00    -0.076 C  
HETATM   12  CA  UNL     1      -7.302   7.390  66.891  1.00  0.00    -0.093 C  
HETATM   13  O   UNL     1      -7.825   6.723  64.474  1.00  0.00    -0.108 OA 
ENDROOT
BRANCH  12  14
HETATM   14  N   UNL     1      -8.531   8.122  67.292  1.00  0.00    -0.124 N  
HETATM   15  C   UNL     1      -8.578   8.826  68.479  1.00  0.00    -0.134 C  
HETATM   16  H   UNL     1      -9.350   8.104  66.684  1.00  0.00     0.000 HD 
HETATM   17  O   UNL     1      -7.599   8.847  69.228  1.00  0.00    -0.079 OA 
BRANCH  15  18
HETATM   18  CA  UNL     1      -9.945   9.428  68.887  1.00  0.00    -0.179 C  
BRANCH  18  19
HETATM   19  N   UNL     1      -9.738  10.815  69.294  1.00  0.00    -0.379 N  
HETATM   20  H   UNL     1     -10.079  11.118  70.206  1.00  0.00     0.000 HD 
BRANCH  19  21
HETATM   21  C   UNL     1      -9.105  11.716  68.492  1.00  0.00    -0.157 C  
HETATM   22  O   UNL     1      -7.893  11.918  68.552  1.00  0.00    -0.134 OA 
BRANCH  21  23
HETATM   23  N   UNL     1      -9.903  12.397  67.601  1.00  0.00    -0.194 N  
HETATM   24  C   UNL     1     -11.984  13.401  67.084  1.00  0.00    -0.366 C  
HETATM   25  N   UNL     1     -11.349  12.769  65.922  1.00  0.00    -0.310 N  
HETATM   26  C   UNL     1     -10.805  13.446  68.050  1.00  0.00    -0.247 C  
HETATM   27  O   UNL     1      -9.531  11.342  65.548  1.00  0.00    -0.223 OA 
HETATM   28  C   UNL     1     -10.176  12.077  66.272  1.00  0.00    -0.222 C  
BRANCH  25  29
HETATM   29  S   UNL     1     -12.010  12.913  64.412  1.00  0.00    -0.426 S  
HETATM   30  O   UNL     1     -11.001  12.511  63.453  1.00  0.00    -0.452 OA 
HETATM   31  C   UNL     1     -12.241  14.670  64.223  1.00  0.00    -0.408 C  
HETATM   32  O   UNL     1     -13.311  12.285  64.416  1.00  0.00    -0.786 OA 
ENDBRANCH  25  29
ENDBRANCH  21  23
ENDBRANCH  19  21
ENDBRANCH  18  19
BRANCH  18  33
HETATM   33  C   UNL     1     -10.698   8.623  69.936  1.00  0.00    -0.227 A  
HETATM   34  C   UNL     1     -12.151   7.215  71.894  1.00  0.00    -0.357 A  
HETATM   35  C   UNL     1     -11.171   9.272  71.094  1.00  0.00    -0.413 A  
HETATM   36  C   UNL     1     -11.886   8.571  72.065  1.00  0.00    -0.429 A  
HETATM   37  C   UNL     1     -11.701   6.558  70.751  1.00  0.00    -0.427 A  
HETATM   38  C   UNL     1     -10.979   7.254  69.780  1.00  0.00    -0.235 A  
ENDBRANCH  18  33
ENDBRANCH  15  18
ENDBRANCH  12  14
TORSDOF 7
ENDMDL
MODEL      112
REMARK 921   NORMALIZED FREE ENERGY PREDICTED BY IDOCK:   -5.42 KCAL/MOL
REMARK 922        TOTAL FREE ENERGY PREDICTED BY IDOCK:   -9.15 KCAL/MOL
REMARK 923 INTER-LIGAND FREE ENERGY PREDICTED BY IDOCK:   -8.05 KCAL/MOL
REMARK 924 INTRA-LIGAND FREE ENERGY PREDICTED BY IDOCK:   -1.10 KCAL/MOL
REMARK 927      BINDING AFFINITY PREDICTED BY RF-SCORE:    0.00 PKD
ROOT
HETATM    1  C   UNL     1      -9.483  13.657  66.517  1.00  0.00    -0.259 C  
HETATM    2  S   UNL     1     -10.084  12.728  65.057  1.00  0.00    -0.171 SA 
HETATM    3  C   UNL     1     -11.680  13.650  64.918  1.00  0.00    -0.360 C  
HETATM    4  CA  UNL     1     -11.454  14.985  65.672  1.00  0.00    -0.248 C  
HETATM    5  C   UNL     1     -12.765  12.787  65.591  1.00  0.00     0.013 C  
HETATM    6  C   UNL     1     -12.058  13.783  63.439  1.00  0.00    -0.122 C  
HETATM    7  C   UNL     1     -10.934  16.146  64.805  1.00  0.00    -0.313 C  
HETATM    8  N   UNL     1     -10.489  14.718  66.757  1.00  0.00    -0.278 N  
HETATM    9  OXT UNL     1     -11.521  16.601  63.833  1.00  0.00    -1.186 OA 
HETATM   10  O   UNL     1      -9.765  16.682  65.238  1.00  0.00    -0.431 OA 
HETATM   11  C   UNL     1     -10.946  14.144  67.919  1.00  0.00    -0.251 C  
HETATM   12  CA  UNL     1      -9.806  13.099  67.928  1.00  0.00    -0.231 C  
HETATM   13  O   UNL     1     -11.972  14.324  68.531  1.00  0.00    -0.341 OA 
ENDROOT
BRANCH  12  14
HETATM   14  N   UNL     1     -10.212  11.672  68.017  1.00  0.00    -0.185 N  
HETATM   15  C   UNL     1      -9.420  10.751  68.673  1.00  0.00    -0.188 C  
HETATM   16  H   UNL     1     -11.087  11.369  67.587  1.00  0.00     0.000 HD 
HETATM   17  O   UNL     1      -8.355  11.102  69.186  1.00  0.00    -0.097 OA 
BRANCH  15  18
HETATM   18  CA  UNL     1      -9.844   9.265  68.582  1.00  0.00    -0.162 C  
BRANCH  18  19
HETATM   19  N   UNL     1      -9.506   8.608  69.842  1.00  0.00    -0.165 N  
HETATM   20  H   UNL     1      -8.621   8.109  69.917  1.00  0.00     0.000 HD 
BRANCH  19  21
HETATM   21  C   UNL     1     -10.339   8.643  70.920  1.00  0.00    -0.211 C  
HETATM   22  O   UNL     1     -11.048   9.616  71.177  1.00  0.00    -0.332 OA 
BRANCH  21  23
HETATM   23  N   UNL     1     -10.344   7.520  71.715  1.00  0.00    -0.192 N  
HETATM   24  C   UNL     1      -9.705   6.442  73.724  1.00  0.00    -0.193 C  
HETATM   25  N   UNL     1      -9.722   5.537  72.569  1.00  0.00    -0.152 N  
HETATM   26  C   UNL     1     -10.489   7.623  73.159  1.00  0.00    -0.374 C  
HETATM   27  O   UNL     1      -9.913   5.754  70.247  1.00  0.00    -0.178 OA 
HETATM   28  C   UNL     1      -9.987   6.218  71.368  1.00  0.00    -0.186 C  
BRANCH  25  29
HETATM   29  S   UNL     1      -9.453   3.916  72.760  1.00  0.00    -0.126 S  
HETATM   30  O   UNL     1      -8.888   3.720  74.079  1.00  0.00    -0.089 OA 
HETATM   31  C   UNL     1      -8.164   3.564  71.581  1.00  0.00    -0.065 C  
HETATM   32  O   UNL     1     -10.642   3.200  72.357  1.00  0.00    -0.072 OA 
ENDBRANCH  25  29
ENDBRANCH  21  23
ENDBRANCH  19  21
ENDBRANCH  18  19
BRANCH  18  33
HETATM   33  C   UNL     1      -9.285   8.525  67.375  1.00  0.00    -0.163 A  
HETATM   34  C   UNL     1      -8.201   7.238  65.118  1.00  0.00    -0.112 A  
HETATM   35  C   UNL     1      -9.077   9.227  66.172  1.00  0.00    -0.224 A  
HETATM   36  C   UNL     1      -8.545   8.586  65.053  1.00  0.00    -0.162 A  
HETATM   37  C   UNL     1      -8.389   6.530  66.302  1.00  0.00    -0.124 A  
HETATM   38  C   UNL     1      -8.928   7.166  67.423  1.00  0.00    -0.122 A  
ENDBRANCH  18  33
ENDBRANCH  15  18
ENDBRANCH  12  14
TORSDOF 7
ENDMDL
MODEL      113
REMARK 921   NORMALIZED FREE ENERGY PREDICTED BY IDOCK:   -5.41 KCAL/MOL
REMARK 922        TOTAL FREE ENERGY PREDICTED BY IDOCK:   -9.14 KCAL/MOL
REMARK 923 INTER-LIGAND FREE ENERGY PREDICTED BY IDOCK:   -7.46 KCAL/MOL
REMARK 924 INTRA-LIGAND FREE ENERGY PREDICTED BY IDOCK:   -1.68 KCAL/MOL
REMARK 927      BINDING AFFINITY PREDICTED BY RF-SCORE:    0.00 PKD
ROOT
HETATM    1  C   UNL     1      -7.155   9.767  68.422  1.00  0.00    -0.073 C  
HETATM    2  S   UNL     1      -7.436   8.228  67.469  1.00  0.00    -0.095 SA 
HETATM    3  C   UNL     1      -8.160   9.076  65.994  1.00  0.00    -0.111 C  
HETATM    4  CA  UNL     1      -7.670  10.543  66.079  1.00  0.00    -0.147 C  
HETATM    5  C   UNL     1      -9.693   8.973  66.116  1.00  0.00    -0.354 C  
HETATM    6  C   UNL     1      -7.754   8.316  64.726  1.00  0.00    -0.114 C  
HETATM    7  C   UNL     1      -6.346  10.834  65.350  1.00  0.00     0.015 C  
HETATM    8  N   UNL     1      -7.522  10.875  67.509  1.00  0.00    -0.095 N  
HETATM    9  OXT UNL     1      -6.163  10.667  64.153  1.00  0.00    -0.040 OA 
HETATM   10  O   UNL     1      -5.378  11.356  66.146  1.00  0.00    -0.205 OA 
HETATM   11  C   UNL     1      -8.644  11.212  68.229  1.00  0.00    -0.146 C  
HETATM   12  CA  UNL     1      -8.273  10.251  69.383  1.00  0.00    -0.165 C  
HETATM   13  O   UNL     1      -9.606  11.870  67.915  1.00  0.00    -0.181 OA 
ENDROOT
BRANCH  12  14
HETATM   14  N   UNL     1      -9.304   9.258  69.779  1.00  0.00    -0.175 N  
HETATM   15  C   UNL     1      -9.283   8.679  71.033  1.00  0.00    -0.203 C  
HETATM   16  H   UNL     1     -10.037   9.000  69.118  1.00  0.00     0.000 HD 
HETATM   17  O   UNL     1      -8.397   8.973  71.837  1.00  0.00    -0.365 OA 
BRANCH  15  18
HETATM   18  CA  UNL     1     -10.301   7.545  71.302  1.00  0.00    -0.192 C  
BRANCH  18  19
HETATM   19  N   UNL     1     -10.202   6.566  70.223  1.00  0.00    -0.189 N  
HETATM   20  H   UNL     1     -10.404   6.860  69.269  1.00  0.00     0.000 HD 
BRANCH  19  21
HETATM   21  C   UNL     1      -9.847   5.270  70.455  1.00  0.00    -0.213 C  
HETATM   22  O   UNL     1      -9.626   4.837  71.585  1.00  0.00    -0.145 OA 
BRANCH  21  23
HETATM   23  N   UNL     1      -9.747   4.464  69.344  1.00  0.00    -0.199 N  
HETATM   24  C   UNL     1      -8.537   2.860  68.091  1.00  0.00    -0.090 C  
HETATM   25  N   UNL     1      -9.270   3.811  67.248  1.00  0.00    -0.168 N  
HETATM   26  C   UNL     1      -9.204   3.118  69.439  1.00  0.00    -0.149 C  
HETATM   27  O   UNL     1     -10.425   5.821  67.565  1.00  0.00    -0.203 OA 
HETATM   28  C   UNL     1      -9.883   4.824  68.004  1.00  0.00    -0.126 C  
BRANCH  25  29
HETATM   29  S   UNL     1      -9.314   3.625  65.604  1.00  0.00    -0.157 S  
HETATM   30  O   UNL     1      -8.988   2.244  65.313  1.00  0.00    -0.120 OA 
HETATM   31  C   UNL     1      -7.947   4.617  65.034  1.00  0.00    -0.096 C  
HETATM   32  O   UNL     1     -10.536   4.212  65.106  1.00  0.00    -0.224 OA 
ENDBRANCH  25  29
ENDBRANCH  21  23
ENDBRANCH  19  21
ENDBRANCH  18  19
BRANCH  18  33
HETATM   33  C   UNL     1     -11.730   8.021  71.522  1.00  0.00    -0.321 A  
HETATM   34  C   UNL     1     -14.394   8.812  71.971  1.00  0.00    -0.466 A  
HETATM   35  C   UNL     1     -12.788   7.096  71.417  1.00  0.00    -0.431 A  
HETATM   36  C   UNL     1     -14.107   7.492  71.636  1.00  0.00    -0.562 A  
HETATM   37  C   UNL     1     -13.361   9.738  72.090  1.00  0.00    -0.527 A  
HETATM   38  C   UNL     1     -12.039   9.348  71.866  1.00  0.00    -0.427 A  
ENDBRANCH  18  33
ENDBRANCH  15  18
ENDBRANCH  12  14
TORSDOF 7
ENDMDL
MODEL      114
REMARK 921   NORMALIZED FREE ENERGY PREDICTED BY IDOCK:   -5.41 KCAL/MOL
REMARK 922        TOTAL FREE ENERGY PREDICTED BY IDOCK:   -9.14 KCAL/MOL
REMARK 923 INTER-LIGAND FREE ENERGY PREDICTED BY IDOCK:   -8.76 KCAL/MOL
REMARK 924 INTRA-LIGAND FREE ENERGY PREDICTED BY IDOCK:   -0.38 KCAL/MOL
REMARK 927      BINDING AFFINITY PREDICTED BY RF-SCORE:    0.00 PKD
ROOT
HETATM    1  C   UNL     1     -11.401  14.034  66.535  1.00  0.00    -0.336 C  
HETATM    2  S   UNL     1     -11.991  15.079  67.919  1.00  0.00     0.024 SA 
HETATM    3  C   UNL     1     -10.492  16.160  67.962  1.00  0.00    -0.281 C  
HETATM    4  CA  UNL     1      -9.832  16.008  66.568  1.00  0.00    -0.267 C  
HETATM    5  C   UNL     1      -9.582  15.633  69.089  1.00  0.00    -0.251 C  
HETATM    6  C   UNL     1     -10.908  17.585  68.343  1.00  0.00    -0.190 C  
HETATM    7  C   UNL     1     -10.295  17.027  65.510  1.00  0.00    -0.143 C  
HETATM    8  N   UNL     1     -10.126  14.643  66.089  1.00  0.00    -0.286 N  
HETATM    9  OXT UNL     1     -10.177  18.239  65.619  1.00  0.00    -0.573 OA 
HETATM   10  O   UNL     1     -10.814  16.466  64.389  1.00  0.00    -0.732 OA 
HETATM   11  C   UNL     1      -9.364  13.600  66.560  1.00  0.00    -0.228 C  
HETATM   12  CA  UNL     1     -10.611  12.743  66.874  1.00  0.00    -0.244 C  
HETATM   13  O   UNL     1      -8.179  13.539  66.790  1.00  0.00    -0.012 OA 
ENDROOT
BRANCH  12  14
HETATM   14  N   UNL     1     -10.728  12.220  68.260  1.00  0.00    -0.213 N  
HETATM   15  C   UNL     1     -11.123  10.918  68.494  1.00  0.00    -0.256 C  
HETATM   16  H   UNL     1     -10.513  12.830  69.049  1.00  0.00     0.000 HD 
HETATM   17  O   UNL     1     -11.396  10.174  67.550  1.00  0.00    -0.275 OA 
BRANCH  15  18
HETATM   18  CA  UNL     1     -11.365  10.509  69.967  1.00  0.00    -0.318 C  
BRANCH  18  19
HETATM   19  N   UNL     1     -11.924   9.160  69.987  1.00  0.00    -0.352 N  
HETATM   20  H   UNL     1     -12.609   8.898  69.280  1.00  0.00     0.000 HD 
BRANCH  19  21
HETATM   21  C   UNL     1     -11.556   8.240  70.924  1.00  0.00    -0.262 C  
HETATM   22  O   UNL     1     -12.355   7.757  71.726  1.00  0.00    -0.297 OA 
BRANCH  21  23
HETATM   23  N   UNL     1     -10.228   7.877  70.925  1.00  0.00    -0.198 N  
HETATM   24  C   UNL     1      -8.519   6.399  70.221  1.00  0.00    -0.135 C  
HETATM   25  N   UNL     1      -8.305   6.916  71.577  1.00  0.00    -0.114 N  
HETATM   26  C   UNL     1      -9.588   7.366  69.724  1.00  0.00    -0.163 C  
HETATM   27  O   UNL     1      -9.551   8.122  73.149  1.00  0.00    -0.271 OA 
HETATM   28  C   UNL     1      -9.387   7.695  72.022  1.00  0.00    -0.142 C  
BRANCH  25  29
HETATM   29  S   UNL     1      -6.916   6.570  72.406  1.00  0.00    -0.070 S  
HETATM   30  O   UNL     1      -6.089   5.747  71.547  1.00  0.00    -0.032 OA 
HETATM   31  C   UNL     1      -7.474   5.534  73.745  1.00  0.00    -0.091 C  
HETATM   32  O   UNL     1      -6.397   7.795  72.969  1.00  0.00    -0.059 OA 
ENDBRANCH  25  29
ENDBRANCH  21  23
ENDBRANCH  19  21
ENDBRANCH  18  19
BRANCH  18  33
HETATM   33  C   UNL     1     -12.205  11.495  70.764  1.00  0.00    -0.463 A  
HETATM   34  C   UNL     1     -13.755  13.257  72.320  1.00  0.00    -0.686 A  
HETATM   35  C   UNL     1     -13.152  11.006  71.686  1.00  0.00    -0.543 A  
HETATM   36  C   UNL     1     -13.922  11.881  72.451  1.00  0.00     0.467 A  
HETATM   37  C   UNL     1     -12.815  13.760  71.422  1.00  0.00    -0.449 A  
HETATM   38  C   UNL     1     -12.047  12.887  70.649  1.00  0.00    -0.321 A  
ENDBRANCH  18  33
ENDBRANCH  15  18
ENDBRANCH  12  14
TORSDOF 7
ENDMDL
MODEL      115
REMARK 921   NORMALIZED FREE ENERGY PREDICTED BY IDOCK:   -5.40 KCAL/MOL
REMARK 922        TOTAL FREE ENERGY PREDICTED BY IDOCK:   -9.13 KCAL/MOL
REMARK 923 INTER-LIGAND FREE ENERGY PREDICTED BY IDOCK:   -7.44 KCAL/MOL
REMARK 924 INTRA-LIGAND FREE ENERGY PREDICTED BY IDOCK:   -1.69 KCAL/MOL
REMARK 927      BINDING AFFINITY PREDICTED BY RF-SCORE:    0.00 PKD
ROOT
HETATM    1  C   UNL     1      -9.472  12.451  68.077  1.00  0.00    -0.208 C  
HETATM    2  S   UNL     1      -8.499  11.634  66.758  1.00  0.00    -0.167 SA 
HETATM    3  C   UNL     1      -9.945  11.337  65.645  1.00  0.00    -0.247 C  
HETATM    4  CA  UNL     1     -11.029  12.348  66.096  1.00  0.00    -0.286 C  
HETATM    5  C   UNL     1     -10.393   9.879  65.859  1.00  0.00    -0.184 C  
HETATM    6  C   UNL     1      -9.492  11.463  64.186  1.00  0.00    -0.155 C  
HETATM    7  C   UNL     1     -11.001  13.706  65.372  1.00  0.00    -0.298 C  
HETATM    8  N   UNL     1     -10.850  12.566  67.545  1.00  0.00    -0.227 N  
HETATM    9  OXT UNL     1     -11.132  13.849  64.164  1.00  0.00    -0.295 OA 
HETATM   10  O   UNL     1     -10.866  14.774  66.199  1.00  0.00    -0.308 OA 
HETATM   11  C   UNL     1     -11.358  11.635  68.421  1.00  0.00    -0.279 C  
HETATM   12  CA  UNL     1     -10.038  11.574  69.224  1.00  0.00     0.129 C  
HETATM   13  O   UNL     1     -12.390  11.009  68.384  1.00  0.00    -0.528 OA 
ENDROOT
BRANCH  12  14
HETATM   14  N   UNL     1      -9.435  10.228  69.410  1.00  0.00    -0.252 N  
HETATM   15  C   UNL     1      -9.931   9.357  70.359  1.00  0.00    -0.252 C  
HETATM   16  H   UNL     1      -8.644   9.945  68.830  1.00  0.00     0.000 HD 
HETATM   17  O   UNL     1     -10.878   9.691  71.074  1.00  0.00    -0.313 OA 
BRANCH  15  18
HETATM   18  CA  UNL     1      -9.145   8.043  70.588  1.00  0.00    -0.153 C  
BRANCH  18  19
HETATM   19  N   UNL     1      -9.100   7.304  69.329  1.00  0.00    -0.139 N  
HETATM   20  H   UNL     1      -9.956   7.199  68.787  1.00  0.00     0.000 HD 
BRANCH  19  21
HETATM   21  C   UNL     1      -7.947   6.750  68.858  1.00  0.00    -0.116 C  
HETATM   22  O   UNL     1      -6.870   6.868  69.441  1.00  0.00    -0.051 OA 
BRANCH  21  23
HETATM   23  N   UNL     1      -8.053   6.044  67.681  1.00  0.00    -0.105 N  
HETATM   24  C   UNL     1      -8.078   6.021  65.314  1.00  0.00    -0.134 C  
HETATM   25  N   UNL     1      -8.987   5.032  65.906  1.00  0.00    -0.136 N  
HETATM   26  C   UNL     1      -7.228   6.375  66.530  1.00  0.00    -0.073 C  
HETATM   27  O   UNL     1      -9.823   4.560  68.039  1.00  0.00    -0.149 OA 
HETATM   28  C   UNL     1      -9.047   5.142  67.305  1.00  0.00    -0.113 C  
BRANCH  25  29
HETATM   29  S   UNL     1      -9.799   3.951  64.952  1.00  0.00    -0.190 S  
HETATM   30  O   UNL     1      -9.394   2.621  65.358  1.00  0.00    -0.139 OA 
HETATM   31  C   UNL     1      -9.120   4.233  63.329  1.00  0.00    -0.134 C  
HETATM   32  O   UNL     1     -11.196   4.317  64.927  1.00  0.00    -0.296 OA 
ENDBRANCH  25  29
ENDBRANCH  21  23
ENDBRANCH  19  21
ENDBRANCH  18  19
BRANCH  18  33
HETATM   33  C   UNL     1      -9.661   7.193  71.740  1.00  0.00    -0.168 A  
HETATM   34  C   UNL     1     -10.626   5.706  73.927  1.00  0.00    -0.285 A  
HETATM   35  C   UNL     1      -9.319   7.543  73.061  1.00  0.00    -0.242 A  
HETATM   36  C   UNL     1      -9.794   6.801  74.142  1.00  0.00    -0.352 A  
HETATM   37  C   UNL     1     -10.984   5.351  72.628  1.00  0.00    -0.321 A  
HETATM   38  C   UNL     1     -10.506   6.087  71.542  1.00  0.00    -0.278 A  
ENDBRANCH  18  33
ENDBRANCH  15  18
ENDBRANCH  12  14
TORSDOF 7
ENDMDL
MODEL      116
REMARK 921   NORMALIZED FREE ENERGY PREDICTED BY IDOCK:   -5.40 KCAL/MOL
REMARK 922        TOTAL FREE ENERGY PREDICTED BY IDOCK:   -9.13 KCAL/MOL
REMARK 923 INTER-LIGAND FREE ENERGY PREDICTED BY IDOCK:   -8.12 KCAL/MOL
REMARK 924 INTRA-LIGAND FREE ENERGY PREDICTED BY IDOCK:   -1.01 KCAL/MOL
REMARK 927      BINDING AFFINITY PREDICTED BY RF-SCORE:    0.00 PKD
ROOT
HETATM    1  C   UNL     1     -11.660  14.133  66.901  1.00  0.00    -0.391 C  
HETATM    2  S   UNL     1     -11.706  15.113  68.448  1.00  0.00    -0.274 SA 
HETATM    3  C   UNL     1     -10.124  16.013  68.122  1.00  0.00    -0.234 C  
HETATM    4  CA  UNL     1      -9.898  15.910  66.592  1.00  0.00    -0.254 C  
HETATM    5  C   UNL     1      -9.018  15.292  68.916  1.00  0.00    -0.209 C  
HETATM    6  C   UNL     1     -10.229  17.437  68.679  1.00  0.00    -0.361 C  
HETATM    7  C   UNL     1     -10.495  17.062  65.763  1.00  0.00    -0.251 C  
HETATM    8  N   UNL     1     -10.488  14.633  66.146  1.00  0.00    -0.292 N  
HETATM    9  OXT UNL     1     -10.194  18.240  65.897  1.00  0.00    -0.541 OA 
HETATM   10  O   UNL     1     -11.370  16.662  64.807  1.00  0.00    -0.465 OA 
HETATM   11  C   UNL     1      -9.769  13.475  66.326  1.00  0.00    -0.277 C  
HETATM   12  CA  UNL     1     -10.984  12.737  66.935  1.00  0.00    -0.260 C  
HETATM   13  O   UNL     1      -8.586  13.263  66.209  1.00  0.00     0.202 OA 
ENDROOT
BRANCH  12  14
HETATM   14  N   UNL     1     -10.783  12.112  68.268  1.00  0.00    -0.214 N  
HETATM   15  C   UNL     1     -10.396  10.792  68.379  1.00  0.00    -0.180 C  
HETATM   16  H   UNL     1     -10.933  12.666  69.113  1.00  0.00     0.000 HD 
HETATM   17  O   UNL     1     -10.223  10.109  67.367  1.00  0.00    -0.193 OA 
BRANCH  15  18
HETATM   18  CA  UNL     1     -10.362  10.184  69.802  1.00  0.00    -0.259 C  
BRANCH  18  19
HETATM   19  N   UNL     1     -10.085   8.755  69.690  1.00  0.00    -0.198 N  
HETATM   20  H   UNL     1     -10.791   8.145  69.279  1.00  0.00     0.000 HD 
BRANCH  19  21
HETATM   21  C   UNL     1      -8.910   8.212  70.118  1.00  0.00    -0.145 C  
HETATM   22  O   UNL     1      -8.147   8.803  70.880  1.00  0.00    -0.118 OA 
BRANCH  21  23
HETATM   23  N   UNL     1      -8.621   6.952  69.646  1.00  0.00    -0.133 N  
HETATM   24  C   UNL     1      -7.228   5.524  68.370  1.00  0.00    -0.075 C  
HETATM   25  N   UNL     1      -8.643   5.140  68.317  1.00  0.00    -0.099 N  
HETATM   26  C   UNL     1      -7.248   6.480  69.559  1.00  0.00    -0.082 C  
HETATM   27  O   UNL     1     -10.683   6.085  68.969  1.00  0.00    -0.258 OA 
HETATM   28  C   UNL     1      -9.467   6.066  68.980  1.00  0.00    -0.127 C  
BRANCH  25  29
HETATM   29  S   UNL     1      -9.117   3.756  67.544  1.00  0.00    -0.174 S  
HETATM   30  O   UNL     1      -9.610   2.840  68.553  1.00  0.00    -0.172 OA 
HETATM   31  C   UNL     1      -7.589   3.079  66.925  1.00  0.00    -0.075 C  
HETATM   32  O   UNL     1      -9.941   4.117  66.414  1.00  0.00    -0.218 OA 
ENDBRANCH  25  29
ENDBRANCH  21  23
ENDBRANCH  19  21
ENDBRANCH  18  19
BRANCH  18  33
HETATM   33  C   UNL     1     -11.602  10.469  70.638  1.00  0.00    -0.445 A  
HETATM   34  C   UNL     1     -13.864  10.925  72.250  1.00  0.00     0.337 A  
HETATM   35  C   UNL     1     -12.236   9.408  71.312  1.00  0.00    -0.425 A  
HETATM   36  C   UNL     1     -13.360   9.636  72.106  1.00  0.00    -0.545 A  
HETATM   37  C   UNL     1     -13.244  11.990  71.600  1.00  0.00    -0.361 A  
HETATM   38  C   UNL     1     -12.122  11.765  70.798  1.00  0.00    -0.352 A  
ENDBRANCH  18  33
ENDBRANCH  15  18
ENDBRANCH  12  14
TORSDOF 7
ENDMDL
MODEL      117
REMARK 921   NORMALIZED FREE ENERGY PREDICTED BY IDOCK:   -5.35 KCAL/MOL
REMARK 922        TOTAL FREE ENERGY PREDICTED BY IDOCK:   -9.06 KCAL/MOL
REMARK 923 INTER-LIGAND FREE ENERGY PREDICTED BY IDOCK:   -9.53 KCAL/MOL
REMARK 924 INTRA-LIGAND FREE ENERGY PREDICTED BY IDOCK:    0.47 KCAL/MOL
REMARK 927      BINDING AFFINITY PREDICTED BY RF-SCORE:    0.00 PKD
ROOT
HETATM    1  C   UNL     1     -12.183  12.896  65.981  1.00  0.00    -0.366 C  
HETATM    2  S   UNL     1     -11.688  13.961  67.387  1.00  0.00    -0.410 SA 
HETATM    3  C   UNL     1     -10.385  14.879  66.449  1.00  0.00    -0.286 C  
HETATM    4  CA  UNL     1     -10.745  14.695  64.954  1.00  0.00    -0.427 C  
HETATM    5  C   UNL     1      -9.031  14.232  66.799  1.00  0.00    -0.249 C  
HETATM    6  C   UNL     1     -10.337  16.329  66.943  1.00  0.00    -0.299 C  
HETATM    7  C   UNL     1     -11.660  15.783  64.362  1.00  0.00    -0.240 C  
HETATM    8  N   UNL     1     -11.403  13.381  64.818  1.00  0.00    -0.324 N  
HETATM    9  OXT UNL     1     -11.383  16.974  64.322  1.00  0.00    -1.191 OA 
HETATM   10  O   UNL     1     -12.812  15.308  63.824  1.00  0.00    -0.580 OA 
HETATM   11  C   UNL     1     -10.618  12.253  64.764  1.00  0.00    -0.297 C  
HETATM   12  CA  UNL     1     -11.482  11.522  65.818  1.00  0.00    -0.006 C  
HETATM   13  O   UNL     1      -9.557  12.064  64.218  1.00  0.00    -0.119 OA 
ENDROOT
BRANCH  12  14
HETATM   14  N   UNL     1     -10.768  10.978  67.003  1.00  0.00    -0.257 N  
HETATM   15  C   UNL     1     -10.087   9.780  66.929  1.00  0.00    -0.226 C  
HETATM   16  H   UNL     1     -10.782  11.497  67.881  1.00  0.00     0.000 HD 
HETATM   17  O   UNL     1     -10.072   9.138  65.877  1.00  0.00    -0.273 OA 
BRANCH  15  18
HETATM   18  CA  UNL     1      -9.506   9.218  68.249  1.00  0.00    -0.138 C  
BRANCH  18  19
HETATM   19  N   UNL     1      -9.158   7.815  68.042  1.00  0.00    -0.129 N  
HETATM   20  H   UNL     1      -8.192   7.520  68.179  1.00  0.00     0.000 HD 
BRANCH  19  21
HETATM   21  C   UNL     1     -10.085   6.888  67.671  1.00  0.00    -0.161 C  
HETATM   22  O   UNL     1     -11.157   6.752  68.260  1.00  0.00    -0.215 OA 
BRANCH  21  23
HETATM   23  N   UNL     1      -9.755   6.102  66.591  1.00  0.00    -0.158 N  
HETATM   24  C   UNL     1      -9.490   3.948  65.642  1.00  0.00    -0.176 C  
HETATM   25  N   UNL     1      -8.504   4.917  65.148  1.00  0.00    -0.133 N  
HETATM   26  C   UNL     1     -10.501   4.891  66.287  1.00  0.00    -0.304 C  
HETATM   27  O   UNL     1      -7.824   7.083  65.714  1.00  0.00    -0.097 OA 
HETATM   28  C   UNL     1      -8.602   6.153  65.810  1.00  0.00    -0.151 C  
BRANCH  25  29
HETATM   29  S   UNL     1      -7.445   4.508  63.945  1.00  0.00    -0.060 S  
HETATM   30  O   UNL     1      -7.574   5.498  62.895  1.00  0.00    -0.062 OA 
HETATM   31  C   UNL     1      -8.105   2.980  63.308  1.00  0.00    -0.080 C  
HETATM   32  O   UNL     1      -6.157   4.231  64.539  1.00  0.00    -0.024 OA 
ENDBRANCH  25  29
ENDBRANCH  21  23
ENDBRANCH  19  21
ENDBRANCH  18  19
BRANCH  18  33
HETATM   33  C   UNL     1     -10.397   9.420  69.465  1.00  0.00    -0.223 A  
HETATM   34  C   UNL     1     -12.126   9.808  71.653  1.00  0.00    -0.475 A  
HETATM   35  C   UNL     1     -11.442  10.363  69.404  1.00  0.00    -0.292 A  
HETATM   36  C   UNL     1     -12.294  10.557  70.492  1.00  0.00    -0.432 A  
HETATM   37  C   UNL     1     -11.106   8.863  71.728  1.00  0.00    -0.433 A  
HETATM   38  C   UNL     1     -10.246   8.670  70.645  1.00  0.00    -0.237 A  
ENDBRANCH  18  33
ENDBRANCH  15  18
ENDBRANCH  12  14
TORSDOF 7
ENDMDL
MODEL      118
REMARK 921   NORMALIZED FREE ENERGY PREDICTED BY IDOCK:   -5.33 KCAL/MOL
REMARK 922        TOTAL FREE ENERGY PREDICTED BY IDOCK:   -9.04 KCAL/MOL
REMARK 923 INTER-LIGAND FREE ENERGY PREDICTED BY IDOCK:   -7.82 KCAL/MOL
REMARK 924 INTRA-LIGAND FREE ENERGY PREDICTED BY IDOCK:   -1.22 KCAL/MOL
REMARK 927      BINDING AFFINITY PREDICTED BY RF-SCORE:    0.00 PKD
ROOT
HETATM    1  C   UNL     1     -10.661  13.600  68.216  1.00  0.00    -0.253 C  
HETATM    2  S   UNL     1      -9.040  13.936  67.431  1.00  0.00    -0.228 SA 
HETATM    3  C   UNL     1      -9.654  15.318  66.368  1.00  0.00    -0.292 C  
HETATM    4  CA  UNL     1     -10.957  15.813  67.044  1.00  0.00    -0.221 C  
HETATM    5  C   UNL     1      -9.919  14.732  64.967  1.00  0.00    -0.204 C  
HETATM    6  C   UNL     1      -8.548  16.369  66.218  1.00  0.00    -0.375 C  
HETATM    7  C   UNL     1     -10.773  16.946  68.069  1.00  0.00    -0.364 C  
HETATM    8  N   UNL     1     -11.576  14.650  67.710  1.00  0.00    -0.346 N  
HETATM    9  OXT UNL     1     -10.293  18.041  67.813  1.00  0.00    -0.358 OA 
HETATM   10  O   UNL     1     -11.243  16.655  69.309  1.00  0.00    -0.260 OA 
HETATM   11  C   UNL     1     -12.309  13.768  66.952  1.00  0.00    -0.285 C  
HETATM   12  CA  UNL     1     -11.589  12.543  67.563  1.00  0.00    -0.361 C  
HETATM   13  O   UNL     1     -13.068  13.968  66.035  1.00  0.00    -0.296 OA 
ENDROOT
BRANCH  12  14
HETATM   14  N   UNL     1     -10.966  11.591  66.607  1.00  0.00    -0.288 N  
HETATM   15  C   UNL     1     -10.706  10.287  66.976  1.00  0.00    -0.216 C  
HETATM   16  H   UNL     1     -10.729  11.905  65.665  1.00  0.00     0.000 HD 
HETATM   17  O   UNL     1     -10.977   9.898  68.114  1.00  0.00    -0.251 OA 
BRANCH  15  18
HETATM   18  CA  UNL     1      -9.917   9.414  65.970  1.00  0.00    -0.281 C  
BRANCH  18  19
HETATM   19  N   UNL     1     -10.084   8.012  66.342  1.00  0.00    -0.476 N  
HETATM   20  H   UNL     1     -11.023   7.615  66.366  1.00  0.00     0.000 HD 
BRANCH  19  21
HETATM   21  C   UNL     1      -9.023   7.217  66.659  1.00  0.00    -0.146 C  
HETATM   22  O   UNL     1      -8.299   6.709  65.803  1.00  0.00    -0.132 OA 
BRANCH  21  23
HETATM   23  N   UNL     1      -8.803   7.010  68.001  1.00  0.00    -0.125 N  
HETATM   24  C   UNL     1      -7.447   6.134  69.733  1.00  0.00    -0.081 C  
HETATM   25  N   UNL     1      -8.882   6.041  70.027  1.00  0.00    -0.138 N  
HETATM   26  C   UNL     1      -7.469   7.120  68.569  1.00  0.00    -0.106 C  
HETATM   27  O   UNL     1     -10.878   6.345  68.845  1.00  0.00    -0.260 OA 
HETATM   28  C   UNL     1      -9.671   6.455  68.940  1.00  0.00    -0.126 C  
BRANCH  25  29
HETATM   29  S   UNL     1      -9.411   5.503  71.499  1.00  0.00    -0.149 S  
HETATM   30  O   UNL     1     -10.609   6.248  71.831  1.00  0.00    -0.209 OA 
HETATM   31  C   UNL     1      -8.135   6.036  72.623  1.00  0.00    -0.104 C  
HETATM   32  O   UNL     1      -9.426   4.058  71.484  1.00  0.00    -0.132 OA 
ENDBRANCH  25  29
ENDBRANCH  21  23
ENDBRANCH  19  21
ENDBRANCH  18  19
BRANCH  18  33
HETATM   33  C   UNL     1      -8.453   9.800  65.814  1.00  0.00    -0.141 A  
HETATM   34  C   UNL     1      -5.766  10.548  65.430  1.00  0.00    -0.139 A  
HETATM   35  C   UNL     1      -7.830   9.643  64.560  1.00  0.00    -0.134 A  
HETATM   36  C   UNL     1      -6.497  10.010  64.375  1.00  0.00    -0.131 A  
HETATM   37  C   UNL     1      -6.369  10.721  66.674  1.00  0.00    -0.103 A  
HETATM   38  C   UNL     1      -7.701  10.350  66.867  1.00  0.00    -0.111 A  
ENDBRANCH  18  33
ENDBRANCH  15  18
ENDBRANCH  12  14
TORSDOF 7
ENDMDL
MODEL      119
REMARK 921   NORMALIZED FREE ENERGY PREDICTED BY IDOCK:   -5.32 KCAL/MOL
REMARK 922        TOTAL FREE ENERGY PREDICTED BY IDOCK:   -9.03 KCAL/MOL
REMARK 923 INTER-LIGAND FREE ENERGY PREDICTED BY IDOCK:   -7.73 KCAL/MOL
REMARK 924 INTRA-LIGAND FREE ENERGY PREDICTED BY IDOCK:   -1.30 KCAL/MOL
REMARK 927      BINDING AFFINITY PREDICTED BY RF-SCORE:    0.00 PKD
ROOT
HETATM    1  C   UNL     1      -8.352  15.396  67.459  1.00  0.00    -0.174 C  
HETATM    2  S   UNL     1      -9.172  14.745  65.955  1.00  0.00    -0.014 SA 
HETATM    3  C   UNL     1     -10.764  15.644  66.233  1.00  0.00    -0.295 C  
HETATM    4  CA  UNL     1     -10.417  16.817  67.184  1.00  0.00    -0.299 C  
HETATM    5  C   UNL     1     -11.742  14.647  66.884  1.00  0.00    -0.366 C  
HETATM    6  C   UNL     1     -11.359  16.046  64.879  1.00  0.00    -0.232 C  
HETATM    7  C   UNL     1     -10.025  18.132  66.485  1.00  0.00    -0.374 C  
HETATM    8  N   UNL     1      -9.302  16.371  68.043  1.00  0.00    -0.214 N  
HETATM    9  OXT UNL     1     -10.747  18.749  65.716  1.00  0.00    -0.475 OA 
HETATM   10  O   UNL     1      -8.800  18.601  66.833  1.00  0.00    -0.271 OA 
HETATM   11  C   UNL     1      -9.583  15.578  69.130  1.00  0.00    -0.253 C  
HETATM   12  CA  UNL     1      -8.463  14.575  68.770  1.00  0.00    -0.145 C  
HETATM   13  O   UNL     1     -10.504  15.618  69.911  1.00  0.00    -0.284 OA 
ENDROOT
BRANCH  12  14
HETATM   14  N   UNL     1      -8.862  13.148  68.646  1.00  0.00    -0.373 N  
HETATM   15  C   UNL     1      -7.934  12.181  68.314  1.00  0.00    -0.163 C  
HETATM   16  H   UNL     1      -9.833  12.880  68.809  1.00  0.00     0.000 HD 
HETATM   17  O   UNL     1      -6.760  12.494  68.104  1.00  0.00    -0.064 OA 
BRANCH  15  18
HETATM   18  CA  UNL     1      -8.468  10.752  68.057  1.00  0.00    -0.124 C  
BRANCH  18  19
HETATM   19  N   UNL     1      -7.584   9.799  68.721  1.00  0.00    -0.075 N  
HETATM   20  H   UNL     1      -6.902   9.286  68.164  1.00  0.00     0.000 HD 
BRANCH  19  21
HETATM   21  C   UNL     1      -7.642   9.575  70.064  1.00  0.00    -0.133 C  
HETATM   22  O   UNL     1      -6.807  10.026  70.847  1.00  0.00    -0.322 OA 
BRANCH  21  23
HETATM   23  N   UNL     1      -8.697   8.807  70.503  1.00  0.00    -0.158 N  
HETATM   24  C   UNL     1     -10.359   8.367  72.131  1.00  0.00    -0.327 C  
HETATM   25  N   UNL     1      -9.818   7.147  71.521  1.00  0.00    -0.172 N  
HETATM   26  C   UNL     1      -9.851   9.415  71.145  1.00  0.00    -0.216 C  
HETATM   27  O   UNL     1      -8.022   6.602  70.122  1.00  0.00    -0.108 OA 
HETATM   28  C   UNL     1      -8.752   7.422  70.647  1.00  0.00    -0.142 C  
BRANCH  25  29
HETATM   29  S   UNL     1     -10.458   5.665  71.880  1.00  0.00    -0.231 S  
HETATM   30  O   UNL     1      -9.495   4.961  72.702  1.00  0.00    -0.135 OA 
HETATM   31  C   UNL     1     -10.506   4.836  70.303  1.00  0.00     0.024 C  
HETATM   32  O   UNL     1     -11.817   5.848  72.336  1.00  0.00    -0.311 OA 
ENDBRANCH  25  29
ENDBRANCH  21  23
ENDBRANCH  19  21
ENDBRANCH  18  19
BRANCH  18  33
HETATM   33  C   UNL     1      -8.683  10.415  66.588  1.00  0.00    -0.141 A  
HETATM   34  C   UNL     1      -9.039   9.700  63.888  1.00  0.00    -0.229 A  
HETATM   35  C   UNL     1      -7.735   9.615  65.920  1.00  0.00    -0.102 A  
HETATM   36  C   UNL     1      -7.911   9.266  64.581  1.00  0.00    -0.125 A  
HETATM   37  C   UNL     1      -9.992  10.482  64.535  1.00  0.00    -0.413 A  
HETATM   38  C   UNL     1      -9.817  10.839  65.874  1.00  0.00    -0.290 A  
ENDBRANCH  18  33
ENDBRANCH  15  18
ENDBRANCH  12  14
TORSDOF 7
ENDMDL
MODEL      120
REMARK 921   NORMALIZED FREE ENERGY PREDICTED BY IDOCK:   -5.26 KCAL/MOL
REMARK 922        TOTAL FREE ENERGY PREDICTED BY IDOCK:   -8.93 KCAL/MOL
REMARK 923 INTER-LIGAND FREE ENERGY PREDICTED BY IDOCK:   -7.61 KCAL/MOL
REMARK 924 INTRA-LIGAND FREE ENERGY PREDICTED BY IDOCK:   -1.32 KCAL/MOL
REMARK 927      BINDING AFFINITY PREDICTED BY RF-SCORE:    0.00 PKD
ROOT
HETATM    1  C   UNL     1      -8.935   7.697  72.164  1.00  0.00    -0.133 C  
HETATM    2  S   UNL     1     -10.684   8.242  72.107  1.00  0.00    -0.344 SA 
HETATM    3  C   UNL     1     -11.337   6.637  71.462  1.00  0.00    -0.281 C  
HETATM    4  CA  UNL     1     -10.261   5.580  71.816  1.00  0.00    -0.202 C  
HETATM    5  C   UNL     1     -11.509   6.795  69.938  1.00  0.00    -0.355 C  
HETATM    6  C   UNL     1     -12.729   6.386  72.052  1.00  0.00    -0.070 C  
HETATM    7  C   UNL     1     -10.450   4.884  73.176  1.00  0.00    -0.202 C  
HETATM    8  N   UNL     1      -8.952   6.262  71.796  1.00  0.00    -0.141 N  
HETATM    9  OXT UNL     1     -11.436   4.230  73.489  1.00  0.00    -0.271 OA 
HETATM   10  O   UNL     1      -9.391   5.008  74.015  1.00  0.00    -0.121 OA 
HETATM   11  C   UNL     1      -8.337   6.476  70.585  1.00  0.00    -0.133 C  
HETATM   12  CA  UNL     1      -8.044   7.956  70.921  1.00  0.00    -0.101 C  
HETATM   13  O   UNL     1      -8.271   5.771  69.606  1.00  0.00    -0.105 OA 
ENDROOT
BRANCH  12  14
HETATM   14  N   UNL     1      -8.521   8.968  69.943  1.00  0.00    -0.127 N  
HETATM   15  C   UNL     1      -7.787   9.256  68.810  1.00  0.00    -0.088 C  
HETATM   16  H   UNL     1      -9.401   9.456  70.110  1.00  0.00     0.000 HD 
HETATM   17  O   UNL     1      -6.715   8.682  68.601  1.00  0.00    -0.057 OA 
BRANCH  15  18
HETATM   18  CA  UNL     1      -8.281  10.429  67.929  1.00  0.00    -0.106 C  
BRANCH  18  19
HETATM   19  N   UNL     1      -8.477   9.938  66.568  1.00  0.00    -0.124 N  
HETATM   20  H   UNL     1      -7.661   9.763  65.983  1.00  0.00     0.000 HD 
BRANCH  19  21
HETATM   21  C   UNL     1      -9.719   9.706  66.057  1.00  0.00    -0.264 C  
HETATM   22  O   UNL     1     -10.227   8.585  66.037  1.00  0.00    -0.068 OA 
BRANCH  21  23
HETATM   23  N   UNL     1     -10.381  10.804  65.557  1.00  0.00    -0.260 N  
HETATM   24  C   UNL     1     -10.337  12.818  64.312  1.00  0.00    -0.377 C  
HETATM   25  N   UNL     1     -11.263  12.867  65.450  1.00  0.00    -0.279 N  
HETATM   26  C   UNL     1     -10.089  11.315  64.227  1.00  0.00    -0.313 C  
HETATM   27  O   UNL     1     -11.722  11.542  67.323  1.00  0.00    -0.576 OA 
HETATM   28  C   UNL     1     -11.186  11.710  66.244  1.00  0.00    -0.271 C  
BRANCH  25  29
HETATM   29  S   UNL     1     -12.245  14.177  65.686  1.00  0.00    -0.433 S  
HETATM   30  O   UNL     1     -13.609  13.748  65.451  1.00  0.00    -0.517 OA 
HETATM   31  C   UNL     1     -11.805  15.275  64.352  1.00  0.00    -0.281 C  
HETATM   32  O   UNL     1     -11.880  14.811  66.932  1.00  0.00    -0.354 OA 
ENDBRANCH  25  29
ENDBRANCH  21  23
ENDBRANCH  19  21
ENDBRANCH  18  19
BRANCH  18  33
HETATM   33  C   UNL     1      -7.396  11.667  67.976  1.00  0.00    -0.089 A  
HETATM   34  C   UNL     1      -5.836  14.006  68.106  1.00  0.00    -0.125 A  
HETATM   35  C   UNL     1      -7.978  12.937  67.795  1.00  0.00    -0.162 A  
HETATM   36  C   UNL     1      -7.202  14.094  67.855  1.00  0.00    -0.165 A  
HETATM   37  C   UNL     1      -5.244  12.760  68.299  1.00  0.00    -0.069 A  
HETATM   38  C   UNL     1      -6.016  11.599  68.233  1.00  0.00    -0.045 A  
ENDBRANCH  18  33
ENDBRANCH  15  18
ENDBRANCH  12  14
TORSDOF 7
ENDMDL
MODEL      121
REMARK 921   NORMALIZED FREE ENERGY PREDICTED BY IDOCK:   -5.25 KCAL/MOL
REMARK 922        TOTAL FREE ENERGY PREDICTED BY IDOCK:   -8.92 KCAL/MOL
REMARK 923 INTER-LIGAND FREE ENERGY PREDICTED BY IDOCK:   -7.23 KCAL/MOL
REMARK 924 INTRA-LIGAND FREE ENERGY PREDICTED BY IDOCK:   -1.69 KCAL/MOL
REMARK 927      BINDING AFFINITY PREDICTED BY RF-SCORE:    0.00 PKD
ROOT
HETATM    1  C   UNL     1     -10.609  12.572  65.766  1.00  0.00    -0.270 C  
HETATM    2  S   UNL     1     -11.858  11.985  66.971  1.00  0.00    -0.037 SA 
HETATM    3  C   UNL     1     -11.120  12.867  68.419  1.00  0.00    -0.262 C  
HETATM    4  CA  UNL     1     -10.251  13.998  67.814  1.00  0.00    -0.240 C  
HETATM    5  C   UNL     1     -10.270  11.840  69.192  1.00  0.00     0.048 C  
HETATM    6  C   UNL     1     -12.242  13.325  69.356  1.00  0.00    -0.210 C  
HETATM    7  C   UNL     1     -10.974  15.343  67.615  1.00  0.00    -0.315 C  
HETATM    8  N   UNL     1      -9.748  13.519  66.512  1.00  0.00    -0.277 N  
HETATM    9  OXT UNL     1     -11.490  15.992  68.514  1.00  0.00    -0.370 OA 
HETATM   10  O   UNL     1     -10.954  15.800  66.337  1.00  0.00    -0.273 OA 
HETATM   11  C   UNL     1      -8.660  12.679  66.493  1.00  0.00     0.060 C  
HETATM   12  CA  UNL     1      -9.353  11.695  65.523  1.00  0.00    -0.156 C  
HETATM   13  O   UNL     1      -7.657  12.683  67.167  1.00  0.00    -0.139 OA 
ENDROOT
BRANCH  12  14
HETATM   14  N   UNL     1      -9.424  10.274  65.954  1.00  0.00    -0.178 N  
HETATM   15  C   UNL     1      -8.760   9.289  65.251  1.00  0.00    -0.184 C  
HETATM   16  H   UNL     1      -9.969  10.024  66.780  1.00  0.00     0.000 HD 
HETATM   17  O   UNL     1      -8.107   9.576  64.246  1.00  0.00    -0.125 OA 
BRANCH  15  18
HETATM   18  CA  UNL     1      -9.015   7.824  65.681  1.00  0.00    -0.005 C  
BRANCH  18  19
HETATM   19  N   UNL     1     -10.265   7.772  66.434  1.00  0.00    -0.487 N  
HETATM   20  H   UNL     1     -10.876   8.588  66.435  1.00  0.00     0.000 HD 
BRANCH  19  21
HETATM   21  C   UNL     1     -10.640   6.665  67.136  1.00  0.00    -0.331 C  
HETATM   22  O   UNL     1     -11.019   5.631  66.588  1.00  0.00    -0.263 OA 
BRANCH  21  23
HETATM   23  N   UNL     1     -10.572   6.768  68.507  1.00  0.00    -0.209 N  
HETATM   24  C   UNL     1     -11.445   6.217  70.638  1.00  0.00    -0.329 C  
HETATM   25  N   UNL     1     -10.890   7.575  70.580  1.00  0.00    -0.236 N  
HETATM   26  C   UNL     1     -10.856   5.626  69.361  1.00  0.00    -0.264 C  
HETATM   27  O   UNL     1     -10.134   9.029  68.909  1.00  0.00    -0.184 OA 
HETATM   28  C   UNL     1     -10.487   7.925  69.280  1.00  0.00    -0.216 C  
BRANCH  25  29
HETATM   29  S   UNL     1     -10.789   8.507  71.943  1.00  0.00    -0.347 S  
HETATM   30  O   UNL     1     -11.182   7.681  73.066  1.00  0.00    -0.384 OA 
HETATM   31  C   UNL     1     -12.071   9.724  71.713  1.00  0.00    -0.346 C  
HETATM   32  O   UNL     1      -9.515   9.188  71.943  1.00  0.00    -0.332 OA 
ENDBRANCH  25  29
ENDBRANCH  21  23
ENDBRANCH  19  21
ENDBRANCH  18  19
BRANCH  18  33
HETATM   33  C   UNL     1      -7.860   7.177  66.432  1.00  0.00    -0.109 A  
HETATM   34  C   UNL     1      -5.756   6.026  67.906  1.00  0.00    -0.012 A  
HETATM   35  C   UNL     1      -7.245   7.881  67.486  1.00  0.00    -0.088 A  
HETATM   36  C   UNL     1      -6.200   7.310  68.211  1.00  0.00    -0.036 A  
HETATM   37  C   UNL     1      -6.360   5.310  66.875  1.00  0.00    -0.040 A  
HETATM   38  C   UNL     1      -7.403   5.880  66.141  1.00  0.00    -0.081 A  
ENDBRANCH  18  33
ENDBRANCH  15  18
ENDBRANCH  12  14
TORSDOF 7
ENDMDL
MODEL      122
REMARK 921   NORMALIZED FREE ENERGY PREDICTED BY IDOCK:   -5.25 KCAL/MOL
REMARK 922        TOTAL FREE ENERGY PREDICTED BY IDOCK:   -8.92 KCAL/MOL
REMARK 923 INTER-LIGAND FREE ENERGY PREDICTED BY IDOCK:   -7.58 KCAL/MOL
REMARK 924 INTRA-LIGAND FREE ENERGY PREDICTED BY IDOCK:   -1.34 KCAL/MOL
REMARK 927      BINDING AFFINITY PREDICTED BY RF-SCORE:    0.00 PKD
ROOT
HETATM    1  C   UNL     1     -10.515  15.172  69.218  1.00  0.00    -0.260 C  
HETATM    2  S   UNL     1      -8.741  15.053  68.775  1.00  0.00    -0.194 SA 
HETATM    3  C   UNL     1      -8.978  15.537  67.007  1.00  0.00    -0.226 C  
HETATM    4  CA  UNL     1     -10.337  16.281  66.960  1.00  0.00    -0.292 C  
HETATM    5  C   UNL     1      -9.005  14.238  66.178  1.00  0.00     0.117 C  
HETATM    6  C   UNL     1      -7.765  16.349  66.539  1.00  0.00    -0.295 C  
HETATM    7  C   UNL     1     -10.255  17.805  67.162  1.00  0.00    -0.353 C  
HETATM    8  N   UNL     1     -11.194  15.697  68.010  1.00  0.00    -0.341 N  
HETATM    9  OXT UNL     1      -9.624  18.567  66.442  1.00  0.00    -0.317 OA 
HETATM   10  O   UNL     1     -10.999  18.269  68.198  1.00  0.00    -0.186 OA 
HETATM   11  C   UNL     1     -11.839  14.511  67.751  1.00  0.00    -0.357 C  
HETATM   12  CA  UNL     1     -11.390  13.896  69.097  1.00  0.00    -0.286 C  
HETATM   13  O   UNL     1     -12.368  14.113  66.741  1.00  0.00    -0.438 OA 
ENDROOT
BRANCH  12  14
HETATM   14  N   UNL     1     -10.682  12.591  69.029  1.00  0.00    -0.405 N  
HETATM   15  C   UNL     1     -11.383  11.416  68.852  1.00  0.00    -0.270 C  
HETATM   16  H   UNL     1      -9.665  12.564  69.114  1.00  0.00     0.000 HD 
HETATM   17  O   UNL     1     -12.612  11.433  68.760  1.00  0.00    -0.257 OA 
BRANCH  15  18
HETATM   18  CA  UNL     1     -10.580  10.096  68.949  1.00  0.00    -0.215 C  
BRANCH  18  19
HETATM   19  N   UNL     1      -9.877  10.072  70.229  1.00  0.00    -0.395 N  
HETATM   20  H   UNL     1      -9.365  10.902  70.526  1.00  0.00     0.000 HD 
BRANCH  19  21
HETATM   21  C   UNL     1      -9.885   8.975  71.037  1.00  0.00    -0.282 C  
HETATM   22  O   UNL     1     -10.667   8.852  71.978  1.00  0.00    -0.339 OA 
BRANCH  21  23
HETATM   23  N   UNL     1      -8.959   8.001  70.741  1.00  0.00    -0.142 N  
HETATM   24  C   UNL     1      -6.998   7.334  69.594  1.00  0.00    -0.054 C  
HETATM   25  N   UNL     1      -7.988   6.257  69.709  1.00  0.00    -0.116 N  
HETATM   26  C   UNL     1      -7.545   8.320  70.621  1.00  0.00    -0.071 C  
HETATM   27  O   UNL     1     -10.227   6.074  70.364  1.00  0.00    -0.185 OA 
HETATM   28  C   UNL     1      -9.190   6.704  70.285  1.00  0.00    -0.156 C  
BRANCH  25  29
HETATM   29  S   UNL     1      -7.636   4.724  69.194  1.00  0.00    -0.056 S  
HETATM   30  O   UNL     1      -8.885   4.091  68.824  1.00  0.00    -0.093 OA 
HETATM   31  C   UNL     1      -7.054   3.911  70.669  1.00  0.00    -0.034 C  
HETATM   32  O   UNL     1      -6.542   4.793  68.254  1.00  0.00    -0.040 OA 
ENDBRANCH  25  29
ENDBRANCH  21  23
ENDBRANCH  19  21
ENDBRANCH  18  19
BRANCH  18  33
HETATM   33  C   UNL     1      -9.649   9.837  67.773  1.00  0.00    -0.157 A  
HETATM   34  C   UNL     1      -8.007   9.327  65.543  1.00  0.00    -0.104 A  
HETATM   35  C   UNL     1      -9.885   8.727  66.939  1.00  0.00    -0.295 A  
HETATM   36  C   UNL     1      -9.067   8.473  65.838  1.00  0.00    -0.237 A  
HETATM   37  C   UNL     1      -7.765  10.436  66.350  1.00  0.00    -0.125 A  
HETATM   38  C   UNL     1      -8.578  10.690  67.457  1.00  0.00    -0.122 A  
ENDBRANCH  18  33
ENDBRANCH  15  18
ENDBRANCH  12  14
TORSDOF 7
ENDMDL
MODEL      123
REMARK 921   NORMALIZED FREE ENERGY PREDICTED BY IDOCK:   -5.21 KCAL/MOL
REMARK 922        TOTAL FREE ENERGY PREDICTED BY IDOCK:   -8.86 KCAL/MOL
REMARK 923 INTER-LIGAND FREE ENERGY PREDICTED BY IDOCK:   -6.98 KCAL/MOL
REMARK 924 INTRA-LIGAND FREE ENERGY PREDICTED BY IDOCK:   -1.89 KCAL/MOL
REMARK 927      BINDING AFFINITY PREDICTED BY RF-SCORE:    0.00 PKD
ROOT
HETATM    1  C   UNL     1      -8.874   9.187  71.115  1.00  0.00    -0.164 C  
HETATM    2  S   UNL     1     -10.703   9.098  71.187  1.00  0.00    -0.338 SA 
HETATM    3  C   UNL     1     -10.785   7.255  71.073  1.00  0.00    -0.231 C  
HETATM    4  CA  UNL     1      -9.388   6.751  71.515  1.00  0.00    -0.153 C  
HETATM    5  C   UNL     1     -11.084   6.903  69.603  1.00  0.00    -0.302 C  
HETATM    6  C   UNL     1     -11.964   6.750  71.910  1.00  0.00    -0.374 C  
HETATM    7  C   UNL     1      -9.245   6.454  73.019  1.00  0.00    -0.132 C  
HETATM    8  N   UNL     1      -8.405   7.782  71.127  1.00  0.00    -0.109 N  
HETATM    9  OXT UNL     1      -9.919   5.637  73.631  1.00  0.00    -0.164 OA 
HETATM   10  O   UNL     1      -8.252   7.149  73.630  1.00  0.00    -0.116 OA 
HETATM   11  C   UNL     1      -7.973   7.824  69.823  1.00  0.00    -0.115 C  
HETATM   12  CA  UNL     1      -8.201   9.350  69.727  1.00  0.00    -0.143 C  
HETATM   13  O   UNL     1      -7.717   6.927  69.054  1.00  0.00    -0.105 OA 
ENDROOT
BRANCH  12  14
HETATM   14  N   UNL     1      -9.056   9.826  68.609  1.00  0.00    -0.128 N  
HETATM   15  C   UNL     1      -8.652  10.876  67.808  1.00  0.00    -0.128 C  
HETATM   16  H   UNL     1      -9.953   9.373  68.432  1.00  0.00     0.000 HD 
HETATM   17  O   UNL     1      -7.576  11.440  68.019  1.00  0.00    -0.100 OA 
BRANCH  15  18
HETATM   18  CA  UNL     1      -9.672  11.403  66.770  1.00  0.00    -0.198 C  
BRANCH  18  19
HETATM   19  N   UNL     1      -9.027  11.434  65.460  1.00  0.00    -0.367 N  
HETATM   20  H   UNL     1      -8.241  12.066  65.312  1.00  0.00     0.000 HD 
BRANCH  19  21
HETATM   21  C   UNL     1      -9.445  10.645  64.431  1.00  0.00    -0.269 C  
HETATM   22  O   UNL     1     -10.488  10.858  63.815  1.00  0.00    -0.353 OA 
BRANCH  21  23
HETATM   23  N   UNL     1      -8.628   9.584  64.114  1.00  0.00    -0.189 N  
HETATM   24  C   UNL     1      -7.921   7.951  62.551  1.00  0.00    -0.149 C  
HETATM   25  N   UNL     1      -7.890   7.469  63.938  1.00  0.00    -0.124 N  
HETATM   26  C   UNL     1      -8.048   9.453  62.786  1.00  0.00    -0.142 C  
HETATM   27  O   UNL     1      -8.661   8.223  66.014  1.00  0.00    -0.132 OA 
HETATM   28  C   UNL     1      -8.424   8.409  64.835  1.00  0.00    -0.122 C  
BRANCH  25  29
HETATM   29  S   UNL     1      -7.272   5.978  64.301  1.00  0.00    -0.061 S  
HETATM   30  O   UNL     1      -8.288   5.253  65.037  1.00  0.00    -0.133 OA 
HETATM   31  C   UNL     1      -5.955   6.338  65.446  1.00  0.00    -0.026 C  
HETATM   32  O   UNL     1      -6.690   5.415  63.105  1.00  0.00    -0.029 OA 
ENDBRANCH  25  29
ENDBRANCH  21  23
ENDBRANCH  19  21
ENDBRANCH  18  19
BRANCH  18  33
HETATM   33  C   UNL     1     -10.308  12.737  67.134  1.00  0.00    -0.237 A  
HETATM   34  C   UNL     1     -11.490  15.173  67.905  1.00  0.00    -0.344 A  
HETATM   35  C   UNL     1     -11.304  12.776  68.131  1.00  0.00    -0.329 A  
HETATM   36  C   UNL     1     -11.891  13.983  68.507  1.00  0.00    -0.399 A  
HETATM   37  C   UNL     1     -10.499  15.156  66.926  1.00  0.00    -0.282 A  
HETATM   38  C   UNL     1      -9.913  13.948  66.541  1.00  0.00    -0.288 A  
ENDBRANCH  18  33
ENDBRANCH  15  18
ENDBRANCH  12  14
TORSDOF 7
ENDMDL
MODEL      124
REMARK 921   NORMALIZED FREE ENERGY PREDICTED BY IDOCK:   -5.18 KCAL/MOL
REMARK 922        TOTAL FREE ENERGY PREDICTED BY IDOCK:   -8.83 KCAL/MOL
REMARK 923 INTER-LIGAND FREE ENERGY PREDICTED BY IDOCK:   -7.44 KCAL/MOL
REMARK 924 INTRA-LIGAND FREE ENERGY PREDICTED BY IDOCK:   -1.39 KCAL/MOL
REMARK 927      BINDING AFFINITY PREDICTED BY RF-SCORE:    0.00 PKD
ROOT
HETATM    1  C   UNL     1      -9.459  12.414  67.290  1.00  0.00    -0.191 C  
HETATM    2  S   UNL     1      -8.460  11.280  66.254  1.00  0.00    -0.123 SA 
HETATM    3  C   UNL     1      -9.903  10.581  65.334  1.00  0.00    -0.274 C  
HETATM    4  CA  UNL     1     -11.038  11.625  65.488  1.00  0.00    -0.237 C  
HETATM    5  C   UNL     1     -10.262   9.239  66.001  1.00  0.00    -0.156 C  
HETATM    6  C   UNL     1      -9.481  10.273  63.893  1.00  0.00    -0.356 C  
HETATM    7  C   UNL     1     -11.100  12.692  64.381  1.00  0.00    -0.345 C  
HETATM    8  N   UNL     1     -10.849  12.289  66.793  1.00  0.00    -0.244 N  
HETATM    9  OXT UNL     1     -11.258  12.449  63.193  1.00  0.00    -0.387 OA 
HETATM   10  O   UNL     1     -11.015  13.969  64.834  1.00  0.00    -0.350 OA 
HETATM   11  C   UNL     1     -11.289  11.649  67.928  1.00  0.00    -0.299 C  
HETATM   12  CA  UNL     1      -9.956  11.906  68.668  1.00  0.00    -0.154 C  
HETATM   13  O   UNL     1     -12.283  10.990  68.120  1.00  0.00    -0.578 OA 
ENDROOT
BRANCH  12  14
HETATM   14  N   UNL     1      -9.272  10.716  69.239  1.00  0.00    -0.354 N  
HETATM   15  C   UNL     1      -9.850   9.992  70.263  1.00  0.00    -0.085 C  
HETATM   16  H   UNL     1      -8.364  10.431  68.871  1.00  0.00     0.000 HD 
HETATM   17  O   UNL     1     -10.941  10.333  70.725  1.00  0.00    -0.306 OA 
BRANCH  15  18
HETATM   18  CA  UNL     1      -8.999   8.866  70.898  1.00  0.00    -0.222 C  
BRANCH  18  19
HETATM   19  N   UNL     1      -8.149   8.287  69.861  1.00  0.00    -0.115 N  
HETATM   20  H   UNL     1      -8.244   8.617  68.902  1.00  0.00     0.000 HD 
BRANCH  19  21
HETATM   21  C   UNL     1      -7.232   7.316  70.138  1.00  0.00    -0.074 C  
HETATM   22  O   UNL     1      -6.420   7.416  71.056  1.00  0.00    -0.039 OA 
BRANCH  21  23
HETATM   23  N   UNL     1      -7.264   6.206  69.324  1.00  0.00    -0.079 N  
HETATM   24  C   UNL     1      -6.111   4.603  68.018  1.00  0.00    -0.031 C  
HETATM   25  N   UNL     1      -7.421   4.960  67.462  1.00  0.00    -0.078 N  
HETATM   26  C   UNL     1      -6.248   5.171  69.427  1.00  0.00    -0.033 C  
HETATM   27  O   UNL     1      -9.048   6.593  67.865  1.00  0.00    -0.117 OA 
HETATM   28  C   UNL     1      -8.037   5.997  68.183  1.00  0.00    -0.110 C  
BRANCH  25  29
HETATM   29  S   UNL     1      -8.021   4.172  66.136  1.00  0.00    -0.098 S  
HETATM   30  O   UNL     1      -8.454   5.179  65.189  1.00  0.00    -0.134 OA 
HETATM   31  C   UNL     1      -9.488   3.371  66.755  1.00  0.00    -0.137 C  
HETATM   32  O   UNL     1      -7.080   3.149  65.742  1.00  0.00    -0.062 OA 
ENDBRANCH  25  29
ENDBRANCH  21  23
ENDBRANCH  19  21
ENDBRANCH  18  19
BRANCH  18  33
HETATM   33  C   UNL     1      -9.805   7.812  71.642  1.00  0.00    -0.201 A  
HETATM   34  C   UNL     1     -11.281   5.797  72.941  1.00  0.00    -0.319 A  
HETATM   35  C   UNL     1     -10.633   6.936  70.912  1.00  0.00    -0.243 A  
HETATM   36  C   UNL     1     -11.367   5.942  71.559  1.00  0.00    -0.256 A  
HETATM   37  C   UNL     1     -10.458   6.645  73.678  1.00  0.00    -0.353 A  
HETATM   38  C   UNL     1      -9.726   7.646  73.036  1.00  0.00    -0.301 A  
ENDBRANCH  18  33
ENDBRANCH  15  18
ENDBRANCH  12  14
TORSDOF 7
ENDMDL
MODEL      125
REMARK 921   NORMALIZED FREE ENERGY PREDICTED BY IDOCK:   -5.18 KCAL/MOL
REMARK 922        TOTAL FREE ENERGY PREDICTED BY IDOCK:   -8.82 KCAL/MOL
REMARK 923 INTER-LIGAND FREE ENERGY PREDICTED BY IDOCK:   -7.71 KCAL/MOL
REMARK 924 INTRA-LIGAND FREE ENERGY PREDICTED BY IDOCK:   -1.11 KCAL/MOL
REMARK 927      BINDING AFFINITY PREDICTED BY RF-SCORE:    0.00 PKD
ROOT
HETATM    1  C   UNL     1      -9.315   8.389  72.701  1.00  0.00    -0.264 C  
HETATM    2  S   UNL     1     -10.841   8.702  71.736  1.00  0.00    -0.350 SA 
HETATM    3  C   UNL     1     -11.001   6.969  71.111  1.00  0.00    -0.247 C  
HETATM    4  CA  UNL     1     -10.176   6.098  72.092  1.00  0.00    -0.186 C  
HETATM    5  C   UNL     1     -10.415   6.943  69.686  1.00  0.00    -0.240 C  
HETATM    6  C   UNL     1     -12.486   6.610  70.998  1.00  0.00    -0.225 C  
HETATM    7  C   UNL     1     -10.965   5.531  73.286  1.00  0.00    -0.292 C  
HETATM    8  N   UNL     1      -9.067   6.932  72.594  1.00  0.00    -0.135 N  
HETATM    9  OXT UNL     1     -11.938   4.796  73.187  1.00  0.00    -0.204 OA 
HETATM   10  O   UNL     1     -10.460   5.874  74.498  1.00  0.00    -0.251 OA 
HETATM   11  C   UNL     1      -7.952   7.092  71.805  1.00  0.00    -0.097 C  
HETATM   12  CA  UNL     1      -7.947   8.625  72.009  1.00  0.00    -0.054 C  
HETATM   13  O   UNL     1      -7.375   6.302  71.096  1.00  0.00    -0.077 OA 
ENDROOT
BRANCH  12  14
HETATM   14  N   UNL     1      -7.942   9.461  70.780  1.00  0.00    -0.157 N  
HETATM   15  C   UNL     1      -6.815  10.167  70.410  1.00  0.00    -0.124 C  
HETATM   16  H   UNL     1      -8.782   9.513  70.203  1.00  0.00     0.000 HD 
HETATM   17  O   UNL     1      -5.798  10.121  71.105  1.00  0.00    -0.165 OA 
BRANCH  15  18
HETATM   18  CA  UNL     1      -6.951  11.128  69.205  1.00  0.00    -0.108 C  
BRANCH  18  19
HETATM   19  N   UNL     1      -8.307  11.672  69.195  1.00  0.00    -0.363 N  
HETATM   20  H   UNL     1      -8.532  12.449  69.815  1.00  0.00     0.000 HD 
BRANCH  19  21
HETATM   21  C   UNL     1      -9.280  11.172  68.382  1.00  0.00    -0.175 C  
HETATM   22  O   UNL     1      -9.730  10.034  68.513  1.00  0.00    -0.150 OA 
BRANCH  21  23
HETATM   23  N   UNL     1      -9.735  12.016  67.395  1.00  0.00    -0.181 N  
HETATM   24  C   UNL     1     -10.800  14.037  66.774  1.00  0.00    -0.294 C  
HETATM   25  N   UNL     1     -11.105  12.926  65.865  1.00  0.00    -0.278 N  
HETATM   26  C   UNL     1      -9.603  13.459  67.522  1.00  0.00    -0.221 C  
HETATM   27  O   UNL     1     -10.779  10.609  65.848  1.00  0.00    -0.152 OA 
HETATM   28  C   UNL     1     -10.562  11.711  66.315  1.00  0.00    -0.258 C  
BRANCH  25  29
HETATM   29  S   UNL     1     -11.990  13.177  64.489  1.00  0.00    -0.415 S  
HETATM   30  O   UNL     1     -11.242  12.617  63.382  1.00  0.00    -0.467 OA 
HETATM   31  C   UNL     1     -11.967  14.948  64.294  1.00  0.00    -0.338 C  
HETATM   32  O   UNL     1     -13.353  12.767  64.737  1.00  0.00    -0.736 OA 
ENDBRANCH  25  29
ENDBRANCH  21  23
ENDBRANCH  19  21
ENDBRANCH  18  19
BRANCH  18  33
HETATM   33  C   UNL     1      -6.563  10.518  67.866  1.00  0.00    -0.061 A  
HETATM   34  C   UNL     1      -5.769   9.456  65.382  1.00  0.00    -0.057 A  
HETATM   35  C   UNL     1      -6.060  11.353  66.848  1.00  0.00    -0.135 A  
HETATM   36  C   UNL     1      -5.672  10.824  65.617  1.00  0.00    -0.128 A  
HETATM   37  C   UNL     1      -6.253   8.613  66.380  1.00  0.00    -0.060 A  
HETATM   38  C   UNL     1      -6.649   9.138  67.612  1.00  0.00    -0.064 A  
ENDBRANCH  18  33
ENDBRANCH  15  18
ENDBRANCH  12  14
TORSDOF 7
ENDMDL
MODEL      126
REMARK 921   NORMALIZED FREE ENERGY PREDICTED BY IDOCK:   -5.17 KCAL/MOL
REMARK 922        TOTAL FREE ENERGY PREDICTED BY IDOCK:   -8.81 KCAL/MOL
REMARK 923 INTER-LIGAND FREE ENERGY PREDICTED BY IDOCK:   -7.09 KCAL/MOL
REMARK 924 INTRA-LIGAND FREE ENERGY PREDICTED BY IDOCK:   -1.72 KCAL/MOL
REMARK 927      BINDING AFFINITY PREDICTED BY RF-SCORE:    0.00 PKD
ROOT
HETATM    1  C   UNL     1     -10.395  11.858  68.730  1.00  0.00    -0.165 C  
HETATM    2  S   UNL     1      -8.786  12.674  68.414  1.00  0.00    -0.063 SA 
HETATM    3  C   UNL     1      -9.500  14.084  67.455  1.00  0.00    -0.221 C  
HETATM    4  CA  UNL     1     -10.992  14.152  67.868  1.00  0.00    -0.251 C  
HETATM    5  C   UNL     1      -9.331  13.751  65.960  1.00  0.00    -0.042 C  
HETATM    6  C   UNL     1      -8.680  15.349  67.734  1.00  0.00    -0.167 C  
HETATM    7  C   UNL     1     -11.298  15.068  69.067  1.00  0.00    -0.290 C  
HETATM    8  N   UNL     1     -11.422  12.776  68.185  1.00  0.00    -0.291 N  
HETATM    9  OXT UNL     1     -11.062  16.267  69.100  1.00  0.00    -0.300 OA 
HETATM   10  O   UNL     1     -11.916  14.442  70.100  1.00  0.00    -0.283 OA 
HETATM   11  C   UNL     1     -11.751  11.932  67.150  1.00  0.00    -0.236 C  
HETATM   12  CA  UNL     1     -10.886  10.786  67.723  1.00  0.00    -0.269 C  
HETATM   13  O   UNL     1     -12.341  12.152  66.119  1.00  0.00    -0.536 OA 
ENDROOT
BRANCH  12  14
HETATM   14  N   UNL     1      -9.872  10.197  66.810  1.00  0.00    -0.187 N  
HETATM   15  C   UNL     1      -9.951   8.873  66.427  1.00  0.00    -0.284 C  
HETATM   16  H   UNL     1      -9.109  10.777  66.463  1.00  0.00     0.000 HD 
HETATM   17  O   UNL     1     -10.862   8.157  66.849  1.00  0.00    -0.250 OA 
BRANCH  15  18
HETATM   18  CA  UNL     1      -8.770   8.307  65.602  1.00  0.00    -0.156 C  
BRANCH  18  19
HETATM   19  N   UNL     1      -7.676   7.989  66.515  1.00  0.00    -0.092 N  
HETATM   20  H   UNL     1      -6.946   8.684  66.673  1.00  0.00     0.000 HD 
BRANCH  19  21
HETATM   21  C   UNL     1      -7.600   6.793  67.163  1.00  0.00    -0.099 C  
HETATM   22  O   UNL     1      -6.967   5.837  66.716  1.00  0.00    -0.062 OA 
BRANCH  21  23
HETATM   23  N   UNL     1      -8.279   6.709  68.358  1.00  0.00    -0.114 N  
HETATM   24  C   UNL     1     -10.280   6.247  69.537  1.00  0.00    -0.194 C  
HETATM   25  N   UNL     1      -9.497   7.332  70.140  1.00  0.00    -0.165 N  
HETATM   26  C   UNL     1      -9.235   5.641  68.605  1.00  0.00    -0.122 C  
HETATM   27  O   UNL     1      -7.641   8.624  69.536  1.00  0.00    -0.083 OA 
HETATM   28  C   UNL     1      -8.377   7.671  69.361  1.00  0.00    -0.131 C  
BRANCH  25  29
HETATM   29  S   UNL     1      -9.958   8.012  71.576  1.00  0.00    -0.185 S  
HETATM   30  O   UNL     1     -10.563   6.968  72.378  1.00  0.00    -0.210 OA 
HETATM   31  C   UNL     1     -11.261   9.134  71.108  1.00  0.00    -0.325 C  
HETATM   32  O   UNL     1      -8.856   8.790  72.094  1.00  0.00    -0.345 OA 
ENDBRANCH  25  29
ENDBRANCH  21  23
ENDBRANCH  19  21
ENDBRANCH  18  19
BRANCH  18  33
HETATM   33  C   UNL     1      -8.323   9.197  64.451  1.00  0.00    -0.180 A  
HETATM   34  C   UNL     1      -7.575  10.904  62.341  1.00  0.00    -0.116 A  
HETATM   35  C   UNL     1      -9.295   9.826  63.649  1.00  0.00    -0.154 A  
HETATM   36  C   UNL     1      -8.922  10.667  62.601  1.00  0.00    -0.306 A  
HETATM   37  C   UNL     1      -6.599  10.300  63.130  1.00  0.00    -0.120 A  
HETATM   38  C   UNL     1      -6.968   9.452  64.177  1.00  0.00    -0.099 A  
ENDBRANCH  18  33
ENDBRANCH  15  18
ENDBRANCH  12  14
TORSDOF 7
ENDMDL
MODEL      127
REMARK 921   NORMALIZED FREE ENERGY PREDICTED BY IDOCK:   -5.16 KCAL/MOL
REMARK 922        TOTAL FREE ENERGY PREDICTED BY IDOCK:   -8.79 KCAL/MOL
REMARK 923 INTER-LIGAND FREE ENERGY PREDICTED BY IDOCK:   -8.52 KCAL/MOL
REMARK 924 INTRA-LIGAND FREE ENERGY PREDICTED BY IDOCK:   -0.27 KCAL/MOL
REMARK 927      BINDING AFFINITY PREDICTED BY RF-SCORE:    0.00 PKD
ROOT
HETATM    1  C   UNL     1     -10.945  13.068  66.956  1.00  0.00    -0.265 C  
HETATM    2  S   UNL     1     -11.645  14.113  68.287  1.00  0.00    -0.341 SA 
HETATM    3  C   UNL     1     -10.326  15.406  68.195  1.00  0.00    -0.239 C  
HETATM    4  CA  UNL     1      -9.693  15.250  66.789  1.00  0.00    -0.236 C  
HETATM    5  C   UNL     1      -9.315  15.105  69.318  1.00  0.00    -0.207 C  
HETATM    6  C   UNL     1     -10.942  16.777  68.493  1.00  0.00    -0.312 C  
HETATM    7  C   UNL     1     -10.335  16.108  65.684  1.00  0.00    -0.382 C  
HETATM    8  N   UNL     1      -9.790  13.825  66.418  1.00  0.00    -0.290 N  
HETATM    9  OXT UNL     1     -10.399  17.329  65.703  1.00  0.00    -0.580 OA 
HETATM   10  O   UNL     1     -10.795  15.394  64.625  1.00  0.00    -0.387 OA 
HETATM   11  C   UNL     1      -8.865  12.945  66.929  1.00  0.00    -0.187 C  
HETATM   12  CA  UNL     1      -9.959  11.937  67.351  1.00  0.00    -0.190 C  
HETATM   13  O   UNL     1      -7.679  13.078  67.115  1.00  0.00    -0.138 OA 
ENDROOT
BRANCH  12  14
HETATM   14  N   UNL     1      -9.954  11.507  68.773  1.00  0.00    -0.320 N  
HETATM   15  C   UNL     1     -10.590  10.346  69.162  1.00  0.00    -0.228 C  
HETATM   16  H   UNL     1      -9.476  12.078  69.471  1.00  0.00     0.000 HD 
HETATM   17  O   UNL     1     -11.183   9.654  68.331  1.00  0.00    -0.102 OA 
BRANCH  15  18
HETATM   18  CA  UNL     1     -10.666  10.058  70.682  1.00  0.00    -0.254 C  
BRANCH  18  19
HETATM   19  N   UNL     1      -9.460   9.336  71.078  1.00  0.00    -0.266 N  
HETATM   20  H   UNL     1      -8.909   9.686  71.860  1.00  0.00     0.000 HD 
BRANCH  19  21
HETATM   21  C   UNL     1      -9.050   8.208  70.432  1.00  0.00    -0.150 C  
HETATM   22  O   UNL     1      -9.455   7.087  70.737  1.00  0.00    -0.161 OA 
BRANCH  21  23
HETATM   23  N   UNL     1      -8.147   8.391  69.410  1.00  0.00    -0.112 N  
HETATM   24  C   UNL     1      -6.814   9.850  68.105  1.00  0.00    -0.064 C  
HETATM   25  N   UNL     1      -7.346   8.719  67.337  1.00  0.00    -0.081 N  
HETATM   26  C   UNL     1      -7.067   9.358  69.527  1.00  0.00    -0.062 C  
HETATM   27  O   UNL     1      -8.927   7.028  67.679  1.00  0.00    -0.119 OA 
HETATM   28  C   UNL     1      -8.228   7.932  68.096  1.00  0.00    -0.123 C  
BRANCH  25  29
HETATM   29  S   UNL     1      -6.895   8.478  65.763  1.00  0.00    -0.068 S  
HETATM   30  O   UNL     1      -8.086   8.130  65.016  1.00  0.00    -0.140 OA 
HETATM   31  C   UNL     1      -5.878   7.017  65.838  1.00  0.00    -0.035 C  
HETATM   32  O   UNL     1      -6.065   9.585  65.346  1.00  0.00    -0.062 OA 
ENDBRANCH  25  29
ENDBRANCH  21  23
ENDBRANCH  19  21
ENDBRANCH  18  19
BRANCH  18  33
HETATM   33  C   UNL     1     -11.937   9.350  71.126  1.00  0.00    -0.413 A  
HETATM   34  C   UNL     1     -14.233   7.959  71.976  1.00  0.00    -0.441 A  
HETATM   35  C   UNL     1     -12.043   7.955  70.956  1.00  0.00    -0.246 A  
HETATM   36  C   UNL     1     -13.184   7.270  71.374  1.00  0.00    -0.404 A  
HETATM   37  C   UNL     1     -14.141   9.337  72.163  1.00  0.00    -0.354 A  
HETATM   38  C   UNL     1     -13.004  10.028  71.740  1.00  0.00    -0.560 A  
ENDBRANCH  18  33
ENDBRANCH  15  18
ENDBRANCH  12  14
TORSDOF 7
ENDMDL
MODEL      128
REMARK 921   NORMALIZED FREE ENERGY PREDICTED BY IDOCK:   -5.15 KCAL/MOL
REMARK 922        TOTAL FREE ENERGY PREDICTED BY IDOCK:   -8.77 KCAL/MOL
REMARK 923 INTER-LIGAND FREE ENERGY PREDICTED BY IDOCK:   -7.68 KCAL/MOL
REMARK 924 INTRA-LIGAND FREE ENERGY PREDICTED BY IDOCK:   -1.09 KCAL/MOL
REMARK 927      BINDING AFFINITY PREDICTED BY RF-SCORE:    0.00 PKD
ROOT
HETATM    1  C   UNL     1     -11.325  14.561  66.995  1.00  0.00    -0.349 C  
HETATM    2  S   UNL     1     -10.039  14.400  65.700  1.00  0.00    -0.350 SA 
HETATM    3  C   UNL     1     -10.452  12.650  65.272  1.00  0.00    -0.289 C  
HETATM    4  CA  UNL     1     -11.903  12.433  65.770  1.00  0.00    -0.406 C  
HETATM    5  C   UNL     1      -9.447  11.749  66.017  1.00  0.00    -0.245 C  
HETATM    6  C   UNL     1     -10.230  12.432  63.771  1.00  0.00    -0.404 C  
HETATM    7  C   UNL     1     -13.002  12.738  64.737  1.00  0.00    -0.143 C  
HETATM    8  N   UNL     1     -12.094  13.295  66.953  1.00  0.00    -0.365 N  
HETATM    9  OXT UNL     1     -13.112  12.177  63.656  1.00  0.00    -0.787 OA 
HETATM   10  O   UNL     1     -13.902  13.669  65.143  1.00  0.00     0.330 OA 
HETATM   11  C   UNL     1     -11.616  12.864  68.168  1.00  0.00    -0.336 C  
HETATM   12  CA  UNL     1     -10.941  14.224  68.459  1.00  0.00    -0.252 C  
HETATM   13  O   UNL     1     -11.607  11.760  68.658  1.00  0.00    -0.258 OA 
ENDROOT
BRANCH  12  14
HETATM   14  N   UNL     1      -9.492  14.190  68.790  1.00  0.00    -0.349 N  
HETATM   15  C   UNL     1      -8.821  15.344  69.142  1.00  0.00    -0.249 C  
HETATM   16  H   UNL     1      -8.988  13.304  68.756  1.00  0.00     0.000 HD 
HETATM   17  O   UNL     1      -9.415  16.423  69.174  1.00  0.00    -0.258 OA 
BRANCH  15  18
HETATM   18  CA  UNL     1      -7.286  15.240  69.318  1.00  0.00    -0.191 C  
BRANCH  18  19
HETATM   19  N   UNL     1      -7.009  14.444  70.511  1.00  0.00    -0.324 N  
HETATM   20  H   UNL     1      -7.647  14.502  71.303  1.00  0.00     0.000 HD 
BRANCH  19  21
HETATM   21  C   UNL     1      -5.923  13.625  70.596  1.00  0.00    -0.143 C  
HETATM   22  O   UNL     1      -5.128  13.676  71.534  1.00  0.00    -0.131 OA 
BRANCH  21  23
HETATM   23  N   UNL     1      -5.759  12.729  69.564  1.00  0.00    -0.089 N  
HETATM   24  C   UNL     1      -5.880  12.240  67.251  1.00  0.00    -0.143 C  
HETATM   25  N   UNL     1      -6.228  11.093  68.098  1.00  0.00    -0.049 N  
HETATM   26  C   UNL     1      -5.220  13.151  68.281  1.00  0.00    -0.086 C  
HETATM   27  O   UNL     1      -6.669  10.731  70.368  1.00  0.00    -0.279 OA 
HETATM   28  C   UNL     1      -6.267  11.435  69.461  1.00  0.00    -0.104 C  
BRANCH  25  29
HETATM   29  S   UNL     1      -6.520   9.606  67.432  1.00  0.00    -0.070 S  
HETATM   30  O   UNL     1      -7.824   9.172  67.890  1.00  0.00    -0.099 OA 
HETATM   31  C   UNL     1      -5.314   8.553  68.214  1.00  0.00    -0.034 C  
HETATM   32  O   UNL     1      -6.220   9.666  66.020  1.00  0.00    -0.062 OA 
ENDBRANCH  25  29
ENDBRANCH  21  23
ENDBRANCH  19  21
ENDBRANCH  18  19
BRANCH  18  33
HETATM   33  C   UNL     1      -6.562  16.578  69.334  1.00  0.00    -0.213 A  
HETATM   34  C   UNL     1      -5.303  19.096  69.317  1.00  0.00    -0.207 A  
HETATM   35  C   UNL     1      -6.711  17.454  68.241  1.00  0.00    -0.183 A  
HETATM   36  C   UNL     1      -6.081  18.699  68.233  1.00  0.00    -0.209 A  
HETATM   37  C   UNL     1      -5.154  18.248  70.412  1.00  0.00    -0.240 A  
HETATM   38  C   UNL     1      -5.777  16.998  70.421  1.00  0.00    -0.113 A  
ENDBRANCH  18  33
ENDBRANCH  15  18
ENDBRANCH  12  14
TORSDOF 7
ENDMDL
MODEL      129
REMARK 921   NORMALIZED FREE ENERGY PREDICTED BY IDOCK:   -5.11 KCAL/MOL
REMARK 922        TOTAL FREE ENERGY PREDICTED BY IDOCK:   -8.72 KCAL/MOL
REMARK 923 INTER-LIGAND FREE ENERGY PREDICTED BY IDOCK:   -8.02 KCAL/MOL
REMARK 924 INTRA-LIGAND FREE ENERGY PREDICTED BY IDOCK:   -0.70 KCAL/MOL
REMARK 927      BINDING AFFINITY PREDICTED BY RF-SCORE:    0.00 PKD
ROOT
HETATM    1  C   UNL     1     -10.529  15.448  68.987  1.00  0.00    -0.249 C  
HETATM    2  S   UNL     1      -8.750  15.489  68.554  1.00  0.00    -0.195 SA 
HETATM    3  C   UNL     1      -9.020  15.952  66.784  1.00  0.00    -0.251 C  
HETATM    4  CA  UNL     1     -10.440  16.571  66.732  1.00  0.00    -0.269 C  
HETATM    5  C   UNL     1      -8.927  14.656  65.955  1.00  0.00     0.123 C  
HETATM    6  C   UNL     1      -7.882  16.869  66.324  1.00  0.00    -0.346 C  
HETATM    7  C   UNL     1     -10.496  18.096  66.934  1.00  0.00    -0.357 C  
HETATM    8  N   UNL     1     -11.246  15.912  67.777  1.00  0.00    -0.301 N  
HETATM    9  OXT UNL     1      -9.932  18.912  66.218  1.00  0.00    -0.360 OA 
HETATM   10  O   UNL     1     -11.283  18.490  67.967  1.00  0.00     0.040 OA 
HETATM   11  C   UNL     1     -11.782  14.673  67.514  1.00  0.00    -0.379 C  
HETATM   12  CA  UNL     1     -11.286  14.100  68.862  1.00  0.00    -0.267 C  
HETATM   13  O   UNL     1     -12.268  14.230  66.501  1.00  0.00    -0.441 OA 
ENDROOT
BRANCH  12  14
HETATM   14  N   UNL     1     -10.463  12.863  68.797  1.00  0.00    -0.386 N  
HETATM   15  C   UNL     1     -11.051  11.635  68.567  1.00  0.00    -0.235 C  
HETATM   16  H   UNL     1      -9.453  12.923  68.923  1.00  0.00     0.000 HD 
HETATM   17  O   UNL     1     -12.272  11.548  68.424  1.00  0.00    -0.540 OA 
BRANCH  15  18
HETATM   18  CA  UNL     1     -10.139  10.388  68.670  1.00  0.00    -0.176 C  
BRANCH  18  19
HETATM   19  N   UNL     1      -9.223  10.574  69.792  1.00  0.00    -0.399 N  
HETATM   20  H   UNL     1      -9.457  11.256  70.513  1.00  0.00     0.000 HD 
BRANCH  19  21
HETATM   21  C   UNL     1      -8.065   9.864  69.904  1.00  0.00    -0.188 C  
HETATM   22  O   UNL     1      -6.967  10.341  69.621  1.00  0.00    -0.082 OA 
BRANCH  21  23
HETATM   23  N   UNL     1      -8.192   8.570  70.355  1.00  0.00    -0.108 N  
HETATM   24  C   UNL     1      -9.157   6.419  70.133  1.00  0.00    -0.154 C  
HETATM   25  N   UNL     1      -8.946   6.811  71.532  1.00  0.00    -0.138 N  
HETATM   26  C   UNL     1      -8.292   7.457  69.425  1.00  0.00    -0.132 C  
HETATM   27  O   UNL     1      -8.369   8.768  72.678  1.00  0.00    -0.407 OA 
HETATM   28  C   UNL     1      -8.485   8.133  71.646  1.00  0.00    -0.136 C  
BRANCH  25  29
HETATM   29  S   UNL     1      -9.242   5.745  72.762  1.00  0.00    -0.134 S  
HETATM   30  O   UNL     1      -9.693   4.504  72.166  1.00  0.00    -0.149 OA 
HETATM   31  C   UNL     1     -10.640   6.459  73.607  1.00  0.00    -0.269 C  
HETATM   32  O   UNL     1      -8.114   5.758  73.665  1.00  0.00    -0.111 OA 
ENDBRANCH  25  29
ENDBRANCH  21  23
ENDBRANCH  19  21
ENDBRANCH  18  19
BRANCH  18  33
HETATM   33  C   UNL     1      -9.411  10.033  67.382  1.00  0.00    -0.176 A  
HETATM   34  C   UNL     1      -7.980   9.416  65.037  1.00  0.00    -0.118 A  
HETATM   35  C   UNL     1      -8.421  10.905  66.887  1.00  0.00    -0.135 A  
HETATM   36  C   UNL     1      -7.717  10.599  65.723  1.00  0.00    -0.130 A  
HETATM   37  C   UNL     1      -8.947   8.536  65.517  1.00  0.00    -0.182 A  
HETATM   38  C   UNL     1      -9.659   8.841  66.679  1.00  0.00    -0.283 A  
ENDBRANCH  18  33
ENDBRANCH  15  18
ENDBRANCH  12  14
TORSDOF 7
ENDMDL
MODEL      130
REMARK 921   NORMALIZED FREE ENERGY PREDICTED BY IDOCK:   -5.08 KCAL/MOL
REMARK 922        TOTAL FREE ENERGY PREDICTED BY IDOCK:   -8.68 KCAL/MOL
REMARK 923 INTER-LIGAND FREE ENERGY PREDICTED BY IDOCK:   -6.94 KCAL/MOL
REMARK 924 INTRA-LIGAND FREE ENERGY PREDICTED BY IDOCK:   -1.74 KCAL/MOL
REMARK 927      BINDING AFFINITY PREDICTED BY RF-SCORE:    0.00 PKD
ROOT
HETATM    1  C   UNL     1      -9.884  12.842  67.863  1.00  0.00    -0.227 C  
HETATM    2  S   UNL     1      -8.949  12.073  66.488  1.00  0.00    -0.160 SA 
HETATM    3  C   UNL     1     -10.446  11.498  65.570  1.00  0.00    -0.275 C  
HETATM    4  CA  UNL     1     -11.612  12.379  66.086  1.00  0.00    -0.396 C  
HETATM    5  C   UNL     1     -10.651  10.011  65.918  1.00  0.00     0.001 C  
HETATM    6  C   UNL     1     -10.175  11.579  64.063  1.00  0.00    -0.394 C  
HETATM    7  C   UNL     1     -11.859  13.671  65.286  1.00  0.00    -0.349 C  
HETATM    8  N   UNL     1     -11.313  12.725  67.489  1.00  0.00    -0.292 N  
HETATM    9  OXT UNL     1     -12.139  13.707  64.096  1.00  0.00    -0.430 OA 
HETATM   10  O   UNL     1     -11.794  14.805  66.030  1.00  0.00    -0.311 OA 
HETATM   11  C   UNL     1     -11.583  11.800  68.469  1.00  0.00    -0.321 C  
HETATM   12  CA  UNL     1     -10.190  11.980  69.116  1.00  0.00     0.156 C  
HETATM   13  O   UNL     1     -12.511  11.036  68.589  1.00  0.00    -0.462 OA 
ENDROOT
BRANCH  12  14
HETATM   14  N   UNL     1      -9.381  10.749  69.308  1.00  0.00    -0.388 N  
HETATM   15  C   UNL     1      -9.781   9.771  70.196  1.00  0.00    -0.248 C  
HETATM   16  H   UNL     1      -8.519  10.624  68.776  1.00  0.00     0.000 HD 
HETATM   17  O   UNL     1     -10.815   9.915  70.853  1.00  0.00    -0.319 OA 
BRANCH  15  18
HETATM   18  CA  UNL     1      -8.800   8.600  70.444  1.00  0.00    -0.157 C  
BRANCH  18  19
HETATM   19  N   UNL     1      -8.292   8.140  69.154  1.00  0.00    -0.129 N  
HETATM   20  H   UNL     1      -8.955   7.919  68.412  1.00  0.00     0.000 HD 
BRANCH  19  21
HETATM   21  C   UNL     1      -6.958   7.997  68.913  1.00  0.00    -0.062 C  
HETATM   22  O   UNL     1      -6.163   7.644  69.783  1.00  0.00    -0.030 OA 
BRANCH  21  23
HETATM   23  N   UNL     1      -6.544   8.273  67.630  1.00  0.00    -0.057 N  
HETATM   24  C   UNL     1      -5.817   9.846  66.017  1.00  0.00    -0.065 C  
HETATM   25  N   UNL     1      -6.646   8.779  65.444  1.00  0.00    -0.067 N  
HETATM   26  C   UNL     1      -5.483   9.234  67.374  1.00  0.00    -0.037 C  
HETATM   27  O   UNL     1      -7.997   7.054  66.264  1.00  0.00    -0.106 OA 
HETATM   28  C   UNL     1      -7.165   7.925  66.432  1.00  0.00    -0.082 C  
BRANCH  25  29
HETATM   29  S   UNL     1      -6.880   8.675  63.809  1.00  0.00    -0.087 S  
HETATM   30  O   UNL     1      -6.224   7.467  63.351  1.00  0.00    -0.052 OA 
HETATM   31  C   UNL     1      -5.950  10.052  63.165  1.00  0.00    -0.129 C  
HETATM   32  O   UNL     1      -8.278   8.903  63.528  1.00  0.00    -0.164 OA 
ENDBRANCH  25  29
ENDBRANCH  21  23
ENDBRANCH  19  21
ENDBRANCH  18  19
BRANCH  18  33
HETATM   33  C   UNL     1      -9.374   7.464  71.278  1.00  0.00    -0.158 A  
HETATM   34  C   UNL     1     -10.457   5.429  72.896  1.00  0.00    -0.250 A  
HETATM   35  C   UNL     1      -9.195   7.477  72.675  1.00  0.00    -0.201 A  
HETATM   36  C   UNL     1      -9.728   6.465  73.474  1.00  0.00    -0.186 A  
HETATM   37  C   UNL     1     -10.655   5.406  71.517  1.00  0.00    -0.285 A  
HETATM   38  C   UNL     1     -10.117   6.413  70.713  1.00  0.00    -0.220 A  
ENDBRANCH  18  33
ENDBRANCH  15  18
ENDBRANCH  12  14
TORSDOF 7
ENDMDL
MODEL      131
REMARK 921   NORMALIZED FREE ENERGY PREDICTED BY IDOCK:   -5.07 KCAL/MOL
REMARK 922        TOTAL FREE ENERGY PREDICTED BY IDOCK:   -8.67 KCAL/MOL
REMARK 923 INTER-LIGAND FREE ENERGY PREDICTED BY IDOCK:   -7.34 KCAL/MOL
REMARK 924 INTRA-LIGAND FREE ENERGY PREDICTED BY IDOCK:   -1.33 KCAL/MOL
REMARK 927      BINDING AFFINITY PREDICTED BY RF-SCORE:    0.00 PKD
ROOT
HETATM    1  C   UNL     1     -11.407  15.382  66.442  1.00  0.00    -0.087 C  
HETATM    2  S   UNL     1     -10.081  15.031  65.227  1.00  0.00    -0.298 SA 
HETATM    3  C   UNL     1     -10.216  13.192  65.360  1.00  0.00    -0.290 C  
HETATM    4  CA  UNL     1     -11.629  12.922  65.936  1.00  0.00    -0.377 C  
HETATM    5  C   UNL     1      -9.105  12.723  66.319  1.00  0.00    -0.033 C  
HETATM    6  C   UNL     1      -9.929  12.565  63.992  1.00  0.00    -0.225 C  
HETATM    7  C   UNL     1     -12.738  12.729  64.885  1.00  0.00    -0.404 C  
HETATM    8  N   UNL     1     -11.975  14.063  66.805  1.00  0.00    -0.425 N  
HETATM    9  OXT UNL     1     -12.737  11.856  64.029  1.00  0.00    -0.400 OA 
HETATM   10  O   UNL     1     -13.777  13.593  65.011  1.00  0.00     0.202 OA 
HETATM   11  C   UNL     1     -11.466  14.098  68.082  1.00  0.00    -0.310 C  
HETATM   12  CA  UNL     1     -11.010  15.568  67.930  1.00  0.00    -0.316 C  
HETATM   13  O   UNL     1     -11.302  13.210  68.883  1.00  0.00    -0.256 OA 
ENDROOT
BRANCH  12  14
HETATM   14  N   UNL     1      -9.581  15.855  68.220  1.00  0.00    -0.203 N  
HETATM   15  C   UNL     1      -9.047  17.104  67.976  1.00  0.00    -0.240 C  
HETATM   16  H   UNL     1      -8.987  15.119  68.605  1.00  0.00     0.000 HD 
HETATM   17  O   UNL     1      -9.751  17.998  67.501  1.00  0.00    -0.277 OA 
BRANCH  15  18
HETATM   18  CA  UNL     1      -7.519  17.266  68.163  1.00  0.00    -0.208 C  
BRANCH  18  19
HETATM   19  N   UNL     1      -7.195  17.026  69.566  1.00  0.00    -0.056 N  
HETATM   20  H   UNL     1      -7.898  17.226  70.277  1.00  0.00     0.000 HD 
BRANCH  19  21
HETATM   21  C   UNL     1      -5.981  16.542  69.955  1.00  0.00    -0.201 C  
HETATM   22  O   UNL     1      -5.151  17.233  70.542  1.00  0.00    -0.220 OA 
BRANCH  21  23
HETATM   23  N   UNL     1      -5.732  15.223  69.650  1.00  0.00    -0.108 N  
HETATM   24  C   UNL     1      -5.893  13.417  68.128  1.00  0.00    -0.108 C  
HETATM   25  N   UNL     1      -6.012  12.997  69.529  1.00  0.00    -0.102 N  
HETATM   26  C   UNL     1      -5.333  14.824  68.310  1.00  0.00    -0.113 C  
HETATM   27  O   UNL     1      -6.272  14.053  71.601  1.00  0.00    -0.190 OA 
HETATM   28  C   UNL     1      -6.033  14.093  70.409  1.00  0.00    -0.171 C  
BRANCH  25  29
HETATM   29  S   UNL     1      -6.099  11.393  69.928  1.00  0.00    -0.145 S  
HETATM   30  O   UNL     1      -5.305  11.197  71.123  1.00  0.00    -0.180 OA 
HETATM   31  C   UNL     1      -5.243  10.583  68.591  1.00  0.00    -0.037 C  
HETATM   32  O   UNL     1      -7.484  10.984  69.891  1.00  0.00     0.008 OA 
ENDBRANCH  25  29
ENDBRANCH  21  23
ENDBRANCH  19  21
ENDBRANCH  18  19
BRANCH  18  33
HETATM   33  C   UNL     1      -6.960  18.588  67.658  1.00  0.00    -0.212 A  
HETATM   34  C   UNL     1      -5.892  21.054  66.819  1.00  0.00    -0.305 A  
HETATM   35  C   UNL     1      -6.988  19.715  68.503  1.00  0.00    -0.345 A  
HETATM   36  C   UNL     1      -6.463  20.937  68.083  1.00  0.00    -0.305 A  
HETATM   37  C   UNL     1      -5.845  19.948  65.973  1.00  0.00    -0.180 A  
HETATM   38  C   UNL     1      -6.375  18.725  66.387  1.00  0.00    -0.218 A  
ENDBRANCH  18  33
ENDBRANCH  15  18
ENDBRANCH  12  14
TORSDOF 7
ENDMDL
MODEL      132
REMARK 921   NORMALIZED FREE ENERGY PREDICTED BY IDOCK:   -5.06 KCAL/MOL
REMARK 922        TOTAL FREE ENERGY PREDICTED BY IDOCK:   -8.66 KCAL/MOL
REMARK 923 INTER-LIGAND FREE ENERGY PREDICTED BY IDOCK:   -7.42 KCAL/MOL
REMARK 924 INTRA-LIGAND FREE ENERGY PREDICTED BY IDOCK:   -1.23 KCAL/MOL
REMARK 927      BINDING AFFINITY PREDICTED BY RF-SCORE:    0.00 PKD
ROOT
HETATM    1  C   UNL     1      -9.250   7.490  73.101  1.00  0.00    -0.193 C  
HETATM    2  S   UNL     1     -10.763   6.468  72.954  1.00  0.00    -0.264 SA 
HETATM    3  C   UNL     1      -9.940   5.081  72.051  1.00  0.00    -0.184 C  
HETATM    4  CA  UNL     1      -8.429   5.223  72.364  1.00  0.00    -0.122 C  
HETATM    5  C   UNL     1     -10.238   5.274  70.551  1.00  0.00    -0.334 C  
HETATM    6  C   UNL     1     -10.580   3.754  72.474  1.00  0.00    -0.107 C  
HETATM    7  C   UNL     1      -7.941   4.446  73.600  1.00  0.00    -0.094 C  
HETATM    8  N   UNL     1      -8.152   6.660  72.552  1.00  0.00    -0.103 N  
HETATM    9  OXT UNL     1      -8.026   3.233  73.734  1.00  0.00    -0.068 OA 
HETATM   10  O   UNL     1      -7.344   5.220  74.541  1.00  0.00    -0.081 OA 
HETATM   11  C   UNL     1      -7.993   7.453  71.440  1.00  0.00    -0.096 C  
HETATM   12  CA  UNL     1      -8.955   8.531  71.989  1.00  0.00    -0.231 C  
HETATM   13  O   UNL     1      -7.443   7.224  70.389  1.00  0.00    -0.080 OA 
ENDROOT
BRANCH  12  14
HETATM   14  N   UNL     1     -10.087   8.923  71.109  1.00  0.00    -0.245 N  
HETATM   15  C   UNL     1      -9.892   9.787  70.050  1.00  0.00    -0.251 C  
HETATM   16  H   UNL     1     -11.019   8.549  71.289  1.00  0.00     0.000 HD 
HETATM   17  O   UNL     1      -8.773  10.254  69.828  1.00  0.00    -0.157 OA 
BRANCH  15  18
HETATM   18  CA  UNL     1     -11.152  10.259  69.285  1.00  0.00    -0.245 C  
BRANCH  18  19
HETATM   19  N   UNL     1     -11.033   9.840  67.891  1.00  0.00    -0.466 N  
HETATM   20  H   UNL     1     -11.272  10.503  67.154  1.00  0.00     0.000 HD 
BRANCH  19  21
HETATM   21  C   UNL     1     -10.611   8.591  67.545  1.00  0.00    -0.214 C  
HETATM   22  O   UNL     1     -10.907   7.590  68.196  1.00  0.00    -0.129 OA 
BRANCH  21  23
HETATM   23  N   UNL     1      -9.827   8.509  66.417  1.00  0.00    -0.266 N  
HETATM   24  C   UNL     1      -7.700   8.173  65.434  1.00  0.00    -0.101 C  
HETATM   25  N   UNL     1      -8.519   9.149  64.707  1.00  0.00    -0.169 N  
HETATM   26  C   UNL     1      -8.764   7.522  66.312  1.00  0.00    -0.149 C  
HETATM   27  O   UNL     1     -10.525  10.294  65.080  1.00  0.00    -0.222 OA 
HETATM   28  C   UNL     1      -9.727   9.423  65.370  1.00  0.00    -0.178 C  
BRANCH  25  29
HETATM   29  S   UNL     1      -7.997   9.794  63.275  1.00  0.00    -0.155 S  
HETATM   30  O   UNL     1      -9.162  10.282  62.566  1.00  0.00    -0.253 OA 
HETATM   31  C   UNL     1      -7.391   8.380  62.376  1.00  0.00    -0.100 C  
HETATM   32  O   UNL     1      -6.880  10.670  63.544  1.00  0.00     0.011 OA 
ENDBRANCH  25  29
ENDBRANCH  21  23
ENDBRANCH  19  21
ENDBRANCH  18  19
BRANCH  18  33
HETATM   33  C   UNL     1     -11.450  11.745  69.419  1.00  0.00    -0.371 A  
HETATM   34  C   UNL     1     -11.984  14.487  69.768  1.00  0.00    -0.383 A  
HETATM   35  C   UNL     1     -12.112  12.213  70.571  1.00  0.00    -0.383 A  
HETATM   36  C   UNL     1     -12.380  13.572  70.739  1.00  0.00    -0.440 A  
HETATM   37  C   UNL     1     -11.318  14.045  68.627  1.00  0.00    -0.307 A  
HETATM   38  C   UNL     1     -11.054  12.685  68.452  1.00  0.00    -0.297 A  
ENDBRANCH  18  33
ENDBRANCH  15  18
ENDBRANCH  12  14
TORSDOF 7
ENDMDL
MODEL      133
REMARK 921   NORMALIZED FREE ENERGY PREDICTED BY IDOCK:   -5.06 KCAL/MOL
REMARK 922        TOTAL FREE ENERGY PREDICTED BY IDOCK:   -8.66 KCAL/MOL
REMARK 923 INTER-LIGAND FREE ENERGY PREDICTED BY IDOCK:   -7.39 KCAL/MOL
REMARK 924 INTRA-LIGAND FREE ENERGY PREDICTED BY IDOCK:   -1.27 KCAL/MOL
REMARK 927      BINDING AFFINITY PREDICTED BY RF-SCORE:    0.00 PKD
ROOT
HETATM    1  C   UNL     1      -7.929   8.867  66.743  1.00  0.00    -0.107 C  
HETATM    2  S   UNL     1      -9.038   8.974  65.288  1.00  0.00    -0.119 SA 
HETATM    3  C   UNL     1      -7.679   8.891  64.037  1.00  0.00    -0.128 C  
HETATM    4  CA  UNL     1      -6.475   8.254  64.775  1.00  0.00    -0.064 C  
HETATM    5  C   UNL     1      -7.382  10.335  63.591  1.00  0.00    -0.082 C  
HETATM    6  C   UNL     1      -8.175   8.128  62.804  1.00  0.00    -0.131 C  
HETATM    7  C   UNL     1      -6.387   6.720  64.683  1.00  0.00    -0.039 C  
HETATM    8  N   UNL     1      -6.570   8.651  66.194  1.00  0.00    -0.060 N  
HETATM    9  OXT UNL     1      -6.291   6.093  63.637  1.00  0.00    -0.028 OA 
HETATM   10  O   UNL     1      -6.372   6.091  65.885  1.00  0.00    -0.039 OA 
HETATM   11  C   UNL     1      -6.128   9.900  66.560  1.00  0.00    -0.064 C  
HETATM   12  CA  UNL     1      -7.413  10.188  67.372  1.00  0.00    -0.094 C  
HETATM   13  O   UNL     1      -5.172  10.534  66.183  1.00  0.00    -0.050 OA 
ENDROOT
BRANCH  12  14
HETATM   14  N   UNL     1      -8.149  11.434  67.034  1.00  0.00    -0.151 N  
HETATM   15  C   UNL     1      -9.186  11.879  67.828  1.00  0.00    -0.184 C  
HETATM   16  H   UNL     1      -7.885  11.967  66.204  1.00  0.00     0.000 HD 
HETATM   17  O   UNL     1      -9.523  11.239  68.826  1.00  0.00    -0.187 OA 
BRANCH  15  18
HETATM   18  CA  UNL     1      -9.993  13.097  67.316  1.00  0.00    -0.230 C  
BRANCH  18  19
HETATM   19  N   UNL     1      -9.123  13.907  66.468  1.00  0.00    -0.446 N  
HETATM   20  H   UNL     1      -8.147  13.634  66.357  1.00  0.00     0.000 HD 
BRANCH  19  21
HETATM   21  C   UNL     1      -9.576  15.017  65.819  1.00  0.00    -0.292 C  
HETATM   22  O   UNL     1     -10.400  14.961  64.909  1.00  0.00    -0.400 OA 
BRANCH  21  23
HETATM   23  N   UNL     1      -9.054  16.218  66.243  1.00  0.00    -0.304 N  
HETATM   24  C   UNL     1      -7.559  17.413  67.637  1.00  0.00    -0.188 C  
HETATM   25  N   UNL     1      -8.824  18.123  67.412  1.00  0.00    -0.254 N  
HETATM   26  C   UNL     1      -7.637  16.360  66.537  1.00  0.00    -0.223 C  
HETATM   27  O   UNL     1     -10.910  17.618  66.481  1.00  0.00    -0.148 OA 
HETATM   28  C   UNL     1      -9.742  17.348  66.683  1.00  0.00    -0.290 C  
BRANCH  25  29
HETATM   29  S   UNL     1      -9.046  19.658  67.987  1.00  0.00    -0.322 S  
HETATM   30  O   UNL     1      -9.495  20.478  66.880  1.00  0.00    -0.385 OA 
HETATM   31  C   UNL     1      -7.397  20.193  68.400  1.00  0.00    -0.202 C  
HETATM   32  O   UNL     1      -9.817  19.587  69.207  1.00  0.00    -0.417 OA 
ENDBRANCH  25  29
ENDBRANCH  21  23
ENDBRANCH  19  21
ENDBRANCH  18  19
BRANCH  18  33
HETATM   33  C   UNL     1     -10.659  13.917  68.411  1.00  0.00    -0.262 A  
HETATM   34  C   UNL     1     -11.945  15.351  70.464  1.00  0.00    -0.394 A  
HETATM   35  C   UNL     1     -12.014  13.685  68.717  1.00  0.00    -0.394 A  
HETATM   36  C   UNL     1     -12.651  14.400  69.731  1.00  0.00    -0.159 A  
HETATM   37  C   UNL     1     -10.601  15.587  70.184  1.00  0.00    -0.336 A  
HETATM   38  C   UNL     1      -9.962  14.877  69.165  1.00  0.00    -0.213 A  
ENDBRANCH  18  33
ENDBRANCH  15  18
ENDBRANCH  12  14
TORSDOF 7
ENDMDL
MODEL      134
REMARK 921   NORMALIZED FREE ENERGY PREDICTED BY IDOCK:   -5.04 KCAL/MOL
REMARK 922        TOTAL FREE ENERGY PREDICTED BY IDOCK:   -8.62 KCAL/MOL
REMARK 923 INTER-LIGAND FREE ENERGY PREDICTED BY IDOCK:   -6.68 KCAL/MOL
REMARK 924 INTRA-LIGAND FREE ENERGY PREDICTED BY IDOCK:   -1.95 KCAL/MOL
REMARK 927      BINDING AFFINITY PREDICTED BY RF-SCORE:    0.00 PKD
ROOT
HETATM    1  C   UNL     1     -10.070   9.835  68.997  1.00  0.00    -0.187 C  
HETATM    2  S   UNL     1     -10.817   8.231  68.525  1.00  0.00     0.197 SA 
HETATM    3  C   UNL     1     -10.633   7.463  70.197  1.00  0.00    -0.230 C  
HETATM    4  CA  UNL     1     -10.488   8.649  71.183  1.00  0.00    -0.227 C  
HETATM    5  C   UNL     1      -9.365   6.588  70.159  1.00  0.00    -0.162 C  
HETATM    6  C   UNL     1     -11.820   6.530  70.457  1.00  0.00    -0.393 C  
HETATM    7  C   UNL     1     -11.808   9.166  71.783  1.00  0.00    -0.383 C  
HETATM    8  N   UNL     1      -9.822   9.747  70.455  1.00  0.00    -0.230 N  
HETATM    9  OXT UNL     1     -12.579   8.489  72.449  1.00  0.00    -0.374 OA 
HETATM   10  O   UNL     1     -12.042  10.484  71.557  1.00  0.00    -0.330 OA 
HETATM   11  C   UNL     1      -8.456   9.707  70.308  1.00  0.00    -0.188 C  
HETATM   12  CA  UNL     1      -8.543  10.022  68.797  1.00  0.00    -0.131 C  
HETATM   13  O   UNL     1      -7.596   9.356  71.080  1.00  0.00    -0.306 OA 
ENDROOT
BRANCH  12  14
HETATM   14  N   UNL     1      -7.858   9.075  67.879  1.00  0.00    -0.100 N  
HETATM   15  C   UNL     1      -6.565   9.310  67.458  1.00  0.00    -0.064 C  
HETATM   16  H   UNL     1      -8.349   8.240  67.556  1.00  0.00     0.000 HD 
HETATM   17  O   UNL     1      -5.964  10.320  67.830  1.00  0.00    -0.042 OA 
BRANCH  15  18
HETATM   18  CA  UNL     1      -5.989   8.354  66.385  1.00  0.00    -0.048 C  
BRANCH  18  19
HETATM   19  N   UNL     1      -6.718   8.564  65.137  1.00  0.00    -0.063 N  
HETATM   20  H   UNL     1      -7.103   7.757  64.648  1.00  0.00     0.000 HD 
BRANCH  19  21
HETATM   21  C   UNL     1      -6.899   9.807  64.606  1.00  0.00    -0.123 C  
HETATM   22  O   UNL     1      -5.959  10.544  64.314  1.00  0.00    -0.127 OA 
BRANCH  21  23
HETATM   23  N   UNL     1      -8.205  10.197  64.414  1.00  0.00    -0.161 N  
HETATM   24  C   UNL     1      -9.915  10.946  62.958  1.00  0.00    -0.274 C  
HETATM   25  N   UNL     1     -10.016  11.522  64.305  1.00  0.00    -0.256 N  
HETATM   26  C   UNL     1      -8.938   9.805  63.221  1.00  0.00    -0.252 C  
HETATM   27  O   UNL     1      -8.672  11.607  66.219  1.00  0.00    -0.187 OA 
HETATM   28  C   UNL     1      -8.928  11.160  65.117  1.00  0.00    -0.093 C  
BRANCH  25  29
HETATM   29  S   UNL     1     -11.304  12.472  64.724  1.00  0.00    -0.327 S  
HETATM   30  O   UNL     1     -11.824  11.971  65.980  1.00  0.00    -0.522 OA 
HETATM   31  C   UNL     1     -12.518  12.108  63.472  1.00  0.00    -0.555 C  
HETATM   32  O   UNL     1     -10.918  13.857  64.590  1.00  0.00    -0.376 OA 
ENDBRANCH  25  29
ENDBRANCH  21  23
ENDBRANCH  19  21
ENDBRANCH  18  19
BRANCH  18  33
HETATM   33  C   UNL     1      -5.958   6.890  66.797  1.00  0.00    -0.029 A  
HETATM   34  C   UNL     1      -5.892   4.155  67.463  1.00  0.00    -0.023 A  
HETATM   35  C   UNL     1      -6.576   5.929  65.973  1.00  0.00    -0.047 A  
HETATM   36  C   UNL     1      -6.547   4.576  66.308  1.00  0.00    -0.045 A  
HETATM   37  C   UNL     1      -5.265   5.089  68.284  1.00  0.00    -0.007 A  
HETATM   38  C   UNL     1      -5.298   6.446  67.956  1.00  0.00    -0.008 A  
ENDBRANCH  18  33
ENDBRANCH  15  18
ENDBRANCH  12  14
TORSDOF 7
ENDMDL
MODEL      135
REMARK 921   NORMALIZED FREE ENERGY PREDICTED BY IDOCK:   -5.03 KCAL/MOL
REMARK 922        TOTAL FREE ENERGY PREDICTED BY IDOCK:   -8.61 KCAL/MOL
REMARK 923 INTER-LIGAND FREE ENERGY PREDICTED BY IDOCK:   -7.10 KCAL/MOL
REMARK 924 INTRA-LIGAND FREE ENERGY PREDICTED BY IDOCK:   -1.51 KCAL/MOL
REMARK 927      BINDING AFFINITY PREDICTED BY RF-SCORE:    0.00 PKD
ROOT
HETATM    1  C   UNL     1      -7.105   6.527  65.710  1.00  0.00    -0.062 C  
HETATM    2  S   UNL     1      -6.684   7.108  67.395  1.00  0.00    -0.070 SA 
HETATM    3  C   UNL     1      -7.534   5.717  68.268  1.00  0.00    -0.077 C  
HETATM    4  CA  UNL     1      -7.653   4.582  67.219  1.00  0.00    -0.085 C  
HETATM    5  C   UNL     1      -8.915   6.235  68.714  1.00  0.00    -0.125 C  
HETATM    6  C   UNL     1      -6.750   5.363  69.536  1.00  0.00    -0.055 C  
HETATM    7  C   UNL     1      -6.478   3.588  67.194  1.00  0.00    -0.037 C  
HETATM    8  N   UNL     1      -7.779   5.220  65.894  1.00  0.00    -0.090 N  
HETATM    9  OXT UNL     1      -6.132   2.900  68.144  1.00  0.00    -0.024 OA 
HETATM   10  O   UNL     1      -5.863   3.486  65.988  1.00  0.00    -0.021 OA 
HETATM   11  C   UNL     1      -9.008   5.702  65.508  1.00  0.00    -0.104 C  
HETATM   12  CA  UNL     1      -8.409   7.053  65.055  1.00  0.00    -0.046 C  
HETATM   13  O   UNL     1     -10.114   5.248  65.677  1.00  0.00    -0.048 OA 
ENDROOT
BRANCH  12  14
HETATM   14  N   UNL     1      -9.015   8.278  65.638  1.00  0.00    -0.331 N  
HETATM   15  C   UNL     1      -8.580   9.532  65.257  1.00  0.00    -0.157 C  
HETATM   16  H   UNL     1      -9.760   8.192  66.329  1.00  0.00     0.000 HD 
HETATM   17  O   UNL     1      -7.672   9.650  64.432  1.00  0.00    -0.117 OA 
BRANCH  15  18
HETATM   18  CA  UNL     1      -9.159  10.743  66.028  1.00  0.00    -0.185 C  
BRANCH  18  19
HETATM   19  N   UNL     1      -9.553  10.298  67.362  1.00  0.00    -0.156 N  
HETATM   20  H   UNL     1     -10.422   9.776  67.473  1.00  0.00     0.000 HD 
BRANCH  19  21
HETATM   21  C   UNL     1      -8.794  10.560  68.464  1.00  0.00    -0.144 C  
HETATM   22  O   UNL     1      -7.780  11.255  68.419  1.00  0.00    -0.109 OA 
BRANCH  21  23
HETATM   23  N   UNL     1      -9.228   9.997  69.643  1.00  0.00    -0.221 N  
HETATM   24  C   UNL     1      -9.192   8.191  71.174  1.00  0.00    -0.154 C  
HETATM   25  N   UNL     1     -10.506   8.839  71.083  1.00  0.00    -0.225 N  
HETATM   26  C   UNL     1      -8.321   9.242  70.492  1.00  0.00    -0.205 C  
HETATM   27  O   UNL     1     -11.526  10.417  69.689  1.00  0.00    -0.246 OA 
HETATM   28  C   UNL     1     -10.539   9.828  70.085  1.00  0.00    -0.285 C  
BRANCH  25  29
HETATM   29  S   UNL     1     -11.742   8.390  72.086  1.00  0.00    -0.391 S  
HETATM   30  O   UNL     1     -11.168   7.607  73.162  1.00  0.00    -0.391 OA 
HETATM   31  C   UNL     1     -12.709   7.276  71.086  1.00  0.00    -0.306 C  
HETATM   32  O   UNL     1     -12.548   9.554  72.375  1.00  0.00    -0.305 OA 
ENDBRANCH  25  29
ENDBRANCH  21  23
ENDBRANCH  19  21
ENDBRANCH  18  19
BRANCH  18  33
HETATM   33  C   UNL     1     -10.283  11.470  65.305  1.00  0.00    -0.315 A  
HETATM   34  C   UNL     1     -12.344  12.760  63.885  1.00  0.00    -0.510 A  
HETATM   35  C   UNL     1     -10.153  11.745  63.930  1.00  0.00    -0.399 A  
HETATM   36  C   UNL     1     -11.174  12.388  63.230  1.00  0.00    -0.377 A  
HETATM   37  C   UNL     1     -12.496  12.487  65.243  1.00  0.00    -0.390 A  
HETATM   38  C   UNL     1     -11.474  11.849  65.949  1.00  0.00    -0.340 A  
ENDBRANCH  18  33
ENDBRANCH  15  18
ENDBRANCH  12  14
TORSDOF 7
ENDMDL
MODEL      136
REMARK 921   NORMALIZED FREE ENERGY PREDICTED BY IDOCK:   -5.03 KCAL/MOL
REMARK 922        TOTAL FREE ENERGY PREDICTED BY IDOCK:   -8.61 KCAL/MOL
REMARK 923 INTER-LIGAND FREE ENERGY PREDICTED BY IDOCK:   -7.32 KCAL/MOL
REMARK 924 INTRA-LIGAND FREE ENERGY PREDICTED BY IDOCK:   -1.29 KCAL/MOL
REMARK 927      BINDING AFFINITY PREDICTED BY RF-SCORE:    0.00 PKD
ROOT
HETATM    1  C   UNL     1     -10.747  15.430  68.236  1.00  0.00    -0.260 C  
HETATM    2  S   UNL     1      -9.155  15.562  69.134  1.00  0.00    -0.259 SA 
HETATM    3  C   UNL     1      -8.313  16.569  67.832  1.00  0.00    -0.173 C  
HETATM    4  CA  UNL     1      -9.453  17.208  67.001  1.00  0.00    -0.252 C  
HETATM    5  C   UNL     1      -7.460  15.601  66.989  1.00  0.00    -0.228 C  
HETATM    6  C   UNL     1      -7.350  17.556  68.501  1.00  0.00    -0.243 C  
HETATM    7  C   UNL     1      -9.922  18.591  67.488  1.00  0.00    -0.332 C  
HETATM    8  N   UNL     1     -10.594  16.271  67.026  1.00  0.00    -0.308 N  
HETATM    9  OXT UNL     1      -9.203  19.577  67.570  1.00  0.00    -0.300 OA 
HETATM   10  O   UNL     1     -11.245  18.657  67.782  1.00  0.00    -0.112 OA 
HETATM   11  C   UNL     1     -10.582  15.193  66.173  1.00  0.00    -0.313 C  
HETATM   12  CA  UNL     1     -10.965  14.211  67.303  1.00  0.00    -0.297 C  
HETATM   13  O   UNL     1     -10.208  15.107  65.028  1.00  0.00    -0.364 OA 
ENDROOT
BRANCH  12  14
HETATM   14  N   UNL     1     -10.072  13.039  67.498  1.00  0.00    -0.216 N  
HETATM   15  C   UNL     1     -10.595  11.788  67.759  1.00  0.00    -0.200 C  
HETATM   16  H   UNL     1      -9.061  13.159  67.437  1.00  0.00     0.000 HD 
HETATM   17  O   UNL     1     -11.815  11.630  67.846  1.00  0.00    -0.543 OA 
BRANCH  15  18
HETATM   18  CA  UNL     1      -9.590  10.661  68.099  1.00  0.00    -0.157 C  
BRANCH  18  19
HETATM   19  N   UNL     1      -9.735  10.321  69.512  1.00  0.00    -0.297 N  
HETATM   20  H   UNL     1     -10.445  10.800  70.065  1.00  0.00     0.000 HD 
BRANCH  19  21
HETATM   21  C   UNL     1      -8.951   9.382  70.113  1.00  0.00    -0.227 C  
HETATM   22  O   UNL     1      -8.433   9.560  71.215  1.00  0.00    -0.256 OA 
BRANCH  21  23
HETATM   23  N   UNL     1      -8.766   8.211  69.413  1.00  0.00    -0.142 N  
HETATM   24  C   UNL     1      -7.685   7.027  67.672  1.00  0.00    -0.112 C  
HETATM   25  N   UNL     1      -9.075   6.602  67.876  1.00  0.00    -0.115 N  
HETATM   26  C   UNL     1      -7.445   7.808  68.960  1.00  0.00    -0.095 C  
HETATM   27  O   UNL     1     -10.923   7.371  69.089  1.00  0.00    -0.155 OA 
HETATM   28  C   UNL     1      -9.735   7.396  68.830  1.00  0.00    -0.149 C  
BRANCH  25  29
HETATM   29  S   UNL     1      -9.701   5.321  67.036  1.00  0.00    -0.169 S  
HETATM   30  O   UNL     1      -9.827   4.213  67.961  1.00  0.00    -0.122 OA 
HETATM   31  C   UNL     1      -8.405   4.901  65.888  1.00  0.00    -0.114 C  
HETATM   32  O   UNL     1     -10.844   5.780  66.280  1.00  0.00    -0.168 OA 
ENDBRANCH  25  29
ENDBRANCH  21  23
ENDBRANCH  19  21
ENDBRANCH  18  19
BRANCH  18  33
HETATM   33  C   UNL     1      -8.147  10.970  67.724  1.00  0.00    -0.116 A  
HETATM   34  C   UNL     1      -5.510  11.561  66.935  1.00  0.00    -0.126 A  
HETATM   35  C   UNL     1      -7.676  10.609  66.447  1.00  0.00    -0.141 A  
HETATM   36  C   UNL     1      -6.367  10.898  66.061  1.00  0.00    -0.102 A  
HETATM   37  C   UNL     1      -5.962  11.936  68.198  1.00  0.00    -0.051 A  
HETATM   38  C   UNL     1      -7.270  11.643  68.592  1.00  0.00    -0.104 A  
ENDBRANCH  18  33
ENDBRANCH  15  18
ENDBRANCH  12  14
TORSDOF 7
ENDMDL
MODEL      137
REMARK 921   NORMALIZED FREE ENERGY PREDICTED BY IDOCK:   -4.99 KCAL/MOL
REMARK 922        TOTAL FREE ENERGY PREDICTED BY IDOCK:   -8.55 KCAL/MOL
REMARK 923 INTER-LIGAND FREE ENERGY PREDICTED BY IDOCK:   -7.45 KCAL/MOL
REMARK 924 INTRA-LIGAND FREE ENERGY PREDICTED BY IDOCK:   -1.11 KCAL/MOL
REMARK 927      BINDING AFFINITY PREDICTED BY RF-SCORE:    0.00 PKD
ROOT
HETATM    1  C   UNL     1      -7.747   5.709  67.648  1.00  0.00    -0.097 C  
HETATM    2  S   UNL     1      -8.607   4.091  67.648  1.00  0.00    -0.104 SA 
HETATM    3  C   UNL     1      -9.329   4.286  65.958  1.00  0.00    -0.163 C  
HETATM    4  CA  UNL     1      -8.452   5.351  65.253  1.00  0.00    -0.149 C  
HETATM    5  C   UNL     1     -10.783   4.766  66.137  1.00  0.00    -0.177 C  
HETATM    6  C   UNL     1      -9.385   2.917  65.272  1.00  0.00    -0.110 C  
HETATM    7  C   UNL     1      -7.255   4.793  64.462  1.00  0.00    -0.062 C  
HETATM    8  N   UNL     1      -7.959   6.273  66.294  1.00  0.00    -0.107 N  
HETATM    9  OXT UNL     1      -7.347   4.008  63.528  1.00  0.00    -0.049 OA 
HETATM   10  O   UNL     1      -6.052   5.287  64.852  1.00  0.00    -0.024 OA 
HETATM   11  C   UNL     1      -8.795   7.267  66.745  1.00  0.00    -0.134 C  
HETATM   12  CA  UNL     1      -8.495   6.939  68.226  1.00  0.00    -0.125 C  
HETATM   13  O   UNL     1      -9.582   7.959  66.144  1.00  0.00    -0.159 OA 
ENDROOT
BRANCH  12  14
HETATM   14  N   UNL     1      -9.668   6.671  69.099  1.00  0.00    -0.145 N  
HETATM   15  C   UNL     1      -9.506   6.456  70.453  1.00  0.00    -0.162 C  
HETATM   16  H   UNL     1     -10.603   6.646  68.693  1.00  0.00     0.000 HD 
HETATM   17  O   UNL     1      -8.380   6.473  70.954  1.00  0.00    -0.123 OA 
BRANCH  15  18
HETATM   18  CA  UNL     1     -10.761   6.034  71.254  1.00  0.00    -0.263 C  
BRANCH  18  19
HETATM   19  N   UNL     1     -11.352   7.227  71.854  1.00  0.00    -0.247 N  
HETATM   20  H   UNL     1     -12.348   7.229  72.071  1.00  0.00     0.000 HD 
BRANCH  19  21
HETATM   21  C   UNL     1     -10.612   8.337  72.133  1.00  0.00    -0.310 C  
HETATM   22  O   UNL     1      -9.706   8.336  72.965  1.00  0.00    -0.269 OA 
BRANCH  21  23
HETATM   23  N   UNL     1     -10.937   9.472  71.425  1.00  0.00    -0.365 N  
HETATM   24  C   UNL     1     -12.569  10.798  70.338  1.00  0.00    -0.314 C  
HETATM   25  N   UNL     1     -11.258  10.850  69.680  1.00  0.00    -0.262 N  
HETATM   26  C   UNL     1     -12.179  10.185  71.679  1.00  0.00    -0.331 C  
HETATM   27  O   UNL     1      -9.232   9.691  69.842  1.00  0.00    -0.198 OA 
HETATM   28  C   UNL     1     -10.337   9.966  70.268  1.00  0.00    -0.281 C  
BRANCH  25  29
HETATM   29  S   UNL     1     -10.991  11.868  68.403  1.00  0.00    -0.251 S  
HETATM   30  O   UNL     1      -9.597  12.260  68.443  1.00  0.00    -0.213 OA 
HETATM   31  C   UNL     1     -11.953  13.312  68.811  1.00  0.00    -0.300 C  
HETATM   32  O   UNL     1     -11.553  11.272  67.213  1.00  0.00    -0.527 OA 
ENDBRANCH  25  29
ENDBRANCH  21  23
ENDBRANCH  19  21
ENDBRANCH  18  19
BRANCH  18  33
HETATM   33  C   UNL     1     -10.514   4.933  72.276  1.00  0.00    -0.267 A  
HETATM   34  C   UNL     1      -9.971   2.875  74.118  1.00  0.00    -0.160 A  
HETATM   35  C   UNL     1      -9.899   3.735  71.863  1.00  0.00    -0.248 A  
HETATM   36  C   UNL     1      -9.636   2.715  72.777  1.00  0.00    -0.159 A  
HETATM   37  C   UNL     1     -10.570   4.057  74.548  1.00  0.00    -0.220 A  
HETATM   38  C   UNL     1     -10.842   5.078  73.635  1.00  0.00    -0.369 A  
ENDBRANCH  18  33
ENDBRANCH  15  18
ENDBRANCH  12  14
TORSDOF 7
ENDMDL
MODEL      138
REMARK 921   NORMALIZED FREE ENERGY PREDICTED BY IDOCK:   -4.99 KCAL/MOL
REMARK 922        TOTAL FREE ENERGY PREDICTED BY IDOCK:   -8.55 KCAL/MOL
REMARK 923 INTER-LIGAND FREE ENERGY PREDICTED BY IDOCK:   -7.32 KCAL/MOL
REMARK 924 INTRA-LIGAND FREE ENERGY PREDICTED BY IDOCK:   -1.23 KCAL/MOL
REMARK 927      BINDING AFFINITY PREDICTED BY RF-SCORE:    0.00 PKD
ROOT
HETATM    1  C   UNL     1     -10.422   6.666  66.733  1.00  0.00    -0.228 C  
HETATM    2  S   UNL     1      -8.738   7.281  66.354  1.00  0.00    -0.147 SA 
HETATM    3  C   UNL     1      -7.878   5.715  66.831  1.00  0.00    -0.101 C  
HETATM    4  CA  UNL     1      -8.961   4.610  66.760  1.00  0.00    -0.112 C  
HETATM    5  C   UNL     1      -7.344   5.907  68.264  1.00  0.00    -0.081 C  
HETATM    6  C   UNL     1      -6.664   5.510  65.918  1.00  0.00    -0.056 C  
HETATM    7  C   UNL     1      -9.082   3.898  65.400  1.00  0.00    -0.143 C  
HETATM    8  N   UNL     1     -10.253   5.239  67.096  1.00  0.00    -0.209 N  
HETATM    9  OXT UNL     1      -8.176   3.279  64.860  1.00  0.00    -0.089 OA 
HETATM   10  O   UNL     1     -10.319   3.964  64.847  1.00  0.00    -0.199 OA 
HETATM   11  C   UNL     1     -10.560   5.450  68.420  1.00  0.00    -0.078 C  
HETATM   12  CA  UNL     1     -10.991   6.911  68.155  1.00  0.00    -0.147 C  
HETATM   13  O   UNL     1     -10.354   4.760  69.390  1.00  0.00    -0.177 OA 
ENDROOT
BRANCH  12  14
HETATM   14  N   UNL     1     -10.333   7.958  68.979  1.00  0.00    -0.213 N  
HETATM   15  C   UNL     1     -10.480   9.296  68.671  1.00  0.00    -0.209 C  
HETATM   16  H   UNL     1      -9.765   7.686  69.782  1.00  0.00     0.000 HD 
HETATM   17  O   UNL     1     -11.153   9.638  67.696  1.00  0.00    -0.214 OA 
BRANCH  15  18
HETATM   18  CA  UNL     1      -9.635  10.304  69.487  1.00  0.00    -0.202 C  
BRANCH  18  19
HETATM   19  N   UNL     1      -9.802  11.631  68.901  1.00  0.00    -0.397 N  
HETATM   20  H   UNL     1      -9.038  12.031  68.358  1.00  0.00     0.000 HD 
BRANCH  19  21
HETATM   21  C   UNL     1     -10.948  12.351  69.059  1.00  0.00    -0.197 C  
HETATM   22  O   UNL     1     -11.791  12.075  69.911  1.00  0.00    -0.320 OA 
BRANCH  21  23
HETATM   23  N   UNL     1     -11.115  13.416  68.202  1.00  0.00    -0.247 N  
HETATM   24  C   UNL     1     -11.335  14.240  65.993  1.00  0.00    -0.335 C  
HETATM   25  N   UNL     1     -10.604  15.156  66.877  1.00  0.00    -0.291 N  
HETATM   26  C   UNL     1     -11.962  13.307  67.025  1.00  0.00    -0.365 C  
HETATM   27  O   UNL     1      -9.678  15.066  69.023  1.00  0.00    -0.218 OA 
HETATM   28  C   UNL     1     -10.381  14.599  68.147  1.00  0.00    -0.230 C  
BRANCH  25  29
HETATM   29  S   UNL     1     -10.143  16.654  66.347  1.00  0.00    -0.327 S  
HETATM   30  O   UNL     1     -10.660  16.820  65.004  1.00  0.00    -0.695 OA 
HETATM   31  C   UNL     1      -8.371  16.523  66.213  1.00  0.00    -0.329 C  
HETATM   32  O   UNL     1     -10.448  17.621  67.375  1.00  0.00    -0.351 OA 
ENDBRANCH  25  29
ENDBRANCH  21  23
ENDBRANCH  19  21
ENDBRANCH  18  19
BRANCH  18  33
HETATM   33  C   UNL     1      -8.171   9.919  69.641  1.00  0.00    -0.178 A  
HETATM   34  C   UNL     1      -5.490   9.135  69.992  1.00  0.00    -0.028 A  
HETATM   35  C   UNL     1      -7.698   9.500  70.900  1.00  0.00    -0.022 A  
HETATM   36  C   UNL     1      -6.368   9.117  71.072  1.00  0.00    -0.071 A  
HETATM   37  C   UNL     1      -5.942   9.535  68.737  1.00  0.00    -0.043 A  
HETATM   38  C   UNL     1      -7.271   9.926  68.561  1.00  0.00    -0.076 A  
ENDBRANCH  18  33
ENDBRANCH  15  18
ENDBRANCH  12  14
TORSDOF 7
ENDMDL
MODEL      139
REMARK 921   NORMALIZED FREE ENERGY PREDICTED BY IDOCK:   -4.93 KCAL/MOL
REMARK 922        TOTAL FREE ENERGY PREDICTED BY IDOCK:   -8.47 KCAL/MOL
REMARK 923 INTER-LIGAND FREE ENERGY PREDICTED BY IDOCK:   -7.27 KCAL/MOL
REMARK 924 INTRA-LIGAND FREE ENERGY PREDICTED BY IDOCK:   -1.21 KCAL/MOL
REMARK 927      BINDING AFFINITY PREDICTED BY RF-SCORE:    0.00 PKD
ROOT
HETATM    1  C   UNL     1     -11.295  11.902  66.963  1.00  0.00    -0.329 C  
HETATM    2  S   UNL     1     -10.446  12.695  68.380  1.00  0.00    -0.234 SA 
HETATM    3  C   UNL     1      -9.339  13.750  67.341  1.00  0.00    -0.226 C  
HETATM    4  CA  UNL     1     -10.031  13.839  65.958  1.00  0.00    -0.306 C  
HETATM    5  C   UNL     1      -7.976  13.036  67.258  1.00  0.00    -0.143 C  
HETATM    6  C   UNL     1      -9.108  15.089  68.051  1.00  0.00    -0.178 C  
HETATM    7  C   UNL     1     -10.997  15.025  65.784  1.00  0.00    -0.350 C  
HETATM    8  N   UNL     1     -10.769  12.577  65.754  1.00  0.00    -0.263 N  
HETATM    9  OXT UNL     1     -10.676  16.200  65.885  1.00  0.00    -0.314 OA 
HETATM   10  O   UNL     1     -12.263  14.665  65.450  1.00  0.00    -0.318 OA 
HETATM   11  C   UNL     1     -10.075  11.467  65.331  1.00  0.00    -0.260 C  
HETATM   12  CA  UNL     1     -10.720  10.571  66.413  1.00  0.00    -0.096 C  
HETATM   13  O   UNL     1      -9.173  11.366  64.534  1.00  0.00    -0.130 OA 
ENDROOT
BRANCH  12  14
HETATM   14  N   UNL     1      -9.789   9.818  67.295  1.00  0.00    -0.172 N  
HETATM   15  C   UNL     1      -9.954   8.463  67.502  1.00  0.00    -0.200 C  
HETATM   16  H   UNL     1      -9.020  10.307  67.752  1.00  0.00     0.000 HD 
HETATM   17  O   UNL     1     -10.886   7.861  66.965  1.00  0.00    -0.305 OA 
BRANCH  15  18
HETATM   18  CA  UNL     1      -9.035   7.794  68.553  1.00  0.00    -0.133 C  
BRANCH  18  19
HETATM   19  N   UNL     1      -8.469   8.837  69.405  1.00  0.00    -0.123 N  
HETATM   20  H   UNL     1      -8.176   9.716  68.982  1.00  0.00     0.000 HD 
BRANCH  19  21
HETATM   21  C   UNL     1      -8.322   8.669  70.750  1.00  0.00    -0.152 C  
HETATM   22  O   UNL     1      -7.229   8.462  71.275  1.00  0.00    -0.059 OA 
BRANCH  21  23
HETATM   23  N   UNL     1      -9.476   8.745  71.497  1.00  0.00    -0.248 N  
HETATM   24  C   UNL     1     -11.170   7.659  72.745  1.00  0.00    -0.377 C  
HETATM   25  N   UNL     1     -11.665   8.819  71.995  1.00  0.00    -0.359 N  
HETATM   26  C   UNL     1      -9.666   7.906  72.670  1.00  0.00    -0.240 C  
HETATM   27  O   UNL     1     -10.839  10.243  70.332  1.00  0.00    -0.294 OA 
HETATM   28  C   UNL     1     -10.674   9.377  71.170  1.00  0.00    -0.347 C  
BRANCH  25  29
HETATM   29  S   UNL     1     -13.226   9.338  72.172  1.00  0.00    -0.478 S  
HETATM   30  O   UNL     1     -13.719   8.818  73.431  1.00  0.00     0.001 OA 
HETATM   31  C   UNL     1     -14.100   8.484  70.875  1.00  0.00     0.233 C  
HETATM   32  O   UNL     1     -13.277  10.754  71.893  1.00  0.00    -0.469 OA 
ENDBRANCH  25  29
ENDBRANCH  21  23
ENDBRANCH  19  21
ENDBRANCH  18  19
BRANCH  18  33
HETATM   33  C   UNL     1      -7.965   6.884  67.966  1.00  0.00    -0.115 A  
HETATM   34  C   UNL     1      -6.003   5.244  66.790  1.00  0.00    -0.022 A  
HETATM   35  C   UNL     1      -8.117   6.402  66.651  1.00  0.00    -0.110 A  
HETATM   36  C   UNL     1      -7.146   5.586  66.073  1.00  0.00    -0.068 A  
HETATM   37  C   UNL     1      -5.830   5.720  68.087  1.00  0.00    -0.013 A  
HETATM   38  C   UNL     1      -6.803   6.532  68.673  1.00  0.00    -0.070 A  
ENDBRANCH  18  33
ENDBRANCH  15  18
ENDBRANCH  12  14
TORSDOF 7
ENDMDL
MODEL      140
REMARK 921   NORMALIZED FREE ENERGY PREDICTED BY IDOCK:   -4.88 KCAL/MOL
REMARK 922        TOTAL FREE ENERGY PREDICTED BY IDOCK:   -8.40 KCAL/MOL
REMARK 923 INTER-LIGAND FREE ENERGY PREDICTED BY IDOCK:   -6.97 KCAL/MOL
REMARK 924 INTRA-LIGAND FREE ENERGY PREDICTED BY IDOCK:   -1.43 KCAL/MOL
REMARK 927      BINDING AFFINITY PREDICTED BY RF-SCORE:    0.00 PKD
ROOT
HETATM    1  C   UNL     1      -8.177   7.270  70.738  1.00  0.00    -0.112 C  
HETATM    2  S   UNL     1      -9.225   8.612  71.413  1.00  0.00    -0.257 SA 
HETATM    3  C   UNL     1     -10.783   7.617  71.425  1.00  0.00    -0.222 C  
HETATM    4  CA  UNL     1     -10.327   6.136  71.408  1.00  0.00    -0.214 C  
HETATM    5  C   UNL     1     -11.572   7.991  70.155  1.00  0.00     0.080 C  
HETATM    6  C   UNL     1     -11.636   8.031  72.628  1.00  0.00    -0.448 C  
HETATM    7  C   UNL     1     -10.139   5.493  72.794  1.00  0.00    -0.180 C  
HETATM    8  N   UNL     1      -9.052   6.077  70.667  1.00  0.00    -0.149 N  
HETATM    9  OXT UNL     1     -11.022   5.386  73.634  1.00  0.00    -0.289 OA 
HETATM   10  O   UNL     1      -8.897   4.990  73.008  1.00  0.00    -0.117 OA 
HETATM   11  C   UNL     1      -9.087   6.078  69.292  1.00  0.00    -0.124 C  
HETATM   12  CA  UNL     1      -8.002   7.175  69.200  1.00  0.00    -0.119 C  
HETATM   13  O   UNL     1      -9.850   5.535  68.529  1.00  0.00    -0.130 OA 
ENDROOT
BRANCH  12  14
HETATM   14  N   UNL     1      -8.343   8.383  68.403  1.00  0.00    -0.130 N  
HETATM   15  C   UNL     1      -8.177   8.395  67.033  1.00  0.00    -0.107 C  
HETATM   16  H   UNL     1      -8.704   9.213  68.874  1.00  0.00     0.000 HD 
HETATM   17  O   UNL     1      -7.730   7.403  66.453  1.00  0.00    -0.089 OA 
BRANCH  15  18
HETATM   18  CA  UNL     1      -8.410   9.742  66.307  1.00  0.00    -0.116 C  
BRANCH  18  19
HETATM   19  N   UNL     1      -9.845   9.916  66.102  1.00  0.00    -0.241 N  
HETATM   20  H   UNL     1     -10.438   9.091  66.030  1.00  0.00     0.000 HD 
BRANCH  19  21
HETATM   21  C   UNL     1     -10.416  11.151  66.006  1.00  0.00    -0.256 C  
HETATM   22  O   UNL     1     -10.846  11.599  64.944  1.00  0.00    -0.295 OA 
BRANCH  21  23
HETATM   23  N   UNL     1     -10.485  11.877  67.173  1.00  0.00    -0.217 N  
HETATM   24  C   UNL     1     -11.736  12.617  69.042  1.00  0.00    -0.318 C  
HETATM   25  N   UNL     1     -10.782  13.621  68.557  1.00  0.00    -0.250 N  
HETATM   26  C   UNL     1     -11.212  11.375  68.328  1.00  0.00    -0.263 C  
HETATM   27  O   UNL     1      -9.414  13.895  66.678  1.00  0.00    -0.270 OA 
HETATM   28  C   UNL     1     -10.136  13.211  67.379  1.00  0.00    -0.229 C  
BRANCH  25  29
HETATM   29  S   UNL     1     -10.560  15.042  69.376  1.00  0.00    -0.251 S  
HETATM   30  O   UNL     1     -11.387  14.995  70.564  1.00  0.00    -0.267 OA 
HETATM   31  C   UNL     1     -11.270  16.265  68.291  1.00  0.00    -0.324 C  
HETATM   32  O   UNL     1      -9.142  15.299  69.478  1.00  0.00    -0.241 OA 
ENDBRANCH  25  29
ENDBRANCH  21  23
ENDBRANCH  19  21
ENDBRANCH  18  19
BRANCH  18  33
HETATM   33  C   UNL     1      -7.618   9.907  65.018  1.00  0.00    -0.134 A  
HETATM   34  C   UNL     1      -6.070  10.178  62.682  1.00  0.00    -0.127 A  
HETATM   35  C   UNL     1      -6.265  10.296  65.086  1.00  0.00    -0.127 A  
HETATM   36  C   UNL     1      -5.502  10.435  63.927  1.00  0.00    -0.152 A  
HETATM   37  C   UNL     1      -7.402   9.781  62.595  1.00  0.00    -0.119 A  
HETATM   38  C   UNL     1      -8.172   9.648  63.753  1.00  0.00    -0.162 A  
ENDBRANCH  18  33
ENDBRANCH  15  18
ENDBRANCH  12  14
TORSDOF 7
ENDMDL
MODEL      141
REMARK 921   NORMALIZED FREE ENERGY PREDICTED BY IDOCK:   -4.88 KCAL/MOL
REMARK 922        TOTAL FREE ENERGY PREDICTED BY IDOCK:   -8.40 KCAL/MOL
REMARK 923 INTER-LIGAND FREE ENERGY PREDICTED BY IDOCK:   -7.01 KCAL/MOL
REMARK 924 INTRA-LIGAND FREE ENERGY PREDICTED BY IDOCK:   -1.40 KCAL/MOL
REMARK 927      BINDING AFFINITY PREDICTED BY RF-SCORE:    0.00 PKD
ROOT
HETATM    1  C   UNL     1      -8.685   7.310  71.779  1.00  0.00    -0.116 C  
HETATM    2  S   UNL     1     -10.307   8.151  71.636  1.00  0.00    -0.240 SA 
HETATM    3  C   UNL     1     -11.238   6.633  71.139  1.00  0.00    -0.292 C  
HETATM    4  CA  UNL     1     -10.370   5.441  71.615  1.00  0.00    -0.218 C  
HETATM    5  C   UNL     1     -11.376   6.666  69.604  1.00  0.00    -0.387 C  
HETATM    6  C   UNL     1     -12.653   6.695  71.724  1.00  0.00    -0.323 C  
HETATM    7  C   UNL     1     -10.683   4.929  73.033  1.00  0.00    -0.244 C  
HETATM    8  N   UNL     1      -8.960   5.871  71.554  1.00  0.00    -0.143 N  
HETATM    9  OXT UNL     1     -11.771   4.497  73.389  1.00  0.00    -0.270 OA 
HETATM   10  O   UNL     1      -9.620   4.944  73.876  1.00  0.00    -0.127 OA 
HETATM   11  C   UNL     1      -8.315   5.850  70.340  1.00  0.00    -0.123 C  
HETATM   12  CA  UNL     1      -7.760   7.279  70.535  1.00  0.00    -0.093 C  
HETATM   13  O   UNL     1      -8.376   5.050  69.436  1.00  0.00    -0.084 OA 
ENDROOT
BRANCH  12  14
HETATM   14  N   UNL     1      -8.046   8.257  69.453  1.00  0.00    -0.113 N  
HETATM   15  C   UNL     1      -7.054   8.653  68.578  1.00  0.00    -0.073 C  
HETATM   16  H   UNL     1      -8.986   8.642  69.355  1.00  0.00     0.000 HD 
HETATM   17  O   UNL     1      -5.911   8.205  68.691  1.00  0.00    -0.041 OA 
BRANCH  15  18
HETATM   18  CA  UNL     1      -7.403   9.787  67.584  1.00  0.00    -0.090 C  
BRANCH  18  19
HETATM   19  N   UNL     1      -8.620  10.449  68.044  1.00  0.00    -0.122 N  
HETATM   20  H   UNL     1      -8.574  11.059  68.859  1.00  0.00     0.000 HD 
BRANCH  19  21
HETATM   21  C   UNL     1      -9.818  10.276  67.415  1.00  0.00    -0.179 C  
HETATM   22  O   UNL     1     -10.406   9.196  67.398  1.00  0.00    -0.229 OA 
BRANCH  21  23
HETATM   23  N   UNL     1     -10.339  11.388  66.793  1.00  0.00    -0.225 N  
HETATM   24  C   UNL     1     -10.527  12.740  64.859  1.00  0.00    -0.321 C  
HETATM   25  N   UNL     1     -10.547  13.516  66.104  1.00  0.00    -0.286 N  
HETATM   26  C   UNL     1     -10.772  11.338  65.406  1.00  0.00    -0.227 C  
HETATM   27  O   UNL     1     -10.128  13.101  68.369  1.00  0.00    -0.235 OA 
HETATM   28  C   UNL     1     -10.314  12.711  67.232  1.00  0.00    -0.224 C  
BRANCH  25  29
HETATM   29  S   UNL     1     -10.823  15.147  66.081  1.00  0.00    -0.327 S  
HETATM   30  O   UNL     1     -11.248  15.499  64.741  1.00  0.00    -0.422 OA 
HETATM   31  C   UNL     1      -9.202  15.850  66.317  1.00  0.00    -0.337 C  
HETATM   32  O   UNL     1     -11.636  15.494  67.224  1.00  0.00    -0.187 OA 
ENDBRANCH  25  29
ENDBRANCH  21  23
ENDBRANCH  19  21
ENDBRANCH  18  19
BRANCH  18  33
HETATM   33  C   UNL     1      -7.499   9.343  66.131  1.00  0.00    -0.096 A  
HETATM   34  C   UNL     1      -7.751   8.459  63.470  1.00  0.00    -0.144 A  
HETATM   35  C   UNL     1      -7.792   7.997  65.840  1.00  0.00    -0.099 A  
HETATM   36  C   UNL     1      -7.911   7.560  64.521  1.00  0.00    -0.122 A  
HETATM   37  C   UNL     1      -7.471   9.797  63.738  1.00  0.00    -0.128 A  
HETATM   38  C   UNL     1      -7.344  10.237  65.057  1.00  0.00    -0.117 A  
ENDBRANCH  18  33
ENDBRANCH  15  18
ENDBRANCH  12  14
TORSDOF 7
ENDMDL
MODEL      142
REMARK 921   NORMALIZED FREE ENERGY PREDICTED BY IDOCK:   -4.88 KCAL/MOL
REMARK 922        TOTAL FREE ENERGY PREDICTED BY IDOCK:   -8.39 KCAL/MOL
REMARK 923 INTER-LIGAND FREE ENERGY PREDICTED BY IDOCK:   -6.91 KCAL/MOL
REMARK 924 INTRA-LIGAND FREE ENERGY PREDICTED BY IDOCK:   -1.49 KCAL/MOL
REMARK 927      BINDING AFFINITY PREDICTED BY RF-SCORE:    0.00 PKD
ROOT
HETATM    1  C   UNL     1     -12.757  15.219  69.497  1.00  0.00     0.142 C  
HETATM    2  S   UNL     1     -12.705  13.844  68.288  1.00  0.00     1.388 SA 
HETATM    3  C   UNL     1     -11.716  12.713  69.366  1.00  0.00    -0.325 C  
HETATM    4  CA  UNL     1     -11.917  13.237  70.810  1.00  0.00    -0.103 C  
HETATM    5  C   UNL     1     -10.247  12.822  68.913  1.00  0.00    -0.003 C  
HETATM    6  C   UNL     1     -12.160  11.267  69.121  1.00  0.00    -0.348 C  
HETATM    7  C   UNL     1     -13.098  12.612  71.575  1.00  0.00    -0.278 C  
HETATM    8  N   UNL     1     -12.112  14.698  70.724  1.00  0.00    -0.299 N  
HETATM    9  OXT UNL     1     -13.214  11.418  71.814  1.00  0.00    -0.458 OA 
HETATM   10  O   UNL     1     -14.006  13.513  72.026  1.00  0.00    -0.444 OA 
HETATM   11  C   UNL     1     -11.006  15.504  70.589  1.00  0.00    -0.342 C  
HETATM   12  CA  UNL     1     -11.647  16.300  69.429  1.00  0.00    -0.178 C  
HETATM   13  O   UNL     1      -9.913  15.423  71.096  1.00  0.00     0.651 OA 
ENDROOT
BRANCH  12  14
HETATM   14  N   UNL     1     -10.862  16.389  68.170  1.00  0.00    -0.337 N  
HETATM   15  C   UNL     1     -10.517  17.614  67.637  1.00  0.00    -0.372 C  
HETATM   16  H   UNL     1     -10.575  15.533  67.693  1.00  0.00     0.000 HD 
HETATM   17  O   UNL     1     -10.868  18.656  68.197  1.00  0.00    -0.231 OA 
BRANCH  15  18
HETATM   18  CA  UNL     1      -9.836  17.612  66.247  1.00  0.00    -0.288 C  
BRANCH  18  19
HETATM   19  N   UNL     1      -9.769  16.235  65.766  1.00  0.00    -0.308 N  
HETATM   20  H   UNL     1      -9.005  15.638  66.080  1.00  0.00     0.000 HD 
BRANCH  19  21
HETATM   21  C   UNL     1     -10.697  15.724  64.909  1.00  0.00    -0.361 C  
HETATM   22  O   UNL     1     -11.487  16.434  64.289  1.00  0.00    -0.876 OA 
BRANCH  21  23
HETATM   23  N   UNL     1     -10.705  14.354  64.774  1.00  0.00    -0.417 N  
HETATM   24  C   UNL     1     -11.905  12.313  64.766  1.00  0.00    -0.364 C  
HETATM   25  N   UNL     1     -10.552  12.180  65.319  1.00  0.00    -0.271 N  
HETATM   26  C   UNL     1     -11.789  13.673  64.085  1.00  0.00    -0.422 C  
HETATM   27  O   UNL     1      -8.841  13.630  65.984  1.00  0.00     0.240 OA 
HETATM   28  C   UNL     1      -9.901  13.420  65.426  1.00  0.00    -0.110 C  
BRANCH  25  29
HETATM   29  S   UNL     1      -9.951  10.696  65.737  1.00  0.00    -0.270 S  
HETATM   30  O   UNL     1      -8.754  10.916  66.523  1.00  0.00    -0.152 OA 
HETATM   31  C   UNL     1      -9.434  10.001  64.179  1.00  0.00    -0.252 C  
HETATM   32  O   UNL     1     -11.031   9.889  66.255  1.00  0.00     0.121 OA 
ENDBRANCH  25  29
ENDBRANCH  21  23
ENDBRANCH  19  21
ENDBRANCH  18  19
BRANCH  18  33
HETATM   33  C   UNL     1      -8.482  18.305  66.209  1.00  0.00    -0.216 A  
HETATM   34  C   UNL     1      -6.010  19.653  66.207  1.00  0.00    -0.175 A  
HETATM   35  C   UNL     1      -8.421  19.706  66.344  1.00  0.00    -0.382 A  
HETATM   36  C   UNL     1      -7.196  20.372  66.338  1.00  0.00    -0.280 A  
HETATM   37  C   UNL     1      -6.049  18.267  66.083  1.00  0.00    -0.235 A  
HETATM   38  C   UNL     1      -7.275  17.596  66.083  1.00  0.00    -0.352 A  
ENDBRANCH  18  33
ENDBRANCH  15  18
ENDBRANCH  12  14
TORSDOF 7
ENDMDL
MODEL      143
REMARK 921   NORMALIZED FREE ENERGY PREDICTED BY IDOCK:   -4.84 KCAL/MOL
REMARK 922        TOTAL FREE ENERGY PREDICTED BY IDOCK:   -8.34 KCAL/MOL
REMARK 923 INTER-LIGAND FREE ENERGY PREDICTED BY IDOCK:   -6.56 KCAL/MOL
REMARK 924 INTRA-LIGAND FREE ENERGY PREDICTED BY IDOCK:   -1.77 KCAL/MOL
REMARK 927      BINDING AFFINITY PREDICTED BY RF-SCORE:    0.00 PKD
ROOT
HETATM    1  C   UNL     1      -9.568   5.778  66.408  1.00  0.00    -0.153 C  
HETATM    2  S   UNL     1      -9.144   7.560  66.403  1.00  0.00    -0.162 SA 
HETATM    3  C   UNL     1      -7.318   7.296  66.522  1.00  0.00    -0.080 C  
HETATM    4  CA  UNL     1      -7.076   5.847  66.029  1.00  0.00    -0.074 C  
HETATM    5  C   UNL     1      -6.927   7.473  68.002  1.00  0.00    -0.072 C  
HETATM    6  C   UNL     1      -6.597   8.392  65.728  1.00  0.00    -0.053 C  
HETATM    7  C   UNL     1      -6.800   5.706  64.521  1.00  0.00    -0.050 C  
HETATM    8  N   UNL     1      -8.274   5.059  66.380  1.00  0.00    -0.108 N  
HETATM    9  OXT UNL     1      -5.868   6.238  63.935  1.00  0.00    -0.022 OA 
HETATM   10  O   UNL     1      -7.661   4.880  63.874  1.00  0.00    -0.070 OA 
HETATM   11  C   UNL     1      -8.405   4.595  67.668  1.00  0.00    -0.103 C  
HETATM   12  CA  UNL     1      -9.863   5.098  67.770  1.00  0.00    -0.156 C  
HETATM   13  O   UNL     1      -7.577   4.151  68.427  1.00  0.00    -0.066 OA 
ENDROOT
BRANCH  12  14
HETATM   14  N   UNL     1     -10.182   5.986  68.918  1.00  0.00    -0.178 N  
HETATM   15  C   UNL     1     -10.362   5.467  70.185  1.00  0.00    -0.290 C  
HETATM   16  H   UNL     1     -10.270   6.991  68.769  1.00  0.00     0.000 HD 
HETATM   17  O   UNL     1     -10.271   4.252  70.377  1.00  0.00    -0.136 OA 
BRANCH  15  18
HETATM   18  CA  UNL     1     -10.842   6.444  71.285  1.00  0.00    -0.257 C  
BRANCH  18  19
HETATM   19  N   UNL     1     -11.631   7.499  70.656  1.00  0.00    -0.378 N  
HETATM   20  H   UNL     1     -11.902   7.398  69.679  1.00  0.00     0.000 HD 
BRANCH  19  21
HETATM   21  C   UNL     1     -12.017   8.616  71.337  1.00  0.00    -0.304 C  
HETATM   22  O   UNL     1     -12.555   8.564  72.442  1.00  0.00    -0.374 OA 
BRANCH  21  23
HETATM   23  N   UNL     1     -11.769   9.818  70.714  1.00  0.00    -0.306 N  
HETATM   24  C   UNL     1     -12.548  11.925  69.968  1.00  0.00     0.094 C  
HETATM   25  N   UNL     1     -11.544  11.337  69.074  1.00  0.00    -0.289 N  
HETATM   26  C   UNL     1     -12.359  11.053  71.205  1.00  0.00    -0.359 C  
HETATM   27  O   UNL     1     -10.492   9.260  68.837  1.00  0.00    -0.210 OA 
HETATM   28  C   UNL     1     -11.183  10.037  69.469  1.00  0.00    -0.208 C  
BRANCH  25  29
HETATM   29  S   UNL     1     -10.962  12.186  67.778  1.00  0.00    -0.249 S  
HETATM   30  O   UNL     1     -11.137  11.360  66.601  1.00  0.00    -0.295 OA 
HETATM   31  C   UNL     1      -9.211  12.283  68.094  1.00  0.00    -0.197 C  
HETATM   32  O   UNL     1     -11.504  13.524  67.823  1.00  0.00    -0.280 OA 
ENDBRANCH  25  29
ENDBRANCH  21  23
ENDBRANCH  19  21
ENDBRANCH  18  19
BRANCH  18  33
HETATM   33  C   UNL     1      -9.730   6.999  72.163  1.00  0.00    -0.161 A  
HETATM   34  C   UNL     1      -7.658   8.099  73.720  1.00  0.00    -0.221 A  
HETATM   35  C   UNL     1      -8.601   7.584  71.557  1.00  0.00    -0.123 A  
HETATM   36  C   UNL     1      -7.574   8.124  72.331  1.00  0.00    -0.153 A  
HETATM   37  C   UNL     1      -8.772   7.535  74.338  1.00  0.00    -0.224 A  
HETATM   38  C   UNL     1      -9.800   6.987  73.567  1.00  0.00    -0.296 A  
ENDBRANCH  18  33
ENDBRANCH  15  18
ENDBRANCH  12  14
TORSDOF 7
ENDMDL
MODEL      144
REMARK 921   NORMALIZED FREE ENERGY PREDICTED BY IDOCK:   -4.78 KCAL/MOL
REMARK 922        TOTAL FREE ENERGY PREDICTED BY IDOCK:   -8.25 KCAL/MOL
REMARK 923 INTER-LIGAND FREE ENERGY PREDICTED BY IDOCK:   -6.81 KCAL/MOL
REMARK 924 INTRA-LIGAND FREE ENERGY PREDICTED BY IDOCK:   -1.44 KCAL/MOL
REMARK 927      BINDING AFFINITY PREDICTED BY RF-SCORE:    0.00 PKD
ROOT
HETATM    1  C   UNL     1     -11.558  11.437  66.890  1.00  0.00    -0.004 C  
HETATM    2  S   UNL     1     -11.384  12.982  67.859  1.00  0.00    -0.309 SA 
HETATM    3  C   UNL     1     -10.592  13.946  66.494  1.00  0.00    -0.279 C  
HETATM    4  CA  UNL     1     -10.974  13.204  65.188  1.00  0.00    -0.298 C  
HETATM    5  C   UNL     1      -9.071  13.923  66.744  1.00  0.00    -0.238 C  
HETATM    6  C   UNL     1     -11.045  15.407  66.580  1.00  0.00    -0.236 C  
HETATM    7  C   UNL     1     -12.270  13.692  64.515  1.00  0.00    -0.401 C  
HETATM    8  N   UNL     1     -11.107  11.772  65.519  1.00  0.00    -0.301 N  
HETATM    9  OXT UNL     1     -12.458  14.834  64.119  1.00  0.00    -0.758 OA 
HETATM   10  O   UNL     1     -13.202  12.721  64.338  1.00  0.00    -0.640 OA 
HETATM   11  C   UNL     1      -9.968  11.008  65.614  1.00  0.00    -0.248 C  
HETATM   12  CA  UNL     1     -10.414  10.392  66.960  1.00  0.00    -0.251 C  
HETATM   13  O   UNL     1      -8.958  11.023  64.950  1.00  0.00    -0.179 OA 
ENDROOT
BRANCH  12  14
HETATM   14  N   UNL     1      -9.459  10.506  68.093  1.00  0.00    -0.148 N  
HETATM   15  C   UNL     1      -8.436   9.593  68.250  1.00  0.00    -0.118 C  
HETATM   16  H   UNL     1      -9.561  11.268  68.764  1.00  0.00     0.000 HD 
HETATM   17  O   UNL     1      -8.309   8.660  67.453  1.00  0.00    -0.114 OA 
BRANCH  15  18
HETATM   18  CA  UNL     1      -7.588   9.699  69.540  1.00  0.00    -0.104 C  
BRANCH  18  19
HETATM   19  N   UNL     1      -8.479   9.586  70.692  1.00  0.00    -0.195 N  
HETATM   20  H   UNL     1      -8.334  10.202  71.491  1.00  0.00     0.000 HD 
BRANCH  19  21
HETATM   21  C   UNL     1      -9.498   8.682  70.730  1.00  0.00    -0.190 C  
HETATM   22  O   UNL     1     -10.680   9.014  70.655  1.00  0.00    -0.212 OA 
BRANCH  21  23
HETATM   23  N   UNL     1      -9.129   7.362  70.860  1.00  0.00    -0.153 N  
HETATM   24  C   UNL     1      -7.430   5.741  71.158  1.00  0.00    -0.091 C  
HETATM   25  N   UNL     1      -8.518   5.277  70.288  1.00  0.00    -0.108 N  
HETATM   26  C   UNL     1      -8.088   6.962  71.793  1.00  0.00    -0.101 C  
HETATM   27  O   UNL     1     -10.368   6.239  69.227  1.00  0.00    -0.184 OA 
HETATM   28  C   UNL     1      -9.454   6.292  70.028  1.00  0.00    -0.155 C  
BRANCH  25  29
HETATM   29  S   UNL     1      -8.552   3.719  69.733  1.00  0.00    -0.069 S  
HETATM   30  O   UNL     1      -9.703   3.070  70.326  1.00  0.00    -0.137 OA 
HETATM   31  C   UNL     1      -7.102   2.983  70.461  1.00  0.00    -0.034 C  
HETATM   32  O   UNL     1      -8.378   3.737  68.299  1.00  0.00    -0.088 OA 
ENDBRANCH  25  29
ENDBRANCH  21  23
ENDBRANCH  19  21
ENDBRANCH  18  19
BRANCH  18  33
HETATM   33  C   UNL     1      -6.704  10.936  69.612  1.00  0.00    -0.131 A  
HETATM   34  C   UNL     1      -5.137  13.274  69.689  1.00  0.00    -0.084 A  
HETATM   35  C   UNL     1      -6.637  11.800  68.501  1.00  0.00    -0.059 A  
HETATM   36  C   UNL     1      -5.855  12.955  68.540  1.00  0.00    -0.063 A  
HETATM   37  C   UNL     1      -5.200  12.438  70.801  1.00  0.00    -0.150 A  
HETATM   38  C   UNL     1      -5.975  11.277  70.764  1.00  0.00     0.016 A  
ENDBRANCH  18  33
ENDBRANCH  15  18
ENDBRANCH  12  14
TORSDOF 7
ENDMDL
MODEL      145
REMARK 921   NORMALIZED FREE ENERGY PREDICTED BY IDOCK:   -4.75 KCAL/MOL
REMARK 922        TOTAL FREE ENERGY PREDICTED BY IDOCK:   -8.22 KCAL/MOL
REMARK 923 INTER-LIGAND FREE ENERGY PREDICTED BY IDOCK:   -7.65 KCAL/MOL
REMARK 924 INTRA-LIGAND FREE ENERGY PREDICTED BY IDOCK:   -0.58 KCAL/MOL
REMARK 927      BINDING AFFINITY PREDICTED BY RF-SCORE:    0.00 PKD
ROOT
HETATM    1  C   UNL     1      -8.150   6.235  71.071  1.00  0.00    -0.121 C  
HETATM    2  S   UNL     1      -9.519   7.270  71.714  1.00  0.00    -0.149 SA 
HETATM    3  C   UNL     1     -10.719   5.873  71.882  1.00  0.00    -0.239 C  
HETATM    4  CA  UNL     1      -9.853   4.589  71.937  1.00  0.00    -0.182 C  
HETATM    5  C   UNL     1     -11.627   5.901  70.637  1.00  0.00     0.028 C  
HETATM    6  C   UNL     1     -11.612   6.120  73.102  1.00  0.00     0.167 C  
HETATM    7  C   UNL     1      -9.436   4.141  73.350  1.00  0.00    -0.110 C  
HETATM    8  N   UNL     1      -8.643   4.839  71.129  1.00  0.00    -0.111 N  
HETATM    9  OXT UNL     1     -10.219   3.852  74.244  1.00  0.00    -0.149 OA 
HETATM   10  O   UNL     1      -8.095   4.035  73.525  1.00  0.00    -0.087 OA 
HETATM   11  C   UNL     1      -8.726   4.720  69.762  1.00  0.00    -0.081 C  
HETATM   12  CA  UNL     1      -8.011   6.072  69.535  1.00  0.00    -0.106 C  
HETATM   13  O   UNL     1      -9.325   3.922  69.082  1.00  0.00    -0.144 OA 
ENDROOT
BRANCH  12  14
HETATM   14  N   UNL     1      -8.717   7.063  68.681  1.00  0.00    -0.123 N  
HETATM   15  C   UNL     1      -8.244   8.353  68.558  1.00  0.00    -0.124 C  
HETATM   16  H   UNL     1      -9.561   6.785  68.179  1.00  0.00     0.000 HD 
HETATM   17  O   UNL     1      -7.231   8.705  69.168  1.00  0.00    -0.062 OA 
BRANCH  15  18
HETATM   18  CA  UNL     1      -9.125   9.355  67.773  1.00  0.00    -0.125 C  
BRANCH  18  19
HETATM   19  N   UNL     1      -8.253  10.308  67.093  1.00  0.00    -0.121 N  
HETATM   20  H   UNL     1      -7.557  10.817  67.637  1.00  0.00     0.000 HD 
BRANCH  19  21
HETATM   21  C   UNL     1      -8.340  10.536  65.752  1.00  0.00    -0.166 C  
HETATM   22  O   UNL     1      -7.465  10.180  64.962  1.00  0.00    -0.136 OA 
BRANCH  21  23
HETATM   23  N   UNL     1      -9.470  11.193  65.323  1.00  0.00    -0.221 N  
HETATM   24  C   UNL     1     -10.906  11.837  63.554  1.00  0.00    -0.426 C  
HETATM   25  N   UNL     1     -10.797  12.857  64.604  1.00  0.00    -0.322 N  
HETATM   26  C   UNL     1     -10.315  10.633  64.280  1.00  0.00    -0.255 C  
HETATM   27  O   UNL     1      -9.447  13.224  66.479  1.00  0.00    -0.257 OA 
HETATM   28  C   UNL     1      -9.851  12.509  65.583  1.00  0.00    -0.216 C  
BRANCH  25  29
HETATM   29  S   UNL     1     -11.727  14.225  64.555  1.00  0.00    -0.405 S  
HETATM   30  O   UNL     1     -10.835  15.362  64.649  1.00  0.00    -0.387 OA 
HETATM   31  C   UNL     1     -12.652  14.157  66.077  1.00  0.00    -0.375 C  
HETATM   32  O   UNL     1     -12.658  14.111  63.456  1.00  0.00    -0.834 OA 
ENDBRANCH  25  29
ENDBRANCH  21  23
ENDBRANCH  19  21
ENDBRANCH  18  19
BRANCH  18  33
HETATM   33  C   UNL     1     -10.192  10.045  68.612  1.00  0.00    -0.198 A  
HETATM   34  C   UNL     1     -12.232  11.307  70.086  1.00  0.00    -0.410 A  
HETATM   35  C   UNL     1     -11.144  10.866  67.975  1.00  0.00    -0.351 A  
HETATM   36  C   UNL     1     -12.150  11.494  68.708  1.00  0.00    -0.234 A  
HETATM   37  C   UNL     1     -11.307  10.490  70.731  1.00  0.00    -0.295 A  
HETATM   38  C   UNL     1     -10.294   9.864  70.002  1.00  0.00    -0.320 A  
ENDBRANCH  18  33
ENDBRANCH  15  18
ENDBRANCH  12  14
TORSDOF 7
ENDMDL
MODEL      146
REMARK 921   NORMALIZED FREE ENERGY PREDICTED BY IDOCK:   -4.67 KCAL/MOL
REMARK 922        TOTAL FREE ENERGY PREDICTED BY IDOCK:   -8.11 KCAL/MOL
REMARK 923 INTER-LIGAND FREE ENERGY PREDICTED BY IDOCK:   -6.82 KCAL/MOL
REMARK 924 INTRA-LIGAND FREE ENERGY PREDICTED BY IDOCK:   -1.29 KCAL/MOL
REMARK 927      BINDING AFFINITY PREDICTED BY RF-SCORE:    0.00 PKD
ROOT
HETATM    1  C   UNL     1      -8.541   7.206  70.038  1.00  0.00    -0.141 C  
HETATM    2  S   UNL     1      -8.954   8.166  71.542  1.00  0.00    -0.173 SA 
HETATM    3  C   UNL     1     -10.626   7.410  71.769  1.00  0.00    -0.201 C  
HETATM    4  CA  UNL     1     -10.584   6.073  70.987  1.00  0.00    -0.246 C  
HETATM    5  C   UNL     1     -11.654   8.392  71.174  1.00  0.00    -0.317 C  
HETATM    6  C   UNL     1     -10.926   7.289  73.267  1.00  0.00    -0.355 C  
HETATM    7  C   UNL     1     -10.137   4.849  71.806  1.00  0.00    -0.202 C  
HETATM    8  N   UNL     1      -9.664   6.258  69.848  1.00  0.00    -0.165 N  
HETATM    9  OXT UNL     1     -10.708   4.439  72.807  1.00  0.00    -0.191 OA 
HETATM   10  O   UNL     1      -9.058   4.203  71.296  1.00  0.00    -0.112 OA 
HETATM   11  C   UNL     1     -10.127   6.898  68.722  1.00  0.00    -0.166 C  
HETATM   12  CA  UNL     1      -8.888   7.820  68.656  1.00  0.00    -0.131 C  
HETATM   13  O   UNL     1     -11.201   6.835  68.173  1.00  0.00    -0.182 OA 
ENDROOT
BRANCH  12  14
HETATM   14  N   UNL     1      -9.148   9.282  68.609  1.00  0.00    -0.132 N  
HETATM   15  C   UNL     1      -8.651  10.056  67.580  1.00  0.00    -0.118 C  
HETATM   16  H   UNL     1      -9.702   9.720  69.346  1.00  0.00     0.000 HD 
HETATM   17  O   UNL     1      -7.971   9.542  66.689  1.00  0.00    -0.107 OA 
BRANCH  15  18
HETATM   18  CA  UNL     1      -8.840  11.588  67.695  1.00  0.00    -0.152 C  
BRANCH  18  19
HETATM   19  N   UNL     1      -9.307  12.096  66.408  1.00  0.00    -0.224 N  
HETATM   20  H   UNL     1      -8.762  11.895  65.571  1.00  0.00     0.000 HD 
BRANCH  19  21
HETATM   21  C   UNL     1     -10.449  12.831  66.293  1.00  0.00    -0.257 C  
HETATM   22  O   UNL     1     -11.420  12.448  65.642  1.00  0.00    -0.335 OA 
BRANCH  21  23
HETATM   23  N   UNL     1     -10.458  14.039  66.952  1.00  0.00    -0.274 N  
HETATM   24  C   UNL     1     -11.677  15.824  67.921  1.00  0.00    -0.043 C  
HETATM   25  N   UNL     1     -10.429  16.261  67.284  1.00  0.00    -0.298 N  
HETATM   26  C   UNL     1     -11.434  14.319  67.994  1.00  0.00    -0.314 C  
HETATM   27  O   UNL     1      -8.818  15.311  65.878  1.00  0.00    -0.163 OA 
HETATM   28  C   UNL     1      -9.782  15.210  66.613  1.00  0.00    -0.258 C  
BRANCH  25  29
HETATM   29  S   UNL     1      -9.925  17.833  67.401  1.00  0.00    -0.338 S  
HETATM   30  O   UNL     1     -10.022  18.422  66.081  1.00  0.00    -0.435 OA 
HETATM   31  C   UNL     1      -8.190  17.688  67.783  1.00  0.00    -0.225 C  
HETATM   32  O   UNL     1     -10.586  18.447  68.529  1.00  0.00    -0.256 OA 
ENDBRANCH  25  29
ENDBRANCH  21  23
ENDBRANCH  19  21
ENDBRANCH  18  19
BRANCH  18  33
HETATM   33  C   UNL     1      -7.617  12.337  68.204  1.00  0.00    -0.127 A  
HETATM   34  C   UNL     1      -5.381  13.803  69.087  1.00  0.00    -0.077 A  
HETATM   35  C   UNL     1      -6.933  13.209  67.334  1.00  0.00    -0.117 A  
HETATM   36  C   UNL     1      -5.822  13.930  67.773  1.00  0.00    -0.098 A  
HETATM   37  C   UNL     1      -6.051  12.954  69.965  1.00  0.00    -0.110 A  
HETATM   38  C   UNL     1      -7.160  12.225  69.528  1.00  0.00     0.219 A  
ENDBRANCH  18  33
ENDBRANCH  15  18
ENDBRANCH  12  14
TORSDOF 7
ENDMDL
MODEL      147
REMARK 921   NORMALIZED FREE ENERGY PREDICTED BY IDOCK:   -4.66 KCAL/MOL
REMARK 922        TOTAL FREE ENERGY PREDICTED BY IDOCK:   -8.09 KCAL/MOL
REMARK 923 INTER-LIGAND FREE ENERGY PREDICTED BY IDOCK:   -8.01 KCAL/MOL
REMARK 924 INTRA-LIGAND FREE ENERGY PREDICTED BY IDOCK:   -0.08 KCAL/MOL
REMARK 927      BINDING AFFINITY PREDICTED BY RF-SCORE:    0.00 PKD
ROOT
HETATM    1  C   UNL     1      -8.230   9.687  65.367  1.00  0.00    -0.128 C  
HETATM    2  S   UNL     1      -7.088  10.386  66.618  1.00  0.00    -0.119 SA 
HETATM    3  C   UNL     1      -7.380   9.058  67.870  1.00  0.00    -0.084 C  
HETATM    4  CA  UNL     1      -7.937   7.853  67.073  1.00  0.00    -0.112 C  
HETATM    5  C   UNL     1      -8.407   9.604  68.881  1.00  0.00    -0.116 C  
HETATM    6  C   UNL     1      -6.080   8.796  68.640  1.00  0.00    -0.045 C  
HETATM    7  C   UNL     1      -6.878   6.861  66.559  1.00  0.00    -0.068 C  
HETATM    8  N   UNL     1      -8.692   8.395  65.926  1.00  0.00    -0.160 N  
HETATM    9  OXT UNL     1      -6.102   6.243  67.274  1.00  0.00    -0.020 OA 
HETATM   10  O   UNL     1      -6.897   6.676  65.214  1.00  0.00    -0.052 OA 
HETATM   11  C   UNL     1      -9.975   8.846  66.134  1.00  0.00    -0.220 C  
HETATM   12  CA  UNL     1      -9.706  10.164  65.371  1.00  0.00    -0.291 C  
HETATM   13  O   UNL     1     -10.856   8.403  66.832  1.00  0.00    -0.211 OA 
ENDROOT
BRANCH  12  14
HETATM   14  N   UNL     1     -10.009  11.426  66.095  1.00  0.00    -0.219 N  
HETATM   15  C   UNL     1     -10.429  12.549  65.411  1.00  0.00    -0.282 C  
HETATM   16  H   UNL     1      -9.906  11.463  67.110  1.00  0.00     0.000 HD 
HETATM   17  O   UNL     1     -10.547  12.521  64.184  1.00  0.00    -0.342 OA 
BRANCH  15  18
HETATM   18  CA  UNL     1     -10.572  13.857  66.226  1.00  0.00    -0.289 C  
BRANCH  18  19
HETATM   19  N   UNL     1      -9.297  14.567  66.192  1.00  0.00    -0.475 N  
HETATM   20  H   UNL     1      -8.435  14.042  66.334  1.00  0.00     0.000 HD 
BRANCH  19  21
HETATM   21  C   UNL     1      -9.224  15.911  65.975  1.00  0.00    -0.337 C  
HETATM   22  O   UNL     1      -9.966  16.494  65.185  1.00  0.00    -0.481 OA 
BRANCH  21  23
HETATM   23  N   UNL     1      -8.266  16.588  66.694  1.00  0.00    -0.240 N  
HETATM   24  C   UNL     1      -7.579  17.610  68.717  1.00  0.00    -0.253 C  
HETATM   25  N   UNL     1      -7.068  18.297  67.525  1.00  0.00    -0.199 N  
HETATM   26  C   UNL     1      -8.033  16.291  68.099  1.00  0.00    -0.157 C  
HETATM   27  O   UNL     1      -7.452  18.207  65.219  1.00  0.00    -0.306 OA 
HETATM   28  C   UNL     1      -7.582  17.749  66.338  1.00  0.00    -0.278 C  
BRANCH  25  29
HETATM   29  S   UNL     1      -6.008  19.560  67.666  1.00  0.00    -0.194 S  
HETATM   30  O   UNL     1      -5.151  19.285  68.801  1.00  0.00    -0.186 OA 
HETATM   31  C   UNL     1      -7.051  20.933  68.118  1.00  0.00    -0.004 C  
HETATM   32  O   UNL     1      -5.440  19.833  66.366  1.00  0.00    -0.165 OA 
ENDBRANCH  25  29
ENDBRANCH  21  23
ENDBRANCH  19  21
ENDBRANCH  18  19
BRANCH  18  33
HETATM   33  C   UNL     1     -11.088  13.662  67.645  1.00  0.00    -0.293 A  
HETATM   34  C   UNL     1     -11.998  13.208  70.270  1.00  0.00    -0.366 A  
HETATM   35  C   UNL     1     -11.508  12.381  68.054  1.00  0.00    -0.377 A  
HETATM   36  C   UNL     1     -11.963  12.160  69.354  1.00  0.00    -0.329 A  
HETATM   37  C   UNL     1     -11.575  14.479  69.887  1.00  0.00    -0.340 A  
HETATM   38  C   UNL     1     -11.125  14.706  68.585  1.00  0.00    -0.276 A  
ENDBRANCH  18  33
ENDBRANCH  15  18
ENDBRANCH  12  14
TORSDOF 7
ENDMDL
MODEL      148
REMARK 921   NORMALIZED FREE ENERGY PREDICTED BY IDOCK:   -4.65 KCAL/MOL
REMARK 922        TOTAL FREE ENERGY PREDICTED BY IDOCK:   -8.08 KCAL/MOL
REMARK 923 INTER-LIGAND FREE ENERGY PREDICTED BY IDOCK:   -6.37 KCAL/MOL
REMARK 924 INTRA-LIGAND FREE ENERGY PREDICTED BY IDOCK:   -1.71 KCAL/MOL
REMARK 927      BINDING AFFINITY PREDICTED BY RF-SCORE:    0.00 PKD
ROOT
HETATM    1  C   UNL     1      -8.464  10.811  68.488  1.00  0.00    -0.143 C  
HETATM    2  S   UNL     1      -8.121   9.774  67.018  1.00  0.00    -0.113 SA 
HETATM    3  C   UNL     1      -9.755  10.084  66.210  1.00  0.00    -0.214 C  
HETATM    4  CA  UNL     1     -10.290  11.391  66.849  1.00  0.00    -0.227 C  
HETATM    5  C   UNL     1     -10.658   8.877  66.530  1.00  0.00    -0.051 C  
HETATM    6  C   UNL     1      -9.567  10.121  64.690  1.00  0.00    -0.379 C  
HETATM    7  C   UNL     1      -9.902  12.686  66.112  1.00  0.00    -0.259 C  
HETATM    8  N   UNL     1      -9.778  11.446  68.232  1.00  0.00    -0.195 N  
HETATM    9  OXT UNL     1     -10.194  12.936  64.951  1.00  0.00    -0.301 OA 
HETATM   10  O   UNL     1      -9.235  13.583  66.881  1.00  0.00    -0.237 OA 
HETATM   11  C   UNL     1     -10.419  10.714  69.203  1.00  0.00    -0.222 C  
HETATM   12  CA  UNL     1      -9.089  10.133  69.736  1.00  0.00    -0.136 C  
HETATM   13  O   UNL     1     -11.596  10.507  69.376  1.00  0.00    -0.257 OA 
ENDROOT
BRANCH  12  14
HETATM   14  N   UNL     1      -8.996   8.652  69.822  1.00  0.00    -0.143 N  
HETATM   15  C   UNL     1      -8.574   8.037  70.983  1.00  0.00    -0.133 C  
HETATM   16  H   UNL     1      -9.248   8.083  69.013  1.00  0.00     0.000 HD 
HETATM   17  O   UNL     1      -8.256   8.713  71.964  1.00  0.00    -0.250 OA 
BRANCH  15  18
HETATM   18  CA  UNL     1      -8.361   6.505  70.931  1.00  0.00    -0.126 C  
BRANCH  18  19
HETATM   19  N   UNL     1      -8.416   6.076  69.537  1.00  0.00    -0.118 N  
HETATM   20  H   UNL     1      -8.912   6.655  68.860  1.00  0.00     0.000 HD 
BRANCH  19  21
HETATM   21  C   UNL     1      -7.824   4.924  69.112  1.00  0.00    -0.072 C  
HETATM   22  O   UNL     1      -6.788   4.489  69.613  1.00  0.00    -0.043 OA 
BRANCH  21  23
HETATM   23  N   UNL     1      -8.453   4.266  68.080  1.00  0.00    -0.094 N  
HETATM   24  C   UNL     1      -8.583   2.397  66.632  1.00  0.00    -0.110 C  
HETATM   25  N   UNL     1      -8.990   3.651  65.987  1.00  0.00    -0.136 N  
HETATM   26  C   UNL     1      -8.614   2.821  68.097  1.00  0.00    -0.090 C  
HETATM   27  O   UNL     1      -8.898   5.932  66.501  1.00  0.00    -0.121 OA 
HETATM   28  C   UNL     1      -8.793   4.763  66.822  1.00  0.00    -0.110 C  
BRANCH  25  29
HETATM   29  S   UNL     1      -9.603   3.652  64.450  1.00  0.00    -0.177 S  
HETATM   30  O   UNL     1     -11.001   4.018  64.538  1.00  0.00    -0.269 OA 
HETATM   31  C   UNL     1      -9.540   1.935  63.974  1.00  0.00    -0.134 C  
HETATM   32  O   UNL     1      -8.703   4.391  63.595  1.00  0.00    -0.118 OA 
ENDBRANCH  25  29
ENDBRANCH  21  23
ENDBRANCH  19  21
ENDBRANCH  18  19
BRANCH  18  33
HETATM   33  C   UNL     1      -9.306   5.708  71.819  1.00  0.00    -0.163 A  
HETATM   34  C   UNL     1     -10.975   4.214  73.525  1.00  0.00    -0.360 A  
HETATM   35  C   UNL     1      -8.828   4.555  72.474  1.00  0.00    -0.126 A  
HETATM   36  C   UNL     1      -9.659   3.814  73.314  1.00  0.00    -0.143 A  
HETATM   37  C   UNL     1     -11.463   5.357  72.896  1.00  0.00    -0.340 A  
HETATM   38  C   UNL     1     -10.637   6.098  72.048  1.00  0.00    -0.259 A  
ENDBRANCH  18  33
ENDBRANCH  15  18
ENDBRANCH  12  14
TORSDOF 7
ENDMDL
MODEL      149
REMARK 921   NORMALIZED FREE ENERGY PREDICTED BY IDOCK:   -4.63 KCAL/MOL
REMARK 922        TOTAL FREE ENERGY PREDICTED BY IDOCK:   -8.05 KCAL/MOL
REMARK 923 INTER-LIGAND FREE ENERGY PREDICTED BY IDOCK:   -6.23 KCAL/MOL
REMARK 924 INTRA-LIGAND FREE ENERGY PREDICTED BY IDOCK:   -1.82 KCAL/MOL
REMARK 927      BINDING AFFINITY PREDICTED BY RF-SCORE:    0.00 PKD
ROOT
HETATM    1  C   UNL     1     -11.077  11.042  67.334  1.00  0.00    -0.305 C  
HETATM    2  S   UNL     1      -9.829  11.561  68.571  1.00  0.00    -0.176 SA 
HETATM    3  C   UNL     1      -8.961  12.744  67.446  1.00  0.00    -0.195 C  
HETATM    4  CA  UNL     1      -9.986  13.084  66.334  1.00  0.00    -0.277 C  
HETATM    5  C   UNL     1      -7.724  12.016  66.885  1.00  0.00    -0.078 C  
HETATM    6  C   UNL     1      -8.455  13.937  68.263  1.00  0.00    -0.169 C  
HETATM    7  C   UNL     1     -10.875  14.309  66.615  1.00  0.00    -0.301 C  
HETATM    8  N   UNL     1     -10.841  11.896  66.146  1.00  0.00    -0.281 N  
HETATM    9  OXT UNL     1     -10.453  15.442  66.805  1.00  0.00    -0.286 OA 
HETATM   10  O   UNL     1     -12.206  14.047  66.586  1.00  0.00    -0.442 OA 
HETATM   11  C   UNL     1     -10.365  10.854  65.385  1.00  0.00    -0.261 C  
HETATM   12  CA  UNL     1     -10.765   9.807  66.450  1.00  0.00     0.058 C  
HETATM   13  O   UNL     1      -9.716  10.863  64.367  1.00  0.00    -0.241 OA 
ENDROOT
BRANCH  12  14
HETATM   14  N   UNL     1      -9.693   8.890  66.917  1.00  0.00    -0.183 N  
HETATM   15  C   UNL     1      -9.947   7.547  67.113  1.00  0.00    -0.220 C  
HETATM   16  H   UNL     1      -8.758   9.257  67.095  1.00  0.00     0.000 HD 
HETATM   17  O   UNL     1     -11.075   7.093  66.913  1.00  0.00    -0.327 OA 
BRANCH  15  18
HETATM   18  CA  UNL     1      -8.816   6.702  67.747  1.00  0.00    -0.114 C  
BRANCH  18  19
HETATM   19  N   UNL     1      -7.687   7.581  68.040  1.00  0.00    -0.114 N  
HETATM   20  H   UNL     1      -7.607   8.466  67.540  1.00  0.00     0.000 HD 
BRANCH  19  21
HETATM   21  C   UNL     1      -6.738   7.255  68.963  1.00  0.00    -0.059 C  
HETATM   22  O   UNL     1      -5.542   7.182  68.683  1.00  0.00    -0.020 OA 
BRANCH  21  23
HETATM   23  N   UNL     1      -7.195   7.009  70.237  1.00  0.00    -0.070 N  
HETATM   24  C   UNL     1      -8.296   5.574  71.766  1.00  0.00    -0.120 C  
HETATM   25  N   UNL     1      -8.556   6.996  72.024  1.00  0.00    -0.119 N  
HETATM   26  C   UNL     1      -7.100   5.682  70.825  1.00  0.00    -0.069 C  
HETATM   27  O   UNL     1      -8.175   9.020  70.914  1.00  0.00    -0.157 OA 
HETATM   28  C   UNL     1      -7.993   7.823  71.038  1.00  0.00    -0.090 C  
BRANCH  25  29
HETATM   29  S   UNL     1      -9.421   7.470  73.353  1.00  0.00    -0.274 S  
HETATM   30  O   UNL     1      -9.691   6.286  74.143  1.00  0.00    -0.180 OA 
HETATM   31  C   UNL     1     -10.976   8.009  72.670  1.00  0.00    -0.382 C  
HETATM   32  O   UNL     1      -8.766   8.614  73.945  1.00  0.00    -0.199 OA 
ENDBRANCH  25  29
ENDBRANCH  21  23
ENDBRANCH  19  21
ENDBRANCH  18  19
BRANCH  18  33
HETATM   33  C   UNL     1      -8.404   5.486  66.928  1.00  0.00    -0.108 A  
HETATM   34  C   UNL     1      -7.585   3.299  65.357  1.00  0.00    -0.077 A  
HETATM   35  C   UNL     1      -8.191   5.629  65.543  1.00  0.00    -0.129 A  
HETATM   36  C   UNL     1      -7.790   4.543  64.766  1.00  0.00    -0.086 A  
HETATM   37  C   UNL     1      -7.780   3.141  66.727  1.00  0.00    -0.076 A  
HETATM   38  C   UNL     1      -8.188   4.224  67.508  1.00  0.00    -0.099 A  
ENDBRANCH  18  33
ENDBRANCH  15  18
ENDBRANCH  12  14
TORSDOF 7
ENDMDL
MODEL      150
REMARK 921   NORMALIZED FREE ENERGY PREDICTED BY IDOCK:   -4.61 KCAL/MOL
REMARK 922        TOTAL FREE ENERGY PREDICTED BY IDOCK:   -8.01 KCAL/MOL
REMARK 923 INTER-LIGAND FREE ENERGY PREDICTED BY IDOCK:   -7.14 KCAL/MOL
REMARK 924 INTRA-LIGAND FREE ENERGY PREDICTED BY IDOCK:   -0.87 KCAL/MOL
REMARK 927      BINDING AFFINITY PREDICTED BY RF-SCORE:    0.00 PKD
ROOT
HETATM    1  C   UNL     1     -10.063  12.927  67.672  1.00  0.00    -0.221 C  
HETATM    2  S   UNL     1      -9.105  12.636  66.137  1.00  0.00     0.127 SA 
HETATM    3  C   UNL     1     -10.515  11.895  65.199  1.00  0.00    -0.287 C  
HETATM    4  CA  UNL     1     -11.796  12.385  65.922  1.00  0.00    -0.405 C  
HETATM    5  C   UNL     1     -10.360  10.364  65.279  1.00  0.00    -0.267 C  
HETATM    6  C   UNL     1     -10.400  12.287  63.722  1.00  0.00    -0.464 C  
HETATM    7  C   UNL     1     -12.387  13.701  65.385  1.00  0.00    -0.476 C  
HETATM    8  N   UNL     1     -11.459  12.550  67.349  1.00  0.00    -0.319 N  
HETATM    9  OXT UNL     1     -12.770  13.870  64.235  1.00  0.00    -0.664 OA 
HETATM   10  O   UNL     1     -12.507  14.678  66.319  1.00  0.00    -0.213 OA 
HETATM   11  C   UNL     1     -11.435  11.436  68.155  1.00  0.00    -0.305 C  
HETATM   12  CA  UNL     1     -10.065  11.821  68.758  1.00  0.00    -0.140 C  
HETATM   13  O   UNL     1     -12.160  10.470  68.175  1.00  0.00    -0.279 OA 
ENDROOT
BRANCH  12  14
HETATM   14  N   UNL     1      -8.993  10.794  68.683  1.00  0.00    -0.156 N  
HETATM   15  C   UNL     1      -8.987   9.714  69.543  1.00  0.00    -0.194 C  
HETATM   16  H   UNL     1      -8.252  10.888  67.988  1.00  0.00     0.000 HD 
HETATM   17  O   UNL     1      -9.870   9.594  70.395  1.00  0.00    -0.248 OA 
BRANCH  15  18
HETATM   18  CA  UNL     1      -7.753   8.782  69.495  1.00  0.00    -0.089 C  
BRANCH  18  19
HETATM   19  N   UNL     1      -8.001   7.732  68.511  1.00  0.00    -0.120 N  
HETATM   20  H   UNL     1      -7.952   6.757  68.805  1.00  0.00     0.000 HD 
BRANCH  19  21
HETATM   21  C   UNL     1      -8.297   8.016  67.211  1.00  0.00    -0.122 C  
HETATM   22  O   UNL     1      -7.927   9.053  66.660  1.00  0.00    -0.099 OA 
BRANCH  21  23
HETATM   23  N   UNL     1      -9.040   7.072  66.540  1.00  0.00    -0.153 N  
HETATM   24  C   UNL     1     -10.517   5.223  66.599  1.00  0.00    -0.290 C  
HETATM   25  N   UNL     1      -9.563   5.159  65.485  1.00  0.00    -0.097 N  
HETATM   26  C   UNL     1     -10.360   6.683  67.011  1.00  0.00    -0.262 C  
HETATM   27  O   UNL     1      -7.632   6.311  64.837  1.00  0.00    -0.079 OA 
HETATM   28  C   UNL     1      -8.621   6.200  65.537  1.00  0.00    -0.130 C  
BRANCH  25  29
HETATM   29  S   UNL     1      -9.669   3.962  64.348  1.00  0.00    -0.189 S  
HETATM   30  O   UNL     1     -11.076   3.709  64.111  1.00  0.00    -0.310 OA 
HETATM   31  C   UNL     1      -9.013   2.531  65.183  1.00  0.00    -0.133 C  
HETATM   32  O   UNL     1      -8.787   4.289  63.251  1.00  0.00    -0.110 OA 
ENDBRANCH  25  29
ENDBRANCH  21  23
ENDBRANCH  19  21
ENDBRANCH  18  19
BRANCH  18  33
HETATM   33  C   UNL     1      -7.335   8.220  70.847  1.00  0.00    -0.059 A  
HETATM   34  C   UNL     1      -6.558   7.089  73.305  1.00  0.00    -0.066 A  
HETATM   35  C   UNL     1      -7.773   6.935  71.223  1.00  0.00    -0.092 A  
HETATM   36  C   UNL     1      -7.390   6.379  72.443  1.00  0.00    -0.088 A  
HETATM   37  C   UNL     1      -6.106   8.356  72.945  1.00  0.00    -0.079 A  
HETATM   38  C   UNL     1      -6.492   8.920  71.727  1.00  0.00    -0.065 A  
ENDBRANCH  18  33
ENDBRANCH  15  18
ENDBRANCH  12  14
TORSDOF 7
ENDMDL
MODEL      151
REMARK 921   NORMALIZED FREE ENERGY PREDICTED BY IDOCK:   -4.60 KCAL/MOL
REMARK 922        TOTAL FREE ENERGY PREDICTED BY IDOCK:   -8.00 KCAL/MOL
REMARK 923 INTER-LIGAND FREE ENERGY PREDICTED BY IDOCK:   -8.24 KCAL/MOL
REMARK 924 INTRA-LIGAND FREE ENERGY PREDICTED BY IDOCK:    0.24 KCAL/MOL
REMARK 927      BINDING AFFINITY PREDICTED BY RF-SCORE:    0.00 PKD
ROOT
HETATM    1  C   UNL     1     -10.455   8.030  68.582  1.00  0.00    -0.167 C  
HETATM    2  S   UNL     1     -10.490   7.414  66.857  1.00  0.00    -0.266 SA 
HETATM    3  C   UNL     1      -8.921   6.447  66.994  1.00  0.00    -0.119 C  
HETATM    4  CA  UNL     1      -8.712   6.209  68.511  1.00  0.00    -0.111 C  
HETATM    5  C   UNL     1      -7.798   7.312  66.388  1.00  0.00    -0.106 C  
HETATM    6  C   UNL     1      -9.031   5.182  66.137  1.00  0.00    -0.135 C  
HETATM    7  C   UNL     1      -9.329   4.911  69.060  1.00  0.00    -0.129 C  
HETATM    8  N   UNL     1      -9.297   7.364  69.221  1.00  0.00    -0.154 N  
HETATM    9  OXT UNL     1      -9.037   3.787  68.674  1.00  0.00    -0.117 OA 
HETATM   10  O   UNL     1     -10.213   5.101  70.073  1.00  0.00    -0.251 OA 
HETATM   11  C   UNL     1      -8.566   8.525  69.306  1.00  0.00    -0.129 C  
HETATM   12  CA  UNL     1      -9.767   9.392  68.862  1.00  0.00    -0.164 C  
HETATM   13  O   UNL     1      -7.382   8.693  69.480  1.00  0.00    -0.065 OA 
ENDROOT
BRANCH  12  14
HETATM   14  N   UNL     1      -9.544  10.292  67.700  1.00  0.00    -0.151 N  
HETATM   15  C   UNL     1      -8.831  11.465  67.842  1.00  0.00    -0.149 C  
HETATM   16  H   UNL     1      -9.923  10.040  66.787  1.00  0.00     0.000 HD 
HETATM   17  O   UNL     1      -8.378  11.787  68.943  1.00  0.00    -0.062 OA 
BRANCH  15  18
HETATM   18  CA  UNL     1      -8.782  12.412  66.619  1.00  0.00    -0.119 C  
BRANCH  18  19
HETATM   19  N   UNL     1      -8.286  13.713  67.059  1.00  0.00    -0.380 N  
HETATM   20  H   UNL     1      -7.315  13.961  66.871  1.00  0.00     0.000 HD 
BRANCH  19  21
HETATM   21  C   UNL     1      -9.082  14.607  67.712  1.00  0.00    -0.191 C  
HETATM   22  O   UNL     1      -9.723  14.308  68.718  1.00  0.00    -0.221 OA 
BRANCH  21  23
HETATM   23  N   UNL     1      -9.131  15.874  67.178  1.00  0.00    -0.204 N  
HETATM   24  C   UNL     1      -7.999  17.792  66.372  1.00  0.00    -0.271 C  
HETATM   25  N   UNL     1      -9.247  18.115  67.073  1.00  0.00    -0.263 N  
HETATM   26  C   UNL     1      -8.190  16.294  66.152  1.00  0.00    -0.169 C  
HETATM   27  O   UNL     1     -10.792  16.969  68.405  1.00  0.00    -0.367 OA 
HETATM   28  C   UNL     1      -9.842  16.978  67.646  1.00  0.00    -0.257 C  
BRANCH  25  29
HETATM   29  S   UNL     1      -9.810  19.671  67.124  1.00  0.00    -0.400 S  
HETATM   30  O   UNL     1     -10.577  19.897  65.916  1.00  0.00    -0.496 OA 
HETATM   31  C   UNL     1      -8.330  20.655  66.997  1.00  0.00    -0.174 C  
HETATM   32  O   UNL     1     -10.399  19.906  68.422  1.00  0.00    -0.450 OA 
ENDBRANCH  25  29
ENDBRANCH  21  23
ENDBRANCH  19  21
ENDBRANCH  18  19
BRANCH  18  33
HETATM   33  C   UNL     1     -10.094  12.521  65.855  1.00  0.00    -0.270 A  
HETATM   34  C   UNL     1     -12.479  12.667  64.367  1.00  0.00    -0.509 A  
HETATM   35  C   UNL     1     -10.066  12.610  64.449  1.00  0.00    -0.281 A  
HETATM   36  C   UNL     1     -11.250  12.687  63.715  1.00  0.00    -0.519 A  
HETATM   37  C   UNL     1     -12.527  12.568  65.755  1.00  0.00    -0.040 A  
HETATM   38  C   UNL     1     -11.345  12.498  66.495  1.00  0.00    -0.387 A  
ENDBRANCH  18  33
ENDBRANCH  15  18
ENDBRANCH  12  14
TORSDOF 7
ENDMDL
MODEL      152
REMARK 921   NORMALIZED FREE ENERGY PREDICTED BY IDOCK:   -4.55 KCAL/MOL
REMARK 922        TOTAL FREE ENERGY PREDICTED BY IDOCK:   -7.94 KCAL/MOL
REMARK 923 INTER-LIGAND FREE ENERGY PREDICTED BY IDOCK:   -6.99 KCAL/MOL
REMARK 924 INTRA-LIGAND FREE ENERGY PREDICTED BY IDOCK:   -0.95 KCAL/MOL
REMARK 927      BINDING AFFINITY PREDICTED BY RF-SCORE:    0.00 PKD
ROOT
HETATM    1  C   UNL     1      -7.194   5.353  66.701  1.00  0.00    -0.074 C  
HETATM    2  S   UNL     1      -8.384   3.978  66.924  1.00  0.00    -0.101 SA 
HETATM    3  C   UNL     1      -8.835   3.858  65.135  1.00  0.00    -0.126 C  
HETATM    4  CA  UNL     1      -7.664   4.521  64.367  1.00  0.00    -0.077 C  
HETATM    5  C   UNL     1     -10.157   4.628  64.945  1.00  0.00     0.027 C  
HETATM    6  C   UNL     1      -9.109   2.392  64.781  1.00  0.00    -0.129 C  
HETATM    7  C   UNL     1      -6.534   3.566  63.944  1.00  0.00    -0.034 C  
HETATM    8  N   UNL     1      -7.109   5.575  65.239  1.00  0.00    -0.064 N  
HETATM    9  OXT UNL     1      -6.684   2.596  63.213  1.00  0.00    -0.026 OA 
HETATM   10  O   UNL     1      -5.308   3.913  64.412  1.00  0.00    -0.009 OA 
HETATM   11  C   UNL     1      -7.752   6.789  65.299  1.00  0.00    -0.106 C  
HETATM   12  CA  UNL     1      -7.715   6.807  66.845  1.00  0.00    -0.103 C  
HETATM   13  O   UNL     1      -8.287   7.434  64.429  1.00  0.00    -0.048 OA 
ENDROOT
BRANCH  12  14
HETATM   14  N   UNL     1      -9.014   6.997  67.540  1.00  0.00    -0.118 N  
HETATM   15  C   UNL     1      -9.099   6.912  68.915  1.00  0.00    -0.134 C  
HETATM   16  H   UNL     1      -9.854   7.192  66.995  1.00  0.00     0.000 HD 
HETATM   17  O   UNL     1      -8.094   6.665  69.585  1.00  0.00    -0.121 OA 
BRANCH  15  18
HETATM   18  CA  UNL     1     -10.515   6.969  69.539  1.00  0.00    -0.220 C  
BRANCH  18  19
HETATM   19  N   UNL     1     -10.985   8.351  69.496  1.00  0.00    -0.420 N  
HETATM   20  H   UNL     1     -11.986   8.531  69.425  1.00  0.00     0.000 HD 
BRANCH  19  21
HETATM   21  C   UNL     1     -10.126   9.408  69.549  1.00  0.00    -0.205 C  
HETATM   22  O   UNL     1      -9.409   9.630  70.524  1.00  0.00    -0.253 OA 
BRANCH  21  23
HETATM   23  N   UNL     1     -10.104  10.224  68.441  1.00  0.00    -0.154 N  
HETATM   24  C   UNL     1      -9.010  11.882  67.151  1.00  0.00    -0.178 C  
HETATM   25  N   UNL     1     -10.472  12.011  67.129  1.00  0.00    -0.216 N  
HETATM   26  C   UNL     1      -8.869  10.471  67.714  1.00  0.00    -0.125 C  
HETATM   27  O   UNL     1     -12.276  11.075  68.289  1.00  0.00    -0.582 OA 
HETATM   28  C   UNL     1     -11.096  11.095  67.993  1.00  0.00    -0.276 C  
BRANCH  25  29
HETATM   29  S   UNL     1     -11.208  13.134  66.163  1.00  0.00    -0.303 S  
HETATM   30  O   UNL     1     -10.182  13.742  65.340  1.00  0.00    -0.317 OA 
HETATM   31  C   UNL     1     -11.762  14.378  67.313  1.00  0.00    -0.404 C  
HETATM   32  O   UNL     1     -12.372  12.530  65.557  1.00  0.00    -0.600 OA 
ENDBRANCH  25  29
ENDBRANCH  21  23
ENDBRANCH  19  21
ENDBRANCH  18  19
BRANCH  18  33
HETATM   33  C   UNL     1     -10.613   6.367  70.933  1.00  0.00    -0.285 A  
HETATM   34  C   UNL     1     -10.726   5.184  73.485  1.00  0.00    -0.339 A  
HETATM   35  C   UNL     1     -10.507   4.971  71.089  1.00  0.00    -0.205 A  
HETATM   36  C   UNL     1     -10.569   4.387  72.354  1.00  0.00    -0.172 A  
HETATM   37  C   UNL     1     -10.822   6.567  73.351  1.00  0.00    -0.249 A  
HETATM   38  C   UNL     1     -10.767   7.156  72.086  1.00  0.00    -0.245 A  
ENDBRANCH  18  33
ENDBRANCH  15  18
ENDBRANCH  12  14
TORSDOF 7
ENDMDL
MODEL      153
REMARK 921   NORMALIZED FREE ENERGY PREDICTED BY IDOCK:   -4.51 KCAL/MOL
REMARK 922        TOTAL FREE ENERGY PREDICTED BY IDOCK:   -7.88 KCAL/MOL
REMARK 923 INTER-LIGAND FREE ENERGY PREDICTED BY IDOCK:   -6.03 KCAL/MOL
REMARK 924 INTRA-LIGAND FREE ENERGY PREDICTED BY IDOCK:   -1.85 KCAL/MOL
REMARK 927      BINDING AFFINITY PREDICTED BY RF-SCORE:    0.00 PKD
ROOT
HETATM    1  C   UNL     1     -10.816  12.131  66.603  1.00  0.00    -0.268 C  
HETATM    2  S   UNL     1     -11.710  10.919  67.646  1.00  0.00     0.329 SA 
HETATM    3  C   UNL     1     -11.173  11.656  69.255  1.00  0.00    -0.265 C  
HETATM    4  CA  UNL     1     -10.763  13.113  68.925  1.00  0.00    -0.169 C  
HETATM    5  C   UNL     1      -9.980  10.823  69.762  1.00  0.00     0.111 C  
HETATM    6  C   UNL     1     -12.302  11.504  70.280  1.00  0.00    -0.355 C  
HETATM    7  C   UNL     1     -11.889  14.155  69.049  1.00  0.00    -0.348 C  
HETATM    8  N   UNL     1     -10.242  13.122  67.544  1.00  0.00    -0.223 N  
HETATM    9  OXT UNL     1     -12.510  14.385  70.078  1.00  0.00    -0.335 OA 
HETATM   10  O   UNL     1     -12.121  14.860  67.913  1.00  0.00    -0.257 OA 
HETATM   11  C   UNL     1      -8.949  12.711  67.323  1.00  0.00    -0.194 C  
HETATM   12  CA  UNL     1      -9.370  11.790  66.155  1.00  0.00    -0.225 C  
HETATM   13  O   UNL     1      -7.947  12.898  67.973  1.00  0.00    -0.134 OA 
ENDROOT
BRANCH  12  14
HETATM   14  N   UNL     1      -8.950  10.368  66.244  1.00  0.00    -0.152 N  
HETATM   15  C   UNL     1      -9.220   9.486  65.217  1.00  0.00    -0.247 C  
HETATM   16  H   UNL     1      -8.455  10.039  67.073  1.00  0.00     0.000 HD 
HETATM   17  O   UNL     1      -9.827   9.868  64.214  1.00  0.00    -0.203 OA 
BRANCH  15  18
HETATM   18  CA  UNL     1      -8.883   7.995  65.462  1.00  0.00    -0.061 C  
BRANCH  18  19
HETATM   19  N   UNL     1      -8.928   7.739  66.899  1.00  0.00    -0.128 N  
HETATM   20  H   UNL     1      -8.116   7.972  67.468  1.00  0.00     0.000 HD 
BRANCH  19  21
HETATM   21  C   UNL     1     -10.024   7.197  67.502  1.00  0.00    -0.167 C  
HETATM   22  O   UNL     1     -11.022   6.850  66.871  1.00  0.00    -0.377 OA 
BRANCH  21  23
HETATM   23  N   UNL     1      -9.954   7.059  68.869  1.00  0.00    -0.157 N  
HETATM   24  C   UNL     1     -10.953   7.330  70.999  1.00  0.00    -0.251 C  
HETATM   25  N   UNL     1      -9.500   7.538  71.017  1.00  0.00    -0.160 N  
HETATM   26  C   UNL     1     -11.115   6.650  69.643  1.00  0.00    -0.334 C  
HETATM   27  O   UNL     1      -7.800   7.775  69.427  1.00  0.00    -0.110 OA 
HETATM   28  C   UNL     1      -8.944   7.491  69.727  1.00  0.00    -0.141 C  
BRANCH  25  29
HETATM   29  S   UNL     1      -8.698   7.787  72.443  1.00  0.00    -0.151 S  
HETATM   30  O   UNL     1      -7.866   8.960  72.276  1.00  0.00    -0.361 OA 
HETATM   31  C   UNL     1      -7.606   6.383  72.559  1.00  0.00    -0.100 C  
HETATM   32  O   UNL     1      -9.650   7.710  73.527  1.00  0.00    -0.258 OA 
ENDBRANCH  25  29
ENDBRANCH  21  23
ENDBRANCH  19  21
ENDBRANCH  18  19
BRANCH  18  33
HETATM   33  C   UNL     1      -7.577   7.533  64.832  1.00  0.00    -0.100 A  
HETATM   34  C   UNL     1      -5.206   6.592  63.640  1.00  0.00    -0.026 A  
HETATM   35  C   UNL     1      -7.234   6.168  64.882  1.00  0.00    -0.063 A  
HETATM   36  C   UNL     1      -6.056   5.705  64.295  1.00  0.00    -0.025 A  
HETATM   37  C   UNL     1      -5.535   7.944  63.570  1.00  0.00    -0.053 A  
HETATM   38  C   UNL     1      -6.710   8.413  64.162  1.00  0.00    -0.071 A  
ENDBRANCH  18  33
ENDBRANCH  15  18
ENDBRANCH  12  14
TORSDOF 7
ENDMDL
MODEL      154
REMARK 921   NORMALIZED FREE ENERGY PREDICTED BY IDOCK:   -4.43 KCAL/MOL
REMARK 922        TOTAL FREE ENERGY PREDICTED BY IDOCK:   -7.77 KCAL/MOL
REMARK 923 INTER-LIGAND FREE ENERGY PREDICTED BY IDOCK:   -6.70 KCAL/MOL
REMARK 924 INTRA-LIGAND FREE ENERGY PREDICTED BY IDOCK:   -1.07 KCAL/MOL
REMARK 927      BINDING AFFINITY PREDICTED BY RF-SCORE:    0.00 PKD
ROOT
HETATM    1  C   UNL     1      -9.303   8.390  71.451  1.00  0.00    -0.190 C  
HETATM    2  S   UNL     1     -10.306   8.012  69.965  1.00  0.00    -0.222 SA 
HETATM    3  C   UNL     1      -9.422   6.439  69.564  1.00  0.00    -0.145 C  
HETATM    4  CA  UNL     1      -8.742   5.998  70.884  1.00  0.00    -0.135 C  
HETATM    5  C   UNL     1      -8.390   6.764  68.466  1.00  0.00    -0.120 C  
HETATM    6  C   UNL     1     -10.418   5.439  68.968  1.00  0.00    -0.252 C  
HETATM    7  C   UNL     1      -9.585   5.067  71.775  1.00  0.00    -0.154 C  
HETATM    8  N   UNL     1      -8.410   7.223  71.638  1.00  0.00    -0.108 N  
HETATM    9  OXT UNL     1     -10.004   3.971  71.429  1.00  0.00    -0.185 OA 
HETATM   10  O   UNL     1      -9.794   5.539  73.030  1.00  0.00    -0.160 OA 
HETATM   11  C   UNL     1      -7.279   7.924  71.294  1.00  0.00    -0.059 C  
HETATM   12  CA  UNL     1      -8.038   9.271  71.279  1.00  0.00     0.105 C  
HETATM   13  O   UNL     1      -6.188   7.530  70.957  1.00  0.00    -0.035 OA 
ENDROOT
BRANCH  12  14
HETATM   14  N   UNL     1      -7.936  10.078  70.035  1.00  0.00    -0.253 N  
HETATM   15  C   UNL     1      -6.851  10.902  69.814  1.00  0.00    -0.134 C  
HETATM   16  H   UNL     1      -8.677  10.022  69.336  1.00  0.00     0.000 HD 
HETATM   17  O   UNL     1      -5.954  10.987  70.657  1.00  0.00    -0.225 OA 
BRANCH  15  18
HETATM   18  CA  UNL     1      -6.904  11.818  68.568  1.00  0.00    -0.075 C  
BRANCH  18  19
HETATM   19  N   UNL     1      -7.802  12.935  68.852  1.00  0.00    -0.326 N  
HETATM   20  H   UNL     1      -8.698  12.747  69.301  1.00  0.00     0.000 HD 
BRANCH  19  21
HETATM   21  C   UNL     1      -7.479  14.220  68.533  1.00  0.00    -0.121 C  
HETATM   22  O   UNL     1      -6.394  14.721  68.826  1.00  0.00    -0.083 OA 
BRANCH  21  23
HETATM   23  N   UNL     1      -8.443  14.936  67.860  1.00  0.00    -0.147 N  
HETATM   24  C   UNL     1      -9.785  15.235  65.932  1.00  0.00    -0.355 C  
HETATM   25  N   UNL     1      -9.374  16.503  66.547  1.00  0.00    -0.252 N  
HETATM   26  C   UNL     1      -9.457  14.264  67.062  1.00  0.00    -0.254 C  
HETATM   27  O   UNL     1      -7.868  17.174  68.208  1.00  0.00    -0.208 OA 
HETATM   28  C   UNL     1      -8.483  16.308  67.616  1.00  0.00    -0.168 C  
BRANCH  25  29
HETATM   29  S   UNL     1      -9.951  17.946  65.979  1.00  0.00    -0.139 S  
HETATM   30  O   UNL     1      -8.815  18.822  65.779  1.00  0.00    -0.405 OA 
HETATM   31  C   UNL     1     -10.879  18.597  67.354  1.00  0.00    -0.324 C  
HETATM   32  O   UNL     1     -10.872  17.680  64.898  1.00  0.00    -0.831 OA 
ENDBRANCH  25  29
ENDBRANCH  21  23
ENDBRANCH  19  21
ENDBRANCH  18  19
BRANCH  18  33
HETATM   33  C   UNL     1      -7.262  11.102  67.275  1.00  0.00    -0.113 A  
HETATM   34  C   UNL     1      -7.858   9.702  64.906  1.00  0.00    -0.123 A  
HETATM   35  C   UNL     1      -6.260  10.399  66.577  1.00  0.00    -0.078 A  
HETATM   36  C   UNL     1      -6.557   9.711  65.401  1.00  0.00    -0.082 A  
HETATM   37  C   UNL     1      -8.865  10.381  65.588  1.00  0.00    -0.190 A  
HETATM   38  C   UNL     1      -8.571  11.077  66.762  1.00  0.00    -0.152 A  
ENDBRANCH  18  33
ENDBRANCH  15  18
ENDBRANCH  12  14
TORSDOF 7
ENDMDL
MODEL      155
REMARK 921   NORMALIZED FREE ENERGY PREDICTED BY IDOCK:   -4.43 KCAL/MOL
REMARK 922        TOTAL FREE ENERGY PREDICTED BY IDOCK:   -7.76 KCAL/MOL
REMARK 923 INTER-LIGAND FREE ENERGY PREDICTED BY IDOCK:   -6.37 KCAL/MOL
REMARK 924 INTRA-LIGAND FREE ENERGY PREDICTED BY IDOCK:   -1.39 KCAL/MOL
REMARK 927      BINDING AFFINITY PREDICTED BY RF-SCORE:    0.00 PKD
ROOT
HETATM    1  C   UNL     1      -8.943   5.273  72.821  1.00  0.00    -0.121 C  
HETATM    2  S   UNL     1     -10.077   4.067  72.035  1.00  0.00    -0.119 SA 
HETATM    3  C   UNL     1      -8.818   3.397  70.859  1.00  0.00    -0.084 C  
HETATM    4  CA  UNL     1      -7.443   3.756  71.475  1.00  0.00    -0.052 C  
HETATM    5  C   UNL     1      -9.042   4.098  69.505  1.00  0.00    -0.185 C  
HETATM    6  C   UNL     1      -9.075   1.902  70.644  1.00  0.00    -0.154 C  
HETATM    7  C   UNL     1      -6.847   2.690  72.412  1.00  0.00    -0.023 C  
HETATM    8  N   UNL     1      -7.612   5.019  72.221  1.00  0.00    -0.092 N  
HETATM    9  OXT UNL     1      -6.585   1.543  72.077  1.00  0.00    -0.014 OA 
HETATM   10  O   UNL     1      -6.575   3.139  73.663  1.00  0.00    -0.027 OA 
HETATM   11  C   UNL     1      -7.605   6.204  71.524  1.00  0.00    -0.099 C  
HETATM   12  CA  UNL     1      -8.879   6.709  72.239  1.00  0.00    -0.133 C  
HETATM   13  O   UNL     1      -6.933   6.553  70.583  1.00  0.00    -0.061 OA 
ENDROOT
BRANCH  12  14
HETATM   14  N   UNL     1     -10.004   7.139  71.369  1.00  0.00    -0.188 N  
HETATM   15  C   UNL     1      -9.990   8.376  70.755  1.00  0.00    -0.189 C  
HETATM   16  H   UNL     1     -10.797   6.514  71.222  1.00  0.00     0.000 HD 
HETATM   17  O   UNL     1      -9.044   9.146  70.933  1.00  0.00    -0.230 OA 
BRANCH  15  18
HETATM   18  CA  UNL     1     -11.270   8.800  69.995  1.00  0.00    -0.106 C  
BRANCH  18  19
HETATM   19  N   UNL     1     -10.995   8.756  68.562  1.00  0.00    -0.449 N  
HETATM   20  H   UNL     1     -11.152   9.593  68.002  1.00  0.00     0.000 HD 
BRANCH  19  21
HETATM   21  C   UNL     1     -10.534   7.628  67.950  1.00  0.00    -0.207 C  
HETATM   22  O   UNL     1     -11.046   6.523  68.128  1.00  0.00    -0.291 OA 
BRANCH  21  23
HETATM   23  N   UNL     1      -9.454   7.794  67.113  1.00  0.00    -0.147 N  
HETATM   24  C   UNL     1      -8.353   9.041  65.428  1.00  0.00    -0.144 C  
HETATM   25  N   UNL     1      -8.139   7.595  65.302  1.00  0.00    -0.128 N  
HETATM   26  C   UNL     1      -8.904   9.114  66.849  1.00  0.00    -0.123 C  
HETATM   27  O   UNL     1      -9.030   5.657  66.265  1.00  0.00    -0.131 OA 
HETATM   28  C   UNL     1      -8.895   6.866  66.236  1.00  0.00    -0.148 C  
BRANCH  25  29
HETATM   29  S   UNL     1      -7.103   6.989  64.163  1.00  0.00    -0.068 S  
HETATM   30  O   UNL     1      -6.071   6.250  64.861  1.00  0.00    -0.028 OA 
HETATM   31  C   UNL     1      -6.334   8.445  63.481  1.00  0.00    -0.080 C  
HETATM   32  O   UNL     1      -7.881   6.358  63.122  1.00  0.00    -0.097 OA 
ENDBRANCH  25  29
ENDBRANCH  21  23
ENDBRANCH  19  21
ENDBRANCH  18  19
BRANCH  18  33
HETATM   33  C   UNL     1     -11.847  10.139  70.432  1.00  0.00    -0.373 A  
HETATM   34  C   UNL     1     -12.908  12.585  71.338  1.00  0.00    -0.359 A  
HETATM   35  C   UNL     1     -12.710  10.186  71.545  1.00  0.00    -0.541 A  
HETATM   36  C   UNL     1     -13.238  11.399  71.988  1.00  0.00    -0.432 A  
HETATM   37  C   UNL     1     -12.048  12.559  70.242  1.00  0.00    -0.373 A  
HETATM   38  C   UNL     1     -11.522  11.347  69.791  1.00  0.00    -0.376 A  
ENDBRANCH  18  33
ENDBRANCH  15  18
ENDBRANCH  12  14
TORSDOF 7
ENDMDL
MODEL      156
REMARK 921   NORMALIZED FREE ENERGY PREDICTED BY IDOCK:   -4.37 KCAL/MOL
REMARK 922        TOTAL FREE ENERGY PREDICTED BY IDOCK:   -7.68 KCAL/MOL
REMARK 923 INTER-LIGAND FREE ENERGY PREDICTED BY IDOCK:   -5.38 KCAL/MOL
REMARK 924 INTRA-LIGAND FREE ENERGY PREDICTED BY IDOCK:   -2.30 KCAL/MOL
REMARK 927      BINDING AFFINITY PREDICTED BY RF-SCORE:    0.00 PKD
ROOT
HETATM    1  C   UNL     1     -10.699   9.389  70.224  1.00  0.00    -0.253 C  
HETATM    2  S   UNL     1     -11.735   8.012  69.601  1.00  0.00     0.856 SA 
HETATM    3  C   UNL     1     -12.196   7.380  71.277  1.00  0.00    -0.341 C  
HETATM    4  CA  UNL     1     -11.964   8.568  72.245  1.00  0.00    -0.385 C  
HETATM    5  C   UNL     1     -11.263   6.194  71.588  1.00  0.00    -0.342 C  
HETATM    6  C   UNL     1     -13.627   6.833  71.233  1.00  0.00    -0.024 C  
HETATM    7  C   UNL     1     -13.186   9.477  72.468  1.00  0.00    -0.276 C  
HETATM    8  N   UNL     1     -10.854   9.371  71.697  1.00  0.00    -0.351 N  
HETATM    9  OXT UNL     1     -14.258   9.099  72.922  1.00  0.00    -0.512 OA 
HETATM   10  O   UNL     1     -12.970  10.782  72.166  1.00  0.00    -0.424 OA 
HETATM   11  C   UNL     1      -9.564   8.948  71.914  1.00  0.00    -0.256 C  
HETATM   12  CA  UNL     1      -9.183   9.134  70.427  1.00  0.00    -0.233 C  
HETATM   13  O   UNL     1      -9.058   8.448  72.891  1.00  0.00    -0.254 OA 
ENDROOT
BRANCH  12  14
HETATM   14  N   UNL     1      -8.594   7.956  69.739  1.00  0.00    -0.132 N  
HETATM   15  C   UNL     1      -7.251   7.661  69.867  1.00  0.00    -0.072 C  
HETATM   16  H   UNL     1      -9.189   7.358  69.164  1.00  0.00     0.000 HD 
HETATM   17  O   UNL     1      -6.519   8.381  70.549  1.00  0.00    -0.035 OA 
BRANCH  15  18
HETATM   18  CA  UNL     1      -6.697   6.510  68.993  1.00  0.00    -0.053 C  
BRANCH  18  19
HETATM   19  N   UNL     1      -6.954   6.826  67.591  1.00  0.00    -0.080 N  
HETATM   20  H   UNL     1      -7.622   6.258  67.071  1.00  0.00     0.000 HD 
BRANCH  19  21
HETATM   21  C   UNL     1      -6.328   7.858  66.957  1.00  0.00    -0.055 C  
HETATM   22  O   UNL     1      -5.155   7.795  66.591  1.00  0.00    -0.023 OA 
BRANCH  21  23
HETATM   23  N   UNL     1      -7.087   8.986  66.746  1.00  0.00    -0.081 N  
HETATM   24  C   UNL     1      -7.872  11.086  67.508  1.00  0.00    -0.116 C  
HETATM   25  N   UNL     1      -8.869  10.355  66.717  1.00  0.00    -0.130 N  
HETATM   26  C   UNL     1      -6.614  10.298  67.159  1.00  0.00    -0.073 C  
HETATM   27  O   UNL     1      -9.098   8.190  65.859  1.00  0.00    -0.177 OA 
HETATM   28  C   UNL     1      -8.429   9.064  66.376  1.00  0.00    -0.120 C  
BRANCH  25  29
HETATM   29  S   UNL     1     -10.314  11.056  66.319  1.00  0.00    -0.250 S  
HETATM   30  O   UNL     1     -10.635  10.655  64.965  1.00  0.00    -0.255 OA 
HETATM   31  C   UNL     1      -9.936  12.797  66.275  1.00  0.00    -0.264 C  
HETATM   32  O   UNL     1     -11.250  10.824  67.395  1.00  0.00    -0.321 OA 
ENDBRANCH  25  29
ENDBRANCH  21  23
ENDBRANCH  19  21
ENDBRANCH  18  19
BRANCH  18  33
HETATM   33  C   UNL     1      -7.205   5.127  69.377  1.00  0.00    -0.057 A  
HETATM   34  C   UNL     1      -8.127   2.539  69.991  1.00  0.00    -0.057 A  
HETATM   35  C   UNL     1      -7.937   4.377  68.436  1.00  0.00    -0.078 A  
HETATM   36  C   UNL     1      -8.397   3.097  68.745  1.00  0.00    -0.085 A  
HETATM   37  C   UNL     1      -7.395   3.261  70.931  1.00  0.00    -0.037 A  
HETATM   38  C   UNL     1      -6.938   4.546  70.629  1.00  0.00    -0.037 A  
ENDBRANCH  18  33
ENDBRANCH  15  18
ENDBRANCH  12  14
TORSDOF 7
ENDMDL
MODEL      157
REMARK 921   NORMALIZED FREE ENERGY PREDICTED BY IDOCK:   -4.25 KCAL/MOL
REMARK 922        TOTAL FREE ENERGY PREDICTED BY IDOCK:   -7.52 KCAL/MOL
REMARK 923 INTER-LIGAND FREE ENERGY PREDICTED BY IDOCK:   -6.84 KCAL/MOL
REMARK 924 INTRA-LIGAND FREE ENERGY PREDICTED BY IDOCK:   -0.67 KCAL/MOL
REMARK 927      BINDING AFFINITY PREDICTED BY RF-SCORE:    0.00 PKD
ROOT
HETATM    1  C   UNL     1     -11.000  13.528  66.354  1.00  0.00    -0.293 C  
HETATM    2  S   UNL     1     -11.855  12.150  67.206  1.00  0.00    -0.110 SA 
HETATM    3  C   UNL     1     -11.038  12.432  68.840  1.00  0.00    -0.258 C  
HETATM    4  CA  UNL     1     -10.539  13.898  68.805  1.00  0.00    -0.246 C  
HETATM    5  C   UNL     1      -9.872  11.430  68.944  1.00  0.00    -0.127 C  
HETATM    6  C   UNL     1     -12.026  12.098  69.962  1.00  0.00    -0.391 C  
HETATM    7  C   UNL     1     -11.534  14.941  69.345  1.00  0.00    -0.299 C  
HETATM    8  N   UNL     1     -10.212  14.218  67.401  1.00  0.00    -0.247 N  
HETATM    9  OXT UNL     1     -11.983  14.946  70.482  1.00  0.00    -0.270 OA 
HETATM   10  O   UNL     1     -11.849  15.919  68.458  1.00  0.00    -0.366 OA 
HETATM   11  C   UNL     1      -9.006  13.799  66.892  1.00  0.00    -0.221 C  
HETATM   12  CA  UNL     1      -9.668  13.224  65.619  1.00  0.00    -0.083 C  
HETATM   13  O   UNL     1      -7.912  13.759  67.404  1.00  0.00    -0.166 OA 
ENDROOT
BRANCH  12  14
HETATM   14  N   UNL     1      -9.377  11.801  65.302  1.00  0.00    -0.410 N  
HETATM   15  C   UNL     1      -9.564  11.309  64.026  1.00  0.00    -0.232 C  
HETATM   16  H   UNL     1      -9.035  11.181  66.036  1.00  0.00     0.000 HD 
HETATM   17  O   UNL     1      -9.989  12.045  63.133  1.00  0.00    -0.407 OA 
BRANCH  15  18
HETATM   18  CA  UNL     1      -9.384   9.785  63.826  1.00  0.00    -0.120 C  
BRANCH  18  19
HETATM   19  N   UNL     1      -9.759   9.106  65.063  1.00  0.00    -0.367 N  
HETATM   20  H   UNL     1     -10.735   8.856  65.214  1.00  0.00     0.000 HD 
BRANCH  19  21
HETATM   21  C   UNL     1      -8.842   8.798  66.024  1.00  0.00    -0.175 C  
HETATM   22  O   UNL     1      -7.821   9.461  66.201  1.00  0.00    -0.099 OA 
BRANCH  21  23
HETATM   23  N   UNL     1      -9.122   7.691  66.793  1.00  0.00    -0.144 N  
HETATM   24  C   UNL     1      -8.868   6.504  68.825  1.00  0.00    -0.125 C  
HETATM   25  N   UNL     1      -8.952   5.623  67.654  1.00  0.00    -0.109 N  
HETATM   26  C   UNL     1      -9.368   7.812  68.221  1.00  0.00    -0.143 C  
HETATM   27  O   UNL     1      -8.900   5.882  65.329  1.00  0.00    -0.124 OA 
HETATM   28  C   UNL     1      -8.982   6.347  66.450  1.00  0.00    -0.153 C  
BRANCH  25  29
HETATM   29  S   UNL     1      -9.003   3.979  67.833  1.00  0.00    -0.136 S  
HETATM   30  O   UNL     1      -9.529   3.701  69.154  1.00  0.00    -0.168 OA 
HETATM   31  C   UNL     1      -7.285   3.505  67.842  1.00  0.00    -0.051 C  
HETATM   32  O   UNL     1      -9.623   3.406  66.661  1.00  0.00    -0.167 OA 
ENDBRANCH  25  29
ENDBRANCH  21  23
ENDBRANCH  19  21
ENDBRANCH  18  19
BRANCH  18  33
HETATM   33  C   UNL     1      -8.003   9.374  63.336  1.00  0.00    -0.143 A  
HETATM   34  C   UNL     1      -5.407   8.677  62.497  1.00  0.00    -0.071 A  
HETATM   35  C   UNL     1      -6.976  10.337  63.282  1.00  0.00    -0.102 A  
HETATM   36  C   UNL     1      -5.693   9.990  62.861  1.00  0.00    -0.112 A  
HETATM   37  C   UNL     1      -6.406   7.708  62.556  1.00  0.00    -0.071 A  
HETATM   38  C   UNL     1      -7.694   8.052  62.970  1.00  0.00    -0.136 A  
ENDBRANCH  18  33
ENDBRANCH  15  18
ENDBRANCH  12  14
TORSDOF 7
ENDMDL
MODEL      158
REMARK 921   NORMALIZED FREE ENERGY PREDICTED BY IDOCK:   -4.25 KCAL/MOL
REMARK 922        TOTAL FREE ENERGY PREDICTED BY IDOCK:   -7.51 KCAL/MOL
REMARK 923 INTER-LIGAND FREE ENERGY PREDICTED BY IDOCK:   -5.31 KCAL/MOL
REMARK 924 INTRA-LIGAND FREE ENERGY PREDICTED BY IDOCK:   -2.20 KCAL/MOL
REMARK 927      BINDING AFFINITY PREDICTED BY RF-SCORE:    0.00 PKD
ROOT
HETATM    1  C   UNL     1      -8.609  10.348  67.120  1.00  0.00    -0.130 C  
HETATM    2  S   UNL     1     -10.438  10.255  67.182  1.00  0.00    -0.252 SA 
HETATM    3  C   UNL     1     -10.618  11.455  68.577  1.00  0.00    -0.198 C  
HETATM    4  CA  UNL     1      -9.305  12.277  68.587  1.00  0.00    -0.009 C  
HETATM    5  C   UNL     1     -10.791  10.631  69.867  1.00  0.00    -0.301 C  
HETATM    6  C   UNL     1     -11.903  12.267  68.381  1.00  0.00    -0.358 C  
HETATM    7  C   UNL     1      -9.330  13.562  67.739  1.00  0.00    -0.213 C  
HETATM    8  N   UNL     1      -8.229  11.393  68.099  1.00  0.00    -0.136 N  
HETATM    9  OXT UNL     1     -10.109  14.490  67.910  1.00  0.00    -0.223 OA 
HETATM   10  O   UNL     1      -8.363  13.619  66.789  1.00  0.00    -0.072 OA 
HETATM   11  C   UNL     1      -7.667  10.492  68.972  1.00  0.00    -0.125 C  
HETATM   12  CA  UNL     1      -7.793   9.331  67.959  1.00  0.00    -0.092 C  
HETATM   13  O   UNL     1      -7.390  10.606  70.142  1.00  0.00    -0.155 OA 
ENDROOT
BRANCH  12  14
HETATM   14  N   UNL     1      -8.503   8.112  68.428  1.00  0.00    -0.126 N  
HETATM   15  C   UNL     1      -7.851   7.164  69.190  1.00  0.00    -0.118 C  
HETATM   16  H   UNL     1      -9.484   7.975  68.183  1.00  0.00     0.000 HD 
HETATM   17  O   UNL     1      -6.663   7.313  69.483  1.00  0.00    -0.043 OA 
BRANCH  15  18
HETATM   18  CA  UNL     1      -8.622   5.859  69.501  1.00  0.00    -0.117 C  
BRANCH  18  19
HETATM   19  N   UNL     1      -8.891   5.167  68.243  1.00  0.00    -0.101 N  
HETATM   20  H   UNL     1      -9.841   5.163  67.875  1.00  0.00     0.000 HD 
BRANCH  19  21
HETATM   21  C   UNL     1      -7.909   4.527  67.547  1.00  0.00    -0.089 C  
HETATM   22  O   UNL     1      -7.484   3.419  67.871  1.00  0.00    -0.057 OA 
BRANCH  21  23
HETATM   23  N   UNL     1      -7.413   5.195  66.451  1.00  0.00    -0.086 N  
HETATM   24  C   UNL     1      -6.000   6.868  65.550  1.00  0.00    -0.036 C  
HETATM   25  N   UNL     1      -7.251   6.708  64.798  1.00  0.00    -0.067 N  
HETATM   26  C   UNL     1      -6.015   5.588  66.380  1.00  0.00    -0.018 C  
HETATM   27  O   UNL     1      -9.281   5.586  65.101  1.00  0.00    -0.047 OA 
HETATM   28  C   UNL     1      -8.126   5.798  65.415  1.00  0.00    -0.131 C  
BRANCH  25  29
HETATM   29  S   UNL     1      -7.507   7.546  63.394  1.00  0.00    -0.107 S  
HETATM   30  O   UNL     1      -6.246   8.147  63.009  1.00  0.00    -0.079 OA 
HETATM   31  C   UNL     1      -8.590   8.871  63.889  1.00  0.00    -0.091 C  
HETATM   32  O   UNL     1      -8.225   6.695  62.474  1.00  0.00    -0.099 OA 
ENDBRANCH  25  29
ENDBRANCH  21  23
ENDBRANCH  19  21
ENDBRANCH  18  19
BRANCH  18  33
HETATM   33  C   UNL     1      -9.881   6.055  70.334  1.00  0.00    -0.222 A  
HETATM   34  C   UNL     1     -12.153   6.462  71.946  1.00  0.00    -0.362 A  
HETATM   35  C   UNL     1      -9.799   5.963  71.738  1.00  0.00    -0.192 A  
HETATM   36  C   UNL     1     -10.927   6.161  72.533  1.00  0.00    -0.296 A  
HETATM   37  C   UNL     1     -12.251   6.568  70.561  1.00  0.00    -0.106 A  
HETATM   38  C   UNL     1     -11.125   6.365  69.759  1.00  0.00    -0.459 A  
ENDBRANCH  18  33
ENDBRANCH  15  18
ENDBRANCH  12  14
TORSDOF 7
ENDMDL
MODEL      159
REMARK 921   NORMALIZED FREE ENERGY PREDICTED BY IDOCK:   -4.23 KCAL/MOL
REMARK 922        TOTAL FREE ENERGY PREDICTED BY IDOCK:   -7.49 KCAL/MOL
REMARK 923 INTER-LIGAND FREE ENERGY PREDICTED BY IDOCK:   -6.89 KCAL/MOL
REMARK 924 INTRA-LIGAND FREE ENERGY PREDICTED BY IDOCK:   -0.60 KCAL/MOL
REMARK 927      BINDING AFFINITY PREDICTED BY RF-SCORE:    0.00 PKD
ROOT
HETATM    1  C   UNL     1      -9.831  16.134  69.373  1.00  0.00    -0.232 C  
HETATM    2  S   UNL     1      -8.246  15.646  68.596  1.00  0.00    -0.182 SA 
HETATM    3  C   UNL     1      -8.682  16.279  66.915  1.00  0.00    -0.208 C  
HETATM    4  CA  UNL     1      -9.815  17.312  67.143  1.00  0.00    -0.269 C  
HETATM    5  C   UNL     1      -9.162  15.073  66.084  1.00  0.00    -0.294 C  
HETATM    6  C   UNL     1      -7.420  16.823  66.237  1.00  0.00    -0.238 C  
HETATM    7  C   UNL     1      -9.345  18.763  67.352  1.00  0.00    -0.286 C  
HETATM    8  N   UNL     1     -10.578  16.873  68.327  1.00  0.00    -0.347 N  
HETATM    9  OXT UNL     1      -8.696  19.405  66.538  1.00  0.00    -0.319 OA 
HETATM   10  O   UNL     1      -9.758  19.318  68.520  1.00  0.00    -0.361 OA 
HETATM   11  C   UNL     1     -11.518  15.881  68.176  1.00  0.00    -0.281 C  
HETATM   12  CA  UNL     1     -10.986  15.099  69.400  1.00  0.00    -0.264 C  
HETATM   13  O   UNL     1     -12.301  15.675  67.279  1.00  0.00     0.729 OA 
ENDROOT
BRANCH  12  14
HETATM   14  N   UNL     1     -10.627  13.675  69.175  1.00  0.00    -0.429 N  
HETATM   15  C   UNL     1     -11.596  12.692  69.180  1.00  0.00    -0.320 C  
HETATM   16  H   UNL     1      -9.652  13.420  69.014  1.00  0.00     0.000 HD 
HETATM   17  O   UNL     1     -12.776  12.985  69.384  1.00  0.00     0.274 OA 
BRANCH  15  18
HETATM   18  CA  UNL     1     -11.112  11.225  69.092  1.00  0.00    -0.253 C  
BRANCH  18  19
HETATM   19  N   UNL     1     -11.295  10.757  67.720  1.00  0.00    -0.314 N  
HETATM   20  H   UNL     1     -12.201  10.382  67.443  1.00  0.00     0.000 HD 
BRANCH  19  21
HETATM   21  C   UNL     1     -10.290  10.807  66.800  1.00  0.00    -0.243 C  
HETATM   22  O   UNL     1     -10.143  11.757  66.032  1.00  0.00    -0.217 OA 
BRANCH  21  23
HETATM   23  N   UNL     1      -9.440   9.725  66.775  1.00  0.00    -0.157 N  
HETATM   24  C   UNL     1      -8.989   7.473  67.353  1.00  0.00    -0.126 C  
HETATM   25  N   UNL     1      -7.793   8.323  67.381  1.00  0.00    -0.105 N  
HETATM   26  C   UNL     1      -9.947   8.376  66.581  1.00  0.00    -0.284 C  
HETATM   27  O   UNL     1      -7.336  10.615  67.268  1.00  0.00    -0.088 OA 
HETATM   28  C   UNL     1      -8.099   9.675  67.153  1.00  0.00    -0.110 C  
BRANCH  25  29
HETATM   29  S   UNL     1      -6.297   7.669  67.654  1.00  0.00    -0.052 S  
HETATM   30  O   UNL     1      -6.438   6.683  68.706  1.00  0.00    -0.042 OA 
HETATM   31  C   UNL     1      -5.364   9.028  68.332  1.00  0.00    -0.038 C  
HETATM   32  O   UNL     1      -5.712   7.309  66.383  1.00  0.00    -0.029 OA 
ENDBRANCH  25  29
ENDBRANCH  21  23
ENDBRANCH  19  21
ENDBRANCH  18  19
BRANCH  18  33
HETATM   33  C   UNL     1     -11.747  10.290  70.111  1.00  0.00    -0.364 A  
HETATM   34  C   UNL     1     -12.840   8.500  71.988  1.00  0.00    -0.414 A  
HETATM   35  C   UNL     1     -11.572   8.899  69.972  1.00  0.00     0.111 A  
HETATM   36  C   UNL     1     -12.120   8.014  70.901  1.00  0.00    -0.164 A  
HETATM   37  C   UNL     1     -13.013   9.872  72.149  1.00  0.00    -0.471 A  
HETATM   38  C   UNL     1     -12.473  10.762  71.218  1.00  0.00    -0.504 A  
ENDBRANCH  18  33
ENDBRANCH  15  18
ENDBRANCH  12  14
TORSDOF 7
ENDMDL
MODEL      160
REMARK 921   NORMALIZED FREE ENERGY PREDICTED BY IDOCK:   -4.18 KCAL/MOL
REMARK 922        TOTAL FREE ENERGY PREDICTED BY IDOCK:   -7.41 KCAL/MOL
REMARK 923 INTER-LIGAND FREE ENERGY PREDICTED BY IDOCK:   -6.12 KCAL/MOL
REMARK 924 INTRA-LIGAND FREE ENERGY PREDICTED BY IDOCK:   -1.30 KCAL/MOL
REMARK 927      BINDING AFFINITY PREDICTED BY RF-SCORE:    0.00 PKD
ROOT
HETATM    1  C   UNL     1     -11.154  10.601  65.687  1.00  0.00     0.320 C  
HETATM    2  S   UNL     1     -11.312  11.930  66.938  1.00  0.00    -0.316 SA 
HETATM    3  C   UNL     1     -10.682  13.273  65.834  1.00  0.00    -0.275 C  
HETATM    4  CA  UNL     1     -10.873  12.745  64.390  1.00  0.00    -0.368 C  
HETATM    5  C   UNL     1      -9.194  13.483  66.177  1.00  0.00     0.006 C  
HETATM    6  C   UNL     1     -11.412  14.579  66.162  1.00  0.00    -0.357 C  
HETATM    7  C   UNL     1     -12.218  13.107  63.734  1.00  0.00    -0.456 C  
HETATM    8  N   UNL     1     -10.735  11.276  64.437  1.00  0.00    -0.348 N  
HETATM    9  OXT UNL     1     -12.612  14.250  63.547  1.00  0.00    -0.814 OA 
HETATM   10  O   UNL     1     -12.938  12.035  63.316  1.00  0.00    -0.736 OA 
HETATM   11  C   UNL     1      -9.472  10.733  64.464  1.00  0.00    -0.252 C  
HETATM   12  CA  UNL     1      -9.831   9.792  65.638  1.00  0.00    -0.301 C  
HETATM   13  O   UNL     1      -8.466  11.064  63.884  1.00  0.00     0.032 OA 
ENDROOT
BRANCH  12  14
HETATM   14  N   UNL     1      -8.951   9.856  66.834  1.00  0.00    -0.138 N  
HETATM   15  C   UNL     1      -7.752   9.172  66.866  1.00  0.00    -0.098 C  
HETATM   16  H   UNL     1      -9.236  10.411  67.641  1.00  0.00     0.000 HD 
HETATM   17  O   UNL     1      -7.401   8.488  65.902  1.00  0.00    -0.075 OA 
BRANCH  15  18
HETATM   18  CA  UNL     1      -6.978   9.171  68.206  1.00  0.00    -0.076 C  
BRANCH  18  19
HETATM   19  N   UNL     1      -7.777   8.463  69.203  1.00  0.00    -0.091 N  
HETATM   20  H   UNL     1      -7.439   8.416  70.164  1.00  0.00     0.000 HD 
BRANCH  19  21
HETATM   21  C   UNL     1      -8.960   7.865  68.888  1.00  0.00    -0.141 C  
HETATM   22  O   UNL     1     -10.049   8.391  69.116  1.00  0.00    -0.192 OA 
BRANCH  21  23
HETATM   23  N   UNL     1      -8.871   6.626  68.295  1.00  0.00    -0.124 N  
HETATM   24  C   UNL     1      -9.895   4.580  67.684  1.00  0.00    -0.127 C  
HETATM   25  N   UNL     1      -8.482   4.427  68.052  1.00  0.00    -0.094 N  
HETATM   26  C   UNL     1      -9.967   6.093  67.501  1.00  0.00    -0.137 C  
HETATM   27  O   UNL     1      -6.830   5.761  69.036  1.00  0.00    -0.057 OA 
HETATM   28  C   UNL     1      -7.926   5.628  68.525  1.00  0.00    -0.100 C  
BRANCH  25  29
HETATM   29  S   UNL     1      -7.719   2.968  67.890  1.00  0.00    -0.056 S  
HETATM   30  O   UNL     1      -6.547   3.178  67.064  1.00  0.00    -0.036 OA 
HETATM   31  C   UNL     1      -8.867   1.999  66.932  1.00  0.00    -0.128 C  
HETATM   32  O   UNL     1      -7.597   2.363  69.196  1.00  0.00    -0.044 OA 
ENDBRANCH  25  29
ENDBRANCH  21  23
ENDBRANCH  19  21
ENDBRANCH  18  19
BRANCH  18  33
HETATM   33  C   UNL     1      -6.545  10.549  68.684  1.00  0.00    -0.052 A  
HETATM   34  C   UNL     1      -5.682  13.054  69.637  1.00  0.00    -0.103 A  
HETATM   35  C   UNL     1      -6.278  10.751  70.053  1.00  0.00    -0.119 A  
HETATM   36  C   UNL     1      -5.856  11.995  70.523  1.00  0.00    -0.122 A  
HETATM   37  C   UNL     1      -5.930  12.871  68.278  1.00  0.00    -0.079 A  
HETATM   38  C   UNL     1      -6.360  11.630  67.804  1.00  0.00    -0.067 A  
ENDBRANCH  18  33
ENDBRANCH  15  18
ENDBRANCH  12  14
TORSDOF 7
ENDMDL
MODEL      161
REMARK 921   NORMALIZED FREE ENERGY PREDICTED BY IDOCK:   -4.15 KCAL/MOL
REMARK 922        TOTAL FREE ENERGY PREDICTED BY IDOCK:   -7.36 KCAL/MOL
REMARK 923 INTER-LIGAND FREE ENERGY PREDICTED BY IDOCK:   -6.45 KCAL/MOL
REMARK 924 INTRA-LIGAND FREE ENERGY PREDICTED BY IDOCK:   -0.91 KCAL/MOL
REMARK 927      BINDING AFFINITY PREDICTED BY RF-SCORE:    0.00 PKD
ROOT
HETATM    1  C   UNL     1     -11.201  10.730  65.639  1.00  0.00     0.367 C  
HETATM    2  S   UNL     1     -11.209  11.850  67.089  1.00  0.00    -0.331 SA 
HETATM    3  C   UNL     1     -10.527  13.307  66.178  1.00  0.00    -0.293 C  
HETATM    4  CA  UNL     1     -10.816  13.031  64.681  1.00  0.00    -0.354 C  
HETATM    5  C   UNL     1      -9.015  13.360  66.472  1.00  0.00    -0.065 C  
HETATM    6  C   UNL     1     -11.145  14.590  66.744  1.00  0.00    -0.325 C  
HETATM    7  C   UNL     1     -12.156  13.582  64.161  1.00  0.00    -0.435 C  
HETATM    8  N   UNL     1     -10.785  11.568  64.490  1.00  0.00    -0.315 N  
HETATM    9  OXT UNL     1     -12.472  14.764  64.176  1.00  0.00    -0.758 OA 
HETATM   10  O   UNL     1     -12.970  12.642  63.618  1.00  0.00    -0.704 OA 
HETATM   11  C   UNL     1      -9.566  10.944  64.365  1.00  0.00    -0.265 C  
HETATM   12  CA  UNL     1      -9.944   9.854  65.394  1.00  0.00    -0.279 C  
HETATM   13  O   UNL     1      -8.562  11.297  63.793  1.00  0.00     0.137 OA 
ENDROOT
BRANCH  12  14
HETATM   14  N   UNL     1      -9.014   9.666  66.538  1.00  0.00    -0.144 N  
HETATM   15  C   UNL     1      -7.824   8.987  66.376  1.00  0.00    -0.099 C  
HETATM   16  H   UNL     1      -9.258  10.045  67.453  1.00  0.00     0.000 HD 
HETATM   17  O   UNL     1      -7.522   8.515  65.278  1.00  0.00    -0.082 OA 
BRANCH  15  18
HETATM   18  CA  UNL     1      -6.994   8.706  67.652  1.00  0.00    -0.075 C  
BRANCH  18  19
HETATM   19  N   UNL     1      -7.676   7.679  68.433  1.00  0.00    -0.117 N  
HETATM   20  H   UNL     1      -7.178   7.227  69.199  1.00  0.00     0.000 HD 
BRANCH  19  21
HETATM   21  C   UNL     1      -8.960   7.305  68.169  1.00  0.00    -0.132 C  
HETATM   22  O   UNL     1      -9.302   6.833  67.086  1.00  0.00    -0.129 OA 
BRANCH  21  23
HETATM   23  N   UNL     1      -9.864   7.486  69.191  1.00  0.00    -0.167 N  
HETATM   24  C   UNL     1     -11.904   6.894  70.237  1.00  0.00    -0.258 C  
HETATM   25  N   UNL     1     -11.596   8.325  70.351  1.00  0.00    -0.137 N  
HETATM   26  C   UNL     1     -10.546   6.355  69.801  1.00  0.00    -0.254 C  
HETATM   27  O   UNL     1     -10.044   9.806  69.417  1.00  0.00    -0.184 OA 
HETATM   28  C   UNL     1     -10.446   8.677  69.625  1.00  0.00    -0.220 C  
BRANCH  25  29
HETATM   29  S   UNL     1     -12.551   9.326  71.258  1.00  0.00    -0.282 S  
HETATM   30  O   UNL     1     -11.835  10.574  71.429  1.00  0.00    -0.298 OA 
HETATM   31  C   UNL     1     -12.599   8.529  72.851  1.00  0.00     0.174 C  
HETATM   32  O   UNL     1     -13.886   9.316  70.707  1.00  0.00    -0.029 OA 
ENDBRANCH  25  29
ENDBRANCH  21  23
ENDBRANCH  19  21
ENDBRANCH  18  19
BRANCH  18  33
HETATM   33  C   UNL     1      -6.673   9.943  68.479  1.00  0.00    -0.055 A  
HETATM   34  C   UNL     1      -6.024  12.173  70.070  1.00  0.00    -0.156 A  
HETATM   35  C   UNL     1      -6.564   9.827  69.878  1.00  0.00    -0.071 A  
HETATM   36  C   UNL     1      -6.247  10.934  70.665  1.00  0.00    -0.003 A  
HETATM   37  C   UNL     1      -6.116  12.305  68.687  1.00  0.00    -0.057 A  
HETATM   38  C   UNL     1      -6.439  11.201  67.896  1.00  0.00    -0.058 A  
ENDBRANCH  18  33
ENDBRANCH  15  18
ENDBRANCH  12  14
TORSDOF 7
ENDMDL
MODEL      162
REMARK 921   NORMALIZED FREE ENERGY PREDICTED BY IDOCK:   -4.12 KCAL/MOL
REMARK 922        TOTAL FREE ENERGY PREDICTED BY IDOCK:   -7.32 KCAL/MOL
REMARK 923 INTER-LIGAND FREE ENERGY PREDICTED BY IDOCK:   -5.62 KCAL/MOL
REMARK 924 INTRA-LIGAND FREE ENERGY PREDICTED BY IDOCK:   -1.70 KCAL/MOL
REMARK 927      BINDING AFFINITY PREDICTED BY RF-SCORE:    0.00 PKD
ROOT
HETATM    1  C   UNL     1      -8.419   9.235  67.721  1.00  0.00    -0.116 C  
HETATM    2  S   UNL     1     -10.236   9.008  67.776  1.00  0.00    -0.243 SA 
HETATM    3  C   UNL     1     -10.523  10.278  69.089  1.00  0.00    -0.224 C  
HETATM    4  CA  UNL     1      -9.275  11.196  69.056  1.00  0.00    -0.031 C  
HETATM    5  C   UNL     1     -10.649   9.527  70.429  1.00  0.00    -0.333 C  
HETATM    6  C   UNL     1     -11.863  10.975  68.832  1.00  0.00    -0.378 C  
HETATM    7  C   UNL     1      -9.387  12.418  68.126  1.00  0.00    -0.209 C  
HETATM    8  N   UNL     1      -8.130  10.366  68.633  1.00  0.00    -0.111 N  
HETATM    9  OXT UNL     1     -10.235  13.293  68.230  1.00  0.00    -0.239 OA 
HETATM   10  O   UNL     1      -8.415  12.487  67.181  1.00  0.00    -0.179 OA 
HETATM   11  C   UNL     1      -7.513   9.569  69.568  1.00  0.00    -0.092 C  
HETATM   12  CA  UNL     1      -7.538   8.339  68.631  1.00  0.00    -0.099 C  
HETATM   13  O   UNL     1      -7.260   9.778  70.730  1.00  0.00    -0.270 OA 
ENDROOT
BRANCH  12  14
HETATM   14  N   UNL     1      -8.160   7.103  69.173  1.00  0.00    -0.119 N  
HETATM   15  C   UNL     1      -7.412   6.191  69.889  1.00  0.00    -0.080 C  
HETATM   16  H   UNL     1      -9.153   6.925  69.013  1.00  0.00     0.000 HD 
HETATM   17  O   UNL     1      -6.210   6.387  70.080  1.00  0.00    -0.032 OA 
BRANCH  15  18
HETATM   18  CA  UNL     1      -8.105   4.863  70.280  1.00  0.00    -0.077 C  
BRANCH  18  19
HETATM   19  N   UNL     1      -8.647   4.249  69.071  1.00  0.00    -0.082 N  
HETATM   20  H   UNL     1      -9.635   4.374  68.854  1.00  0.00     0.000 HD 
BRANCH  19  21
HETATM   21  C   UNL     1      -7.872   3.514  68.225  1.00  0.00    -0.067 C  
HETATM   22  O   UNL     1      -7.027   2.715  68.627  1.00  0.00    -0.043 OA 
BRANCH  21  23
HETATM   23  N   UNL     1      -8.087   3.716  66.880  1.00  0.00    -0.094 N  
HETATM   24  C   UNL     1      -8.775   5.140  65.118  1.00  0.00    -0.151 C  
HETATM   25  N   UNL     1      -9.129   3.734  64.890  1.00  0.00    -0.132 N  
HETATM   26  C   UNL     1      -7.766   4.988  66.252  1.00  0.00    -0.092 C  
HETATM   27  O   UNL     1      -9.137   1.761  66.148  1.00  0.00    -0.114 OA 
HETATM   28  C   UNL     1      -8.820   2.925  65.997  1.00  0.00    -0.142 C  
BRANCH  25  29
HETATM   29  S   UNL     1      -9.807   3.252  63.459  1.00  0.00    -0.159 S  
HETATM   30  O   UNL     1      -8.966   2.209  62.908  1.00  0.00    -0.083 OA 
HETATM   31  C   UNL     1      -9.625   4.681  62.409  1.00  0.00    -0.040 C  
HETATM   32  O   UNL     1     -11.217   3.023  63.671  1.00  0.00    -0.279 OA 
ENDBRANCH  25  29
ENDBRANCH  21  23
ENDBRANCH  19  21
ENDBRANCH  18  19
BRANCH  18  33
HETATM   33  C   UNL     1      -9.149   4.997  71.379  1.00  0.00    -0.174 A  
HETATM   34  C   UNL     1     -11.055   5.153  73.445  1.00  0.00    -0.385 A  
HETATM   35  C   UNL     1      -9.879   3.861  71.778  1.00  0.00    -0.249 A  
HETATM   36  C   UNL     1     -10.827   3.942  72.798  1.00  0.00    -0.116 A  
HETATM   37  C   UNL     1     -10.335   6.286  73.072  1.00  0.00    -0.230 A  
HETATM   38  C   UNL     1      -9.390   6.211  72.047  1.00  0.00    -0.154 A  
ENDBRANCH  18  33
ENDBRANCH  15  18
ENDBRANCH  12  14
TORSDOF 7
ENDMDL
MODEL      163
REMARK 921   NORMALIZED FREE ENERGY PREDICTED BY IDOCK:   -4.10 KCAL/MOL
REMARK 922        TOTAL FREE ENERGY PREDICTED BY IDOCK:   -7.30 KCAL/MOL
REMARK 923 INTER-LIGAND FREE ENERGY PREDICTED BY IDOCK:   -6.12 KCAL/MOL
REMARK 924 INTRA-LIGAND FREE ENERGY PREDICTED BY IDOCK:   -1.18 KCAL/MOL
REMARK 927      BINDING AFFINITY PREDICTED BY RF-SCORE:    0.00 PKD
ROOT
HETATM    1  C   UNL     1     -10.804  12.251  68.577  1.00  0.00    -0.237 C  
HETATM    2  S   UNL     1      -9.128  12.965  68.379  1.00  0.00    -0.068 SA 
HETATM    3  C   UNL     1      -9.677  14.386  67.332  1.00  0.00    -0.220 C  
HETATM    4  CA  UNL     1     -11.191  14.550  67.616  1.00  0.00    -0.322 C  
HETATM    5  C   UNL     1      -9.405  14.002  65.864  1.00  0.00    -0.006 C  
HETATM    6  C   UNL     1      -8.810  15.610  67.649  1.00  0.00    -0.181 C  
HETATM    7  C   UNL     1     -11.541  15.515  68.763  1.00  0.00    -0.378 C  
HETATM    8  N   UNL     1     -11.727  13.210  67.927  1.00  0.00    -0.341 N  
HETATM    9  OXT UNL     1     -11.239  16.699  68.789  1.00  0.00    -0.308 OA 
HETATM   10  O   UNL     1     -12.279  14.953  69.755  1.00  0.00    -0.309 OA 
HETATM   11  C   UNL     1     -12.017  12.358  66.887  1.00  0.00    -0.196 C  
HETATM   12  CA  UNL     1     -11.272  11.180  67.557  1.00  0.00    -0.301 C  
HETATM   13  O   UNL     1     -12.506  12.582  65.806  1.00  0.00    -0.626 OA 
ENDROOT
BRANCH  12  14
HETATM   14  N   UNL     1     -10.223  10.510  66.747  1.00  0.00    -0.226 N  
HETATM   15  C   UNL     1     -10.110   9.134  66.736  1.00  0.00    -0.271 C  
HETATM   16  H   UNL     1      -9.577  11.072  66.192  1.00  0.00     0.000 HD 
HETATM   17  O   UNL     1     -10.876   8.443  67.411  1.00  0.00    -0.213 OA 
BRANCH  15  18
HETATM   18  CA  UNL     1      -8.895   8.532  65.989  1.00  0.00    -0.173 C  
BRANCH  18  19
HETATM   19  N   UNL     1      -7.805   8.353  66.944  1.00  0.00    -0.095 N  
HETATM   20  H   UNL     1      -7.556   9.125  67.561  1.00  0.00     0.000 HD 
BRANCH  19  21
HETATM   21  C   UNL     1      -7.111   7.183  67.037  1.00  0.00    -0.090 C  
HETATM   22  O   UNL     1      -6.092   7.071  67.716  1.00  0.00    -0.030 OA 
BRANCH  21  23
HETATM   23  N   UNL     1      -7.618   6.122  66.321  1.00  0.00    -0.089 N  
HETATM   24  C   UNL     1      -8.288   3.853  66.239  1.00  0.00    -0.105 C  
HETATM   25  N   UNL     1      -7.681   4.316  64.986  1.00  0.00    -0.084 N  
HETATM   26  C   UNL     1      -8.557   5.189  66.924  1.00  0.00    -0.105 C  
HETATM   27  O   UNL     1      -6.501   6.206  64.269  1.00  0.00    -0.032 OA 
HETATM   28  C   UNL     1      -7.182   5.626  65.093  1.00  0.00    -0.070 C  
BRANCH  25  29
HETATM   29  S   UNL     1      -7.638   3.337  63.653  1.00  0.00    -0.064 S  
HETATM   30  O   UNL     1      -8.075   2.019  64.066  1.00  0.00    -0.072 OA 
HETATM   31  C   UNL     1      -5.900   3.219  63.276  1.00  0.00    -0.013 C  
HETATM   32  O   UNL     1      -8.292   4.017  62.559  1.00  0.00    -0.074 OA 
ENDBRANCH  25  29
ENDBRANCH  21  23
ENDBRANCH  19  21
ENDBRANCH  18  19
BRANCH  18  33
HETATM   33  C   UNL     1      -8.462   9.316  64.758  1.00  0.00    -0.189 A  
HETATM   34  C   UNL     1      -7.574  10.713  62.481  1.00  0.00    -0.136 A  
HETATM   35  C   UNL     1      -7.105   9.661  64.604  1.00  0.00    -0.120 A  
HETATM   36  C   UNL     1      -6.669  10.358  63.477  1.00  0.00    -0.028 A  
HETATM   37  C   UNL     1      -8.918  10.371  62.611  1.00  0.00    -0.277 A  
HETATM   38  C   UNL     1      -9.360   9.679  63.740  1.00  0.00    -0.069 A  
ENDBRANCH  18  33
ENDBRANCH  15  18
ENDBRANCH  12  14
TORSDOF 7
ENDMDL
MODEL      164
REMARK 921   NORMALIZED FREE ENERGY PREDICTED BY IDOCK:   -4.09 KCAL/MOL
REMARK 922        TOTAL FREE ENERGY PREDICTED BY IDOCK:   -7.29 KCAL/MOL
REMARK 923 INTER-LIGAND FREE ENERGY PREDICTED BY IDOCK:   -5.72 KCAL/MOL
REMARK 924 INTRA-LIGAND FREE ENERGY PREDICTED BY IDOCK:   -1.57 KCAL/MOL
REMARK 927      BINDING AFFINITY PREDICTED BY RF-SCORE:    0.00 PKD
ROOT
HETATM    1  C   UNL     1      -7.924   9.960  67.266  1.00  0.00    -0.109 C  
HETATM    2  S   UNL     1      -7.665   8.148  67.343  1.00  0.00    -0.103 SA 
HETATM    3  C   UNL     1      -8.967   7.741  66.095  1.00  0.00    -0.163 C  
HETATM    4  CA  UNL     1      -9.183   9.043  65.283  1.00  0.00    -0.140 C  
HETATM    5  C   UNL     1     -10.232   7.332  66.874  1.00  0.00    -0.340 C  
HETATM    6  C   UNL     1      -8.521   6.521  65.281  1.00  0.00    -0.091 C  
HETATM    7  C   UNL     1      -8.303   9.185  64.028  1.00  0.00    -0.180 C  
HETATM    8  N   UNL     1      -8.921  10.176  66.191  1.00  0.00    -0.147 N  
HETATM    9  OXT UNL     1      -8.304   8.401  63.089  1.00  0.00    -0.163 OA 
HETATM   10  O   UNL     1      -7.537  10.305  64.010  1.00  0.00    -0.142 OA 
HETATM   11  C   UNL     1      -9.909  10.563  67.066  1.00  0.00    -0.183 C  
HETATM   12  CA  UNL     1      -8.927  10.602  68.260  1.00  0.00    -0.143 C  
HETATM   13  O   UNL     1     -11.105  10.630  66.915  1.00  0.00    -0.220 OA 
ENDROOT
BRANCH  12  14
HETATM   14  N   UNL     1      -9.301   9.804  69.457  1.00  0.00    -0.199 N  
HETATM   15  C   UNL     1      -8.430   9.674  70.520  1.00  0.00    -0.080 C  
HETATM   16  H   UNL     1     -10.213   9.348  69.493  1.00  0.00     0.000 HD 
HETATM   17  O   UNL     1      -7.321  10.211  70.483  1.00  0.00    -0.292 OA 
BRANCH  15  18
HETATM   18  CA  UNL     1      -8.841   8.701  71.651  1.00  0.00    -0.223 C  
BRANCH  18  19
HETATM   19  N   UNL     1      -7.824   7.658  71.759  1.00  0.00    -0.085 N  
HETATM   20  H   UNL     1      -7.131   7.565  71.017  1.00  0.00     0.000 HD 
BRANCH  19  21
HETATM   21  C   UNL     1      -7.773   6.806  72.822  1.00  0.00    -0.095 C  
HETATM   22  O   UNL     1      -7.998   7.173  73.974  1.00  0.00    -0.106 OA 
BRANCH  21  23
HETATM   23  N   UNL     1      -7.453   5.499  72.533  1.00  0.00    -0.095 N  
HETATM   24  C   UNL     1      -6.042   3.626  72.862  1.00  0.00    -0.012 C  
HETATM   25  N   UNL     1      -6.540   3.733  71.485  1.00  0.00    -0.025 N  
HETATM   26  C   UNL     1      -6.985   4.594  73.570  1.00  0.00    -0.070 C  
HETATM   27  O   UNL     1      -7.676   5.335  70.212  1.00  0.00    -0.069 OA 
HETATM   28  C   UNL     1      -7.276   4.913  71.280  1.00  0.00    -0.060 C  
BRANCH  25  29
HETATM   29  S   UNL     1      -6.223   2.548  70.375  1.00  0.00    -0.024 S  
HETATM   30  O   UNL     1      -5.713   3.193  69.183  1.00  0.00    -0.020 OA 
HETATM   31  C   UNL     1      -7.837   1.907  69.975  1.00  0.00    -0.042 C  
HETATM   32  O   UNL     1      -5.468   1.500  71.023  1.00  0.00    -0.004 OA 
ENDBRANCH  25  29
ENDBRANCH  21  23
ENDBRANCH  19  21
ENDBRANCH  18  19
BRANCH  18  33
HETATM   33  C   UNL     1     -10.244   8.128  71.510  1.00  0.00    -0.261 A  
HETATM   34  C   UNL     1     -12.877   7.162  71.262  1.00  0.00    -0.399 A  
HETATM   35  C   UNL     1     -11.293   8.680  72.272  1.00  0.00    -0.411 A  
HETATM   36  C   UNL     1     -12.595   8.196  72.151  1.00  0.00    -0.349 A  
HETATM   37  C   UNL     1     -11.855   6.611  70.492  1.00  0.00    -0.430 A  
HETATM   38  C   UNL     1     -10.548   7.088  70.615  1.00  0.00    -0.246 A  
ENDBRANCH  18  33
ENDBRANCH  15  18
ENDBRANCH  12  14
TORSDOF 7
ENDMDL
MODEL      165
REMARK 921   NORMALIZED FREE ENERGY PREDICTED BY IDOCK:   -4.05 KCAL/MOL
REMARK 922        TOTAL FREE ENERGY PREDICTED BY IDOCK:   -7.23 KCAL/MOL
REMARK 923 INTER-LIGAND FREE ENERGY PREDICTED BY IDOCK:   -5.67 KCAL/MOL
REMARK 924 INTRA-LIGAND FREE ENERGY PREDICTED BY IDOCK:   -1.56 KCAL/MOL
REMARK 927      BINDING AFFINITY PREDICTED BY RF-SCORE:    0.00 PKD
ROOT
HETATM    1  C   UNL     1      -7.612   5.351  71.201  1.00  0.00    -0.097 C  
HETATM    2  S   UNL     1      -8.627   6.420  72.288  1.00  0.00    -0.116 SA 
HETATM    3  C   UNL     1     -10.071   5.268  72.352  1.00  0.00    -0.182 C  
HETATM    4  CA  UNL     1      -9.508   3.876  71.968  1.00  0.00    -0.136 C  
HETATM    5  C   UNL     1     -11.103   5.774  71.326  1.00  0.00    -0.267 C  
HETATM    6  C   UNL     1     -10.726   5.357  73.735  1.00  0.00    -0.324 C  
HETATM    7  C   UNL     1      -9.022   3.018  73.151  1.00  0.00    -0.083 C  
HETATM    8  N   UNL     1      -8.386   4.099  71.035  1.00  0.00    -0.078 N  
HETATM    9  OXT UNL     1      -9.728   2.661  74.083  1.00  0.00    -0.091 OA 
HETATM   10  O   UNL     1      -7.725   2.630  73.058  1.00  0.00    -0.048 OA 
HETATM   11  C   UNL     1      -8.667   4.345  69.712  1.00  0.00    -0.073 C  
HETATM   12  CA  UNL     1      -7.709   5.558  69.667  1.00  0.00    -0.078 C  
HETATM   13  O   UNL     1      -9.508   3.867  68.989  1.00  0.00    -0.162 OA 
ENDROOT
BRANCH  12  14
HETATM   14  N   UNL     1      -8.284   6.843  69.191  1.00  0.00    -0.120 N  
HETATM   15  C   UNL     1      -7.468   7.917  68.898  1.00  0.00    -0.094 C  
HETATM   16  H   UNL     1      -9.294   6.933  69.079  1.00  0.00     0.000 HD 
HETATM   17  O   UNL     1      -6.246   7.825  69.039  1.00  0.00    -0.034 OA 
BRANCH  15  18
HETATM   18  CA  UNL     1      -8.162   9.258  68.558  1.00  0.00    -0.114 C  
BRANCH  18  19
HETATM   19  N   UNL     1      -9.156   9.015  67.517  1.00  0.00    -0.132 N  
HETATM   20  H   UNL     1      -9.122   8.141  66.994  1.00  0.00     0.000 HD 
BRANCH  19  21
HETATM   21  C   UNL     1     -10.129   9.923  67.221  1.00  0.00    -0.211 C  
HETATM   22  O   UNL     1     -10.184  10.505  66.138  1.00  0.00    -0.235 OA 
BRANCH  21  23
HETATM   23  N   UNL     1     -11.056  10.158  68.211  1.00  0.00    -0.253 N  
HETATM   24  C   UNL     1     -12.021  11.634  69.791  1.00  0.00    -0.332 C  
HETATM   25  N   UNL     1     -11.983  10.242  70.255  1.00  0.00    -0.270 N  
HETATM   26  C   UNL     1     -11.748  11.434  68.304  1.00  0.00    -0.288 C  
HETATM   27  O   UNL     1     -10.989   8.245  69.551  1.00  0.00    -0.171 OA 
HETATM   28  C   UNL     1     -11.302   9.404  69.357  1.00  0.00     0.110 C  
BRANCH  25  29
HETATM   29  S   UNL     1     -12.695   9.807  71.685  1.00  0.00    -0.451 S  
HETATM   30  O   UNL     1     -11.718   9.056  72.447  1.00  0.00    -0.290 OA 
HETATM   31  C   UNL     1     -13.965   8.661  71.188  1.00  0.00    -0.059 C  
HETATM   32  O   UNL     1     -13.334  10.971  72.255  1.00  0.00    -0.390 OA 
ENDBRANCH  25  29
ENDBRANCH  21  23
ENDBRANCH  19  21
ENDBRANCH  18  19
BRANCH  18  33
HETATM   33  C   UNL     1      -7.208  10.387  68.196  1.00  0.00    -0.087 A  
HETATM   34  C   UNL     1      -5.405  12.471  67.620  1.00  0.00    -0.111 A  
HETATM   35  C   UNL     1      -6.871  11.344  69.174  1.00  0.00    -0.111 A  
HETATM   36  C   UNL     1      -5.982  12.378  68.884  1.00  0.00    -0.070 A  
HETATM   37  C   UNL     1      -5.717  11.527  66.644  1.00  0.00    -0.139 A  
HETATM   38  C   UNL     1      -6.612  10.494  66.928  1.00  0.00    -0.081 A  
ENDBRANCH  18  33
ENDBRANCH  15  18
ENDBRANCH  12  14
TORSDOF 7
ENDMDL
MODEL      166
REMARK 921   NORMALIZED FREE ENERGY PREDICTED BY IDOCK:   -3.98 KCAL/MOL
REMARK 922        TOTAL FREE ENERGY PREDICTED BY IDOCK:   -7.13 KCAL/MOL
REMARK 923 INTER-LIGAND FREE ENERGY PREDICTED BY IDOCK:   -5.98 KCAL/MOL
REMARK 924 INTRA-LIGAND FREE ENERGY PREDICTED BY IDOCK:   -1.15 KCAL/MOL
REMARK 927      BINDING AFFINITY PREDICTED BY RF-SCORE:    0.00 PKD
ROOT
HETATM    1  C   UNL     1      -8.698  11.263  67.032  1.00  0.00    -0.152 C  
HETATM    2  S   UNL     1      -7.305  10.601  66.043  1.00  0.00    -0.109 SA 
HETATM    3  C   UNL     1      -8.375   9.784  64.775  1.00  0.00    -0.155 C  
HETATM    4  CA  UNL     1      -9.747  10.497  64.870  1.00  0.00    -0.300 C  
HETATM    5  C   UNL     1      -8.474   8.294  65.156  1.00  0.00    -0.164 C  
HETATM    6  C   UNL     1      -7.685   9.859  63.409  1.00  0.00    -0.145 C  
HETATM    7  C   UNL     1      -9.917  11.714  63.943  1.00  0.00    -0.327 C  
HETATM    8  N   UNL     1      -9.924  10.925  66.272  1.00  0.00    -0.219 N  
HETATM    9  OXT UNL     1      -9.836  11.673  62.723  1.00  0.00    -0.295 OA 
HETATM   10  O   UNL     1     -10.226  12.866  64.591  1.00  0.00    -0.327 OA 
HETATM   11  C   UNL     1     -10.345   9.999  67.197  1.00  0.00    -0.241 C  
HETATM   12  CA  UNL     1      -9.242  10.403  68.202  1.00  0.00    -0.145 C  
HETATM   13  O   UNL     1     -11.157   9.109  67.098  1.00  0.00    -0.003 OA 
ENDROOT
BRANCH  12  14
HETATM   14  N   UNL     1      -8.369   9.311  68.706  1.00  0.00    -0.116 N  
HETATM   15  C   UNL     1      -8.819   8.436  69.674  1.00  0.00    -0.141 C  
HETATM   16  H   UNL     1      -7.425   9.207  68.331  1.00  0.00     0.000 HD 
HETATM   17  O   UNL     1      -9.953   8.558  70.143  1.00  0.00    -0.177 OA 
BRANCH  15  18
HETATM   18  CA  UNL     1      -7.791   7.431  70.247  1.00  0.00    -0.095 C  
BRANCH  18  19
HETATM   19  N   UNL     1      -7.893   6.183  69.495  1.00  0.00    -0.098 N  
HETATM   20  H   UNL     1      -7.039   5.686  69.244  1.00  0.00     0.000 HD 
BRANCH  19  21
HETATM   21  C   UNL     1      -9.095   5.663  69.119  1.00  0.00    -0.112 C  
HETATM   22  O   UNL     1      -9.974   5.374  69.930  1.00  0.00    -0.183 OA 
BRANCH  21  23
HETATM   23  N   UNL     1      -9.275   5.475  67.767  1.00  0.00    -0.107 N  
HETATM   24  C   UNL     1     -10.653   4.779  65.972  1.00  0.00    -0.254 C  
HETATM   25  N   UNL     1      -9.233   4.484  65.752  1.00  0.00    -0.137 N  
HETATM   26  C   UNL     1     -10.551   5.764  67.133  1.00  0.00    -0.291 C  
HETATM   27  O   UNL     1      -7.274   4.518  67.032  1.00  0.00    -0.070 OA 
HETATM   28  C   UNL     1      -8.448   4.795  66.875  1.00  0.00    -0.105 C  
BRANCH  25  29
HETATM   29  S   UNL     1      -8.711   3.862  64.310  1.00  0.00    -0.115 S  
HETATM   30  O   UNL     1      -8.266   4.971  63.492  1.00  0.00    -0.104 OA 
HETATM   31  C   UNL     1     -10.201   3.226  63.566  1.00  0.00    -0.199 C  
HETATM   32  O   UNL     1      -7.830   2.749  64.579  1.00  0.00    -0.076 OA 
ENDBRANCH  25  29
ENDBRANCH  21  23
ENDBRANCH  19  21
ENDBRANCH  18  19
BRANCH  18  33
HETATM   33  C   UNL     1      -7.896   7.211  71.750  1.00  0.00    -0.093 A  
HETATM   34  C   UNL     1      -8.183   6.849  74.527  1.00  0.00    -0.171 A  
HETATM   35  C   UNL     1      -8.539   8.181  72.544  1.00  0.00    -0.255 A  
HETATM   36  C   UNL     1      -8.675   8.001  73.920  1.00  0.00    -0.308 A  
HETATM   37  C   UNL     1      -7.554   5.874  73.756  1.00  0.00    -0.096 A  
HETATM   38  C   UNL     1      -7.410   6.052  72.379  1.00  0.00    -0.090 A  
ENDBRANCH  18  33
ENDBRANCH  15  18
ENDBRANCH  12  14
TORSDOF 7
ENDMDL
MODEL      167
REMARK 921   NORMALIZED FREE ENERGY PREDICTED BY IDOCK:   -3.96 KCAL/MOL
REMARK 922        TOTAL FREE ENERGY PREDICTED BY IDOCK:   -7.11 KCAL/MOL
REMARK 923 INTER-LIGAND FREE ENERGY PREDICTED BY IDOCK:   -6.31 KCAL/MOL
REMARK 924 INTRA-LIGAND FREE ENERGY PREDICTED BY IDOCK:   -0.79 KCAL/MOL
REMARK 927      BINDING AFFINITY PREDICTED BY RF-SCORE:    0.00 PKD
ROOT
HETATM    1  C   UNL     1     -12.622  14.804  69.491  1.00  0.00     0.001 C  
HETATM    2  S   UNL     1     -12.360  13.808  67.976  1.00  0.00     0.265 SA 
HETATM    3  C   UNL     1     -11.160  12.635  68.753  1.00  0.00    -0.263 C  
HETATM    4  CA  UNL     1     -11.413  12.735  70.279  1.00  0.00     0.212 C  
HETATM    5  C   UNL     1      -9.745  13.112  68.372  1.00  0.00    -0.196 C  
HETATM    6  C   UNL     1     -11.350  11.242  68.143  1.00  0.00    -0.372 C  
HETATM    7  C   UNL     1     -12.446  11.740  70.837  1.00  0.00    -0.318 C  
HETATM    8  N   UNL     1     -11.863  14.112  70.560  1.00  0.00    -0.300 N  
HETATM    9  OXT UNL     1     -12.345  10.523  70.765  1.00  0.00    -0.315 OA 
HETATM   10  O   UNL     1     -13.487  12.324  71.483  1.00  0.00    -0.159 OA 
HETATM   11  C   UNL     1     -10.920  15.108  70.655  1.00  0.00    -0.225 C  
HETATM   12  CA  UNL     1     -11.720  16.045  69.720  1.00  0.00    -0.265 C  
HETATM   13  O   UNL     1      -9.817  15.097  71.146  1.00  0.00     0.860 OA 
ENDROOT
BRANCH  12  14
HETATM   14  N   UNL     1     -10.995  16.584  68.540  1.00  0.00    -0.347 N  
HETATM   15  C   UNL     1     -10.365  17.811  68.598  1.00  0.00    -0.350 C  
HETATM   16  H   UNL     1     -10.963  16.042  67.676  1.00  0.00     0.000 HD 
HETATM   17  O   UNL     1     -10.405  18.482  69.632  1.00  0.00     0.157 OA 
BRANCH  15  18
HETATM   18  CA  UNL     1      -9.769  18.360  67.279  1.00  0.00    -0.297 C  
BRANCH  18  19
HETATM   19  N   UNL     1      -9.507  17.236  66.385  1.00  0.00    -0.266 N  
HETATM   20  H   UNL     1      -8.623  16.736  66.465  1.00  0.00     0.000 HD 
BRANCH  19  21
HETATM   21  C   UNL     1     -10.410  16.835  65.445  1.00  0.00    -0.146 C  
HETATM   22  O   UNL     1     -11.003  17.630  64.716  1.00  0.00    -0.917 OA 
BRANCH  21  23
HETATM   23  N   UNL     1     -10.625  15.479  65.355  1.00  0.00    -0.380 N  
HETATM   24  C   UNL     1      -9.816  13.317  64.828  1.00  0.00     0.001 C  
HETATM   25  N   UNL     1     -11.236  13.492  64.501  1.00  0.00    -0.360 N  
HETATM   26  C   UNL     1      -9.590  14.528  65.728  1.00  0.00    -0.207 C  
HETATM   27  O   UNL     1     -12.741  15.279  64.383  1.00  0.00    -0.428 OA 
HETATM   28  C   UNL     1     -11.666  14.814  64.709  1.00  0.00    -0.422 C  
BRANCH  25  29
HETATM   29  S   UNL     1     -12.143  12.219  63.960  1.00  0.00    -0.488 S  
HETATM   30  O   UNL     1     -13.336  12.154  64.780  1.00  0.00    -0.488 OA 
HETATM   31  C   UNL     1     -11.151  10.796  64.367  1.00  0.00     0.464 C  
HETATM   32  O   UNL     1     -12.245  12.303  62.522  1.00  0.00     0.799 OA 
ENDBRANCH  25  29
ENDBRANCH  21  23
ENDBRANCH  19  21
ENDBRANCH  18  19
BRANCH  18  33
HETATM   33  C   UNL     1      -8.549  19.251  67.462  1.00  0.00    -0.325 A  
HETATM   34  C   UNL     1      -6.232  20.816  67.790  1.00  0.00    -0.357 A  
HETATM   35  C   UNL     1      -7.425  18.746  68.145  1.00  0.00    -0.289 A  
HETATM   36  C   UNL     1      -6.280  19.526  68.311  1.00  0.00    -0.258 A  
HETATM   37  C   UNL     1      -7.329  21.328  67.101  1.00  0.00    -0.067 A  
HETATM   38  C   UNL     1      -8.480  20.553  66.939  1.00  0.00    -0.267 A  
ENDBRANCH  18  33
ENDBRANCH  15  18
ENDBRANCH  12  14
TORSDOF 7
ENDMDL
MODEL      168
REMARK 921   NORMALIZED FREE ENERGY PREDICTED BY IDOCK:   -3.89 KCAL/MOL
REMARK 922        TOTAL FREE ENERGY PREDICTED BY IDOCK:   -7.00 KCAL/MOL
REMARK 923 INTER-LIGAND FREE ENERGY PREDICTED BY IDOCK:   -6.85 KCAL/MOL
REMARK 924 INTRA-LIGAND FREE ENERGY PREDICTED BY IDOCK:   -0.15 KCAL/MOL
REMARK 927      BINDING AFFINITY PREDICTED BY RF-SCORE:    0.00 PKD
ROOT
HETATM    1  C   UNL     1      -8.271   6.444  70.487  1.00  0.00    -0.118 C  
HETATM    2  S   UNL     1      -8.834   7.819  71.560  1.00  0.00    -0.133 SA 
HETATM    3  C   UNL     1     -10.560   7.184  71.751  1.00  0.00    -0.206 C  
HETATM    4  CA  UNL     1     -10.484   5.673  71.418  1.00  0.00    -0.239 C  
HETATM    5  C   UNL     1     -11.441   7.951  70.747  1.00  0.00    -0.273 C  
HETATM    6  C   UNL     1     -11.069   7.525  73.156  1.00  0.00    -0.378 C  
HETATM    7  C   UNL     1     -10.221   4.749  72.621  1.00  0.00    -0.189 C  
HETATM    8  N   UNL     1      -9.407   5.495  70.424  1.00  0.00    -0.156 N  
HETATM    9  OXT UNL     1     -10.947   4.667  73.602  1.00  0.00    -0.275 OA 
HETATM   10  O   UNL     1      -9.119   3.968  72.491  1.00  0.00    -0.108 OA 
HETATM   11  C   UNL     1      -9.676   5.769  69.104  1.00  0.00    -0.147 C  
HETATM   12  CA  UNL     1      -8.391   6.616  68.950  1.00  0.00    -0.120 C  
HETATM   13  O   UNL     1     -10.666   5.555  68.446  1.00  0.00    -0.182 OA 
ENDROOT
BRANCH  12  14
HETATM   14  N   UNL     1      -8.562   7.998  68.432  1.00  0.00    -0.127 N  
HETATM   15  C   UNL     1      -8.499   8.258  67.078  1.00  0.00    -0.122 C  
HETATM   16  H   UNL     1      -8.729   8.764  69.085  1.00  0.00     0.000 HD 
HETATM   17  O   UNL     1      -8.286   7.343  66.279  1.00  0.00    -0.118 OA 
BRANCH  15  18
HETATM   18  CA  UNL     1      -8.534   9.744  66.644  1.00  0.00    -0.124 C  
BRANCH  18  19
HETATM   19  N   UNL     1      -9.724  10.367  67.216  1.00  0.00    -0.162 N  
HETATM   20  H   UNL     1     -10.357   9.799  67.778  1.00  0.00     0.000 HD 
BRANCH  19  21
HETATM   21  C   UNL     1     -10.013  11.684  67.023  1.00  0.00    -0.204 C  
HETATM   22  O   UNL     1     -11.105  12.067  66.605  1.00  0.00    -0.278 OA 
BRANCH  21  23
HETATM   23  N   UNL     1      -9.007  12.574  67.322  1.00  0.00    -0.185 N  
HETATM   24  C   UNL     1      -7.522  13.513  68.910  1.00  0.00    -0.017 C  
HETATM   25  N   UNL     1      -7.991  14.487  67.918  1.00  0.00    -0.134 N  
HETATM   26  C   UNL     1      -7.928  12.210  68.227  1.00  0.00    -0.163 C  
HETATM   27  O   UNL     1      -9.627  14.554  66.247  1.00  0.00    -0.286 OA 
HETATM   28  C   UNL     1      -8.960  13.942  67.059  1.00  0.00    -0.240 C  
BRANCH  25  29
HETATM   29  S   UNL     1      -7.384  16.026  67.891  1.00  0.00    -0.140 S  
HETATM   30  O   UNL     1      -6.344  16.068  66.883  1.00  0.00    -0.306 OA 
HETATM   31  C   UNL     1      -6.585  16.189  69.476  1.00  0.00    -0.200 C  
HETATM   32  O   UNL     1      -8.488  16.957  67.845  1.00  0.00    -0.196 OA 
ENDBRANCH  25  29
ENDBRANCH  21  23
ENDBRANCH  19  21
ENDBRANCH  18  19
BRANCH  18  33
HETATM   33  C   UNL     1      -8.432   9.963  65.141  1.00  0.00    -0.158 A  
HETATM   34  C   UNL     1      -8.325  10.430  62.367  1.00  0.00    -0.214 A  
HETATM   35  C   UNL     1      -9.611  10.128  64.388  1.00  0.00    -0.366 A  
HETATM   36  C   UNL     1      -9.555  10.354  63.013  1.00  0.00    -0.341 A  
HETATM   37  C   UNL     1      -7.147  10.281  63.096  1.00  0.00    -0.110 A  
HETATM   38  C   UNL     1      -7.199  10.047  64.472  1.00  0.00    -0.139 A  
ENDBRANCH  18  33
ENDBRANCH  15  18
ENDBRANCH  12  14
TORSDOF 7
ENDMDL
MODEL      169
REMARK 921   NORMALIZED FREE ENERGY PREDICTED BY IDOCK:   -3.84 KCAL/MOL
REMARK 922        TOTAL FREE ENERGY PREDICTED BY IDOCK:   -6.94 KCAL/MOL
REMARK 923 INTER-LIGAND FREE ENERGY PREDICTED BY IDOCK:   -5.39 KCAL/MOL
REMARK 924 INTRA-LIGAND FREE ENERGY PREDICTED BY IDOCK:   -1.55 KCAL/MOL
REMARK 927      BINDING AFFINITY PREDICTED BY RF-SCORE:    0.00 PKD
ROOT
HETATM    1  C   UNL     1      -8.692  12.322  66.744  1.00  0.00    -0.175 C  
HETATM    2  S   UNL     1      -9.893  11.450  65.669  1.00  0.00    -0.245 SA 
HETATM    3  C   UNL     1     -11.313  12.565  66.066  1.00  0.00    -0.344 C  
HETATM    4  CA  UNL     1     -10.674  13.874  66.597  1.00  0.00    -0.281 C  
HETATM    5  C   UNL     1     -12.159  11.860  67.143  1.00  0.00     0.202 C  
HETATM    6  C   UNL     1     -12.196  12.719  64.823  1.00  0.00    -0.517 C  
HETATM    7  C   UNL     1     -10.389  14.944  65.527  1.00  0.00    -0.365 C  
HETATM    8  N   UNL     1      -9.412  13.507  67.267  1.00  0.00    -0.222 N  
HETATM    9  OXT UNL     1     -11.240  15.452  64.811  1.00  0.00    -0.413 OA 
HETATM   10  O   UNL     1      -9.090  15.334  65.465  1.00  0.00    -0.021 OA 
HETATM   11  C   UNL     1      -9.464  13.016  68.550  1.00  0.00    -0.097 C  
HETATM   12  CA  UNL     1      -8.527  11.835  68.207  1.00  0.00    -0.161 C  
HETATM   13  O   UNL     1     -10.162  13.337  69.482  1.00  0.00     0.386 OA 
ENDROOT
BRANCH  12  14
HETATM   14  N   UNL     1      -9.028  10.473  68.530  1.00  0.00    -0.140 N  
HETATM   15  C   UNL     1      -8.587   9.807  69.655  1.00  0.00    -0.191 C  
HETATM   16  H   UNL     1      -9.705  10.025  67.912  1.00  0.00     0.000 HD 
HETATM   17  O   UNL     1      -7.759  10.332  70.404  1.00  0.00    -0.194 OA 
BRANCH  15  18
HETATM   18  CA  UNL     1      -9.042   8.338  69.828  1.00  0.00    -0.147 C  
BRANCH  18  19
HETATM   19  N   UNL     1     -10.464   8.252  69.507  1.00  0.00    -0.226 N  
HETATM   20  H   UNL     1     -11.015   9.109  69.471  1.00  0.00     0.000 HD 
BRANCH  19  21
HETATM   21  C   UNL     1     -11.077   7.061  69.255  1.00  0.00    -0.127 C  
HETATM   22  O   UNL     1     -12.206   6.797  69.669  1.00  0.00     0.084 OA 
BRANCH  21  23
HETATM   23  N   UNL     1     -10.358   6.158  68.506  1.00  0.00    -0.184 N  
HETATM   24  C   UNL     1      -8.563   4.624  68.334  1.00  0.00    -0.097 C  
HETATM   25  N   UNL     1      -8.816   5.351  67.085  1.00  0.00    -0.110 N  
HETATM   26  C   UNL     1      -9.849   4.930  69.095  1.00  0.00    -0.193 C  
HETATM   27  O   UNL     1     -10.107   7.187  66.422  1.00  0.00    -0.122 OA 
HETATM   28  C   UNL     1      -9.803   6.339  67.240  1.00  0.00    -0.137 C  
BRANCH  25  29
HETATM   29  S   UNL     1      -7.986   4.975  65.704  1.00  0.00    -0.110 S  
HETATM   30  O   UNL     1      -7.452   6.210  65.166  1.00  0.00    -0.077 OA 
HETATM   31  C   UNL     1      -9.262   4.427  64.586  1.00  0.00    -0.156 C  
HETATM   32  O   UNL     1      -7.115   3.856  65.978  1.00  0.00    -0.064 OA 
ENDBRANCH  25  29
ENDBRANCH  21  23
ENDBRANCH  19  21
ENDBRANCH  18  19
BRANCH  18  33
HETATM   33  C   UNL     1      -8.718   7.734  71.187  1.00  0.00    -0.141 A  
HETATM   34  C   UNL     1      -8.020   6.638  73.685  1.00  0.00    -0.104 A  
HETATM   35  C   UNL     1      -7.510   7.029  71.357  1.00  0.00    -0.081 A  
HETATM   36  C   UNL     1      -7.170   6.483  72.594  1.00  0.00    -0.085 A  
HETATM   37  C   UNL     1      -9.214   7.342  73.539  1.00  0.00    -0.275 A  
HETATM   38  C   UNL     1      -9.562   7.885  72.301  1.00  0.00    -0.255 A  
ENDBRANCH  18  33
ENDBRANCH  15  18
ENDBRANCH  12  14
TORSDOF 7
ENDMDL
MODEL      170
REMARK 921   NORMALIZED FREE ENERGY PREDICTED BY IDOCK:   -3.83 KCAL/MOL
REMARK 922        TOTAL FREE ENERGY PREDICTED BY IDOCK:   -6.91 KCAL/MOL
REMARK 923 INTER-LIGAND FREE ENERGY PREDICTED BY IDOCK:   -5.86 KCAL/MOL
REMARK 924 INTRA-LIGAND FREE ENERGY PREDICTED BY IDOCK:   -1.05 KCAL/MOL
REMARK 927      BINDING AFFINITY PREDICTED BY RF-SCORE:    0.00 PKD
ROOT
HETATM    1  C   UNL     1      -7.018   9.408  66.507  1.00  0.00    -0.084 C  
HETATM    2  S   UNL     1      -6.883   7.584  66.623  1.00  0.00    -0.067 SA 
HETATM    3  C   UNL     1      -8.176   7.240  65.347  1.00  0.00    -0.137 C  
HETATM    4  CA  UNL     1      -8.282   8.537  64.506  1.00  0.00    -0.156 C  
HETATM    5  C   UNL     1      -9.486   6.932  66.097  1.00  0.00    -0.054 C  
HETATM    6  C   UNL     1      -7.791   5.978  64.567  1.00  0.00    -0.113 C  
HETATM    7  C   UNL     1      -7.362   8.596  63.273  1.00  0.00    -0.101 C  
HETATM    8  N   UNL     1      -7.969   9.668  65.401  1.00  0.00    -0.116 N  
HETATM    9  OXT UNL     1      -7.390   7.795  62.349  1.00  0.00    -0.087 OA 
HETATM   10  O   UNL     1      -6.522   9.662  63.258  1.00  0.00    -0.102 OA 
HETATM   11  C   UNL     1      -8.952  10.137  66.241  1.00  0.00    -0.148 C  
HETATM   12  CA  UNL     1      -8.002  10.134  67.461  1.00  0.00    -0.106 C  
HETATM   13  O   UNL     1     -10.137  10.281  66.055  1.00  0.00    -0.235 OA 
ENDROOT
BRANCH  12  14
HETATM   14  N   UNL     1      -8.461   9.387  68.660  1.00  0.00    -0.117 N  
HETATM   15  C   UNL     1      -8.059   9.766  69.926  1.00  0.00    -0.182 C  
HETATM   16  H   UNL     1      -9.080   8.584  68.548  1.00  0.00     0.000 HD 
HETATM   17  O   UNL     1      -7.302  10.727  70.075  1.00  0.00    -0.095 OA 
BRANCH  15  18
HETATM   18  CA  UNL     1      -8.460   8.839  71.099  1.00  0.00    -0.187 C  
BRANCH  18  19
HETATM   19  N   UNL     1      -8.000   7.486  70.800  1.00  0.00    -0.102 N  
HETATM   20  H   UNL     1      -8.213   7.081  69.889  1.00  0.00     0.000 HD 
BRANCH  19  21
HETATM   21  C   UNL     1      -7.293   6.747  71.702  1.00  0.00    -0.085 C  
HETATM   22  O   UNL     1      -6.390   7.227  72.385  1.00  0.00    -0.050 OA 
BRANCH  21  23
HETATM   23  N   UNL     1      -7.648   5.422  71.807  1.00  0.00    -0.095 N  
HETATM   24  C   UNL     1      -8.439   3.437  70.787  1.00  0.00    -0.069 C  
HETATM   25  N   UNL     1      -8.909   3.598  72.168  1.00  0.00    -0.091 N  
HETATM   26  C   UNL     1      -7.318   4.471  70.757  1.00  0.00    -0.052 C  
HETATM   27  O   UNL     1      -8.902   5.299  73.775  1.00  0.00    -0.119 OA 
HETATM   28  C   UNL     1      -8.528   4.836  72.714  1.00  0.00    -0.112 C  
BRANCH  25  29
HETATM   29  S   UNL     1      -9.777   2.402  72.912  1.00  0.00    -0.113 S  
HETATM   30  O   UNL     1     -10.327   1.553  71.875  1.00  0.00    -0.160 OA 
HETATM   31  C   UNL     1     -11.143   3.276  73.652  1.00  0.00    -0.222 C  
HETATM   32  O   UNL     1      -8.973   1.839  73.972  1.00  0.00    -0.060 OA 
ENDBRANCH  25  29
ENDBRANCH  21  23
ENDBRANCH  19  21
ENDBRANCH  18  19
BRANCH  18  33
HETATM   33  C   UNL     1      -9.938   8.881  71.457  1.00  0.00    -0.391 A  
HETATM   34  C   UNL     1     -12.694   8.984  72.024  1.00  0.00    -0.467 A  
HETATM   35  C   UNL     1     -10.770   9.835  70.838  1.00  0.00    -0.375 A  
HETATM   36  C   UNL     1     -12.134   9.887  71.125  1.00  0.00    -0.466 A  
HETATM   37  C   UNL     1     -11.890   8.026  72.637  1.00  0.00    -0.380 A  
HETATM   38  C   UNL     1     -10.523   7.974  72.359  1.00  0.00    -0.368 A  
ENDBRANCH  18  33
ENDBRANCH  15  18
ENDBRANCH  12  14
TORSDOF 7
ENDMDL
MODEL      171
REMARK 921   NORMALIZED FREE ENERGY PREDICTED BY IDOCK:   -3.75 KCAL/MOL
REMARK 922        TOTAL FREE ENERGY PREDICTED BY IDOCK:   -6.80 KCAL/MOL
REMARK 923 INTER-LIGAND FREE ENERGY PREDICTED BY IDOCK:   -5.57 KCAL/MOL
REMARK 924 INTRA-LIGAND FREE ENERGY PREDICTED BY IDOCK:   -1.23 KCAL/MOL
REMARK 927      BINDING AFFINITY PREDICTED BY RF-SCORE:    0.00 PKD
ROOT
HETATM    1  C   UNL     1     -11.383  14.051  66.326  1.00  0.00    -0.333 C  
HETATM    2  S   UNL     1     -10.120  13.830  65.018  1.00  0.00    -0.207 SA 
HETATM    3  C   UNL     1     -10.580  12.081  64.636  1.00  0.00    -0.307 C  
HETATM    4  CA  UNL     1     -12.028  11.911  65.160  1.00  0.00    -0.044 C  
HETATM    5  C   UNL     1      -9.587  11.174  65.387  1.00  0.00    -0.266 C  
HETATM    6  C   UNL     1     -10.386  11.824  63.137  1.00  0.00    -0.364 C  
HETATM    7  C   UNL     1     -13.136  12.219  64.135  1.00  0.00    -0.034 C  
HETATM    8  N   UNL     1     -12.182  12.804  66.325  1.00  0.00    -0.326 N  
HETATM    9  OXT UNL     1     -13.275  11.635  63.069  1.00  0.00    -0.411 OA 
HETATM   10  O   UNL     1     -14.007  13.180  64.532  1.00  0.00     1.574 OA 
HETATM   11  C   UNL     1     -11.697  12.389  67.543  1.00  0.00    -0.357 C  
HETATM   12  CA  UNL     1     -10.985  13.738  67.792  1.00  0.00    -0.256 C  
HETATM   13  O   UNL     1     -11.706  11.296  68.057  1.00  0.00    -0.501 OA 
ENDROOT
BRANCH  12  14
HETATM   14  N   UNL     1      -9.533  13.677  68.103  1.00  0.00    -0.212 N  
HETATM   15  C   UNL     1      -8.881  14.763  68.653  1.00  0.00    -0.180 C  
HETATM   16  H   UNL     1      -9.011  12.822  67.908  1.00  0.00     0.000 HD 
HETATM   17  O   UNL     1      -9.498  15.806  68.883  1.00  0.00    -0.201 OA 
BRANCH  15  18
HETATM   18  CA  UNL     1      -7.344  14.662  68.799  1.00  0.00    -0.131 C  
BRANCH  18  19
HETATM   19  N   UNL     1      -7.038  13.626  69.781  1.00  0.00    -0.322 N  
HETATM   20  H   UNL     1      -7.390  13.727  70.732  1.00  0.00     0.000 HD 
BRANCH  19  21
HETATM   21  C   UNL     1      -6.295  12.528  69.465  1.00  0.00    -0.112 C  
HETATM   22  O   UNL     1      -5.126  12.606  69.090  1.00  0.00    -0.067 OA 
BRANCH  21  23
HETATM   23  N   UNL     1      -6.930  11.313  69.588  1.00  0.00    -0.099 N  
HETATM   24  C   UNL     1      -8.930  10.046  69.552  1.00  0.00    -0.205 C  
HETATM   25  N   UNL     1      -7.962   9.560  70.542  1.00  0.00    -0.171 N  
HETATM   26  C   UNL     1      -8.033  10.950  68.712  1.00  0.00    -0.139 C  
HETATM   27  O   UNL     1      -5.951  10.321  71.464  1.00  0.00    -0.308 OA 
HETATM   28  C   UNL     1      -6.834  10.394  70.632  1.00  0.00     0.159 C  
BRANCH  25  29
HETATM   29  S   UNL     1      -8.252   8.176  71.401  1.00  0.00    -0.132 S  
HETATM   30  O   UNL     1      -7.549   7.096  70.739  1.00  0.00    -0.086 OA 
HETATM   31  C   UNL     1      -9.995   7.891  71.158  1.00  0.00    -0.173 C  
HETATM   32  O   UNL     1      -8.030   8.447  72.802  1.00  0.00    -0.245 OA 
ENDBRANCH  25  29
ENDBRANCH  21  23
ENDBRANCH  19  21
ENDBRANCH  18  19
BRANCH  18  33
HETATM   33  C   UNL     1      -6.654  15.982  69.115  1.00  0.00    -0.164 A  
HETATM   34  C   UNL     1      -5.298  18.369  69.736  1.00  0.00    -0.203 A  
HETATM   35  C   UNL     1      -5.842  16.076  70.262  1.00  0.00    -0.119 A  
HETATM   36  C   UNL     1      -5.175  17.262  70.570  1.00  0.00    -0.261 A  
HETATM   37  C   UNL     1      -6.087  18.292  68.591  1.00  0.00    -0.204 A  
HETATM   38  C   UNL     1      -6.762  17.108  68.282  1.00  0.00    -0.167 A  
ENDBRANCH  18  33
ENDBRANCH  15  18
ENDBRANCH  12  14
TORSDOF 7
ENDMDL
MODEL      172
REMARK 921   NORMALIZED FREE ENERGY PREDICTED BY IDOCK:   -3.73 KCAL/MOL
REMARK 922        TOTAL FREE ENERGY PREDICTED BY IDOCK:   -6.78 KCAL/MOL
REMARK 923 INTER-LIGAND FREE ENERGY PREDICTED BY IDOCK:   -6.63 KCAL/MOL
REMARK 924 INTRA-LIGAND FREE ENERGY PREDICTED BY IDOCK:   -0.15 KCAL/MOL
REMARK 927      BINDING AFFINITY PREDICTED BY RF-SCORE:    0.00 PKD
ROOT
HETATM    1  C   UNL     1      -9.775  13.404  66.865  1.00  0.00    -0.253 C  
HETATM    2  S   UNL     1      -9.200  12.211  65.599  1.00  0.00     0.151 SA 
HETATM    3  C   UNL     1     -10.897  11.706  65.065  1.00  0.00    -0.288 C  
HETATM    4  CA  UNL     1     -11.831  12.858  65.511  1.00  0.00    -0.411 C  
HETATM    5  C   UNL     1     -11.227  10.385  65.787  1.00  0.00     0.679 C  
HETATM    6  C   UNL     1     -10.885  11.411  63.561  1.00  0.00    -0.430 C  
HETATM    7  C   UNL     1     -12.047  13.968  64.467  1.00  0.00    -0.459 C  
HETATM    8  N   UNL     1     -11.250  13.447  66.734  1.00  0.00    -0.302 N  
HETATM    9  OXT UNL     1     -12.522  13.790  63.354  1.00  0.00    -0.817 OA 
HETATM   10  O   UNL     1     -11.708  15.210  64.898  1.00  0.00    -0.356 OA 
HETATM   11  C   UNL     1     -11.462  12.814  67.936  1.00  0.00    -0.317 C  
HETATM   12  CA  UNL     1      -9.966  12.899  68.319  1.00  0.00    -0.234 C  
HETATM   13  O   UNL     1     -12.445  12.258  68.365  1.00  0.00    -0.011 OA 
ENDROOT
BRANCH  12  14
HETATM   14  N   UNL     1      -9.300  11.622  68.686  1.00  0.00    -0.334 N  
HETATM   15  C   UNL     1      -9.895  10.744  69.571  1.00  0.00    -0.016 C  
HETATM   16  H   UNL     1      -8.393  11.390  68.280  1.00  0.00     0.000 HD 
HETATM   17  O   UNL     1     -10.985  11.016  70.078  1.00  0.00    -0.216 OA 
BRANCH  15  18
HETATM   18  CA  UNL     1      -9.061   9.517  70.013  1.00  0.00    -0.227 C  
BRANCH  18  19
HETATM   19  N   UNL     1      -8.846   8.659  68.850  1.00  0.00    -0.137 N  
HETATM   20  H   UNL     1      -9.652   8.354  68.306  1.00  0.00     0.000 HD 
BRANCH  19  21
HETATM   21  C   UNL     1      -7.600   8.255  68.472  1.00  0.00    -0.100 C  
HETATM   22  O   UNL     1      -7.043   8.687  67.465  1.00  0.00    -0.077 OA 
BRANCH  21  23
HETATM   23  N   UNL     1      -6.994   7.326  69.287  1.00  0.00    -0.067 N  
HETATM   24  C   UNL     1      -5.166   5.887  69.730  1.00  0.00    -0.005 C  
HETATM   25  N   UNL     1      -6.451   5.336  70.177  1.00  0.00    -0.033 N  
HETATM   26  C   UNL     1      -5.557   7.345  69.507  1.00  0.00    -0.023 C  
HETATM   27  O   UNL     1      -8.713   5.867  69.903  1.00  0.00    -0.126 OA 
HETATM   28  C   UNL     1      -7.534   6.148  69.800  1.00  0.00    -0.081 C  
BRANCH  25  29
HETATM   29  S   UNL     1      -6.513   3.917  71.026  1.00  0.00    -0.027 S  
HETATM   30  O   UNL     1      -5.150   3.482  71.248  1.00  0.00     0.000 OA 
HETATM   31  C   UNL     1      -7.247   2.772  69.874  1.00  0.00    -0.040 C  
HETATM   32  O   UNL     1      -7.421   4.084  72.137  1.00  0.00    -0.061 OA 
ENDBRANCH  25  29
ENDBRANCH  21  23
ENDBRANCH  19  21
ENDBRANCH  18  19
BRANCH  18  33
HETATM   33  C   UNL     1      -9.642   8.754  71.195  1.00  0.00    -0.309 A  
HETATM   34  C   UNL     1     -10.663   7.403  73.444  1.00  0.00    -0.407 A  
HETATM   35  C   UNL     1      -8.840   8.531  72.331  1.00  0.00    -0.268 A  
HETATM   36  C   UNL     1      -9.347   7.857  73.442  1.00  0.00    -0.348 A  
HETATM   37  C   UNL     1     -11.475   7.625  72.334  1.00  0.00    -0.392 A  
HETATM   38  C   UNL     1     -10.970   8.294  71.217  1.00  0.00    -0.290 A  
ENDBRANCH  18  33
ENDBRANCH  15  18
ENDBRANCH  12  14
TORSDOF 7
ENDMDL
MODEL      173
REMARK 921   NORMALIZED FREE ENERGY PREDICTED BY IDOCK:   -3.67 KCAL/MOL
REMARK 922        TOTAL FREE ENERGY PREDICTED BY IDOCK:   -6.70 KCAL/MOL
REMARK 923 INTER-LIGAND FREE ENERGY PREDICTED BY IDOCK:   -5.63 KCAL/MOL
REMARK 924 INTRA-LIGAND FREE ENERGY PREDICTED BY IDOCK:   -1.07 KCAL/MOL
REMARK 927      BINDING AFFINITY PREDICTED BY RF-SCORE:    0.00 PKD
ROOT
HETATM    1  C   UNL     1     -10.065   9.850  67.695  1.00  0.00    -0.197 C  
HETATM    2  S   UNL     1      -8.286  10.282  67.629  1.00  0.00    -0.114 SA 
HETATM    3  C   UNL     1      -7.976   9.462  66.001  1.00  0.00    -0.110 C  
HETATM    4  CA  UNL     1      -9.365   9.347  65.325  1.00  0.00    -0.238 C  
HETATM    5  C   UNL     1      -7.364   8.079  66.297  1.00  0.00    -0.078 C  
HETATM    6  C   UNL     1      -6.928  10.266  65.224  1.00  0.00    -0.130 C  
HETATM    7  C   UNL     1      -9.757  10.536  64.429  1.00  0.00    -0.328 C  
HETATM    8  N   UNL     1     -10.366   9.197  66.399  1.00  0.00    -0.223 N  
HETATM    9  OXT UNL     1      -9.125  10.903  63.448  1.00  0.00    -0.212 OA 
HETATM   10  O   UNL     1     -10.920  11.138  64.784  1.00  0.00    -0.260 OA 
HETATM   11  C   UNL     1     -10.544   7.957  66.967  1.00  0.00    -0.311 C  
HETATM   12  CA  UNL     1     -10.476   8.532  68.401  1.00  0.00    -0.171 C  
HETATM   13  O   UNL     1     -10.546   6.859  66.463  1.00  0.00    -0.159 OA 
ENDROOT
BRANCH  12  14
HETATM   14  N   UNL     1      -9.483   7.915  69.319  1.00  0.00    -0.152 N  
HETATM   15  C   UNL     1      -9.705   6.666  69.864  1.00  0.00    -0.157 C  
HETATM   16  H   UNL     1      -8.627   8.420  69.549  1.00  0.00     0.000 HD 
HETATM   17  O   UNL     1     -10.740   6.050  69.603  1.00  0.00    -0.265 OA 
BRANCH  15  18
HETATM   18  CA  UNL     1      -8.694   6.171  70.926  1.00  0.00    -0.136 C  
BRANCH  18  19
HETATM   19  N   UNL     1      -7.747   5.266  70.280  1.00  0.00    -0.071 N  
HETATM   20  H   UNL     1      -6.760   5.518  70.256  1.00  0.00     0.000 HD 
BRANCH  19  21
HETATM   21  C   UNL     1      -8.145   4.095  69.707  1.00  0.00    -0.055 C  
HETATM   22  O   UNL     1      -8.815   3.258  70.310  1.00  0.00    -0.067 OA 
BRANCH  21  23
HETATM   23  N   UNL     1      -7.751   3.896  68.403  1.00  0.00    -0.065 N  
HETATM   24  C   UNL     1      -6.325   4.455  66.597  1.00  0.00    -0.037 C  
HETATM   25  N   UNL     1      -7.681   4.097  66.167  1.00  0.00    -0.089 N  
HETATM   26  C   UNL     1      -6.345   3.931  68.030  1.00  0.00    -0.037 C  
HETATM   27  O   UNL     1      -9.748   3.726  67.201  1.00  0.00    -0.209 OA 
HETATM   28  C   UNL     1      -8.543   3.885  67.257  1.00  0.00    -0.102 C  
BRANCH  25  29
HETATM   29  S   UNL     1      -8.055   3.978  64.559  1.00  0.00    -0.087 S  
HETATM   30  O   UNL     1      -8.423   2.601  64.298  1.00  0.00    -0.085 OA 
HETATM   31  C   UNL     1      -6.497   4.267  63.745  1.00  0.00    -0.034 C  
HETATM   32  O   UNL     1      -8.953   5.056  64.213  1.00  0.00    -0.118 OA 
ENDBRANCH  25  29
ENDBRANCH  21  23
ENDBRANCH  19  21
ENDBRANCH  18  19
BRANCH  18  33
HETATM   33  C   UNL     1      -9.331   5.555  72.163  1.00  0.00    -0.159 A  
HETATM   34  C   UNL     1     -10.436   4.456  74.508  1.00  0.00    -0.295 A  
HETATM   35  C   UNL     1      -8.504   5.075  73.197  1.00  0.00    -0.110 A  
HETATM   36  C   UNL     1      -9.054   4.526  74.355  1.00  0.00    -0.112 A  
HETATM   37  C   UNL     1     -11.270   4.937  73.501  1.00  0.00    -0.375 A  
HETATM   38  C   UNL     1     -10.724   5.481  72.337  1.00  0.00    -0.286 A  
ENDBRANCH  18  33
ENDBRANCH  15  18
ENDBRANCH  12  14
TORSDOF 7
ENDMDL
MODEL      174
REMARK 921   NORMALIZED FREE ENERGY PREDICTED BY IDOCK:   -3.66 KCAL/MOL
REMARK 922        TOTAL FREE ENERGY PREDICTED BY IDOCK:   -6.67 KCAL/MOL
REMARK 923 INTER-LIGAND FREE ENERGY PREDICTED BY IDOCK:   -4.73 KCAL/MOL
REMARK 924 INTRA-LIGAND FREE ENERGY PREDICTED BY IDOCK:   -1.94 KCAL/MOL
REMARK 927      BINDING AFFINITY PREDICTED BY RF-SCORE:    0.00 PKD
ROOT
HETATM    1  C   UNL     1      -8.658   5.784  65.587  1.00  0.00    -0.151 C  
HETATM    2  S   UNL     1      -7.066   5.696  66.487  1.00  0.00    -0.074 SA 
HETATM    3  C   UNL     1      -7.693   4.585  67.826  1.00  0.00    -0.081 C  
HETATM    4  CA  UNL     1      -8.954   3.903  67.239  1.00  0.00    -0.134 C  
HETATM    5  C   UNL     1      -8.031   5.477  69.036  1.00  0.00    -0.095 C  
HETATM    6  C   UNL     1      -6.571   3.636  68.260  1.00  0.00    -0.045 C  
HETATM    7  C   UNL     1      -8.700   2.566  66.520  1.00  0.00    -0.123 C  
HETATM    8  N   UNL     1      -9.570   4.854  66.294  1.00  0.00    -0.158 N  
HETATM    9  OXT UNL     1      -8.206   1.578  67.046  1.00  0.00    -0.069 OA 
HETATM   10  O   UNL     1      -9.123   2.540  65.230  1.00  0.00    -0.132 OA 
HETATM   11  C   UNL     1     -10.355   5.867  66.794  1.00  0.00    -0.244 C  
HETATM   12  CA  UNL     1      -9.638   6.935  65.936  1.00  0.00     0.272 C  
HETATM   13  O   UNL     1     -11.148   5.864  67.704  1.00  0.00    -0.243 OA 
ENDROOT
BRANCH  12  14
HETATM   14  N   UNL     1      -9.079   8.105  66.661  1.00  0.00    -0.155 N  
HETATM   15  C   UNL     1      -9.229   9.384  66.162  1.00  0.00    -0.190 C  
HETATM   16  H   UNL     1      -8.578   7.963  67.538  1.00  0.00     0.000 HD 
HETATM   17  O   UNL     1      -9.822   9.569  65.097  1.00  0.00    -0.248 OA 
BRANCH  15  18
HETATM   18  CA  UNL     1      -8.483  10.521  66.901  1.00  0.00    -0.125 C  
BRANCH  18  19
HETATM   19  N   UNL     1      -7.524   9.923  67.826  1.00  0.00    -0.089 N  
HETATM   20  H   UNL     1      -7.490   8.908  67.914  1.00  0.00     0.000 HD 
BRANCH  19  21
HETATM   21  C   UNL     1      -6.674  10.680  68.574  1.00  0.00    -0.056 C  
HETATM   22  O   UNL     1      -6.017  11.604  68.096  1.00  0.00    -0.046 OA 
BRANCH  21  23
HETATM   23  N   UNL     1      -6.587  10.352  69.908  1.00  0.00    -0.107 N  
HETATM   24  C   UNL     1      -5.259   9.809  71.791  1.00  0.00    -0.076 C  
HETATM   25  N   UNL     1      -6.544   9.101  71.773  1.00  0.00    -0.009 N  
HETATM   26  C   UNL     1      -5.525  10.887  70.745  1.00  0.00    -0.118 C  
HETATM   27  O   UNL     1      -8.283   8.778  70.241  1.00  0.00    -0.100 OA 
HETATM   28  C   UNL     1      -7.265   9.344  70.592  1.00  0.00    -0.128 C  
BRANCH  25  29
HETATM   29  S   UNL     1      -7.005   8.152  73.048  1.00  0.00    -0.101 S  
HETATM   30  O   UNL     1      -5.974   8.251  74.061  1.00  0.00    -0.093 OA 
HETATM   31  C   UNL     1      -6.932   6.499  72.386  1.00  0.00    -0.069 C  
HETATM   32  O   UNL     1      -8.382   8.449  73.370  1.00  0.00    -0.315 OA 
ENDBRANCH  25  29
ENDBRANCH  21  23
ENDBRANCH  19  21
ENDBRANCH  18  19
BRANCH  18  33
HETATM   33  C   UNL     1      -9.394  11.530  67.585  1.00  0.00    -0.171 A  
HETATM   34  C   UNL     1     -11.080  13.338  68.933  1.00  0.00    -0.304 A  
HETATM   35  C   UNL     1     -10.395  11.070  68.463  1.00  0.00    -0.204 A  
HETATM   36  C   UNL     1     -11.232  11.968  69.125  1.00  0.00    -0.305 A  
HETATM   37  C   UNL     1     -10.088  13.813  68.077  1.00  0.00    -0.245 A  
HETATM   38  C   UNL     1      -9.252  12.917  67.407  1.00  0.00    -0.197 A  
ENDBRANCH  18  33
ENDBRANCH  15  18
ENDBRANCH  12  14
TORSDOF 7
ENDMDL
MODEL      175
REMARK 921   NORMALIZED FREE ENERGY PREDICTED BY IDOCK:   -3.62 KCAL/MOL
REMARK 922        TOTAL FREE ENERGY PREDICTED BY IDOCK:   -6.62 KCAL/MOL
REMARK 923 INTER-LIGAND FREE ENERGY PREDICTED BY IDOCK:   -5.99 KCAL/MOL
REMARK 924 INTRA-LIGAND FREE ENERGY PREDICTED BY IDOCK:   -0.63 KCAL/MOL
REMARK 927      BINDING AFFINITY PREDICTED BY RF-SCORE:    0.00 PKD
ROOT
HETATM    1  C   UNL     1      -7.460   5.976  68.824  1.00  0.00    -0.086 C  
HETATM    2  S   UNL     1      -6.779   7.193  70.011  1.00  0.00    -0.052 SA 
HETATM    3  C   UNL     1      -8.144   7.005  71.244  1.00  0.00    -0.108 C  
HETATM    4  CA  UNL     1      -8.790   5.631  70.938  1.00  0.00    -0.140 C  
HETATM    5  C   UNL     1      -9.128   8.168  71.014  1.00  0.00    -0.176 C  
HETATM    6  C   UNL     1      -7.573   7.166  72.657  1.00  0.00    -0.087 C  
HETATM    7  C   UNL     1      -8.194   4.440  71.710  1.00  0.00    -0.101 C  
HETATM    8  N   UNL     1      -8.647   5.391  69.488  1.00  0.00    -0.102 N  
HETATM    9  OXT UNL     1      -8.173   4.346  72.930  1.00  0.00    -0.093 OA 
HETATM   10  O   UNL     1      -7.723   3.444  70.918  1.00  0.00    -0.043 OA 
HETATM   11  C   UNL     1      -9.534   5.995  68.629  1.00  0.00    -0.124 C  
HETATM   12  CA  UNL     1      -8.399   6.490  67.702  1.00  0.00    -0.121 C  
HETATM   13  O   UNL     1     -10.721   6.188  68.738  1.00  0.00    -0.243 OA 
ENDROOT
BRANCH  12  14
HETATM   14  N   UNL     1      -8.370   7.946  67.405  1.00  0.00    -0.122 N  
HETATM   15  C   UNL     1      -8.378   8.402  66.102  1.00  0.00    -0.125 C  
HETATM   16  H   UNL     1      -8.342   8.617  68.174  1.00  0.00     0.000 HD 
HETATM   17  O   UNL     1      -8.400   7.602  65.165  1.00  0.00    -0.138 OA 
BRANCH  15  18
HETATM   18  CA  UNL     1      -8.190   9.923  65.887  1.00  0.00    -0.124 C  
BRANCH  18  19
HETATM   19  N   UNL     1      -7.974  10.552  67.187  1.00  0.00    -0.114 N  
HETATM   20  H   UNL     1      -8.347  10.102  68.022  1.00  0.00     0.000 HD 
BRANCH  19  21
HETATM   21  C   UNL     1      -7.290  11.724  67.318  1.00  0.00    -0.141 C  
HETATM   22  O   UNL     1      -6.086  11.816  67.080  1.00  0.00    -0.113 OA 
BRANCH  21  23
HETATM   23  N   UNL     1      -8.025  12.810  67.735  1.00  0.00    -0.143 N  
HETATM   24  C   UNL     1     -10.127  13.862  68.013  1.00  0.00    -0.244 C  
HETATM   25  N   UNL     1      -9.053  14.806  67.684  1.00  0.00    -0.181 N  
HETATM   26  C   UNL     1      -9.306  12.637  68.402  1.00  0.00    -0.148 C  
HETATM   27  O   UNL     1      -6.831  14.665  66.963  1.00  0.00    -0.128 OA 
HETATM   28  C   UNL     1      -7.841  14.152  67.407  1.00  0.00    -0.177 C  
BRANCH  25  29
HETATM   29  S   UNL     1      -9.333  16.437  67.672  1.00  0.00    -0.212 S  
HETATM   30  O   UNL     1      -9.896  16.773  66.380  1.00  0.00    -0.267 OA 
HETATM   31  C   UNL     1      -7.698  17.143  67.731  1.00  0.00    -0.177 C  
HETATM   32  O   UNL     1     -10.024  16.796  68.889  1.00  0.00    -0.245 OA 
ENDBRANCH  25  29
ENDBRANCH  21  23
ENDBRANCH  19  21
ENDBRANCH  18  19
BRANCH  18  33
HETATM   33  C   UNL     1      -9.307  10.591  65.099  1.00  0.00    -0.262 A  
HETATM   34  C   UNL     1     -11.397  11.882  63.723  1.00  0.00    -0.532 A  
HETATM   35  C   UNL     1     -10.499  10.946  65.761  1.00  0.00    -0.275 A  
HETATM   36  C   UNL     1     -11.535  11.581  65.076  1.00  0.00    -0.101 A  
HETATM   37  C   UNL     1     -10.221  11.548  63.055  1.00  0.00    -0.312 A  
HETATM   38  C   UNL     1      -9.184  10.907  63.735  1.00  0.00    -0.233 A  
ENDBRANCH  18  33
ENDBRANCH  15  18
ENDBRANCH  12  14
TORSDOF 7
ENDMDL
MODEL      176
REMARK 921   NORMALIZED FREE ENERGY PREDICTED BY IDOCK:   -3.58 KCAL/MOL
REMARK 922        TOTAL FREE ENERGY PREDICTED BY IDOCK:   -6.57 KCAL/MOL
REMARK 923 INTER-LIGAND FREE ENERGY PREDICTED BY IDOCK:   -8.76 KCAL/MOL
REMARK 924 INTRA-LIGAND FREE ENERGY PREDICTED BY IDOCK:    2.19 KCAL/MOL
REMARK 927      BINDING AFFINITY PREDICTED BY RF-SCORE:    0.00 PKD
ROOT
HETATM    1  C   UNL     1      -8.933  19.024  67.998  1.00  0.00    -0.308 C  
HETATM    2  S   UNL     1      -7.899  19.011  69.510  1.00  0.00     0.371 SA 
HETATM    3  C   UNL     1      -6.303  18.735  68.618  1.00  0.00    -0.233 C  
HETATM    4  CA  UNL     1      -6.561  19.192  67.160  1.00  0.00    -0.192 C  
HETATM    5  C   UNL     1      -5.989  17.229  68.702  1.00  0.00    -0.163 C  
HETATM    6  C   UNL     1      -5.180  19.475  69.353  1.00  0.00    -0.203 C  
HETATM    7  C   UNL     1      -6.240  20.669  66.870  1.00  0.00    -0.230 C  
HETATM    8  N   UNL     1      -7.984  18.936  66.864  1.00  0.00    -0.249 N  
HETATM    9  OXT UNL     1      -5.137  21.180  67.012  1.00  0.00    -0.183 OA 
HETATM   10  O   UNL     1      -7.288  21.380  66.381  1.00  0.00     0.100 OA 
HETATM   11  C   UNL     1      -8.369  17.660  66.528  1.00  0.00    -0.268 C  
HETATM   12  CA  UNL     1      -9.555  17.686  67.521  1.00  0.00    -0.267 C  
HETATM   13  O   UNL     1      -7.815  16.829  65.849  1.00  0.00    -0.324 OA 
ENDROOT
BRANCH  12  14
HETATM   14  N   UNL     1      -9.620  16.578  68.509  1.00  0.00    -0.225 N  
HETATM   15  C   UNL     1     -10.770  15.828  68.654  1.00  0.00    -0.263 C  
HETATM   16  H   UNL     1      -8.806  16.368  69.086  1.00  0.00     0.000 HD 
HETATM   17  O   UNL     1     -11.765  16.078  67.971  1.00  0.00    -0.202 OA 
BRANCH  15  18
HETATM   18  CA  UNL     1     -10.799  14.799  69.810  1.00  0.00    -0.198 C  
BRANCH  18  19
HETATM   19  N   UNL     1     -11.181  13.499  69.266  1.00  0.00    -0.361 N  
HETATM   20  H   UNL     1     -11.296  12.711  69.902  1.00  0.00     0.000 HD 
BRANCH  19  21
HETATM   21  C   UNL     1     -11.387  13.308  67.932  1.00  0.00    -0.284 C  
HETATM   22  O   UNL     1     -11.919  14.156  67.217  1.00  0.00    -0.397 OA 
BRANCH  21  23
HETATM   23  N   UNL     1     -10.965  12.100  67.423  1.00  0.00    -0.248 N  
HETATM   24  C   UNL     1      -9.673  10.130  67.656  1.00  0.00    -0.161 C  
HETATM   25  N   UNL     1      -9.744  10.609  66.270  1.00  0.00    -0.192 N  
HETATM   26  C   UNL     1     -10.805  10.938  68.283  1.00  0.00    -0.225 C  
HETATM   27  O   UNL     1     -10.488  12.539  65.178  1.00  0.00    -0.280 OA 
HETATM   28  C   UNL     1     -10.413  11.840  66.170  1.00  0.00    -0.245 C  
BRANCH  25  29
HETATM   29  S   UNL     1      -9.085   9.726  65.035  1.00  0.00    -0.248 S  
HETATM   30  O   UNL     1      -9.300   8.326  65.337  1.00  0.00     0.034 OA 
HETATM   31  C   UNL     1      -7.336  10.032  65.190  1.00  0.00    -0.139 C  
HETATM   32  O   UNL     1      -9.532  10.284  63.780  1.00  0.00    -0.272 OA 
ENDBRANCH  25  29
ENDBRANCH  21  23
ENDBRANCH  19  21
ENDBRANCH  18  19
BRANCH  18  33
HETATM   33  C   UNL     1     -11.664  15.207  70.994  1.00  0.00    -0.385 A  
HETATM   34  C   UNL     1     -13.327  15.884  73.162  1.00  0.00    -0.681 A  
HETATM   35  C   UNL     1     -13.063  15.066  70.905  1.00  0.00    -0.462 A  
HETATM   36  C   UNL     1     -13.885  15.407  71.979  1.00  0.00    -0.625 A  
HETATM   37  C   UNL     1     -11.945  16.020  73.273  1.00  0.00    -0.550 A  
HETATM   38  C   UNL     1     -11.119  15.686  72.198  1.00  0.00    -0.002 A  
ENDBRANCH  18  33
ENDBRANCH  15  18
ENDBRANCH  12  14
TORSDOF 7
ENDMDL
MODEL      177
REMARK 921   NORMALIZED FREE ENERGY PREDICTED BY IDOCK:   -3.58 KCAL/MOL
REMARK 922        TOTAL FREE ENERGY PREDICTED BY IDOCK:   -6.57 KCAL/MOL
REMARK 923 INTER-LIGAND FREE ENERGY PREDICTED BY IDOCK:   -6.06 KCAL/MOL
REMARK 924 INTRA-LIGAND FREE ENERGY PREDICTED BY IDOCK:   -0.51 KCAL/MOL
REMARK 927      BINDING AFFINITY PREDICTED BY RF-SCORE:    0.00 PKD
ROOT
HETATM    1  C   UNL     1     -11.311  10.680  65.635  1.00  0.00     0.727 C  
HETATM    2  S   UNL     1     -11.437  12.135  66.742  1.00  0.00    -0.342 SA 
HETATM    3  C   UNL     1     -10.701  13.326  65.535  1.00  0.00    -0.289 C  
HETATM    4  CA  UNL     1     -10.875  12.667  64.144  1.00  0.00    -0.396 C  
HETATM    5  C   UNL     1      -9.216  13.495  65.909  1.00  0.00     0.175 C  
HETATM    6  C   UNL     1     -11.370  14.695  65.704  1.00  0.00    -0.338 C  
HETATM    7  C   UNL     1     -12.177  13.028  63.406  1.00  0.00    -0.472 C  
HETATM    8  N   UNL     1     -10.817  11.205  64.340  1.00  0.00    -0.320 N  
HETATM    9  OXT UNL     1     -12.503  14.165  63.093  1.00  0.00    -0.678 OA 
HETATM   10  O   UNL     1     -12.940  11.957  63.070  1.00  0.00    -0.525 OA 
HETATM   11  C   UNL     1      -9.587  10.604  64.467  1.00  0.00    -0.286 C  
HETATM   12  CA  UNL     1     -10.032   9.806  65.714  1.00  0.00    -0.279 C  
HETATM   13  O   UNL     1      -8.546  10.824  63.895  1.00  0.00    -0.138 OA 
ENDROOT
BRANCH  12  14
HETATM   14  N   UNL     1      -9.189   9.945  66.930  1.00  0.00    -0.145 N  
HETATM   15  C   UNL     1      -8.484   8.867  67.427  1.00  0.00    -0.115 C  
HETATM   16  H   UNL     1      -9.130  10.847  67.403  1.00  0.00     0.000 HD 
HETATM   17  O   UNL     1      -8.555   7.769  66.873  1.00  0.00    -0.124 OA 
BRANCH  15  18
HETATM   18  CA  UNL     1      -7.758   9.065  68.780  1.00  0.00    -0.095 C  
BRANCH  18  19
HETATM   19  N   UNL     1      -8.725   8.876  69.858  1.00  0.00    -0.132 N  
HETATM   20  H   UNL     1      -8.385   8.698  70.802  1.00  0.00     0.000 HD 
BRANCH  19  21
HETATM   21  C   UNL     1     -10.070   8.930  69.639  1.00  0.00    -0.200 C  
HETATM   22  O   UNL     1     -10.659   8.105  68.941  1.00  0.00    -0.212 OA 
BRANCH  21  23
HETATM   23  N   UNL     1     -10.739   9.968  70.246  1.00  0.00    -0.294 N  
HETATM   24  C   UNL     1     -12.758  10.878  71.084  1.00  0.00    -0.429 C  
HETATM   25  N   UNL     1     -11.878  11.889  70.486  1.00  0.00    -0.264 N  
HETATM   26  C   UNL     1     -11.780   9.716  71.230  1.00  0.00    -0.382 C  
HETATM   27  O   UNL     1      -9.926  11.891  69.195  1.00  0.00     0.019 OA 
HETATM   28  C   UNL     1     -10.743  11.315  69.889  1.00  0.00     0.190 C  
BRANCH  25  29
HETATM   29  S   UNL     1     -12.263  13.497  70.561  1.00  0.00    -0.322 S  
HETATM   30  O   UNL     1     -11.094  14.203  71.045  1.00  0.00     0.374 OA 
HETATM   31  C   UNL     1     -13.492  13.573  71.849  1.00  0.00    -0.442 C  
HETATM   32  O   UNL     1     -12.889  13.879  69.316  1.00  0.00     0.248 OA 
ENDBRANCH  25  29
ENDBRANCH  21  23
ENDBRANCH  19  21
ENDBRANCH  18  19
BRANCH  18  33
HETATM   33  C   UNL     1      -7.004  10.381  68.904  1.00  0.00    -0.067 A  
HETATM   34  C   UNL     1      -5.667  12.854  69.058  1.00  0.00    -0.072 A  
HETATM   35  C   UNL     1      -6.746  11.138  67.744  1.00  0.00    -0.065 A  
HETATM   36  C   UNL     1      -6.079  12.360  67.823  1.00  0.00    -0.111 A  
HETATM   37  C   UNL     1      -5.923  12.125  70.217  1.00  0.00    -0.137 A  
HETATM   38  C   UNL     1      -6.585  10.897  70.142  1.00  0.00    -0.122 A  
ENDBRANCH  18  33
ENDBRANCH  15  18
ENDBRANCH  12  14
TORSDOF 7
ENDMDL
MODEL      178
REMARK 921   NORMALIZED FREE ENERGY PREDICTED BY IDOCK:   -3.52 KCAL/MOL
REMARK 922        TOTAL FREE ENERGY PREDICTED BY IDOCK:   -6.48 KCAL/MOL
REMARK 923 INTER-LIGAND FREE ENERGY PREDICTED BY IDOCK:   -4.40 KCAL/MOL
REMARK 924 INTRA-LIGAND FREE ENERGY PREDICTED BY IDOCK:   -2.08 KCAL/MOL
REMARK 927      BINDING AFFINITY PREDICTED BY RF-SCORE:    0.00 PKD
ROOT
HETATM    1  C   UNL     1     -10.584   8.723  70.716  1.00  0.00    -0.220 C  
HETATM    2  S   UNL     1     -11.776   7.464  70.125  1.00  0.00     0.089 SA 
HETATM    3  C   UNL     1     -12.501   7.126  71.792  1.00  0.00    -0.350 C  
HETATM    4  CA  UNL     1     -12.165   8.372  72.650  1.00  0.00    -0.237 C  
HETATM    5  C   UNL     1     -11.823   5.854  72.335  1.00  0.00    -0.263 C  
HETATM    6  C   UNL     1     -13.994   6.815  71.639  1.00  0.00    -0.195 C  
HETATM    7  C   UNL     1     -13.227   9.486  72.631  1.00  0.00    -0.139 C  
HETATM    8  N   UNL     1     -10.883   8.913  72.155  1.00  0.00    -0.334 N  
HETATM    9  OXT UNL     1     -14.386   9.344  72.992  1.00  0.00    -0.299 OA 
HETATM   10  O   UNL     1     -12.759  10.692  72.219  1.00  0.00    -0.196 OA 
HETATM   11  C   UNL     1      -9.714   8.318  72.565  1.00  0.00    -0.298 C  
HETATM   12  CA  UNL     1      -9.162   8.255  71.122  1.00  0.00    -0.162 C  
HETATM   13  O   UNL     1      -9.401   7.869  73.642  1.00  0.00    -0.278 OA 
ENDROOT
BRANCH  12  14
HETATM   14  N   UNL     1      -8.721   6.922  70.636  1.00  0.00    -0.148 N  
HETATM   15  C   UNL     1      -7.413   6.510  70.793  1.00  0.00    -0.087 C  
HETATM   16  H   UNL     1      -9.393   6.304  70.181  1.00  0.00     0.000 HD 
HETATM   17  O   UNL     1      -6.588   7.252  71.331  1.00  0.00    -0.049 OA 
BRANCH  15  18
HETATM   18  CA  UNL     1      -7.009   5.175  70.120  1.00  0.00    -0.053 C  
BRANCH  18  19
HETATM   19  N   UNL     1      -7.954   4.894  69.043  1.00  0.00    -0.076 N  
HETATM   20  H   UNL     1      -8.937   4.748  69.273  1.00  0.00     0.000 HD 
BRANCH  19  21
HETATM   21  C   UNL     1      -7.563   4.822  67.739  1.00  0.00    -0.082 C  
HETATM   22  O   UNL     1      -7.550   3.764  67.111  1.00  0.00    -0.078 OA 
BRANCH  21  23
HETATM   23  N   UNL     1      -7.177   6.008  67.158  1.00  0.00    -0.074 N  
HETATM   24  C   UNL     1      -5.506   7.641  66.771  1.00  0.00    -0.028 C  
HETATM   25  N   UNL     1      -6.853   8.214  66.882  1.00  0.00    -0.068 N  
HETATM   26  C   UNL     1      -5.851   6.167  66.583  1.00  0.00    -0.020 C  
HETATM   27  O   UNL     1      -8.970   7.461  67.533  1.00  0.00    -0.126 OA 
HETATM   28  C   UNL     1      -7.812   7.248  67.229  1.00  0.00    -0.111 C  
BRANCH  25  29
HETATM   29  S   UNL     1      -7.112   9.825  66.606  1.00  0.00    -0.087 S  
HETATM   30  O   UNL     1      -7.090  10.031  65.172  1.00  0.00    -0.123 OA 
HETATM   31  C   UNL     1      -5.651  10.603  67.269  1.00  0.00    -0.041 C  
HETATM   32  O   UNL     1      -8.246  10.251  67.392  1.00  0.00    -0.114 OA 
ENDBRANCH  25  29
ENDBRANCH  21  23
ENDBRANCH  19  21
ENDBRANCH  18  19
BRANCH  18  33
HETATM   33  C   UNL     1      -6.863   4.005  71.082  1.00  0.00    -0.032 A  
HETATM   34  C   UNL     1      -6.626   1.777  72.787  1.00  0.00    -0.017 A  
HETATM   35  C   UNL     1      -7.795   2.949  71.028  1.00  0.00    -0.046 A  
HETATM   36  C   UNL     1      -7.678   1.849  71.877  1.00  0.00    -0.041 A  
HETATM   37  C   UNL     1      -5.689   2.806  72.847  1.00  0.00    -0.007 A  
HETATM   38  C   UNL     1      -5.806   3.912  72.003  1.00  0.00    -0.009 A  
ENDBRANCH  18  33
ENDBRANCH  15  18
ENDBRANCH  12  14
TORSDOF 7
ENDMDL
MODEL      179
REMARK 921   NORMALIZED FREE ENERGY PREDICTED BY IDOCK:   -3.45 KCAL/MOL
REMARK 922        TOTAL FREE ENERGY PREDICTED BY IDOCK:   -6.38 KCAL/MOL
REMARK 923 INTER-LIGAND FREE ENERGY PREDICTED BY IDOCK:   -5.38 KCAL/MOL
REMARK 924 INTRA-LIGAND FREE ENERGY PREDICTED BY IDOCK:   -0.99 KCAL/MOL
REMARK 927      BINDING AFFINITY PREDICTED BY RF-SCORE:    0.00 PKD
ROOT
HETATM    1  C   UNL     1      -7.655   8.162  65.116  1.00  0.00    -0.097 C  
HETATM    2  S   UNL     1      -6.345   8.083  66.395  1.00  0.00    -0.047 SA 
HETATM    3  C   UNL     1      -6.584   6.288  66.766  1.00  0.00    -0.055 C  
HETATM    4  CA  UNL     1      -7.297   5.699  65.523  1.00  0.00    -0.073 C  
HETATM    5  C   UNL     1      -7.462   6.197  68.030  1.00  0.00    -0.089 C  
HETATM    6  C   UNL     1      -5.228   5.660  67.109  1.00  0.00    -0.005 C  
HETATM    7  C   UNL     1      -6.361   5.147  64.432  1.00  0.00    -0.033 C  
HETATM    8  N   UNL     1      -8.134   6.770  64.949  1.00  0.00    -0.126 N  
HETATM    9  OXT UNL     1      -5.554   4.244  64.604  1.00  0.00    -0.013 OA 
HETATM   10  O   UNL     1      -6.535   5.715  63.212  1.00  0.00    -0.027 OA 
HETATM   11  C   UNL     1      -9.357   7.030  65.522  1.00  0.00     0.465 C  
HETATM   12  CA  UNL     1      -9.090   8.553  65.557  1.00  0.00    -0.091 C  
HETATM   13  O   UNL     1     -10.184   6.276  65.976  1.00  0.00     0.126 OA 
ENDROOT
BRANCH  12  14
HETATM   14  N   UNL     1      -9.236   9.224  66.874  1.00  0.00    -0.140 N  
HETATM   15  C   UNL     1      -9.925  10.415  66.988  1.00  0.00    -0.206 C  
HETATM   16  H   UNL     1      -8.822   8.800  67.705  1.00  0.00     0.000 HD 
HETATM   17  O   UNL     1     -10.420  10.944  65.991  1.00  0.00    -0.251 OA 
BRANCH  15  18
HETATM   18  CA  UNL     1      -9.894  11.118  68.367  1.00  0.00    -0.185 C  
BRANCH  18  19
HETATM   19  N   UNL     1      -9.299  12.440  68.200  1.00  0.00    -0.206 N  
HETATM   20  H   UNL     1      -8.356  12.514  67.820  1.00  0.00     0.000 HD 
BRANCH  19  21
HETATM   21  C   UNL     1      -9.966  13.580  68.538  1.00  0.00    -0.202 C  
HETATM   22  O   UNL     1     -10.994  13.569  69.214  1.00  0.00    -0.216 OA 
BRANCH  21  23
HETATM   23  N   UNL     1      -9.422  14.757  68.076  1.00  0.00    -0.200 N  
HETATM   24  C   UNL     1      -8.217  16.750  68.501  1.00  0.00    -0.242 C  
HETATM   25  N   UNL     1      -9.264  16.919  67.487  1.00  0.00    -0.222 N  
HETATM   26  C   UNL     1      -8.133  15.228  68.557  1.00  0.00    -0.143 C  
HETATM   27  O   UNL     1     -11.066  15.662  66.682  1.00  0.00    -0.270 OA 
HETATM   28  C   UNL     1     -10.044  15.761  67.335  1.00  0.00    -0.246 C  
BRANCH  25  29
HETATM   29  S   UNL     1      -9.425  18.347  66.666  1.00  0.00    -0.321 S  
HETATM   30  O   UNL     1      -8.130  18.997  66.663  1.00  0.00    -0.254 OA 
HETATM   31  C   UNL     1     -10.493  19.314  67.715  1.00  0.00    -0.435 C  
HETATM   32  O   UNL     1     -10.121  18.091  65.427  1.00  0.00    -0.372 OA 
ENDBRANCH  25  29
ENDBRANCH  21  23
ENDBRANCH  19  21
ENDBRANCH  18  19
BRANCH  18  33
HETATM   33  C   UNL     1      -9.218  10.313  69.468  1.00  0.00    -0.191 A  
HETATM   34  C   UNL     1      -8.048   8.763  71.506  1.00  0.00    -0.174 A  
HETATM   35  C   UNL     1     -10.008   9.732  70.480  1.00  0.00    -0.258 A  
HETATM   36  C   UNL     1      -9.424   8.969  71.491  1.00  0.00    -0.316 A  
HETATM   37  C   UNL     1      -7.252   9.320  70.508  1.00  0.00    -0.111 A  
HETATM   38  C   UNL     1      -7.831  10.091  69.497  1.00  0.00    -0.155 A  
ENDBRANCH  18  33
ENDBRANCH  15  18
ENDBRANCH  12  14
TORSDOF 7
ENDMDL
MODEL      180
REMARK 921   NORMALIZED FREE ENERGY PREDICTED BY IDOCK:   -3.26 KCAL/MOL
REMARK 922        TOTAL FREE ENERGY PREDICTED BY IDOCK:   -6.12 KCAL/MOL
REMARK 923 INTER-LIGAND FREE ENERGY PREDICTED BY IDOCK:   -4.79 KCAL/MOL
REMARK 924 INTRA-LIGAND FREE ENERGY PREDICTED BY IDOCK:   -1.33 KCAL/MOL
REMARK 927      BINDING AFFINITY PREDICTED BY RF-SCORE:    0.00 PKD
ROOT
HETATM    1  C   UNL     1     -10.395   9.539  69.819  1.00  0.00    -0.230 C  
HETATM    2  S   UNL     1     -11.392   8.098  69.284  1.00  0.00     0.608 SA 
HETATM    3  C   UNL     1     -11.725   7.482  70.995  1.00  0.00    -0.292 C  
HETATM    4  CA  UNL     1     -11.501   8.701  71.924  1.00  0.00    -0.348 C  
HETATM    5  C   UNL     1     -10.717   6.351  71.276  1.00  0.00    -0.288 C  
HETATM    6  C   UNL     1     -13.127   6.863  71.043  1.00  0.00    -0.110 C  
HETATM    7  C   UNL     1     -12.754   9.553  72.199  1.00  0.00    -0.362 C  
HETATM    8  N   UNL     1     -10.466   9.547  71.299  1.00  0.00    -0.305 N  
HETATM    9  OXT UNL     1     -13.777   9.133  72.720  1.00  0.00    -0.434 OA 
HETATM   10  O   UNL     1     -12.621  10.860  71.859  1.00  0.00    -0.308 OA 
HETATM   11  C   UNL     1      -9.145   9.193  71.450  1.00  0.00    -0.109 C  
HETATM   12  CA  UNL     1      -8.858   9.365  69.941  1.00  0.00    -0.199 C  
HETATM   13  O   UNL     1      -8.561   8.742  72.406  1.00  0.00    -0.395 OA 
ENDROOT
BRANCH  12  14
HETATM   14  N   UNL     1      -8.249   8.203  69.243  1.00  0.00    -0.117 N  
HETATM   15  C   UNL     1      -6.878   8.066  69.162  1.00  0.00    -0.052 C  
HETATM   16  H   UNL     1      -8.852   7.497  68.819  1.00  0.00     0.000 HD 
HETATM   17  O   UNL     1      -6.139   8.918  69.660  1.00  0.00    -0.038 OA 
BRANCH  15  18
HETATM   18  CA  UNL     1      -6.336   6.911  68.286  1.00  0.00    -0.035 C  
BRANCH  18  19
HETATM   19  N   UNL     1      -6.687   7.179  66.894  1.00  0.00    -0.058 N  
HETATM   20  H   UNL     1      -6.005   7.640  66.292  1.00  0.00     0.000 HD 
BRANCH  19  21
HETATM   21  C   UNL     1      -7.898   6.832  66.375  1.00  0.00    -0.104 C  
HETATM   22  O   UNL     1      -8.920   7.485  66.587  1.00  0.00    -0.139 OA 
BRANCH  21  23
HETATM   23  N   UNL     1      -7.919   5.700  65.594  1.00  0.00    -0.106 N  
HETATM   24  C   UNL     1      -7.963   4.706  63.445  1.00  0.00    -0.083 C  
HETATM   25  N   UNL     1      -8.722   3.944  64.444  1.00  0.00    -0.117 N  
HETATM   26  C   UNL     1      -7.158   5.627  64.356  1.00  0.00    -0.053 C  
HETATM   27  O   UNL     1      -9.464   4.289  66.636  1.00  0.00    -0.158 OA 
HETATM   28  C   UNL     1      -8.783   4.610  65.681  1.00  0.00    -0.127 C  
BRANCH  25  29
HETATM   29  S   UNL     1      -9.387   2.478  64.064  1.00  0.00    -0.127 S  
HETATM   30  O   UNL     1      -9.048   1.556  65.129  1.00  0.00    -0.122 OA 
HETATM   31  C   UNL     1      -8.476   1.967  62.620  1.00  0.00    -0.072 C  
HETATM   32  O   UNL     1     -10.765   2.682  63.680  1.00  0.00    -0.200 OA 
ENDBRANCH  25  29
ENDBRANCH  21  23
ENDBRANCH  19  21
ENDBRANCH  18  19
BRANCH  18  33
HETATM   33  C   UNL     1      -6.770   5.523  68.735  1.00  0.00    -0.053 A  
HETATM   34  C   UNL     1      -7.476   2.930  69.573  1.00  0.00    -0.044 A  
HETATM   35  C   UNL     1      -6.018   4.402  68.332  1.00  0.00    -0.027 A  
HETATM   36  C   UNL     1      -6.374   3.118  68.744  1.00  0.00    -0.029 A  
HETATM   37  C   UNL     1      -8.225   4.027  69.991  1.00  0.00    -0.069 A  
HETATM   38  C   UNL     1      -7.877   5.314  69.575  1.00  0.00    -0.084 A  
ENDBRANCH  18  33
ENDBRANCH  15  18
ENDBRANCH  12  14
TORSDOF 7
ENDMDL
MODEL      181
REMARK 921   NORMALIZED FREE ENERGY PREDICTED BY IDOCK:   -2.91 KCAL/MOL
REMARK 922        TOTAL FREE ENERGY PREDICTED BY IDOCK:   -5.62 KCAL/MOL
REMARK 923 INTER-LIGAND FREE ENERGY PREDICTED BY IDOCK:   -6.08 KCAL/MOL
REMARK 924 INTRA-LIGAND FREE ENERGY PREDICTED BY IDOCK:    0.46 KCAL/MOL
REMARK 927      BINDING AFFINITY PREDICTED BY RF-SCORE:    0.00 PKD
ROOT
HETATM    1  C   UNL     1      -8.205  16.494  67.819  1.00  0.00    -0.165 C  
HETATM    2  S   UNL     1      -8.967  16.781  66.178  1.00  0.00    -0.209 SA 
HETATM    3  C   UNL     1     -10.177  18.045  66.775  1.00  0.00    -0.364 C  
HETATM    4  CA  UNL     1      -9.593  18.579  68.107  1.00  0.00    -0.327 C  
HETATM    5  C   UNL     1     -11.522  17.323  66.986  1.00  0.00     0.956 C  
HETATM    6  C   UNL     1     -10.392  19.095  65.680  1.00  0.00    -0.193 C  
HETATM    7  C   UNL     1      -8.675  19.808  67.972  1.00  0.00    -0.302 C  
HETATM    8  N   UNL     1      -8.838  17.475  68.731  1.00  0.00    -0.255 N  
HETATM    9  OXT UNL     1      -9.021  20.882  67.499  1.00  0.00    -0.230 OA 
HETATM   10  O   UNL     1      -7.429  19.629  68.479  1.00  0.00    -0.320 OA 
HETATM   11  C   UNL     1      -9.530  16.512  69.426  1.00  0.00    -0.068 C  
HETATM   12  CA  UNL     1      -8.782  15.363  68.710  1.00  0.00    -0.195 C  
HETATM   13  O   UNL     1     -10.486  16.611  70.158  1.00  0.00    -0.115 OA 
ENDROOT
BRANCH  12  14
HETATM   14  N   UNL     1      -9.623  14.336  68.043  1.00  0.00    -0.216 N  
HETATM   15  C   UNL     1      -9.184  13.032  67.924  1.00  0.00    -0.208 C  
HETATM   16  H   UNL     1     -10.536  14.596  67.668  1.00  0.00     0.000 HD 
HETATM   17  O   UNL     1      -8.079  12.707  68.362  1.00  0.00    -0.155 OA 
BRANCH  15  18
HETATM   18  CA  UNL     1     -10.055  12.070  67.081  1.00  0.00    -0.201 C  
BRANCH  18  19
HETATM   19  N   UNL     1     -10.728  11.141  67.984  1.00  0.00    -0.197 N  
HETATM   20  H   UNL     1     -11.335  11.513  68.714  1.00  0.00     0.000 HD 
BRANCH  19  21
HETATM   21  C   UNL     1     -10.570   9.791  67.882  1.00  0.00    -0.259 C  
HETATM   22  O   UNL     1     -10.707   9.188  66.818  1.00  0.00    -0.177 OA 
BRANCH  21  23
HETATM   23  N   UNL     1     -10.246   9.131  69.045  1.00  0.00    -0.202 N  
HETATM   24  C   UNL     1     -10.019   9.146  71.402  1.00  0.00    -0.303 C  
HETATM   25  N   UNL     1      -9.007   8.318  70.734  1.00  0.00    -0.143 N  
HETATM   26  C   UNL     1     -11.016   9.332  70.262  1.00  0.00    -0.247 C  
HETATM   27  O   UNL     1      -8.284   7.965  68.537  1.00  0.00    -0.124 OA 
HETATM   28  C   UNL     1      -9.084   8.417  69.334  1.00  0.00    -0.154 C  
BRANCH  25  29
HETATM   29  S   UNL     1      -7.944   7.406  71.615  1.00  0.00    -0.099 S  
HETATM   30  O   UNL     1      -8.276   6.013  71.392  1.00  0.00    -0.120 OA 
HETATM   31  C   UNL     1      -8.371   7.781  73.304  1.00  0.00    -0.164 C  
HETATM   32  O   UNL     1      -6.606   7.890  71.369  1.00  0.00    -0.041 OA 
ENDBRANCH  25  29
ENDBRANCH  21  23
ENDBRANCH  19  21
ENDBRANCH  18  19
BRANCH  18  33
HETATM   33  C   UNL     1      -9.305  11.353  65.968  1.00  0.00    -0.235 A  
HETATM   34  C   UNL     1      -7.876   9.964  63.979  1.00  0.00    -0.145 A  
HETATM   35  C   UNL     1      -8.012  10.852  66.221  1.00  0.00    -0.161 A  
HETATM   36  C   UNL     1      -7.305  10.169  65.232  1.00  0.00    -0.141 A  
HETATM   37  C   UNL     1      -9.157  10.442  63.714  1.00  0.00    -0.273 A  
HETATM   38  C   UNL     1      -9.867  11.132  64.699  1.00  0.00    -0.330 A  
ENDBRANCH  18  33
ENDBRANCH  15  18
ENDBRANCH  12  14
TORSDOF 7
ENDMDL
MODEL      182
REMARK 921   NORMALIZED FREE ENERGY PREDICTED BY IDOCK:   -2.81 KCAL/MOL
REMARK 922        TOTAL FREE ENERGY PREDICTED BY IDOCK:   -5.48 KCAL/MOL
REMARK 923 INTER-LIGAND FREE ENERGY PREDICTED BY IDOCK:   -3.46 KCAL/MOL
REMARK 924 INTRA-LIGAND FREE ENERGY PREDICTED BY IDOCK:   -2.03 KCAL/MOL
REMARK 927      BINDING AFFINITY PREDICTED BY RF-SCORE:    0.00 PKD
ROOT
HETATM    1  C   UNL     1     -11.330  13.269  70.155  1.00  0.00     0.174 C  
HETATM    2  S   UNL     1     -10.431  14.475  71.201  1.00  0.00     2.021 SA 
HETATM    3  C   UNL     1     -11.535  15.902  70.795  1.00  0.00    -0.407 C  
HETATM    4  CA  UNL     1     -12.857  15.272  70.289  1.00  0.00    -0.260 C  
HETATM    5  C   UNL     1     -10.832  16.723  69.696  1.00  0.00    -0.205 C  
HETATM    6  C   UNL     1     -11.663  16.806  72.025  1.00  0.00     0.101 C  
HETATM    7  C   UNL     1     -13.917  15.015  71.376  1.00  0.00    -0.479 C  
HETATM    8  N   UNL     1     -12.513  13.994  69.635  1.00  0.00    -0.252 N  
HETATM    9  OXT UNL     1     -14.407  15.883  72.084  1.00  0.00    -0.346 OA 
HETATM   10  O   UNL     1     -14.322  13.722  71.462  1.00  0.00    -0.106 OA 
HETATM   11  C   UNL     1     -12.037  14.021  68.345  1.00  0.00    -0.283 C  
HETATM   12  CA  UNL     1     -10.863  13.076  68.689  1.00  0.00    -0.259 C  
HETATM   13  O   UNL     1     -12.361  14.708  67.406  1.00  0.00    -0.193 OA 
ENDROOT
BRANCH  12  14
HETATM   14  N   UNL     1      -9.499  13.555  68.342  1.00  0.00    -0.272 N  
HETATM   15  C   UNL     1      -8.933  13.252  67.120  1.00  0.00    -0.229 C  
HETATM   16  H   UNL     1      -8.975  14.115  69.015  1.00  0.00     0.000 HD 
HETATM   17  O   UNL     1      -9.551  12.567  66.302  1.00  0.00    -0.246 OA 
BRANCH  15  18
HETATM   18  CA  UNL     1      -7.455  13.660  66.908  1.00  0.00     0.555 C  
BRANCH  18  19
HETATM   19  N   UNL     1      -6.601  12.590  67.415  1.00  0.00    -0.160 N  
HETATM   20  H   UNL     1      -6.155  12.703  68.325  1.00  0.00     0.000 HD 
BRANCH  19  21
HETATM   21  C   UNL     1      -6.381  11.445  66.709  1.00  0.00    -0.142 C  
HETATM   22  O   UNL     1      -5.670  11.413  65.706  1.00  0.00    -0.163 OA 
BRANCH  21  23
HETATM   23  N   UNL     1      -7.005  10.314  67.184  1.00  0.00    -0.086 N  
HETATM   24  C   UNL     1      -8.898   8.892  67.217  1.00  0.00    -0.128 C  
HETATM   25  N   UNL     1      -8.226   8.982  68.519  1.00  0.00    -0.111 N  
HETATM   26  C   UNL     1      -7.822   9.485  66.312  1.00  0.00    -0.100 C  
HETATM   27  O   UNL     1      -6.555  10.309  69.478  1.00  0.00    -0.050 OA 
HETATM   28  C   UNL     1      -7.180   9.920  68.510  1.00  0.00    -0.076 C  
BRANCH  25  29
HETATM   29  S   UNL     1      -8.715   8.042  69.790  1.00  0.00    -0.136 S  
HETATM   30  O   UNL     1      -9.659   7.070  69.276  1.00  0.00    -0.154 OA 
HETATM   31  C   UNL     1      -9.634   9.172  70.817  1.00  0.00    -0.275 C  
HETATM   32  O   UNL     1      -7.547   7.613  70.523  1.00  0.00    -0.078 OA 
ENDBRANCH  25  29
ENDBRANCH  21  23
ENDBRANCH  19  21
ENDBRANCH  18  19
BRANCH  18  33
HETATM   33  C   UNL     1      -7.088  15.018  67.487  1.00  0.00    -0.224 A  
HETATM   34  C   UNL     1      -6.502  17.563  68.539  1.00  0.00    -0.186 A  
HETATM   35  C   UNL     1      -7.627  16.183  66.907  1.00  0.00    -0.275 A  
HETATM   36  C   UNL     1      -7.331  17.443  67.427  1.00  0.00    -0.188 A  
HETATM   37  C   UNL     1      -5.969  16.422  69.134  1.00  0.00    -0.148 A  
HETATM   38  C   UNL     1      -6.257  15.159  68.612  1.00  0.00    -0.089 A  
ENDBRANCH  18  33
ENDBRANCH  15  18
ENDBRANCH  12  14
TORSDOF 7
ENDMDL
MODEL      183
REMARK 921   NORMALIZED FREE ENERGY PREDICTED BY IDOCK:   -2.81 KCAL/MOL
REMARK 922        TOTAL FREE ENERGY PREDICTED BY IDOCK:   -5.48 KCAL/MOL
REMARK 923 INTER-LIGAND FREE ENERGY PREDICTED BY IDOCK:   -5.32 KCAL/MOL
REMARK 924 INTRA-LIGAND FREE ENERGY PREDICTED BY IDOCK:   -0.17 KCAL/MOL
REMARK 927      BINDING AFFINITY PREDICTED BY RF-SCORE:    0.00 PKD
ROOT
HETATM    1  C   UNL     1      -6.773   9.912  68.369  1.00  0.00    -0.055 C  
HETATM    2  S   UNL     1      -6.982   8.219  67.701  1.00  0.00    -0.080 SA 
HETATM    3  C   UNL     1      -7.838   8.756  66.153  1.00  0.00    -0.102 C  
HETATM    4  CA  UNL     1      -7.458  10.246  65.965  1.00  0.00    -0.128 C  
HETATM    5  C   UNL     1      -9.351   8.573  66.382  1.00  0.00    -0.273 C  
HETATM    6  C   UNL     1      -7.437   7.823  65.005  1.00  0.00    -0.089 C  
HETATM    7  C   UNL     1      -6.196  10.498  65.121  1.00  0.00    -0.079 C  
HETATM    8  N   UNL     1      -7.266  10.824  67.310  1.00  0.00    -0.092 N  
HETATM    9  OXT UNL     1      -6.058  10.144  63.958  1.00  0.00    -0.125 OA 
HETATM   10  O   UNL     1      -5.233  11.210  65.760  1.00  0.00    -0.155 OA 
HETATM   11  C   UNL     1      -8.375  11.201  68.030  1.00  0.00    -0.134 C  
HETATM   12  CA  UNL     1      -7.877  10.476  69.302  1.00  0.00    -0.144 C  
HETATM   13  O   UNL     1      -9.398  11.732  67.670  1.00  0.00    -0.173 OA 
ENDROOT
BRANCH  12  14
HETATM   14  N   UNL     1      -8.810   9.497  69.918  1.00  0.00    -0.193 N  
HETATM   15  C   UNL     1      -8.653   9.100  71.231  1.00  0.00    -0.063 C  
HETATM   16  H   UNL     1      -9.577   9.113  69.364  1.00  0.00     0.000 HD 
HETATM   17  O   UNL     1      -7.724   9.547  71.908  1.00  0.00     0.023 OA 
BRANCH  15  18
HETATM   18  CA  UNL     1      -9.574   7.965  71.739  1.00  0.00    -0.165 C  
BRANCH  18  19
HETATM   19  N   UNL     1      -9.302   6.761  70.958  1.00  0.00    -0.160 N  
HETATM   20  H   UNL     1      -8.664   6.061  71.336  1.00  0.00     0.000 HD 
BRANCH  19  21
HETATM   21  C   UNL     1      -9.874   6.546  69.740  1.00  0.00    -0.165 C  
HETATM   22  O   UNL     1     -10.783   7.250  69.303  1.00  0.00    -0.222 OA 
BRANCH  21  23
HETATM   23  N   UNL     1      -9.375   5.486  69.018  1.00  0.00    -0.118 N  
HETATM   24  C   UNL     1      -9.688   3.340  68.067  1.00  0.00     0.035 C  
HETATM   25  N   UNL     1      -8.322   3.555  68.560  1.00  0.00    -0.076 N  
HETATM   26  C   UNL     1     -10.204   4.776  68.057  1.00  0.00     0.011 C  
HETATM   27  O   UNL     1      -7.220   5.158  69.861  1.00  0.00    -0.056 OA 
HETATM   28  C   UNL     1      -8.188   4.785  69.226  1.00  0.00    -0.077 C  
BRANCH  25  29
HETATM   29  S   UNL     1      -7.143   2.422  68.307  1.00  0.00    -0.048 S  
HETATM   30  O   UNL     1      -6.938   1.720  69.558  1.00  0.00    -0.033 OA 
HETATM   31  C   UNL     1      -5.682   3.398  68.009  1.00  0.00    -0.019 C  
HETATM   32  O   UNL     1      -7.454   1.694  67.099  1.00  0.00    -0.057 OA 
ENDBRANCH  25  29
ENDBRANCH  21  23
ENDBRANCH  19  21
ENDBRANCH  18  19
BRANCH  18  33
HETATM   33  C   UNL     1     -11.054   8.318  71.761  1.00  0.00    -0.342 A  
HETATM   34  C   UNL     1     -13.778   9.030  71.719  1.00  0.00    -0.474 A  
HETATM   35  C   UNL     1     -11.457   9.619  71.400  1.00  0.00    -0.455 A  
HETATM   36  C   UNL     1     -12.807   9.970  71.385  1.00  0.00    -0.519 A  
HETATM   37  C   UNL     1     -13.399   7.735  72.068  1.00  0.00    -0.227 A  
HETATM   38  C   UNL     1     -12.049   7.381  72.090  1.00  0.00    -0.289 A  
ENDBRANCH  18  33
ENDBRANCH  15  18
ENDBRANCH  12  14
TORSDOF 7
ENDMDL
MODEL      184
REMARK 921   NORMALIZED FREE ENERGY PREDICTED BY IDOCK:   -2.33 KCAL/MOL
REMARK 922        TOTAL FREE ENERGY PREDICTED BY IDOCK:   -4.81 KCAL/MOL
REMARK 923 INTER-LIGAND FREE ENERGY PREDICTED BY IDOCK:   -3.44 KCAL/MOL
REMARK 924 INTRA-LIGAND FREE ENERGY PREDICTED BY IDOCK:   -1.37 KCAL/MOL
REMARK 927      BINDING AFFINITY PREDICTED BY RF-SCORE:    0.00 PKD
ROOT
HETATM    1  C   UNL     1      -8.899  17.505  69.780  1.00  0.00     1.282 C  
HETATM    2  S   UNL     1      -7.275  16.734  69.425  1.00  0.00     0.008 SA 
HETATM    3  C   UNL     1      -6.662  18.120  68.366  1.00  0.00    -0.219 C  
HETATM    4  CA  UNL     1      -7.518  19.350  68.757  1.00  0.00    -0.358 C  
HETATM    5  C   UNL     1      -6.888  17.706  66.899  1.00  0.00    -0.212 C  
HETATM    6  C   UNL     1      -5.151  18.277  68.566  1.00  0.00    -0.165 C  
HETATM    7  C   UNL     1      -6.937  20.219  69.888  1.00  0.00     0.105 C  
HETATM    8  N   UNL     1      -8.847  18.850  69.163  1.00  0.00    -0.113 N  
HETATM    9  OXT UNL     1      -5.851  20.780  69.841  1.00  0.00    -0.421 OA 
HETATM   10  O   UNL     1      -7.762  20.367  70.955  1.00  0.00     0.614 OA 
HETATM   11  C   UNL     1      -9.759  18.532  68.184  1.00  0.00    -0.339 C  
HETATM   12  CA  UNL     1     -10.090  17.173  68.843  1.00  0.00    -0.322 C  
HETATM   13  O   UNL     1     -10.003  19.078  67.135  1.00  0.00    -0.311 OA 
ENDROOT
BRANCH  12  14
HETATM   14  N   UNL     1      -9.963  15.968  67.983  1.00  0.00    -0.227 N  
HETATM   15  C   UNL     1     -10.464  14.749  68.396  1.00  0.00    -0.243 C  
HETATM   16  H   UNL     1      -9.499  16.041  67.077  1.00  0.00     0.000 HD 
HETATM   17  O   UNL     1     -11.016  14.644  69.493  1.00  0.00    -0.250 OA 
BRANCH  15  18
HETATM   18  CA  UNL     1     -10.149  13.521  67.507  1.00  0.00    -0.234 C  
BRANCH  18  19
HETATM   19  N   UNL     1     -11.287  12.607  67.560  1.00  0.00    -0.288 N  
HETATM   20  H   UNL     1     -11.981  12.723  68.298  1.00  0.00     0.000 HD 
BRANCH  19  21
HETATM   21  C   UNL     1     -11.450  11.604  66.651  1.00  0.00    -0.206 C  
HETATM   22  O   UNL     1     -12.201  11.705  65.682  1.00  0.00    -0.134 OA 
BRANCH  21  23
HETATM   23  N   UNL     1     -10.722  10.459  66.880  1.00  0.00    -0.236 N  
HETATM   24  C   UNL     1      -9.949   8.351  66.128  1.00  0.00    -0.042 C  
HETATM   25  N   UNL     1     -10.221   8.380  67.570  1.00  0.00    -0.224 N  
HETATM   26  C   UNL     1      -9.936   9.845  65.822  1.00  0.00    -0.277 C  
HETATM   27  O   UNL     1     -11.253   9.848  69.073  1.00  0.00    -0.184 OA 
HETATM   28  C   UNL     1     -10.791   9.600  67.975  1.00  0.00    -0.196 C  
BRANCH  25  29
HETATM   29  S   UNL     1      -9.861   7.079  68.527  1.00  0.00    -0.150 S  
HETATM   30  O   UNL     1      -9.609   7.577  69.864  1.00  0.00    -0.161 OA 
HETATM   31  C   UNL     1      -8.303   6.504  67.880  1.00  0.00    -0.115 C  
HETATM   32  O   UNL     1     -10.851   6.052  68.301  1.00  0.00    -0.275 OA 
ENDBRANCH  25  29
ENDBRANCH  21  23
ENDBRANCH  19  21
ENDBRANCH  18  19
BRANCH  18  33
HETATM   33  C   UNL     1      -8.835  12.828  67.834  1.00  0.00    -0.186 A  
HETATM   34  C   UNL     1      -6.355  11.608  68.373  1.00  0.00    -0.051 A  
HETATM   35  C   UNL     1      -7.878  12.650  66.815  1.00  0.00     0.159 A  
HETATM   36  C   UNL     1      -6.653  12.041  67.084  1.00  0.00    -0.143 A  
HETATM   37  C   UNL     1      -7.284  11.785  69.396  1.00  0.00     0.075 A  
HETATM   38  C   UNL     1      -8.515  12.389  69.130  1.00  0.00     0.601 A  
ENDBRANCH  18  33
ENDBRANCH  15  18
ENDBRANCH  12  14
TORSDOF 7
ENDMDL
MODEL      185
REMARK 921   NORMALIZED FREE ENERGY PREDICTED BY IDOCK:   -2.11 KCAL/MOL
REMARK 922        TOTAL FREE ENERGY PREDICTED BY IDOCK:   -4.49 KCAL/MOL
REMARK 923 INTER-LIGAND FREE ENERGY PREDICTED BY IDOCK:   -4.31 KCAL/MOL
REMARK 924 INTRA-LIGAND FREE ENERGY PREDICTED BY IDOCK:   -0.17 KCAL/MOL
REMARK 927      BINDING AFFINITY PREDICTED BY RF-SCORE:    0.00 PKD
ROOT
HETATM    1  C   UNL     1     -11.220  12.414  68.867  1.00  0.00    -0.280 C  
HETATM    2  S   UNL     1      -9.501  12.952  69.199  1.00  0.00     0.821 SA 
HETATM    3  C   UNL     1      -9.687  14.608  68.397  1.00  0.00    -0.217 C  
HETATM    4  CA  UNL     1     -11.211  14.887  68.374  1.00  0.00    -0.292 C  
HETATM    5  C   UNL     1      -9.101  14.494  66.977  1.00  0.00    -0.254 C  
HETATM    6  C   UNL     1      -8.839  15.634  69.157  1.00  0.00    -0.251 C  
HETATM    7  C   UNL     1     -11.757  15.640  69.601  1.00  0.00    -0.361 C  
HETATM    8  N   UNL     1     -11.895  13.585  68.258  1.00  0.00    -0.356 N  
HETATM    9  OXT UNL     1     -11.389  16.752  69.952  1.00  0.00    -0.034 OA 
HETATM   10  O   UNL     1     -12.745  14.983  70.260  1.00  0.00    -0.329 OA 
HETATM   11  C   UNL     1     -11.988  12.996  67.019  1.00  0.00    -0.347 C  
HETATM   12  CA  UNL     1     -11.505  11.630  67.559  1.00  0.00    -0.289 C  
HETATM   13  O   UNL     1     -12.189  13.486  65.934  1.00  0.00    -0.415 OA 
ENDROOT
BRANCH  12  14
HETATM   14  N   UNL     1     -10.341  11.015  66.869  1.00  0.00    -0.225 N  
HETATM   15  C   UNL     1      -9.948   9.725  67.160  1.00  0.00    -0.198 C  
HETATM   16  H   UNL     1      -9.826  11.554  66.172  1.00  0.00     0.000 HD 
HETATM   17  O   UNL     1     -10.554   9.067  68.009  1.00  0.00    -0.229 OA 
BRANCH  15  18
HETATM   18  CA  UNL     1      -8.636   9.224  66.508  1.00  0.00    -0.130 C  
BRANCH  18  19
HETATM   19  N   UNL     1      -7.509   9.706  67.302  1.00  0.00    -0.088 N  
HETATM   20  H   UNL     1      -7.326  10.708  67.342  1.00  0.00     0.000 HD 
BRANCH  19  21
HETATM   21  C   UNL     1      -6.696   8.857  67.992  1.00  0.00    -0.069 C  
HETATM   22  O   UNL     1      -5.597   9.201  68.426  1.00  0.00    -0.037 OA 
BRANCH  21  23
HETATM   23  N   UNL     1      -7.174   7.580  68.177  1.00  0.00    -0.088 N  
HETATM   24  C   UNL     1      -8.043   5.918  69.622  1.00  0.00    -0.106 C  
HETATM   25  N   UNL     1      -7.184   5.367  68.567  1.00  0.00    -0.072 N  
HETATM   26  C   UNL     1      -8.291   7.318  69.070  1.00  0.00    -0.126 C  
HETATM   27  O   UNL     1      -5.716   6.220  66.957  1.00  0.00    -0.012 OA 
HETATM   28  C   UNL     1      -6.584   6.376  67.795  1.00  0.00    -0.062 C  
BRANCH  25  29
HETATM   29  S   UNL     1      -7.009   3.732  68.386  1.00  0.00    -0.051 S  
HETATM   30  O   UNL     1      -8.301   3.125  68.633  1.00  0.00    -0.063 OA 
HETATM   31  C   UNL     1      -5.947   3.272  69.741  1.00  0.00    -0.023 C  
HETATM   32  O   UNL     1      -6.303   3.477  67.152  1.00  0.00    -0.035 OA 
ENDBRANCH  25  29
ENDBRANCH  21  23
ENDBRANCH  19  21
ENDBRANCH  18  19
BRANCH  18  33
HETATM   33  C   UNL     1      -8.494   9.570  65.033  1.00  0.00    -0.165 A  
HETATM   34  C   UNL     1      -8.172  10.288  62.330  1.00  0.00    -0.188 A  
HETATM   35  C   UNL     1      -8.407  10.922  64.649  1.00  0.00     0.119 A  
HETATM   36  C   UNL     1      -8.253  11.275  63.308  1.00  0.00     0.427 A  
HETATM   37  C   UNL     1      -8.245   8.945  62.692  1.00  0.00    -0.190 A  
HETATM   38  C   UNL     1      -8.406   8.587  64.032  1.00  0.00    -0.099 A  
ENDBRANCH  18  33
ENDBRANCH  15  18
ENDBRANCH  12  14
TORSDOF 7
ENDMDL
MODEL      186
REMARK 921   NORMALIZED FREE ENERGY PREDICTED BY IDOCK:   -2.03 KCAL/MOL
REMARK 922        TOTAL FREE ENERGY PREDICTED BY IDOCK:   -4.38 KCAL/MOL
REMARK 923 INTER-LIGAND FREE ENERGY PREDICTED BY IDOCK:   -2.86 KCAL/MOL
REMARK 924 INTRA-LIGAND FREE ENERGY PREDICTED BY IDOCK:   -1.52 KCAL/MOL
REMARK 927      BINDING AFFINITY PREDICTED BY RF-SCORE:    0.00 PKD
ROOT
HETATM    1  C   UNL     1      -6.314   5.389  65.224  1.00  0.00    -0.035 C  
HETATM    2  S   UNL     1      -6.366   5.567  67.047  1.00  0.00    -0.040 SA 
HETATM    3  C   UNL     1      -7.932   4.607  67.263  1.00  0.00    -0.101 C  
HETATM    4  CA  UNL     1      -8.066   3.742  65.985  1.00  0.00    -0.100 C  
HETATM    5  C   UNL     1      -9.078   5.629  67.390  1.00  0.00    -0.110 C  
HETATM    6  C   UNL     1      -7.868   3.830  68.582  1.00  0.00    -0.063 C  
HETATM    7  C   UNL     1      -7.429   2.344  66.070  1.00  0.00    -0.067 C  
HETATM    8  N   UNL     1      -7.443   4.494  64.878  1.00  0.00    -0.072 N  
HETATM    9  OXT UNL     1      -7.745   1.487  66.885  1.00  0.00    -0.062 OA 
HETATM   10  O   UNL     1      -6.496   2.099  65.115  1.00  0.00    -0.023 OA 
HETATM   11  C   UNL     1      -8.164   5.496  64.272  1.00  0.00    -0.124 C  
HETATM   12  CA  UNL     1      -6.982   6.489  64.359  1.00  0.00    -0.047 C  
HETATM   13  O   UNL     1      -9.337   5.554  63.989  1.00  0.00     0.428 OA 
ENDROOT
BRANCH  12  14
HETATM   14  N   UNL     1      -7.257   7.794  65.014  1.00  0.00    -0.063 N  
HETATM   15  C   UNL     1      -7.188   8.973  64.299  1.00  0.00    -0.091 C  
HETATM   16  H   UNL     1      -7.500   7.820  66.005  1.00  0.00     0.000 HD 
HETATM   17  O   UNL     1      -6.885   8.957  63.104  1.00  0.00    -0.091 OA 
BRANCH  15  18
HETATM   18  CA  UNL     1      -7.338  10.291  65.096  1.00  0.00    -0.127 C  
BRANCH  18  19
HETATM   19  N   UNL     1      -6.441  10.241  66.247  1.00  0.00    -0.088 N  
HETATM   20  H   UNL     1      -5.790   9.461  66.333  1.00  0.00     0.000 HD 
BRANCH  19  21
HETATM   21  C   UNL     1      -6.448  11.206  67.210  1.00  0.00    -0.079 C  
HETATM   22  O   UNL     1      -6.290  12.398  66.953  1.00  0.00    -0.169 OA 
BRANCH  21  23
HETATM   23  N   UNL     1      -6.641  10.769  68.501  1.00  0.00    -0.054 N  
HETATM   24  C   UNL     1      -6.014  10.814  70.784  1.00  0.00    -0.048 C  
HETATM   25  N   UNL     1      -6.478   9.493  70.343  1.00  0.00    -0.068 N  
HETATM   26  C   UNL     1      -6.511  11.678  69.629  1.00  0.00    -0.124 C  
HETATM   27  O   UNL     1      -6.979   8.465  68.301  1.00  0.00    -0.070 OA 
HETATM   28  C   UNL     1      -6.731   9.456  68.961  1.00  0.00    -0.050 C  
BRANCH  25  29
HETATM   29  S   UNL     1      -6.654   8.253  71.424  1.00  0.00    -0.057 S  
HETATM   30  O   UNL     1      -8.024   8.275  71.894  1.00  0.00    -0.107 OA 
HETATM   31  C   UNL     1      -5.623   8.743  72.793  1.00  0.00    -0.078 C  
HETATM   32  O   UNL     1      -6.096   7.053  70.846  1.00  0.00    -0.035 OA 
ENDBRANCH  25  29
ENDBRANCH  21  23
ENDBRANCH  19  21
ENDBRANCH  18  19
BRANCH  18  33
HETATM   33  C   UNL     1      -8.768  10.629  65.491  1.00  0.00    -0.199 A  
HETATM   34  C   UNL     1     -11.437  11.263  66.123  1.00  0.00     0.109 A  
HETATM   35  C   UNL     1      -9.493  11.559  64.720  1.00  0.00    -0.129 A  
HETATM   36  C   UNL     1     -10.814  11.875  65.039  1.00  0.00    -0.351 A  
HETATM   37  C   UNL     1     -10.740  10.332  66.890  1.00  0.00    -0.252 A  
HETATM   38  C   UNL     1      -9.415  10.018  66.578  1.00  0.00    -0.222 A  
ENDBRANCH  18  33
ENDBRANCH  15  18
ENDBRANCH  12  14
TORSDOF 7
ENDMDL
MODEL      187
REMARK 921   NORMALIZED FREE ENERGY PREDICTED BY IDOCK:   -1.99 KCAL/MOL
REMARK 922        TOTAL FREE ENERGY PREDICTED BY IDOCK:   -4.32 KCAL/MOL
REMARK 923 INTER-LIGAND FREE ENERGY PREDICTED BY IDOCK:   -3.35 KCAL/MOL
REMARK 924 INTRA-LIGAND FREE ENERGY PREDICTED BY IDOCK:   -0.97 KCAL/MOL
REMARK 927      BINDING AFFINITY PREDICTED BY RF-SCORE:    0.00 PKD
ROOT
HETATM    1  C   UNL     1      -6.835   9.922  68.529  1.00  0.00    -0.059 C  
HETATM    2  S   UNL     1      -6.982   8.241  67.815  1.00  0.00    -0.080 SA 
HETATM    3  C   UNL     1      -8.400   8.656  66.704  1.00  0.00    -0.108 C  
HETATM    4  CA  UNL     1      -8.360  10.196  66.540  1.00  0.00    -0.124 C  
HETATM    5  C   UNL     1      -9.686   8.186  67.412  1.00  0.00    -0.221 C  
HETATM    6  C   UNL     1      -8.276   7.851  65.406  1.00  0.00    -0.139 C  
HETATM    7  C   UNL     1      -7.532  10.706  65.347  1.00  0.00    -0.028 C  
HETATM    8  N   UNL     1      -7.809  10.757  67.789  1.00  0.00    -0.107 N  
HETATM    9  OXT UNL     1      -7.752  10.420  64.178  1.00  0.00    -0.129 OA 
HETATM   10  O   UNL     1      -6.538  11.565  65.687  1.00  0.00     0.386 OA 
HETATM   11  C   UNL     1      -8.643  10.898  68.873  1.00  0.00    -0.140 C  
HETATM   12  CA  UNL     1      -7.621  10.239  69.828  1.00  0.00    -0.162 C  
HETATM   13  O   UNL     1      -9.801  11.239  68.931  1.00  0.00    -0.198 OA 
ENDROOT
BRANCH  12  14
HETATM   14  N   UNL     1      -8.106   9.084  70.628  1.00  0.00    -0.145 N  
HETATM   15  C   UNL     1      -7.499   8.747  71.821  1.00  0.00    -0.042 C  
HETATM   16  H   UNL     1      -8.896   8.534  70.291  1.00  0.00     0.000 HD 
HETATM   17  O   UNL     1      -6.536   9.397  72.234  1.00  0.00    -0.298 OA 
BRANCH  15  18
HETATM   18  CA  UNL     1      -7.970   7.441  72.506  1.00  0.00    -0.100 C  
BRANCH  18  19
HETATM   19  N   UNL     1      -7.198   6.327  71.962  1.00  0.00    -0.089 N  
HETATM   20  H   UNL     1      -6.396   6.527  71.365  1.00  0.00     0.000 HD 
BRANCH  19  21
HETATM   21  C   UNL     1      -7.517   5.029  72.228  1.00  0.00    -0.093 C  
HETATM   22  O   UNL     1      -7.621   4.595  73.374  1.00  0.00    -0.081 OA 
BRANCH  21  23
HETATM   23  N   UNL     1      -7.719   4.221  71.132  1.00  0.00    -0.065 N  
HETATM   24  C   UNL     1      -7.004   2.424  69.765  1.00  0.00    -0.033 C  
HETATM   25  N   UNL     1      -7.661   3.496  69.007  1.00  0.00    -0.052 N  
HETATM   26  C   UNL     1      -7.422   2.798  71.184  1.00  0.00    -0.033 C  
HETATM   27  O   UNL     1      -8.376   5.683  69.431  1.00  0.00    -0.104 OA 
HETATM   28  C   UNL     1      -7.970   4.603  69.815  1.00  0.00    -0.065 C  
BRANCH  25  29
HETATM   29  S   UNL     1      -7.963   3.324  67.389  1.00  0.00    -0.078 S  
HETATM   30  O   UNL     1      -9.320   3.770  67.149  1.00  0.00    -0.170 OA 
HETATM   31  C   UNL     1      -7.940   1.559  67.144  1.00  0.00    -0.065 C  
HETATM   32  O   UNL     1      -6.861   3.897  66.650  1.00  0.00    -0.055 OA 
ENDBRANCH  25  29
ENDBRANCH  21  23
ENDBRANCH  19  21
ENDBRANCH  18  19
BRANCH  18  33
HETATM   33  C   UNL     1      -9.470   7.197  72.431  1.00  0.00    -0.166 A  
HETATM   34  C   UNL     1     -12.232   6.704  72.200  1.00  0.00    -0.269 A  
HETATM   35  C   UNL     1     -10.129   7.336  71.194  1.00  0.00    -0.190 A  
HETATM   36  C   UNL     1     -11.499   7.096  71.084  1.00  0.00    -0.322 A  
HETATM   37  C   UNL     1     -11.595   6.550  73.430  1.00  0.00     0.596 A  
HETATM   38  C   UNL     1     -10.226   6.795  73.546  1.00  0.00    -0.320 A  
ENDBRANCH  18  33
ENDBRANCH  15  18
ENDBRANCH  12  14
TORSDOF 7
ENDMDL
MODEL      188
REMARK 921   NORMALIZED FREE ENERGY PREDICTED BY IDOCK:   -1.71 KCAL/MOL
REMARK 922        TOTAL FREE ENERGY PREDICTED BY IDOCK:   -3.93 KCAL/MOL
REMARK 923 INTER-LIGAND FREE ENERGY PREDICTED BY IDOCK:   -3.62 KCAL/MOL
REMARK 924 INTRA-LIGAND FREE ENERGY PREDICTED BY IDOCK:   -0.31 KCAL/MOL
REMARK 927      BINDING AFFINITY PREDICTED BY RF-SCORE:    0.00 PKD
ROOT
HETATM    1  C   UNL     1      -8.233  16.710  67.877  1.00  0.00    -0.180 C  
HETATM    2  S   UNL     1      -9.243  16.662  66.350  1.00  0.00    -0.300 SA 
HETATM    3  C   UNL     1     -10.261  18.146  66.777  1.00  0.00    -0.372 C  
HETATM    4  CA  UNL     1      -9.430  18.928  67.825  1.00  0.00    -0.302 C  
HETATM    5  C   UNL     1     -11.590  17.633  67.363  1.00  0.00     1.207 C  
HETATM    6  C   UNL     1     -10.596  18.913  65.494  1.00  0.00    -0.063 C  
HETATM    7  C   UNL     1      -8.480  19.992  67.246  1.00  0.00    -0.334 C  
HETATM    8  N   UNL     1      -8.646  17.940  68.591  1.00  0.00    -0.293 N  
HETATM    9  OXT UNL     1      -8.837  20.946  66.570  1.00  0.00     0.163 OA 
HETATM   10  O   UNL     1      -7.178  19.819  67.590  1.00  0.00    -0.245 OA 
HETATM   11  C   UNL     1      -9.265  17.248  69.605  1.00  0.00     0.719 C  
HETATM   12  CA  UNL     1      -8.716  15.892  69.104  1.00  0.00    -0.256 C  
HETATM   13  O   UNL     1     -10.077  17.616  70.421  1.00  0.00     1.051 OA 
ENDROOT
BRANCH  12  14
HETATM   14  N   UNL     1      -9.715  14.821  68.855  1.00  0.00    -0.220 N  
HETATM   15  C   UNL     1      -9.386  13.708  68.108  1.00  0.00    -0.212 C  
HETATM   16  H   UNL     1     -10.655  14.908  69.241  1.00  0.00     0.000 HD 
HETATM   17  O   UNL     1      -8.256  13.595  67.626  1.00  0.00    -0.151 OA 
BRANCH  15  18
HETATM   18  CA  UNL     1     -10.530  12.721  67.771  1.00  0.00    -0.223 C  
BRANCH  18  19
HETATM   19  N   UNL     1     -10.200  11.416  68.337  1.00  0.00    -0.192 N  
HETATM   20  H   UNL     1      -9.980  11.349  69.330  1.00  0.00     0.000 HD 
BRANCH  19  21
HETATM   21  C   UNL     1     -10.175  10.285  67.577  1.00  0.00    -0.210 C  
HETATM   22  O   UNL     1     -11.141   9.528  67.486  1.00  0.00    -0.173 OA 
BRANCH  21  23
HETATM   23  N   UNL     1      -8.998  10.031  66.910  1.00  0.00    -0.135 N  
HETATM   24  C   UNL     1      -6.754  10.620  66.440  1.00  0.00    -0.124 C  
HETATM   25  N   UNL     1      -7.450  10.049  65.282  1.00  0.00    -0.132 N  
HETATM   26  C   UNL     1      -7.711  10.222  67.559  1.00  0.00    -0.094 C  
HETATM   27  O   UNL     1      -9.656   9.494  64.733  1.00  0.00    -0.216 OA 
HETATM   28  C   UNL     1      -8.811   9.817  65.546  1.00  0.00    -0.163 C  
BRANCH  25  29
HETATM   29  S   UNL     1      -6.640   9.745  63.872  1.00  0.00    -0.125 S  
HETATM   30  O   UNL     1      -5.336  10.368  63.976  1.00  0.00    -0.123 OA 
HETATM   31  C   UNL     1      -7.562  10.661  62.653  1.00  0.00    -0.077 C  
HETATM   32  O   UNL     1      -6.759   8.338  63.565  1.00  0.00    -0.082 OA 
ENDBRANCH  25  29
ENDBRANCH  21  23
ENDBRANCH  19  21
ENDBRANCH  18  19
BRANCH  18  33
HETATM   33  C   UNL     1     -10.875  12.639  66.291  1.00  0.00    -0.300 A  
HETATM   34  C   UNL     1     -11.419  12.458  63.535  1.00  0.00    -0.561 A  
HETATM   35  C   UNL     1      -9.901  12.989  65.336  1.00  0.00    -0.127 A  
HETATM   36  C   UNL     1     -10.174  12.903  63.971  1.00  0.00    -0.256 A  
HETATM   37  C   UNL     1     -12.392  12.097  64.464  1.00  0.00    -0.395 A  
HETATM   38  C   UNL     1     -12.124  12.187  65.831  1.00  0.00    -0.128 A  
ENDBRANCH  18  33
ENDBRANCH  15  18
ENDBRANCH  12  14
TORSDOF 7
ENDMDL
MODEL      189
REMARK 921   NORMALIZED FREE ENERGY PREDICTED BY IDOCK:   -1.69 KCAL/MOL
REMARK 922        TOTAL FREE ENERGY PREDICTED BY IDOCK:   -3.90 KCAL/MOL
REMARK 923 INTER-LIGAND FREE ENERGY PREDICTED BY IDOCK:   -4.98 KCAL/MOL
REMARK 924 INTRA-LIGAND FREE ENERGY PREDICTED BY IDOCK:    1.08 KCAL/MOL
REMARK 927      BINDING AFFINITY PREDICTED BY RF-SCORE:    0.00 PKD
ROOT
HETATM    1  C   UNL     1      -9.931  11.273  66.776  1.00  0.00    -0.206 C  
HETATM    2  S   UNL     1      -8.129  11.593  66.855  1.00  0.00    -0.150 SA 
HETATM    3  C   UNL     1      -7.675  10.289  65.626  1.00  0.00    -0.148 C  
HETATM    4  CA  UNL     1      -8.966  10.018  64.813  1.00  0.00    -0.212 C  
HETATM    5  C   UNL     1      -7.227   9.048  66.423  1.00  0.00    -0.087 C  
HETATM    6  C   UNL     1      -6.468  10.764  64.809  1.00  0.00     0.213 C  
HETATM    7  C   UNL     1      -9.133  10.876  63.546  1.00  0.00    -0.202 C  
HETATM    8  N   UNL     1     -10.110  10.255  65.715  1.00  0.00    -0.263 N  
HETATM    9  OXT UNL     1      -8.347  10.888  62.609  1.00  0.00    -0.196 OA 
HETATM   10  O   UNL     1     -10.278  11.604  63.515  1.00  0.00    -0.353 OA 
HETATM   11  C   UNL     1     -10.467   9.267  66.603  1.00  0.00    -0.167 C  
HETATM   12  CA  UNL     1     -10.543  10.264  67.783  1.00  0.00    -0.250 C  
HETATM   13  O   UNL     1     -10.494   8.067  66.468  1.00  0.00    -0.240 OA 
ENDROOT
BRANCH  12  14
HETATM   14  N   UNL     1      -9.737   9.932  68.986  1.00  0.00    -0.183 N  
HETATM   15  C   UNL     1      -9.697   8.642  69.477  1.00  0.00    -0.179 C  
HETATM   16  H   UNL     1      -9.206  10.666  69.456  1.00  0.00     0.000 HD 
HETATM   17  O   UNL     1     -10.344   7.748  68.927  1.00  0.00    -0.208 OA 
BRANCH  15  18
HETATM   18  CA  UNL     1      -8.959   8.422  70.820  1.00  0.00    -0.155 C  
BRANCH  18  19
HETATM   19  N   UNL     1      -7.664   7.807  70.542  1.00  0.00    -0.086 N  
HETATM   20  H   UNL     1      -6.828   8.390  70.548  1.00  0.00     0.000 HD 
BRANCH  19  21
HETATM   21  C   UNL     1      -7.539   6.476  70.273  1.00  0.00    -0.096 C  
HETATM   22  O   UNL     1      -7.527   6.031  69.126  1.00  0.00    -0.082 OA 
BRANCH  21  23
HETATM   23  N   UNL     1      -7.428   5.648  71.367  1.00  0.00    -0.092 N  
HETATM   24  C   UNL     1      -6.063   4.434  72.873  1.00  0.00    -0.017 C  
HETATM   25  N   UNL     1      -7.335   3.761  72.582  1.00  0.00    -0.057 N  
HETATM   26  C   UNL     1      -6.366   5.832  72.343  1.00  0.00    -0.053 C  
HETATM   27  O   UNL     1      -9.087   4.031  71.055  1.00  0.00    -0.101 OA 
HETATM   28  C   UNL     1      -8.076   4.436  71.597  1.00  0.00    -0.096 C  
BRANCH  25  29
HETATM   29  S   UNL     1      -7.759   2.373  73.377  1.00  0.00    -0.043 S  
HETATM   30  O   UNL     1      -8.373   1.486  72.410  1.00  0.00    -0.051 OA 
HETATM   31  C   UNL     1      -9.046   2.905  74.489  1.00  0.00    -0.078 C  
HETATM   32  O   UNL     1      -6.634   1.931  74.168  1.00  0.00    -0.019 OA 
ENDBRANCH  25  29
ENDBRANCH  21  23
ENDBRANCH  19  21
ENDBRANCH  18  19
BRANCH  18  33
HETATM   33  C   UNL     1      -9.758   7.646  71.857  1.00  0.00    -0.203 A  
HETATM   34  C   UNL     1     -11.264   6.145  73.702  1.00  0.00     0.272 A  
HETATM   35  C   UNL     1     -10.989   7.070  71.488  1.00  0.00    -0.260 A  
HETATM   36  C   UNL     1     -11.736   6.331  72.406  1.00  0.00    -0.301 A  
HETATM   37  C   UNL     1     -10.043   6.698  74.082  1.00  0.00    -0.390 A  
HETATM   38  C   UNL     1      -9.295   7.444  73.169  1.00  0.00    -0.235 A  
ENDBRANCH  18  33
ENDBRANCH  15  18
ENDBRANCH  12  14
TORSDOF 7
ENDMDL
MODEL      190
REMARK 921   NORMALIZED FREE ENERGY PREDICTED BY IDOCK:   -1.59 KCAL/MOL
REMARK 922        TOTAL FREE ENERGY PREDICTED BY IDOCK:   -3.77 KCAL/MOL
REMARK 923 INTER-LIGAND FREE ENERGY PREDICTED BY IDOCK:   -2.38 KCAL/MOL
REMARK 924 INTRA-LIGAND FREE ENERGY PREDICTED BY IDOCK:   -1.38 KCAL/MOL
REMARK 927      BINDING AFFINITY PREDICTED BY RF-SCORE:    0.00 PKD
ROOT
HETATM    1  C   UNL     1     -12.550  13.872  68.996  1.00  0.00     0.380 C  
HETATM    2  S   UNL     1     -11.416  13.123  70.223  1.00  0.00     0.339 SA 
HETATM    3  C   UNL     1     -10.911  14.729  70.986  1.00  0.00     0.133 C  
HETATM    4  CA  UNL     1     -12.033  15.733  70.618  1.00  0.00    -0.393 C  
HETATM    5  C   UNL     1      -9.558  15.124  70.363  1.00  0.00     0.579 C  
HETATM    6  C   UNL     1     -10.677  14.523  72.487  1.00  0.00     2.659 C  
HETATM    7  C   UNL     1     -13.181  15.835  71.638  1.00  0.00    -0.386 C  
HETATM    8  N   UNL     1     -12.579  15.320  69.310  1.00  0.00     0.044 N  
HETATM    9  OXT UNL     1     -13.041  16.164  72.808  1.00  0.00    -0.439 OA 
HETATM   10  O   UNL     1     -14.408  15.575  71.121  1.00  0.00    -0.516 OA 
HETATM   11  C   UNL     1     -11.897  15.670  68.169  1.00  0.00    -0.083 C  
HETATM   12  CA  UNL     1     -11.984  14.236  67.598  1.00  0.00    -0.365 C  
HETATM   13  O   UNL     1     -11.312  16.689  67.890  1.00  0.00    -0.199 OA 
ENDROOT
BRANCH  12  14
HETATM   14  N   UNL     1     -10.702  13.599  67.198  1.00  0.00    -0.275 N  
HETATM   15  C   UNL     1     -10.653  12.262  66.858  1.00  0.00    -0.224 C  
HETATM   16  H   UNL     1      -9.848  14.157  67.175  1.00  0.00     0.000 HD 
HETATM   17  O   UNL     1     -11.676  11.575  66.894  1.00  0.00    -0.533 OA 
BRANCH  15  18
HETATM   18  CA  UNL     1      -9.254  11.651  66.606  1.00  0.00    -0.191 C  
BRANCH  18  19
HETATM   19  N   UNL     1      -8.272  12.732  66.584  1.00  0.00    -0.406 N  
HETATM   20  H   UNL     1      -8.516  13.612  66.133  1.00  0.00     0.000 HD 
BRANCH  19  21
HETATM   21  C   UNL     1      -7.038  12.598  67.149  1.00  0.00    -0.028 C  
HETATM   22  O   UNL     1      -6.361  11.578  67.025  1.00  0.00    -0.104 OA 
BRANCH  21  23
HETATM   23  N   UNL     1      -6.586  13.677  67.874  1.00  0.00    -0.139 N  
HETATM   24  C   UNL     1      -6.328  14.767  69.960  1.00  0.00    -0.164 C  
HETATM   25  N   UNL     1      -6.560  15.700  68.851  1.00  0.00    -0.111 N  
HETATM   26  C   UNL     1      -5.980  13.501  69.184  1.00  0.00    -0.089 C  
HETATM   27  O   UNL     1      -7.204  15.542  66.607  1.00  0.00    -0.104 OA 
HETATM   28  C   UNL     1      -6.829  15.030  67.645  1.00  0.00    -0.179 C  
BRANCH  25  29
HETATM   29  S   UNL     1      -6.488  17.335  69.092  1.00  0.00    -0.242 S  
HETATM   30  O   UNL     1      -7.827  17.861  68.916  1.00  0.00    -0.267 OA 
HETATM   31  C   UNL     1      -5.513  17.918  67.718  1.00  0.00    -0.144 C  
HETATM   32  O   UNL     1      -5.753  17.591  70.308  1.00  0.00    -0.246 OA 
ENDBRANCH  25  29
ENDBRANCH  21  23
ENDBRANCH  19  21
ENDBRANCH  18  19
BRANCH  18  33
HETATM   33  C   UNL     1      -9.167  10.766  65.371  1.00  0.00    -0.234 A  
HETATM   34  C   UNL     1      -9.042   9.050  63.142  1.00  0.00     0.273 A  
HETATM   35  C   UNL     1      -8.800   9.413  65.518  1.00  0.00    -0.220 A  
HETATM   36  C   UNL     1      -8.734   8.567  64.411  1.00  0.00     0.053 A  
HETATM   37  C   UNL     1      -9.417  10.381  62.979  1.00  0.00    -0.362 A  
HETATM   38  C   UNL     1      -9.478  11.234  64.083  1.00  0.00    -0.200 A  
ENDBRANCH  18  33
ENDBRANCH  15  18
ENDBRANCH  12  14
TORSDOF 7
ENDMDL
MODEL      191
REMARK 921   NORMALIZED FREE ENERGY PREDICTED BY IDOCK:   -1.52 KCAL/MOL
REMARK 922        TOTAL FREE ENERGY PREDICTED BY IDOCK:   -3.66 KCAL/MOL
REMARK 923 INTER-LIGAND FREE ENERGY PREDICTED BY IDOCK:   -2.37 KCAL/MOL
REMARK 924 INTRA-LIGAND FREE ENERGY PREDICTED BY IDOCK:   -1.29 KCAL/MOL
REMARK 927      BINDING AFFINITY PREDICTED BY RF-SCORE:    0.00 PKD
ROOT
HETATM    1  C   UNL     1     -12.155  12.801  68.683  1.00  0.00    -0.113 C  
HETATM    2  S   UNL     1     -10.719  12.796  69.822  1.00  0.00     0.891 SA 
HETATM    3  C   UNL     1     -10.460  14.626  69.771  1.00  0.00     0.007 C  
HETATM    4  CA  UNL     1     -11.811  15.222  69.301  1.00  0.00    -0.329 C  
HETATM    5  C   UNL     1      -9.328  14.898  68.761  1.00  0.00    -0.203 C  
HETATM    6  C   UNL     1      -9.969  15.104  71.142  1.00  0.00     1.362 C  
HETATM    7  C   UNL     1     -12.791  15.591  70.429  1.00  0.00    -0.281 C  
HETATM    8  N   UNL     1     -12.444  14.229  68.411  1.00  0.00     0.038 N  
HETATM    9  OXT UNL     1     -12.554  16.397  71.318  1.00  0.00     0.039 OA 
HETATM   10  O   UNL     1     -13.998  14.976  70.338  1.00  0.00     0.219 OA 
HETATM   11  C   UNL     1     -12.026  14.154  67.103  1.00  0.00    -0.426 C  
HETATM   12  CA  UNL     1     -11.891  12.615  67.167  1.00  0.00    -0.330 C  
HETATM   13  O   UNL     1     -11.718  15.028  66.329  1.00  0.00    -0.246 OA 
ENDROOT
BRANCH  12  14
HETATM   14  N   UNL     1     -10.576  12.046  66.771  1.00  0.00    -0.221 N  
HETATM   15  C   UNL     1     -10.334  10.690  66.870  1.00  0.00    -0.236 C  
HETATM   16  H   UNL     1      -9.843  12.664  66.423  1.00  0.00     0.000 HD 
HETATM   17  O   UNL     1     -11.207   9.933  67.300  1.00  0.00    -0.125 OA 
BRANCH  15  18
HETATM   18  CA  UNL     1      -8.891  10.209  66.584  1.00  0.00    -0.132 C  
BRANCH  18  19
HETATM   19  N   UNL     1      -7.966  11.033  67.357  1.00  0.00    -0.116 N  
HETATM   20  H   UNL     1      -8.064  12.047  67.328  1.00  0.00     0.000 HD 
BRANCH  19  21
HETATM   21  C   UNL     1      -6.974  10.487  68.116  1.00  0.00    -0.073 C  
HETATM   22  O   UNL     1      -5.840  10.963  68.165  1.00  0.00    -0.046 OA 
BRANCH  21  23
HETATM   23  N   UNL     1      -7.312   9.361  68.832  1.00  0.00    -0.072 N  
HETATM   24  C   UNL     1      -7.758   7.037  68.885  1.00  0.00    -0.110 C  
HETATM   25  N   UNL     1      -8.581   7.799  69.831  1.00  0.00    -0.136 N  
HETATM   26  C   UNL     1      -6.694   8.076  68.548  1.00  0.00    -0.066 C  
HETATM   27  O   UNL     1      -9.040  10.056  70.244  1.00  0.00    -0.136 OA 
HETATM   28  C   UNL     1      -8.388   9.185  69.701  1.00  0.00    -0.130 C  
BRANCH  25  29
HETATM   29  S   UNL     1      -9.586   7.026  70.893  1.00  0.00    -0.166 S  
HETATM   30  O   UNL     1     -10.712   7.902  71.145  1.00  0.00    -0.223 OA 
HETATM   31  C   UNL     1      -8.632   6.954  72.397  1.00  0.00    -0.122 C  
HETATM   32  O   UNL     1      -9.798   5.675  70.428  1.00  0.00    -0.176 OA 
ENDBRANCH  25  29
ENDBRANCH  21  23
ENDBRANCH  19  21
ENDBRANCH  18  19
BRANCH  18  33
HETATM   33  C   UNL     1      -8.526  10.158  65.107  1.00  0.00    -0.167 A  
HETATM   34  C   UNL     1      -7.757  10.030  62.402  1.00  0.00    -0.140 A  
HETATM   35  C   UNL     1      -7.212  10.479  64.712  1.00  0.00     0.047 A  
HETATM   36  C   UNL     1      -6.835  10.419  63.370  1.00  0.00    -0.033 A  
HETATM   37  C   UNL     1      -9.057   9.698  62.775  1.00  0.00    -0.254 A  
HETATM   38  C   UNL     1      -9.441   9.762  64.117  1.00  0.00    -0.164 A  
ENDBRANCH  18  33
ENDBRANCH  15  18
ENDBRANCH  12  14
TORSDOF 7
ENDMDL
MODEL      192
REMARK 921   NORMALIZED FREE ENERGY PREDICTED BY IDOCK:   -0.54 KCAL/MOL
REMARK 922        TOTAL FREE ENERGY PREDICTED BY IDOCK:   -2.28 KCAL/MOL
REMARK 923 INTER-LIGAND FREE ENERGY PREDICTED BY IDOCK:   -3.48 KCAL/MOL
REMARK 924 INTRA-LIGAND FREE ENERGY PREDICTED BY IDOCK:    1.20 KCAL/MOL
REMARK 927      BINDING AFFINITY PREDICTED BY RF-SCORE:    0.00 PKD
ROOT
HETATM    1  C   UNL     1     -11.784  11.138  65.562  1.00  0.00     0.764 C  
HETATM    2  S   UNL     1     -11.819  12.764  66.404  1.00  0.00    -0.379 SA 
HETATM    3  C   UNL     1     -11.056  13.694  65.000  1.00  0.00    -0.332 C  
HETATM    4  CA  UNL     1     -11.291  12.816  63.745  1.00  0.00    -0.461 C  
HETATM    5  C   UNL     1      -9.556  13.852  65.319  1.00  0.00     0.113 C  
HETATM    6  C   UNL     1     -11.658  15.102  64.942  1.00  0.00    -0.336 C  
HETATM    7  C   UNL     1     -12.591  13.109  62.975  1.00  0.00     0.340 C  
HETATM    8  N   UNL     1     -11.296  11.408  64.189  1.00  0.00    -0.269 N  
HETATM    9  OXT UNL     1     -12.872  14.190  62.476  1.00  0.00     0.608 OA 
HETATM   10  O   UNL     1     -13.410  12.036  62.839  1.00  0.00    -0.245 OA 
HETATM   11  C   UNL     1     -10.092  10.778  64.400  1.00  0.00    -0.353 C  
HETATM   12  CA  UNL     1     -10.546  10.227  65.772  1.00  0.00     0.006 C  
HETATM   13  O   UNL     1      -9.056  10.846  63.784  1.00  0.00    -0.201 OA 
ENDROOT
BRANCH  12  14
HETATM   14  N   UNL     1      -9.669  10.531  66.933  1.00  0.00    -0.175 N  
HETATM   15  C   UNL     1      -9.756   9.791  68.096  1.00  0.00    -0.145 C  
HETATM   16  H   UNL     1      -8.996  11.294  66.871  1.00  0.00     0.000 HD 
HETATM   17  O   UNL     1     -10.574   8.873  68.188  1.00  0.00    -0.214 OA 
BRANCH  15  18
HETATM   18  CA  UNL     1      -8.917  10.275  69.303  1.00  0.00    -0.179 C  
BRANCH  18  19
HETATM   19  N   UNL     1      -9.744  11.159  70.119  1.00  0.00     0.645 N  
HETATM   20  H   UNL     1      -9.496  11.306  71.096  1.00  0.00     0.000 HD 
BRANCH  19  21
HETATM   21  C   UNL     1     -10.839  11.795  69.613  1.00  0.00     0.112 C  
HETATM   22  O   UNL     1     -11.819  11.185  69.187  1.00  0.00    -0.303 OA 
BRANCH  21  23
HETATM   23  N   UNL     1     -10.787  13.170  69.602  1.00  0.00     0.175 N  
HETATM   24  C   UNL     1     -11.910  15.251  69.468  1.00  0.00    -0.345 C  
HETATM   25  N   UNL     1     -10.592  15.267  68.821  1.00  0.00    -0.233 N  
HETATM   26  C   UNL     1     -11.799  13.964  70.281  1.00  0.00    -0.290 C  
HETATM   27  O   UNL     1      -8.981  13.684  68.210  1.00  0.00    -0.185 OA 
HETATM   28  C   UNL     1      -9.995  13.996  68.807  1.00  0.00    -0.162 C  
BRANCH  25  29
HETATM   29  S   UNL     1      -9.966  16.673  68.213  1.00  0.00    -0.274 S  
HETATM   30  O   UNL     1      -9.865  16.520  66.776  1.00  0.00    -0.246 OA 
HETATM   31  C   UNL     1      -8.304  16.702  68.855  1.00  0.00    -0.230 C  
HETATM   32  O   UNL     1     -10.690  17.786  68.783  1.00  0.00    -0.221 OA 
ENDBRANCH  25  29
ENDBRANCH  21  23
ENDBRANCH  19  21
ENDBRANCH  18  19
BRANCH  18  33
HETATM   33  C   UNL     1      -7.585  10.911  68.929  1.00  0.00    -0.128 A  
HETATM   34  C   UNL     1      -5.163  12.116  68.149  1.00  0.00    -0.058 A  
HETATM   35  C   UNL     1      -7.158  10.875  67.587  1.00  0.00    -0.087 A  
HETATM   36  C   UNL     1      -5.955  11.469  67.204  1.00  0.00    -0.111 A  
HETATM   37  C   UNL     1      -5.575  12.171  69.478  1.00  0.00    -0.079 A  
HETATM   38  C   UNL     1      -6.775  11.573  69.867  1.00  0.00     0.002 A  
ENDBRANCH  18  33
ENDBRANCH  15  18
ENDBRANCH  12  14
TORSDOF 7
ENDMDL
MODEL      193
REMARK 921   NORMALIZED FREE ENERGY PREDICTED BY IDOCK:   -0.25 KCAL/MOL
REMARK 922        TOTAL FREE ENERGY PREDICTED BY IDOCK:   -1.87 KCAL/MOL
REMARK 923 INTER-LIGAND FREE ENERGY PREDICTED BY IDOCK:   -1.17 KCAL/MOL
REMARK 924 INTRA-LIGAND FREE ENERGY PREDICTED BY IDOCK:   -0.70 KCAL/MOL
REMARK 927      BINDING AFFINITY PREDICTED BY RF-SCORE:    0.00 PKD
ROOT
HETATM    1  C   UNL     1     -11.489  13.281  70.605  1.00  0.00     0.588 C  
HETATM    2  S   UNL     1     -10.493  14.470  71.580  1.00  0.00     2.788 SA 
HETATM    3  C   UNL     1     -11.574  15.927  71.221  1.00  0.00    -0.452 C  
HETATM    4  CA  UNL     1     -12.943  15.332  70.803  1.00  0.00    -0.436 C  
HETATM    5  C   UNL     1     -10.913  16.713  70.072  1.00  0.00    -0.148 C  
HETATM    6  C   UNL     1     -11.601  16.848  72.445  1.00  0.00     0.309 C  
HETATM    7  C   UNL     1     -13.944  15.122  71.953  1.00  0.00    -0.528 C  
HETATM    8  N   UNL     1     -12.677  14.038  70.146  1.00  0.00    -0.243 N  
HETATM    9  OXT UNL     1     -14.364  16.013  72.678  1.00  0.00    -0.403 OA 
HETATM   10  O   UNL     1     -14.383  13.844  72.080  1.00  0.00    -0.483 OA 
HETATM   11  C   UNL     1     -12.278  14.035  68.830  1.00  0.00    -0.202 C  
HETATM   12  CA  UNL     1     -11.115  13.057  69.116  1.00  0.00    -0.192 C  
HETATM   13  O   UNL     1     -12.636  14.722  67.903  1.00  0.00     0.193 OA 
ENDROOT
BRANCH  12  14
HETATM   14  N   UNL     1      -9.761  13.489  68.684  1.00  0.00    -0.385 N  
HETATM   15  C   UNL     1      -9.336  13.289  67.385  1.00  0.00    -0.217 C  
HETATM   16  H   UNL     1      -9.137  13.939  69.354  1.00  0.00     0.000 HD 
HETATM   17  O   UNL     1     -10.076  12.736  66.569  1.00  0.00    -0.247 OA 
BRANCH  15  18
HETATM   18  CA  UNL     1      -7.860  13.629  67.067  1.00  0.00     0.127 C  
BRANCH  18  19
HETATM   19  N   UNL     1      -7.036  12.466  67.388  1.00  0.00    -0.148 N  
HETATM   20  H   UNL     1      -7.076  12.078  68.330  1.00  0.00     0.000 HD 
BRANCH  19  21
HETATM   21  C   UNL     1      -6.216  11.886  66.467  1.00  0.00     0.204 C  
HETATM   22  O   UNL     1      -5.202  12.439  66.043  1.00  0.00     0.610 OA 
BRANCH  21  23
HETATM   23  N   UNL     1      -6.587  10.634  66.032  1.00  0.00    -0.126 N  
HETATM   24  C   UNL     1      -6.764   8.307  66.431  1.00  0.00    -0.062 C  
HETATM   25  N   UNL     1      -6.464   8.627  65.031  1.00  0.00    -0.061 N  
HETATM   26  C   UNL     1      -7.204   9.677  66.937  1.00  0.00    -0.090 C  
HETATM   27  O   UNL     1      -5.835  10.529  63.822  1.00  0.00    -0.139 OA 
HETATM   28  C   UNL     1      -6.245  10.001  64.838  1.00  0.00    -0.117 C  
BRANCH  25  29
HETATM   29  S   UNL     1      -6.415   7.436  63.882  1.00  0.00    -0.049 S  
HETATM   30  O   UNL     1      -5.158   7.565  63.174  1.00  0.00    -0.033 OA 
HETATM   31  C   UNL     1      -7.707   7.899  62.745  1.00  0.00    -0.131 C  
HETATM   32  O   UNL     1      -6.785   6.184  64.500  1.00  0.00    -0.040 OA 
ENDBRANCH  25  29
ENDBRANCH  21  23
ENDBRANCH  19  21
ENDBRANCH  18  19
BRANCH  18  33
HETATM   33  C   UNL     1      -7.350  14.900  67.729  1.00  0.00    -0.183 A  
HETATM   34  C   UNL     1      -6.320  17.244  68.900  1.00  0.00    -0.199 A  
HETATM   35  C   UNL     1      -5.980  15.015  68.035  1.00  0.00    -0.157 A  
HETATM   36  C   UNL     1      -5.473  16.175  68.620  1.00  0.00    -0.105 A  
HETATM   37  C   UNL     1      -7.676  17.154  68.594  1.00  0.00    -0.260 A  
HETATM   38  C   UNL     1      -8.189  15.991  68.014  1.00  0.00    -0.151 A  
ENDBRANCH  18  33
ENDBRANCH  15  18
ENDBRANCH  12  14
TORSDOF 7
ENDMDL
MODEL      194
REMARK 921   NORMALIZED FREE ENERGY PREDICTED BY IDOCK:   -0.23 KCAL/MOL
REMARK 922        TOTAL FREE ENERGY PREDICTED BY IDOCK:   -1.85 KCAL/MOL
REMARK 923 INTER-LIGAND FREE ENERGY PREDICTED BY IDOCK:   -1.76 KCAL/MOL
REMARK 924 INTRA-LIGAND FREE ENERGY PREDICTED BY IDOCK:   -0.09 KCAL/MOL
REMARK 927      BINDING AFFINITY PREDICTED BY RF-SCORE:    0.00 PKD
ROOT
HETATM    1  C   UNL     1      -9.438  16.066  69.324  1.00  0.00    -0.245 C  
HETATM    2  S   UNL     1      -7.694  16.223  68.783  1.00  0.00    -0.213 SA 
HETATM    3  C   UNL     1      -8.043  17.459  67.453  1.00  0.00    -0.199 C  
HETATM    4  CA  UNL     1      -9.405  18.096  67.827  1.00  0.00    -0.267 C  
HETATM    5  C   UNL     1      -8.116  16.686  66.121  1.00  0.00    -0.273 C  
HETATM    6  C   UNL     1      -6.865  18.433  67.349  1.00  0.00    -0.205 C  
HETATM    7  C   UNL     1      -9.318  19.358  68.704  1.00  0.00    -0.390 C  
HETATM    8  N   UNL     1     -10.193  17.066  68.533  1.00  0.00    -0.302 N  
HETATM    9  OXT UNL     1      -8.737  20.385  68.385  1.00  0.00     0.055 OA 
HETATM   10  O   UNL     1      -9.998  19.268  69.876  1.00  0.00     0.100 OA 
HETATM   11  C   UNL     1     -10.847  16.112  67.791  1.00  0.00    -0.318 C  
HETATM   12  CA  UNL     1     -10.312  14.962  68.675  1.00  0.00    -0.237 C  
HETATM   13  O   UNL     1     -11.437  16.206  66.741  1.00  0.00     0.180 OA 
ENDROOT
BRANCH  12  14
HETATM   14  N   UNL     1      -9.604  13.858  67.976  1.00  0.00    -0.212 N  
HETATM   15  C   UNL     1      -9.516  12.603  68.544  1.00  0.00    -0.091 C  
HETATM   16  H   UNL     1      -9.177  14.030  67.065  1.00  0.00     0.000 HD 
HETATM   17  O   UNL     1     -10.017  12.385  69.649  1.00  0.00     0.843 OA 
BRANCH  15  18
HETATM   18  CA  UNL     1      -8.630  11.562  67.818  1.00  0.00    -0.138 C  
BRANCH  18  19
HETATM   19  N   UNL     1      -9.474  10.446  67.398  1.00  0.00    -0.149 N  
HETATM   20  H   UNL     1      -9.116   9.496  67.485  1.00  0.00     0.000 HD 
BRANCH  19  21
HETATM   21  C   UNL     1     -10.726  10.638  66.895  1.00  0.00    -0.237 C  
HETATM   22  O   UNL     1     -11.716  10.064  67.348  1.00  0.00     0.242 OA 
BRANCH  21  23
HETATM   23  N   UNL     1     -10.825  11.516  65.839  1.00  0.00    -0.275 N  
HETATM   24  C   UNL     1      -9.871  13.240  64.527  1.00  0.00     0.080 C  
HETATM   25  N   UNL     1     -11.324  13.376  64.683  1.00  0.00    -0.336 N  
HETATM   26  C   UNL     1      -9.680  11.799  64.989  1.00  0.00    -0.187 C  
HETATM   27  O   UNL     1     -12.991  12.381  65.991  1.00  0.00     0.411 OA 
HETATM   28  C   UNL     1     -11.853  12.414  65.561  1.00  0.00    -0.412 C  
BRANCH  25  29
HETATM   29  S   UNL     1     -12.156  14.555  63.874  1.00  0.00     0.102 S  
HETATM   30  O   UNL     1     -11.249  15.666  63.668  1.00  0.00     0.284 OA 
HETATM   31  C   UNL     1     -13.379  15.091  65.056  1.00  0.00     1.289 C  
HETATM   32  O   UNL     1     -12.843  13.951  62.756  1.00  0.00    -0.205 OA 
ENDBRANCH  25  29
ENDBRANCH  21  23
ENDBRANCH  19  21
ENDBRANCH  18  19
BRANCH  18  33
HETATM   33  C   UNL     1      -7.417  11.103  68.614  1.00  0.00    -0.119 A  
HETATM   34  C   UNL     1      -5.152  10.187  70.014  1.00  0.00    -0.037 A  
HETATM   35  C   UNL     1      -7.041   9.746  68.575  1.00  0.00    -0.068 A  
HETATM   36  C   UNL     1      -5.922   9.294  69.273  1.00  0.00    -0.038 A  
HETATM   37  C   UNL     1      -5.502  11.535  70.056  1.00  0.00    -0.094 A  
HETATM   38  C   UNL     1      -6.626  11.991  69.363  1.00  0.00    -0.100 A  
ENDBRANCH  18  33
ENDBRANCH  15  18
ENDBRANCH  12  14
TORSDOF 7
ENDMDL
MODEL      195
REMARK 921   NORMALIZED FREE ENERGY PREDICTED BY IDOCK:    0.57 KCAL/MOL
REMARK 922        TOTAL FREE ENERGY PREDICTED BY IDOCK:   -0.71 KCAL/MOL
REMARK 923 INTER-LIGAND FREE ENERGY PREDICTED BY IDOCK:   -0.89 KCAL/MOL
REMARK 924 INTRA-LIGAND FREE ENERGY PREDICTED BY IDOCK:    0.18 KCAL/MOL
REMARK 927      BINDING AFFINITY PREDICTED BY RF-SCORE:    0.00 PKD
ROOT
HETATM    1  C   UNL     1     -10.974  12.323  70.008  1.00  0.00     0.631 C  
HETATM    2  S   UNL     1      -9.955  13.798  70.386  1.00  0.00     3.181 SA 
HETATM    3  C   UNL     1     -11.107  15.005  69.589  1.00  0.00    -0.273 C  
HETATM    4  CA  UNL     1     -12.480  14.289  69.531  1.00  0.00    -0.128 C  
HETATM    5  C   UNL     1     -10.554  15.303  68.182  1.00  0.00    -0.254 C  
HETATM    6  C   UNL     1     -11.082  16.320  70.375  1.00  0.00    -0.322 C  
HETATM    7  C   UNL     1     -13.392  14.522  70.749  1.00  0.00    -0.189 C  
HETATM    8  N   UNL     1     -12.217  12.843  69.391  1.00  0.00    -0.169 N  
HETATM    9  OXT UNL     1     -13.792  15.619  71.116  1.00  0.00    -0.583 OA 
HETATM   10  O   UNL     1     -13.777  13.384  71.381  1.00  0.00    -0.153 OA 
HETATM   11  C   UNL     1     -11.909  12.346  68.146  1.00  0.00    -0.315 C  
HETATM   12  CA  UNL     1     -10.697  11.555  68.690  1.00  0.00    -0.207 C  
HETATM   13  O   UNL     1     -12.353  12.630  67.059  1.00  0.00    -0.399 OA 
ENDROOT
BRANCH  12  14
HETATM   14  N   UNL     1      -9.390  11.800  68.024  1.00  0.00    -0.178 N  
HETATM   15  C   UNL     1      -8.650  10.752  67.515  1.00  0.00    -0.125 C  
HETATM   16  H   UNL     1      -9.037  12.753  67.942  1.00  0.00     0.000 HD 
HETATM   17  O   UNL     1      -9.060   9.594  67.618  1.00  0.00    -0.131 OA 
BRANCH  15  18
HETATM   18  CA  UNL     1      -7.236  11.084  66.980  1.00  0.00    -0.123 C  
BRANCH  18  19
HETATM   19  N   UNL     1      -6.310  10.055  67.447  1.00  0.00    -0.066 N  
HETATM   20  H   UNL     1      -5.393  10.336  67.792  1.00  0.00     0.000 HD 
BRANCH  19  21
HETATM   21  C   UNL     1      -6.634   8.732  67.435  1.00  0.00    -0.058 C  
HETATM   22  O   UNL     1      -6.791   8.099  66.391  1.00  0.00    -0.064 OA 
BRANCH  21  23
HETATM   23  N   UNL     1      -6.781   8.135  68.666  1.00  0.00    -0.057 N  
HETATM   24  C   UNL     1      -7.950   6.637  70.079  1.00  0.00    -0.116 C  
HETATM   25  N   UNL     1      -7.439   7.815  70.790  1.00  0.00    -0.069 N  
HETATM   26  C   UNL     1      -7.154   6.734  68.782  1.00  0.00    -0.086 C  
HETATM   27  O   UNL     1      -6.486   9.870  70.204  1.00  0.00    -0.067 OA 
HETATM   28  C   UNL     1      -6.854   8.747  69.916  1.00  0.00    -0.042 C  
BRANCH  25  29
HETATM   29  S   UNL     1      -7.579   7.938  72.434  1.00  0.00    -0.108 S  
HETATM   30  O   UNL     1      -8.592   8.935  72.712  1.00  0.00    -0.367 OA 
HETATM   31  C   UNL     1      -6.014   8.627  72.937  1.00  0.00    -0.079 C  
HETATM   32  O   UNL     1      -7.686   6.608  72.989  1.00  0.00    -0.095 OA 
ENDBRANCH  25  29
ENDBRANCH  21  23
ENDBRANCH  19  21
ENDBRANCH  18  19
BRANCH  18  33
HETATM   33  C   UNL     1      -6.752  12.489  67.307  1.00  0.00    -0.122 A  
HETATM   34  C   UNL     1      -5.956  15.119  67.920  1.00  0.00    -0.165 A  
HETATM   35  C   UNL     1      -7.492  13.596  66.845  1.00  0.00     0.525 A  
HETATM   36  C   UNL     1      -7.092  14.898  67.146  1.00  0.00     0.065 A  
HETATM   37  C   UNL     1      -5.218  14.037  68.395  1.00  0.00    -0.103 A  
HETATM   38  C   UNL     1      -5.611  12.732  68.090  1.00  0.00    -0.080 A  
ENDBRANCH  18  33
ENDBRANCH  15  18
ENDBRANCH  12  14
TORSDOF 7
ENDMDL
MODEL      196
REMARK 921   NORMALIZED FREE ENERGY PREDICTED BY IDOCK:    4.71 KCAL/MOL
REMARK 922        TOTAL FREE ENERGY PREDICTED BY IDOCK:    5.11 KCAL/MOL
REMARK 923 INTER-LIGAND FREE ENERGY PREDICTED BY IDOCK:    1.28 KCAL/MOL
REMARK 924 INTRA-LIGAND FREE ENERGY PREDICTED BY IDOCK:    3.83 KCAL/MOL
REMARK 927      BINDING AFFINITY PREDICTED BY RF-SCORE:    0.00 PKD
ROOT
HETATM    1  C   UNL     1     -12.963  15.076  70.699  1.00  0.00    -0.345 C  
HETATM    2  S   UNL     1     -12.906  13.819  69.367  1.00  0.00     1.066 SA 
HETATM    3  C   UNL     1     -12.020  12.548  70.375  1.00  0.00    -0.251 C  
HETATM    4  CA  UNL     1     -12.272  12.942  71.852  1.00  0.00     0.769 C  
HETATM    5  C   UNL     1     -10.527  12.632  70.004  1.00  0.00     1.578 C  
HETATM    6  C   UNL     1     -12.510  11.153  69.971  1.00  0.00    -0.292 C  
HETATM    7  C   UNL     1     -13.515  12.302  72.497  1.00  0.00     0.141 C  
HETATM    8  N   UNL     1     -12.402  14.411  71.899  1.00  0.00    -0.317 N  
HETATM    9  OXT UNL     1     -13.692  11.097  72.613  1.00  0.00     0.336 OA 
HETATM   10  O   UNL     1     -14.407  13.197  72.991  1.00  0.00    -0.031 OA 
HETATM   11  C   UNL     1     -11.259  15.175  71.894  1.00  0.00    -0.192 C  
HETATM   12  CA  UNL     1     -11.807  16.106  70.788  1.00  0.00    -0.250 C  
HETATM   13  O   UNL     1     -10.196  14.997  72.441  1.00  0.00     1.716 OA 
ENDROOT
BRANCH  12  14
HETATM   14  N   UNL     1     -10.956  16.277  69.581  1.00  0.00    -0.333 N  
HETATM   15  C   UNL     1     -11.451  16.894  68.449  1.00  0.00     0.171 C  
HETATM   16  H   UNL     1      -9.995  15.935  69.589  1.00  0.00     0.000 HD 
HETATM   17  O   UNL     1     -12.615  17.301  68.423  1.00  0.00     2.139 OA 
BRANCH  15  18
HETATM   18  CA  UNL     1     -10.548  16.889  67.192  1.00  0.00    -0.249 C  
BRANCH  18  19
HETATM   19  N   UNL     1      -9.686  15.712  67.245  1.00  0.00    -0.218 N  
HETATM   20  H   UNL     1      -8.676  15.835  67.179  1.00  0.00     0.000 HD 
BRANCH  19  21
HETATM   21  C   UNL     1     -10.190  14.453  67.378  1.00  0.00    -0.247 C  
HETATM   22  O   UNL     1     -11.077  14.178  68.185  1.00  0.00    -0.244 OA 
BRANCH  21  23
HETATM   23  N   UNL     1      -9.647  13.494  66.554  1.00  0.00    -0.276 N  
HETATM   24  C   UNL     1      -9.950  11.725  65.009  1.00  0.00    -0.254 C  
HETATM   25  N   UNL     1      -8.788  11.529  65.884  1.00  0.00    -0.155 N  
HETATM   26  C   UNL     1     -10.229  13.205  65.253  1.00  0.00    -0.286 C  
HETATM   27  O   UNL     1      -7.928  12.534  67.814  1.00  0.00    -0.137 OA 
HETATM   28  C   UNL     1      -8.695  12.526  66.870  1.00  0.00    -0.182 C  
BRANCH  25  29
HETATM   29  S   UNL     1      -7.761  10.252  65.654  1.00  0.00    -0.150 S  
HETATM   30  O   UNL     1      -6.533  10.775  65.093  1.00  0.00    -0.036 OA 
HETATM   31  C   UNL     1      -8.557   9.301  64.374  1.00  0.00    -0.195 C  
HETATM   32  O   UNL     1      -7.738   9.456  66.859  1.00  0.00    -0.091 OA 
ENDBRANCH  25  29
ENDBRANCH  21  23
ENDBRANCH  19  21
ENDBRANCH  18  19
BRANCH  18  33
HETATM   33  C   UNL     1      -9.761  18.174  66.979  1.00  0.00    -0.307 A  
HETATM   34  C   UNL     1      -8.282  20.519  66.489  1.00  0.00    -0.104 A  
HETATM   35  C   UNL     1      -8.588  18.141  66.198  1.00  0.00    -0.125 A  
HETATM   36  C   UNL     1      -7.855  19.304  65.961  1.00  0.00    -0.274 A  
HETATM   37  C   UNL     1      -9.445  20.573  67.254  1.00  0.00    -0.559 A  
HETATM   38  C   UNL     1     -10.179  19.411  67.499  1.00  0.00    -0.536 A  
ENDBRANCH  18  33
ENDBRANCH  15  18
ENDBRANCH  12  14
TORSDOF 7
ENDMDL
MODEL      197
REMARK 921   NORMALIZED FREE ENERGY PREDICTED BY IDOCK:    7.16 KCAL/MOL
REMARK 922        TOTAL FREE ENERGY PREDICTED BY IDOCK:    8.57 KCAL/MOL
REMARK 923 INTER-LIGAND FREE ENERGY PREDICTED BY IDOCK:   10.25 KCAL/MOL
REMARK 924 INTRA-LIGAND FREE ENERGY PREDICTED BY IDOCK:   -1.68 KCAL/MOL
REMARK 927      BINDING AFFINITY PREDICTED BY RF-SCORE:    0.00 PKD
ROOT
HETATM    1  C   UNL     1     -11.710  14.052  65.408  1.00  0.00    -0.342 C  
HETATM    2  S   UNL     1      -9.941  14.384  65.063  1.00  0.00    -0.019 SA 
HETATM    3  C   UNL     1      -9.417  12.614  65.166  1.00  0.00     0.254 C  
HETATM    4  CA  UNL     1     -10.707  11.787  64.938  1.00  0.00    -0.295 C  
HETATM    5  C   UNL     1      -8.834  12.393  66.576  1.00  0.00    -0.106 C  
HETATM    6  C   UNL     1      -8.286  12.364  64.163  1.00  0.00     3.162 C  
HETATM    7  C   UNL     1     -10.993  11.411  63.472  1.00  0.00    -0.324 C  
HETATM    8  N   UNL     1     -11.836  12.577  65.467  1.00  0.00    -0.420 N  
HETATM    9  OXT UNL     1     -10.244  10.750  62.768  1.00  0.00    -0.152 OA 
HETATM   10  O   UNL     1     -12.198  11.837  63.016  1.00  0.00    -0.319 OA 
HETATM   11  C   UNL     1     -12.072  12.565  66.821  1.00  0.00    -0.110 C  
HETATM   12  CA  UNL     1     -12.195  14.105  66.880  1.00  0.00    -0.365 C  
HETATM   13  O   UNL     1     -11.999  11.662  67.620  1.00  0.00    -0.618 OA 
ENDROOT
BRANCH  12  14
HETATM   14  N   UNL     1     -11.321  14.806  67.857  1.00  0.00    -0.303 N  
HETATM   15  C   UNL     1     -11.377  16.177  67.999  1.00  0.00    -0.234 C  
HETATM   16  H   UNL     1     -10.672  14.266  68.430  1.00  0.00     0.000 HD 
HETATM   17  O   UNL     1     -12.149  16.842  67.305  1.00  0.00     1.397 OA 
BRANCH  15  18
HETATM   18  CA  UNL     1     -10.326  16.833  68.926  1.00  0.00    -0.317 C  
BRANCH  18  19
HETATM   19  N   UNL     1     -11.015  17.737  69.843  1.00  0.00     0.448 N  
HETATM   20  H   UNL     1     -11.541  18.522  69.462  1.00  0.00     0.000 HD 
BRANCH  19  21
HETATM   21  C   UNL     1     -10.976  17.563  71.195  1.00  0.00     1.871 C  
HETATM   22  O   UNL     1     -10.711  18.478  71.972  1.00  0.00     2.108 OA 
BRANCH  21  23
HETATM   23  N   UNL     1     -11.251  16.292  71.648  1.00  0.00    -0.058 N  
HETATM   24  C   UNL     1     -10.666  14.001  71.771  1.00  0.00     3.724 C  
HETATM   25  N   UNL     1     -12.116  14.220  71.720  1.00  0.00    -0.234 N  
HETATM   26  C   UNL     1     -10.187  15.411  72.104  1.00  0.00     2.519 C  
HETATM   27  O   UNL     1     -13.546  16.024  71.298  1.00  0.00    -0.298 OA 
HETATM   28  C   UNL     1     -12.439  15.574  71.527  1.00  0.00    -0.410 C  
BRANCH  25  29
HETATM   29  S   UNL     1     -13.169  12.955  71.885  1.00  0.00    -0.357 S  
HETATM   30  O   UNL     1     -13.210  12.602  73.290  1.00  0.00     0.903 OA 
HETATM   31  C   UNL     1     -12.354  11.619  71.033  1.00  0.00    -0.301 C  
HETATM   32  O   UNL     1     -14.385  13.270  71.172  1.00  0.00     1.033 OA 
ENDBRANCH  25  29
ENDBRANCH  21  23
ENDBRANCH  19  21
ENDBRANCH  18  19
BRANCH  18  33
HETATM   33  C   UNL     1      -9.179  17.516  68.194  1.00  0.00    -0.277 A  
HETATM   34  C   UNL     1      -7.052  18.845  66.916  1.00  0.00    -0.215 A  
HETATM   35  C   UNL     1      -9.051  18.917  68.270  1.00  0.00    -0.363 A  
HETATM   36  C   UNL     1      -7.999  19.573  67.631  1.00  0.00    -0.320 A  
HETATM   37  C   UNL     1      -7.156  17.458  66.839  1.00  0.00    -0.229 A  
HETATM   38  C   UNL     1      -8.211  16.797  67.471  1.00  0.00    -0.187 A  
ENDBRANCH  18  33
ENDBRANCH  15  18
ENDBRANCH  12  14
TORSDOF 7
ENDMDL
MODEL      198
REMARK 921   NORMALIZED FREE ENERGY PREDICTED BY IDOCK:   20.50 KCAL/MOL
REMARK 922        TOTAL FREE ENERGY PREDICTED BY IDOCK:   27.37 KCAL/MOL
REMARK 923 INTER-LIGAND FREE ENERGY PREDICTED BY IDOCK:   28.53 KCAL/MOL
REMARK 924 INTRA-LIGAND FREE ENERGY PREDICTED BY IDOCK:   -1.15 KCAL/MOL
REMARK 927      BINDING AFFINITY PREDICTED BY RF-SCORE:    0.00 PKD
ROOT
HETATM    1  C   UNL     1      -9.540  10.840  66.296  1.00  0.00    -0.195 C  
HETATM    2  S   UNL     1     -10.218   9.473  65.283  1.00  0.00     0.747 SA 
HETATM    3  C   UNL     1     -11.715  10.404  64.727  1.00  0.00     3.139 C  
HETATM    4  CA  UNL     1     -11.364  11.902  64.917  1.00  0.00    -0.277 C  
HETATM    5  C   UNL     1     -12.885   9.969  65.631  1.00  0.00    12.059 C  
HETATM    6  C   UNL     1     -12.067   9.985  63.296  1.00  0.00     7.232 C  
HETATM    7  C   UNL     1     -10.727  12.584  63.693  1.00  0.00    -0.430 C  
HETATM    8  N   UNL     1     -10.439  11.995  66.062  1.00  0.00    -0.241 N  
HETATM    9  OXT UNL     1     -11.259  12.676  62.595  1.00  0.00     0.570 OA 
HETATM   10  O   UNL     1      -9.514  13.142  63.937  1.00  0.00     0.380 OA 
HETATM   11  C   UNL     1     -10.958  11.959  67.335  1.00  0.00    -0.263 C  
HETATM   12  CA  UNL     1      -9.926  10.904  67.797  1.00  0.00    -0.176 C  
HETATM   13  O   UNL     1     -11.966  12.452  67.782  1.00  0.00    -0.429 OA 
ENDROOT
BRANCH  12  14
HETATM   14  N   UNL     1     -10.471   9.665  68.412  1.00  0.00    -0.214 N  
HETATM   15  C   UNL     1     -10.293   9.406  69.756  1.00  0.00    -0.223 C  
HETATM   16  H   UNL     1     -10.982   8.998  67.833  1.00  0.00     0.000 HD 
HETATM   17  O   UNL     1      -9.667  10.198  70.463  1.00  0.00    -0.002 OA 
BRANCH  15  18
HETATM   18  CA  UNL     1     -10.758   8.024  70.274  1.00  0.00    -0.239 C  
BRANCH  18  19
HETATM   19  N   UNL     1     -11.052   7.172  69.125  1.00  0.00    -0.449 N  
HETATM   20  H   UNL     1     -11.068   7.587  68.194  1.00  0.00     0.000 HD 
BRANCH  19  21
HETATM   21  C   UNL     1     -11.304   5.839  69.260  1.00  0.00     0.220 C  
HETATM   22  O   UNL     1     -12.395   5.342  68.983  1.00  0.00     5.588 OA 
BRANCH  21  23
HETATM   23  N   UNL     1     -10.262   5.072  69.728  1.00  0.00    -0.277 N  
HETATM   24  C   UNL     1      -8.903   4.364  71.533  1.00  0.00    -0.118 C  
HETATM   25  N   UNL     1      -8.169   4.461  70.266  1.00  0.00    -0.065 N  
HETATM   26  C   UNL     1     -10.339   4.410  71.021  1.00  0.00     0.057 C  
HETATM   27  O   UNL     1      -8.576   5.326  68.131  1.00  0.00    -0.100 OA 
HETATM   28  C   UNL     1      -8.961   4.995  69.236  1.00  0.00    -0.096 C  
BRANCH  25  29
HETATM   29  S   UNL     1      -6.592   3.968  70.162  1.00  0.00    -0.033 S  
HETATM   30  O   UNL     1      -5.757   5.109  70.476  1.00  0.00    -0.015 OA 
HETATM   31  C   UNL     1      -6.376   3.623  68.427  1.00  0.00    -0.033 C  
HETATM   32  O   UNL     1      -6.447   2.729  70.890  1.00  0.00    -0.022 OA 
ENDBRANCH  25  29
ENDBRANCH  21  23
ENDBRANCH  19  21
ENDBRANCH  18  19
BRANCH  18  33
HETATM   33  C   UNL     1     -11.913   8.079  71.264  1.00  0.00    -0.321 A  
HETATM   34  C   UNL     1     -13.983   8.169  73.170  1.00  0.00     0.863 A  
HETATM   35  C   UNL     1     -11.867   7.276  72.421  1.00  0.00    -0.247 A  
HETATM   36  C   UNL     1     -12.897   7.319  73.361  1.00  0.00     2.729 A  
HETATM   37  C   UNL     1     -14.040   8.978  72.039  1.00  0.00    -0.434 A  
HETATM   38  C   UNL     1     -13.015   8.934  71.091  1.00  0.00    -0.160 A  
ENDBRANCH  18  33
ENDBRANCH  15  18
ENDBRANCH  12  14
TORSDOF 7
ENDMDL
MODEL      199
REMARK 921   NORMALIZED FREE ENERGY PREDICTED BY IDOCK:   25.28 KCAL/MOL
REMARK 922        TOTAL FREE ENERGY PREDICTED BY IDOCK:   34.10 KCAL/MOL
REMARK 923 INTER-LIGAND FREE ENERGY PREDICTED BY IDOCK:   26.81 KCAL/MOL
REMARK 924 INTRA-LIGAND FREE ENERGY PREDICTED BY IDOCK:    7.29 KCAL/MOL
REMARK 927      BINDING AFFINITY PREDICTED BY RF-SCORE:    0.00 PKD
ROOT
HETATM    1  C   UNL     1     -12.743  14.610  71.905  1.00  0.00    -0.332 C  
HETATM    2  S   UNL     1     -13.169  13.986  70.236  1.00  0.00     0.575 SA 
HETATM    3  C   UNL     1     -12.545  12.271  70.536  1.00  0.00    -0.092 C  
HETATM    4  CA  UNL     1     -12.519  12.104  72.076  1.00  0.00     0.442 C  
HETATM    5  C   UNL     1     -11.133  12.187  69.924  1.00  0.00     0.172 C  
HETATM    6  C   UNL     1     -13.429  11.274  69.778  1.00  0.00     1.889 C  
HETATM    7  C   UNL     1     -13.807  11.531  72.694  1.00  0.00     1.115 C  
HETATM    8  N   UNL     1     -12.249  13.433  72.658  1.00  0.00     0.763 N  
HETATM    9  OXT UNL     1     -14.283  10.440  72.416  1.00  0.00     0.312 OA 
HETATM   10  O   UNL     1     -14.371  12.327  73.638  1.00  0.00     3.499 OA 
HETATM   11  C   UNL     1     -10.952  13.889  72.689  1.00  0.00     4.483 C  
HETATM   12  CA  UNL     1     -11.353  15.266  72.112  1.00  0.00    -0.323 C  
HETATM   13  O   UNL     1      -9.921  13.300  72.912  1.00  0.00    11.365 OA 
ENDROOT
BRANCH  12  14
HETATM   14  N   UNL     1     -10.626  15.715  70.895  1.00  0.00    -0.198 N  
HETATM   15  C   UNL     1     -11.214  16.589  70.003  1.00  0.00    -0.148 C  
HETATM   16  H   UNL     1      -9.682  15.373  70.717  1.00  0.00     0.000 HD 
HETATM   17  O   UNL     1     -12.360  17.000  70.201  1.00  0.00     1.946 OA 
BRANCH  15  18
HETATM   18  CA  UNL     1     -10.446  16.879  68.691  1.00  0.00    -0.352 C  
BRANCH  18  19
HETATM   19  N   UNL     1      -9.169  16.173  68.735  1.00  0.00    -0.213 N  
HETATM   20  H   UNL     1      -8.408  16.491  68.137  1.00  0.00     0.000 HD 
BRANCH  19  21
HETATM   21  C   UNL     1      -8.963  15.102  69.554  1.00  0.00    -0.127 C  
HETATM   22  O   UNL     1      -9.305  15.098  70.735  1.00  0.00     0.875 OA 
BRANCH  21  23
HETATM   23  N   UNL     1      -8.344  14.015  68.981  1.00  0.00     0.051 N  
HETATM   24  C   UNL     1      -6.359  12.944  68.262  1.00  0.00    -0.085 C  
HETATM   25  N   UNL     1      -7.511  12.653  67.400  1.00  0.00    -0.152 N  
HETATM   26  C   UNL     1      -7.068  13.527  69.480  1.00  0.00     0.193 C  
HETATM   27  O   UNL     1      -9.692  13.464  67.152  1.00  0.00    -0.225 OA 
HETATM   28  C   UNL     1      -8.648  13.390  67.772  1.00  0.00    -0.194 C  
BRANCH  25  29
HETATM   29  S   UNL     1      -7.387  11.563  66.161  1.00  0.00     0.352 S  
HETATM   30  O   UNL     1      -8.707  11.405  65.586  1.00  0.00    -0.137 OA 
HETATM   31  C   UNL     1      -6.988  10.035  66.986  1.00  0.00    -0.088 C  
HETATM   32  O   UNL     1      -6.264  11.934  65.331  1.00  0.00     1.160 OA 
ENDBRANCH  25  29
ENDBRANCH  21  23
ENDBRANCH  19  21
ENDBRANCH  18  19
BRANCH  18  33
HETATM   33  C   UNL     1     -10.280  18.357  68.373  1.00  0.00    -0.407 A  
HETATM   34  C   UNL     1      -9.975  21.070  67.684  1.00  0.00    -0.022 A  
HETATM   35  C   UNL     1      -9.521  18.739  67.248  1.00  0.00    -0.326 A  
HETATM   36  C   UNL     1      -9.368  20.084  66.913  1.00  0.00    -0.515 A  
HETATM   37  C   UNL     1     -10.738  20.712  68.793  1.00  0.00     0.545 A  
HETATM   38  C   UNL     1     -10.890  19.367  69.137  1.00  0.00     1.016 A  
ENDBRANCH  18  33
ENDBRANCH  15  18
ENDBRANCH  12  14
TORSDOF 7
ENDMDL
MODEL      200
REMARK 921   NORMALIZED FREE ENERGY PREDICTED BY IDOCK:   25.81 KCAL/MOL
REMARK 922        TOTAL FREE ENERGY PREDICTED BY IDOCK:   34.85 KCAL/MOL
REMARK 923 INTER-LIGAND FREE ENERGY PREDICTED BY IDOCK:   28.84 KCAL/MOL
REMARK 924 INTRA-LIGAND FREE ENERGY PREDICTED BY IDOCK:    6.01 KCAL/MOL
REMARK 927      BINDING AFFINITY PREDICTED BY RF-SCORE:    0.00 PKD
ROOT
HETATM    1  C   UNL     1      -7.829  15.532  70.108  1.00  0.00     0.516 C  
HETATM    2  S   UNL     1      -8.449  14.924  68.495  1.00  0.00    -0.169 SA 
HETATM    3  C   UNL     1     -10.031  14.246  69.170  1.00  0.00    -0.022 C  
HETATM    4  CA  UNL     1     -10.256  14.982  70.515  1.00  0.00     0.289 C  
HETATM    5  C   UNL     1      -9.829  12.731  69.370  1.00  0.00     0.894 C  
HETATM    6  C   UNL     1     -11.141  14.422  68.128  1.00  0.00    -0.279 C  
HETATM    7  C   UNL     1     -11.081  16.278  70.422  1.00  0.00    -0.311 C  
HETATM    8  N   UNL     1      -8.925  15.291  71.074  1.00  0.00     2.134 N  
HETATM    9  OXT UNL     1     -12.229  16.341  70.004  1.00  0.00    -0.029 OA 
HETATM   10  O   UNL     1     -10.443  17.377  70.899  1.00  0.00     1.224 OA 
HETATM   11  C   UNL     1      -8.241  14.299  71.736  1.00  0.00     6.361 C  
HETATM   12  CA  UNL     1      -6.938  14.587  70.956  1.00  0.00     0.995 C  
HETATM   13  O   UNL     1      -8.639  13.441  72.488  1.00  0.00    11.840 OA 
ENDROOT
BRANCH  12  14
HETATM   14  N   UNL     1      -6.312  13.434  70.256  1.00  0.00    -0.370 N  
HETATM   15  C   UNL     1      -6.761  12.147  70.475  1.00  0.00     1.220 C  
HETATM   16  H   UNL     1      -5.542  13.596  69.606  1.00  0.00     0.000 HD 
HETATM   17  O   UNL     1      -7.683  11.937  71.266  1.00  0.00     5.621 OA 
BRANCH  15  18
HETATM   18  CA  UNL     1      -5.952  10.999  69.824  1.00  0.00    -0.086 C  
BRANCH  18  19
HETATM   19  N   UNL     1      -6.586  10.645  68.557  1.00  0.00    -0.055 N  
HETATM   20  H   UNL     1      -6.605  11.332  67.804  1.00  0.00     0.000 HD 
BRANCH  19  21
HETATM   21  C   UNL     1      -7.154   9.423  68.351  1.00  0.00    -0.072 C  
HETATM   22  O   UNL     1      -7.399   8.644  69.271  1.00  0.00    -0.071 OA 
BRANCH  21  23
HETATM   23  N   UNL     1      -7.439   9.102  67.043  1.00  0.00    -0.090 N  
HETATM   24  C   UNL     1      -8.534   7.700  65.480  1.00  0.00    -0.120 C  
HETATM   25  N   UNL     1      -7.233   8.184  65.003  1.00  0.00    -0.074 N  
HETATM   26  C   UNL     1      -8.764   8.648  66.653  1.00  0.00    -0.123 C  
HETATM   27  O   UNL     1      -5.396   9.303  65.926  1.00  0.00    -0.039 OA 
HETATM   28  C   UNL     1      -6.547   8.914  65.989  1.00  0.00    -0.065 C  
BRANCH  25  29
HETATM   29  S   UNL     1      -6.721   7.858  63.464  1.00  0.00    -0.071 S  
HETATM   30  O   UNL     1      -6.481   9.126  62.806  1.00  0.00    -0.095 OA 
HETATM   31  C   UNL     1      -8.154   7.131  62.692  1.00  0.00    -0.076 C  
HETATM   32  O   UNL     1      -5.683   6.855  63.525  1.00  0.00    -0.034 OA 
ENDBRANCH  25  29
ENDBRANCH  21  23
ENDBRANCH  19  21
ENDBRANCH  18  19
BRANCH  18  33
HETATM   33  C   UNL     1      -5.740   9.790  70.723  1.00  0.00    -0.071 A  
HETATM   34  C   UNL     1      -5.279   7.518  72.321  1.00  0.00    -0.036 A  
HETATM   35  C   UNL     1      -5.481   8.535  70.139  1.00  0.00    -0.021 A  
HETATM   36  C   UNL     1      -5.258   7.410  70.933  1.00  0.00    -0.023 A  
HETATM   37  C   UNL     1      -5.522   8.754  72.916  1.00  0.00    -0.077 A  
HETATM   38  C   UNL     1      -5.752   9.881  72.126  1.00  0.00     0.228 A  
ENDBRANCH  18  33
ENDBRANCH  15  18
ENDBRANCH  12  14
TORSDOF 7
ENDMDL
MODEL      201
REMARK 921   NORMALIZED FREE ENERGY PREDICTED BY IDOCK:   26.46 KCAL/MOL
REMARK 922        TOTAL FREE ENERGY PREDICTED BY IDOCK:   35.77 KCAL/MOL
REMARK 923 INTER-LIGAND FREE ENERGY PREDICTED BY IDOCK:   33.43 KCAL/MOL
REMARK 924 INTRA-LIGAND FREE ENERGY PREDICTED BY IDOCK:    2.34 KCAL/MOL
REMARK 927      BINDING AFFINITY PREDICTED BY RF-SCORE:    0.00 PKD
ROOT
HETATM    1  C   UNL     1      -7.829  15.532  70.108  1.00  0.00     0.516 C  
HETATM    2  S   UNL     1      -8.454  14.929  68.495  1.00  0.00    -0.169 SA 
HETATM    3  C   UNL     1     -10.038  14.256  69.171  1.00  0.00    -0.055 C  
HETATM    4  CA  UNL     1     -10.258  14.991  70.517  1.00  0.00     0.289 C  
HETATM    5  C   UNL     1      -9.842  12.741  69.368  1.00  0.00     0.894 C  
HETATM    6  C   UNL     1     -11.148  14.439  68.130  1.00  0.00    -0.279 C  
HETATM    7  C   UNL     1     -11.077  16.291  70.427  1.00  0.00    -0.311 C  
HETATM    8  N   UNL     1      -8.925  15.294  71.075  1.00  0.00     2.134 N  
HETATM    9  OXT UNL     1     -12.225  16.359  70.010  1.00  0.00     0.098 OA 
HETATM   10  O   UNL     1     -10.434  17.387  70.904  1.00  0.00     1.224 OA 
HETATM   11  C   UNL     1      -8.244  14.298  71.735  1.00  0.00     6.361 C  
HETATM   12  CA  UNL     1      -6.941  14.582  70.953  1.00  0.00     0.816 C  
HETATM   13  O   UNL     1      -8.645  13.441  72.486  1.00  0.00    11.840 OA 
ENDROOT
BRANCH  12  14
HETATM   14  N   UNL     1      -6.321  13.428  70.251  1.00  0.00    -0.370 N  
HETATM   15  C   UNL     1      -6.775  12.142  70.468  1.00  0.00     1.220 C  
HETATM   16  H   UNL     1      -5.551  13.587  69.601  1.00  0.00     0.000 HD 
HETATM   17  O   UNL     1      -7.697  11.935  71.260  1.00  0.00     5.621 OA 
BRANCH  15  18
HETATM   18  CA  UNL     1      -5.971  10.992  69.815  1.00  0.00    -0.086 C  
BRANCH  18  19
HETATM   19  N   UNL     1      -6.608  10.642  68.548  1.00  0.00    -0.055 N  
HETATM   20  H   UNL     1      -7.098   9.751  68.471  1.00  0.00     0.000 HD 
BRANCH  19  21
HETATM   21  C   UNL     1      -6.567  11.470  67.466  1.00  0.00    -0.087 C  
HETATM   22  O   UNL     1      -5.795  12.425  67.393  1.00  0.00    -0.132 OA 
BRANCH  21  23
HETATM   23  N   UNL     1      -7.447  11.178  66.449  1.00  0.00    -0.132 N  
HETATM   24  C   UNL     1      -8.284  11.639  64.283  1.00  0.00     1.406 C  
HETATM   25  N   UNL     1      -9.325  11.192  65.216  1.00  0.00    -0.220 N  
HETATM   26  C   UNL     1      -7.032  11.238  65.057  1.00  0.00     1.028 C  
HETATM   27  O   UNL     1      -9.495  10.826  67.521  1.00  0.00    -0.153 OA 
HETATM   28  C   UNL     1      -8.832  11.038  66.523  1.00  0.00    -0.169 C  
BRANCH  25  29
HETATM   29  S   UNL     1     -10.872  10.922  64.693  1.00  0.00     0.078 S  
HETATM   30  O   UNL     1     -10.846   9.749  63.843  1.00  0.00     2.407 OA 
HETATM   31  C   UNL     1     -11.208  12.322  63.643  1.00  0.00    -0.466 C  
HETATM   32  O   UNL     1     -11.761  10.986  65.830  1.00  0.00     0.195 OA 
ENDBRANCH  25  29
ENDBRANCH  21  23
ENDBRANCH  19  21
ENDBRANCH  18  19
BRANCH  18  33
HETATM   33  C   UNL     1      -5.763   9.781  70.712  1.00  0.00    -0.071 A  
HETATM   34  C   UNL     1      -5.310   7.504  72.306  1.00  0.00    -0.036 A  
HETATM   35  C   UNL     1      -5.510   8.525  70.126  1.00  0.00    -0.021 A  
HETATM   36  C   UNL     1      -5.291   7.398  70.918  1.00  0.00    -0.027 A  
HETATM   37  C   UNL     1      -5.547   8.740  72.904  1.00  0.00    -0.082 A  
HETATM   38  C   UNL     1      -5.773   9.870  72.115  1.00  0.00     0.228 A  
ENDBRANCH  18  33
ENDBRANCH  15  18
ENDBRANCH  12  14
TORSDOF 7
ENDMDL
MODEL      202
REMARK 921   NORMALIZED FREE ENERGY PREDICTED BY IDOCK:   35.01 KCAL/MOL
REMARK 922        TOTAL FREE ENERGY PREDICTED BY IDOCK:   47.81 KCAL/MOL
REMARK 923 INTER-LIGAND FREE ENERGY PREDICTED BY IDOCK:   48.97 KCAL/MOL
REMARK 924 INTRA-LIGAND FREE ENERGY PREDICTED BY IDOCK:   -1.16 KCAL/MOL
REMARK 927      BINDING AFFINITY PREDICTED BY RF-SCORE:    0.00 PKD
ROOT
HETATM    1  C   UNL     1     -11.816  14.177  65.205  1.00  0.00    -0.367 C  
HETATM    2  S   UNL     1     -10.120  14.676  64.726  1.00  0.00     0.213 SA 
HETATM    3  C   UNL     1      -9.409  12.972  64.831  1.00  0.00     0.686 C  
HETATM    4  CA  UNL     1     -10.619  12.012  64.715  1.00  0.00    -0.297 C  
HETATM    5  C   UNL     1      -8.709  12.854  66.198  1.00  0.00     0.389 C  
HETATM    6  C   UNL     1      -8.331  12.809  63.753  1.00  0.00     5.135 C  
HETATM    7  C   UNL     1     -10.967  11.566  63.283  1.00  0.00    -0.224 C  
HETATM    8  N   UNL     1     -11.784  12.699  65.307  1.00  0.00    -0.358 N  
HETATM    9  OXT UNL     1     -10.204  10.963  62.541  1.00  0.00     0.016 OA 
HETATM   10  O   UNL     1     -12.239  11.853  62.906  1.00  0.00    -0.155 OA 
HETATM   11  C   UNL     1     -11.923  12.704  66.675  1.00  0.00    -0.312 C  
HETATM   12  CA  UNL     1     -12.199  14.225  66.707  1.00  0.00    -0.352 C  
HETATM   13  O   UNL     1     -11.700  11.837  67.486  1.00  0.00    -0.512 OA 
ENDROOT
BRANCH  12  14
HETATM   14  N   UNL     1     -11.336  15.039  67.603  1.00  0.00    -0.327 N  
HETATM   15  C   UNL     1     -11.526  16.401  67.719  1.00  0.00     0.068 C  
HETATM   16  H   UNL     1     -10.595  14.586  68.138  1.00  0.00     0.000 HD 
HETATM   17  O   UNL     1     -12.410  16.963  67.069  1.00  0.00     2.396 OA 
BRANCH  15  18
HETATM   18  CA  UNL     1     -10.485  17.188  68.552  1.00  0.00    -0.377 C  
BRANCH  18  19
HETATM   19  N   UNL     1     -11.198  18.049  69.491  1.00  0.00     1.088 N  
HETATM   20  H   UNL     1     -11.853  18.742  69.128  1.00  0.00     0.000 HD 
BRANCH  19  21
HETATM   21  C   UNL     1     -11.015  17.956  70.839  1.00  0.00     2.393 C  
HETATM   22  O   UNL     1     -11.864  18.326  71.649  1.00  0.00     4.563 OA 
BRANCH  21  23
HETATM   23  N   UNL     1      -9.816  17.419  71.249  1.00  0.00     4.462 N  
HETATM   24  C   UNL     1      -7.455  17.553  71.359  1.00  0.00     7.020 C  
HETATM   25  N   UNL     1      -7.945  16.176  71.230  1.00  0.00     4.723 N  
HETATM   26  C   UNL     1      -8.745  18.268  71.747  1.00  0.00    11.738 C  
HETATM   27  O   UNL     1      -9.991  15.140  70.764  1.00  0.00     0.270 OA 
HETATM   28  C   UNL     1      -9.337  16.126  71.047  1.00  0.00     3.327 C  
BRANCH  25  29
HETATM   29  S   UNL     1      -6.901  14.895  71.309  1.00  0.00     1.452 S  
HETATM   30  O   UNL     1      -5.690  15.358  71.956  1.00  0.00     0.403 OA 
HETATM   31  C   UNL     1      -6.495  14.581  69.602  1.00  0.00    -0.148 C  
HETATM   32  O   UNL     1      -7.615  13.748  71.821  1.00  0.00     3.991 OA 
ENDBRANCH  25  29
ENDBRANCH  21  23
ENDBRANCH  19  21
ENDBRANCH  18  19
BRANCH  18  33
HETATM   33  C   UNL     1      -9.466  17.956  67.723  1.00  0.00    -0.263 A  
HETATM   34  C   UNL     1      -7.575  19.446  66.263  1.00  0.00    -0.299 A  
HETATM   35  C   UNL     1      -9.476  19.365  67.751  1.00  0.00    -0.406 A  
HETATM   36  C   UNL     1      -8.541  20.100  67.022  1.00  0.00    -0.408 A  
HETATM   37  C   UNL     1      -7.542  18.054  66.232  1.00  0.00    -0.306 A  
HETATM   38  C   UNL     1      -8.480  17.313  66.954  1.00  0.00    -0.251 A  
ENDBRANCH  18  33
ENDBRANCH  15  18
ENDBRANCH  12  14
TORSDOF 7
ENDMDL
MODEL      203
REMARK 921   NORMALIZED FREE ENERGY PREDICTED BY IDOCK:   46.93 KCAL/MOL
REMARK 922        TOTAL FREE ENERGY PREDICTED BY IDOCK:   64.61 KCAL/MOL
REMARK 923 INTER-LIGAND FREE ENERGY PREDICTED BY IDOCK:   61.89 KCAL/MOL
REMARK 924 INTRA-LIGAND FREE ENERGY PREDICTED BY IDOCK:    2.72 KCAL/MOL
REMARK 927      BINDING AFFINITY PREDICTED BY RF-SCORE:    0.00 PKD
ROOT
HETATM    1  C   UNL     1      -6.191  15.457  71.306  1.00  0.00     0.717 C  
HETATM    2  S   UNL     1      -7.146  15.079  69.789  1.00  0.00    -0.116 SA 
HETATM    3  C   UNL     1      -8.743  14.773  70.669  1.00  0.00     2.062 C  
HETATM    4  CA  UNL     1      -8.605  15.489  72.037  1.00  0.00     7.070 C  
HETATM    5  C   UNL     1      -8.889  13.248  70.831  1.00  0.00     8.421 C  
HETATM    6  C   UNL     1      -9.903  15.250  69.789  1.00  0.00    -0.188 C  
HETATM    7  C   UNL     1      -9.095  16.947  72.065  1.00  0.00    11.282 C  
HETATM    8  N   UNL     1      -7.177  15.448  72.411  1.00  0.00     4.368 N  
HETATM    9  OXT UNL     1     -10.238  17.299  71.808  1.00  0.00     3.646 OA 
HETATM   10  O   UNL     1      -8.153  17.843  72.457  1.00  0.00    12.213 OA 
HETATM   11  C   UNL     1      -6.673  14.296  72.967  1.00  0.00     2.480 C  
HETATM   12  CA  UNL     1      -5.452  14.294  72.018  1.00  0.00    -0.171 C  
HETATM   13  O   UNL     1      -7.166  13.530  73.761  1.00  0.00     3.148 OA 
ENDROOT
BRANCH  12  14
HETATM   14  N   UNL     1      -5.222  13.054  71.233  1.00  0.00    -0.175 N  
HETATM   15  C   UNL     1      -6.042  11.954  71.392  1.00  0.00     1.282 C  
HETATM   16  H   UNL     1      -4.449  13.014  70.568  1.00  0.00     0.000 HD 
HETATM   17  O   UNL     1      -6.972  11.985  72.201  1.00  0.00     5.413 OA 
BRANCH  15  18
HETATM   18  CA  UNL     1      -5.634  10.659  70.649  1.00  0.00    -0.105 C  
BRANCH  18  19
HETATM   19  N   UNL     1      -6.384  10.586  69.398  1.00  0.00    -0.050 N  
HETATM   20  H   UNL     1      -7.097   9.865  69.291  1.00  0.00     0.000 HD 
BRANCH  19  21
HETATM   21  C   UNL     1      -6.159  11.452  68.370  1.00  0.00    -0.045 C  
HETATM   22  O   UNL     1      -5.659  12.564  68.539  1.00  0.00    -0.053 OA 
BRANCH  21  23
HETATM   23  N   UNL     1      -6.527  11.013  67.119  1.00  0.00    -0.076 N  
HETATM   24  C   UNL     1      -8.006  11.121  65.273  1.00  0.00     0.318 C  
HETATM   25  N   UNL     1      -7.499   9.766  65.523  1.00  0.00    -0.110 N  
HETATM   26  C   UNL     1      -7.031  11.937  66.116  1.00  0.00     0.730 C  
HETATM   27  O   UNL     1      -6.301   8.688  67.219  1.00  0.00    -0.055 OA 
HETATM   28  C   UNL     1      -6.720   9.700  66.690  1.00  0.00    -0.079 C  
BRANCH  25  29
HETATM   29  S   UNL     1      -7.856   8.526  64.488  1.00  0.00    -0.145 S  
HETATM   30  O   UNL     1      -6.728   8.366  63.593  1.00  0.00    -0.082 OA 
HETATM   31  C   UNL     1      -9.207   9.166  63.518  1.00  0.00     0.411 C  
HETATM   32  O   UNL     1      -8.345   7.407  65.260  1.00  0.00    -0.139 OA 
ENDBRANCH  25  29
ENDBRANCH  21  23
ENDBRANCH  19  21
ENDBRANCH  18  19
BRANCH  18  33
HETATM   33  C   UNL     1      -5.768   9.390  71.479  1.00  0.00    -0.074 A  
HETATM   34  C   UNL     1      -5.942   6.999  72.955  1.00  0.00    -0.056 A  
HETATM   35  C   UNL     1      -5.617   8.138  70.850  1.00  0.00    -0.029 A  
HETATM   36  C   UNL     1      -5.709   6.955  71.583  1.00  0.00    -0.036 A  
HETATM   37  C   UNL     1      -6.082   8.228  73.596  1.00  0.00    -0.112 A  
HETATM   38  C   UNL     1      -5.997   9.414  72.865  1.00  0.00     0.230 A  
ENDBRANCH  18  33
ENDBRANCH  15  18
ENDBRANCH  12  14
TORSDOF 7
ENDMDL
MODEL      204
REMARK 921   NORMALIZED FREE ENERGY PREDICTED BY IDOCK:   97.93 KCAL/MOL
REMARK 922        TOTAL FREE ENERGY PREDICTED BY IDOCK:  136.49 KCAL/MOL
REMARK 923 INTER-LIGAND FREE ENERGY PREDICTED BY IDOCK:   51.84 KCAL/MOL
REMARK 924 INTRA-LIGAND FREE ENERGY PREDICTED BY IDOCK:   84.64 KCAL/MOL
REMARK 927      BINDING AFFINITY PREDICTED BY RF-SCORE:    0.00 PKD
ROOT
HETATM    1  C   UNL     1      -6.937  10.288  68.579  1.00  0.00    -0.066 C  
HETATM    2  S   UNL     1      -7.407   8.536  68.324  1.00  0.00    -0.096 SA 
HETATM    3  C   UNL     1      -8.657   8.889  67.008  1.00  0.00    -0.116 C  
HETATM    4  CA  UNL     1      -8.283  10.284  66.447  1.00  0.00    -0.129 C  
HETATM    5  C   UNL     1     -10.041   8.893  67.684  1.00  0.00    -0.274 C  
HETATM    6  C   UNL     1      -8.652   7.745  65.989  1.00  0.00    -0.166 C  
HETATM    7  C   UNL     1      -7.316  10.271  65.249  1.00  0.00    -0.139 C  
HETATM    8  N   UNL     1      -7.679  11.055  67.551  1.00  0.00    -0.111 N  
HETATM    9  OXT UNL     1      -7.543   9.717  64.182  1.00  0.00    -0.123 OA 
HETATM   10  O   UNL     1      -6.178  10.982  65.447  1.00  0.00     0.000 OA 
HETATM   11  C   UNL     1      -8.509  11.651  68.471  1.00  0.00    -0.135 C  
HETATM   12  CA  UNL     1      -7.691  11.102  69.663  1.00  0.00     0.245 C  
HETATM   13  O   UNL     1      -9.569  12.211  68.321  1.00  0.00    -0.206 OA 
ENDROOT
BRANCH  12  14
HETATM   14  N   UNL     1      -8.443  10.332  70.688  1.00  0.00     0.283 N  
HETATM   15  C   UNL     1      -8.014  10.295  71.999  1.00  0.00     4.781 C  
HETATM   16  H   UNL     1      -9.287   9.826  70.419  1.00  0.00     0.000 HD 
HETATM   17  O   UNL     1      -6.989  10.893  72.334  1.00  0.00     3.665 OA 
BRANCH  15  18
HETATM   18  CA  UNL     1      -8.769   9.346  72.961  1.00  0.00     2.622 C  
BRANCH  18  19
HETATM   19  N   UNL     1      -8.514   7.968  72.550  1.00  0.00    -0.145 N  
HETATM   20  H   UNL     1      -7.733   7.465  72.968  1.00  0.00     0.000 HD 
BRANCH  19  21
HETATM   21  C   UNL     1      -9.288   7.336  71.624  1.00  0.00    -0.151 C  
HETATM   22  O   UNL     1     -10.397   6.875  71.892  1.00  0.00    -0.190 OA 
BRANCH  21  23
HETATM   23  N   UNL     1      -8.757   7.238  70.358  1.00  0.00    -0.145 N  
HETATM   24  C   UNL     1      -7.271   6.181  68.847  1.00  0.00    -0.084 C  
HETATM   25  N   UNL     1      -7.411   7.621  68.600  1.00  0.00    -0.101 N  
HETATM   26  C   UNL     1      -8.468   5.943  69.763  1.00  0.00    -0.125 C  
HETATM   27  O   UNL     1      -8.361   9.448  69.710  1.00  0.00    -0.126 OA 
HETATM   28  C   UNL     1      -8.201   8.250  69.577  1.00  0.00    -0.119 C  
BRANCH  25  29
HETATM   29  S   UNL     1      -6.687   8.329  67.291  1.00  0.00    -0.063 S  
HETATM   30  O   UNL     1      -7.717   9.024  66.546  1.00  0.00    -0.094 OA 
HETATM   31  C   UNL     1      -6.169   6.942  66.299  1.00  0.00    -0.045 C  
HETATM   32  O   UNL     1      -5.507   9.030  67.740  1.00  0.00    -0.035 OA 
ENDBRANCH  25  29
ENDBRANCH  21  23
ENDBRANCH  19  21
ENDBRANCH  18  19
BRANCH  18  33
HETATM   33  C   UNL     1     -10.256   9.643  73.099  1.00  0.00     5.196 A  
HETATM   34  C   UNL     1     -12.983  10.290  73.359  1.00  0.00     4.779 A  
HETATM   35  C   UNL     1     -10.673  10.696  73.935  1.00  0.00    17.392 A  
HETATM   36  C   UNL     1     -12.025  11.012  74.066  1.00  0.00    16.272 A  
HETATM   37  C   UNL     1     -12.589   9.252  72.519  1.00  0.00    -0.266 A  
HETATM   38  C   UNL     1     -11.237   8.928  72.389  1.00  0.00    -0.142 A  
ENDBRANCH  18  33
ENDBRANCH  15  18
ENDBRANCH  12  14
TORSDOF 7
ENDMDL
