MODEL        1
REMARK 921   NORMALIZED FREE ENERGY PREDICTED BY IDOCK:   -7.70 KCAL/MOL
REMARK 922        TOTAL FREE ENERGY PREDICTED BY IDOCK:  -12.57 KCAL/MOL
REMARK 923 INTER-LIGAND FREE ENERGY PREDICTED BY IDOCK:  -10.86 KCAL/MOL
REMARK 924 INTRA-LIGAND FREE ENERGY PREDICTED BY IDOCK:   -1.71 KCAL/MOL
REMARK 927      BINDING AFFINITY PREDICTED BY RF-SCORE:    0.00 PKD
ROOT
HETATM    1  C   UNL     1     -12.706  10.700  71.306  1.00  0.00    -0.433 C  
HETATM    2  N   UNL     1     -11.531  10.969  70.491  1.00  0.00    -0.446 NA 
HETATM    3  H   UNL     1     -11.121  11.869  70.740  1.00  0.00     0.000 HD 
ENDROOT
BRANCH   2   4
HETATM    4  C   UNL     1     -10.516   9.906  70.540  1.00  0.00    -0.264 C  
BRANCH   4   5
HETATM    5  C   UNL     1      -9.383  10.001  69.482  1.00  0.00    -0.229 C  
HETATM    6  C   UNL     1      -7.987   9.883  70.065  1.00  0.00    -0.194 C  
HETATM    7  C   UNL     1      -6.967   9.939  68.928  1.00  0.00    -0.062 C  
HETATM    8  C   UNL     1      -7.238  11.092  67.938  1.00  0.00    -0.090 C  
HETATM    9  C   UNL     1      -8.778  11.314  67.588  1.00  0.00    -0.131 C  
HETATM   10  N   UNL     1      -6.304  10.978  66.794  1.00  0.00    -0.102 NA 
HETATM   11  O   UNL     1      -9.495  11.282  68.819  1.00  0.00    -0.187 OA 
HETATM   12  H1  UNL     1      -6.483  11.740  66.140  1.00  0.00     0.000 HD 
HETATM   13  H2  UNL     1      -6.350  10.063  66.345  1.00  0.00     0.000 HD 
BRANCH   9  14
HETATM   14  O   UNL     1      -9.348  10.430  66.594  1.00  0.00    -0.154 OA 
BRANCH  14  15
HETATM   15  C   UNL     1     -10.448  10.938  65.727  1.00  0.00    -0.210 C  
HETATM   16  C   UNL     1     -10.054  11.160  64.241  1.00  0.00    -0.326 C  
HETATM   17  N   UNL     1      -9.891   9.865  63.548  1.00  0.00    -0.462 NA 
HETATM   18  C   UNL     1     -11.120  11.960  63.465  1.00  0.00    -0.506 C  
HETATM   19  H2  UNL     1     -10.722   9.281  63.636  1.00  0.00     0.000 HD 
HETATM   20  H1  UNL     1      -9.632  10.011  62.573  1.00  0.00     0.000 HD 
HETATM   21  C   UNL     1     -11.448  13.310  64.120  1.00  0.00    -0.396 C  
HETATM   22  N   UNL     1     -12.304  14.114  63.242  1.00  0.00    -1.133 NA 
HETATM   23  C   UNL     1     -12.111  13.107  65.496  1.00  0.00    -0.442 C  
HETATM   24  C   UNL     1     -11.212  12.154  66.344  1.00  0.00    -0.331 C  
HETATM   25  O   UNL     1     -11.959  11.708  67.501  1.00  0.00    -0.622 OA 
HETATM   26  H1  UNL     1     -12.521  15.010  63.676  1.00  0.00     0.000 HD 
HETATM   27  H2  UNL     1     -13.148  13.610  62.970  1.00  0.00     0.000 HD 
HETATM   28  H   UNL     1     -12.424  12.447  67.876  1.00  0.00     0.000 HD 
BRANCH  23  29
HETATM   29  O   UNL     1     -12.151  14.371  66.219  1.00  0.00    -0.409 OA 
BRANCH  29  30
HETATM   30  C   UNL     1     -10.959  15.028  66.695  1.00  0.00    -0.325 C  
HETATM   31  O   UNL     1     -10.743  14.968  68.107  1.00  0.00    -0.246 OA 
HETATM   32  C   UNL     1      -9.468  15.514  68.480  1.00  0.00    -0.200 C  
HETATM   33  C   UNL     1      -9.321  17.020  68.135  1.00  0.00    -0.254 C  
HETATM   34  C   UNL     1      -9.529  17.197  66.605  1.00  0.00    -0.264 C  
HETATM   35  O   UNL     1     -10.325  17.758  68.849  1.00  0.00    -0.368 OA 
HETATM   36  C   UNL     1      -7.943  17.505  68.609  1.00  0.00    -0.268 C  
HETATM   37  H   UNL     1     -10.814  17.430  64.357  1.00  0.00     0.000 HD 
HETATM   38  H   UNL     1     -10.235  18.680  68.638  1.00  0.00     0.000 HD 
HETATM   39  C   UNL     1     -10.852  16.498  66.139  1.00  0.00    -0.050 C  
HETATM   40  O   UNL     1     -10.878  16.543  64.692  1.00  0.00    -0.741 OA 
BRANCH  34  41
HETATM   41  N   UNL     1      -9.351  18.549  65.992  1.00  0.00    -0.493 NA 
HETATM   42  C   UNL     1     -10.415  19.520  66.175  1.00  0.00    -0.518 C  
HETATM   43  H   UNL     1      -8.510  18.780  65.464  1.00  0.00     0.000 HD 
ENDBRANCH  34  41
ENDBRANCH  29  30
ENDBRANCH  23  29
ENDBRANCH  14  15
ENDBRANCH   9  14
ENDBRANCH   4   5
ENDBRANCH   2   4
TORSDOF 7
ENDMDL
MODEL        2
REMARK 921   NORMALIZED FREE ENERGY PREDICTED BY IDOCK:   -7.33 KCAL/MOL
REMARK 922        TOTAL FREE ENERGY PREDICTED BY IDOCK:  -12.04 KCAL/MOL
REMARK 923 INTER-LIGAND FREE ENERGY PREDICTED BY IDOCK:  -10.85 KCAL/MOL
REMARK 924 INTRA-LIGAND FREE ENERGY PREDICTED BY IDOCK:   -1.18 KCAL/MOL
REMARK 927      BINDING AFFINITY PREDICTED BY RF-SCORE:    0.00 PKD
ROOT
HETATM    1  C   UNL     1     -10.898  19.560  66.867  1.00  0.00    -0.411 C  
HETATM    2  N   UNL     1      -9.872  20.470  66.384  1.00  0.00    -0.617 NA 
HETATM    3  H   UNL     1      -9.950  21.376  66.846  1.00  0.00     0.000 HD 
ENDROOT
BRANCH   2   4
HETATM    4  C   UNL     1      -8.504  19.944  66.506  1.00  0.00    -0.337 C  
BRANCH   4   5
HETATM    5  C   UNL     1      -8.378  18.512  67.093  1.00  0.00    -0.249 C  
HETATM    6  C   UNL     1      -7.382  18.401  68.233  1.00  0.00    -0.285 C  
HETATM    7  C   UNL     1      -7.384  16.965  68.758  1.00  0.00    -0.227 C  
HETATM    8  C   UNL     1      -7.305  15.916  67.628  1.00  0.00    -0.157 C  
HETATM    9  C   UNL     1      -8.191  16.258  66.346  1.00  0.00    -0.319 C  
HETATM   10  N   UNL     1      -7.470  14.564  68.211  1.00  0.00    -0.111 NA 
HETATM   11  O   UNL     1      -7.956  17.627  66.030  1.00  0.00    -0.474 OA 
HETATM   12  H1  UNL     1      -7.417  13.871  67.464  1.00  0.00     0.000 HD 
HETATM   13  H2  UNL     1      -8.326  14.479  68.759  1.00  0.00     0.000 HD 
BRANCH   9  14
HETATM   14  O   UNL     1      -9.601  15.945  66.433  1.00  0.00    -0.246 OA 
BRANCH  14  15
HETATM   15  C   UNL     1     -10.186  14.987  65.453  1.00  0.00    -0.381 C  
HETATM   16  C   UNL     1     -11.526  15.445  64.817  1.00  0.00    -0.336 C  
HETATM   17  N   UNL     1     -11.295  16.538  63.850  1.00  0.00    -1.559 NA 
HETATM   18  C   UNL     1     -12.233  14.306  64.054  1.00  0.00    -0.336 C  
HETATM   19  H2  UNL     1     -10.609  16.278  63.142  1.00  0.00     0.000 HD 
HETATM   20  H1  UNL     1     -12.175  16.839  63.433  1.00  0.00     0.000 HD 
HETATM   21  C   UNL     1     -12.473  13.063  64.926  1.00  0.00    -0.455 C  
HETATM   22  N   UNL     1     -13.325  12.098  64.222  1.00  0.00    -0.647 NA 
HETATM   23  C   UNL     1     -11.137  12.417  65.339  1.00  0.00    -0.306 C  
HETATM   24  C   UNL     1     -10.231  13.515  65.978  1.00  0.00    -0.305 C  
HETATM   25  O   UNL     1      -8.880  13.007  66.086  1.00  0.00    -0.431 OA 
HETATM   26  H1  UNL     1     -13.484  11.274  64.800  1.00  0.00     0.000 HD 
HETATM   27  H2  UNL     1     -12.944  11.853  63.308  1.00  0.00     0.000 HD 
HETATM   28  H   UNL     1      -8.907  12.112  66.404  1.00  0.00     0.000 HD 
BRANCH  23  29
HETATM   29  O   UNL     1     -11.368  11.428  66.384  1.00  0.00    -0.301 OA 
BRANCH  29  30
HETATM   30  C   UNL     1     -10.449  10.347  66.644  1.00  0.00    -0.215 C  
HETATM   31  O   UNL     1     -10.134   9.521  65.520  1.00  0.00    -0.260 OA 
HETATM   32  C   UNL     1      -9.106   8.566  65.826  1.00  0.00    -0.167 C  
HETATM   33  C   UNL     1      -9.512   7.562  66.936  1.00  0.00    -0.171 C  
HETATM   34  C   UNL     1      -9.868   8.363  68.219  1.00  0.00    -0.169 C  
HETATM   35  O   UNL     1     -10.661   6.822  66.492  1.00  0.00    -0.510 OA 
HETATM   36  C   UNL     1      -8.360   6.570  67.154  1.00  0.00    -0.113 C  
HETATM   37  H   UNL     1     -11.298   9.804  69.843  1.00  0.00     0.000 HD 
HETATM   38  H   UNL     1     -10.910   6.207  67.172  1.00  0.00     0.000 HD 
HETATM   39  C   UNL     1     -10.895   9.502  67.896  1.00  0.00    -0.180 C  
HETATM   40  O   UNL     1     -11.029  10.313  69.088  1.00  0.00    -0.216 OA 
BRANCH  34  41
HETATM   41  N   UNL     1     -10.210   7.625  69.473  1.00  0.00    -0.203 NA 
HETATM   42  C   UNL     1      -9.259   7.677  70.570  1.00  0.00    -0.159 C  
HETATM   43  H   UNL     1     -11.083   7.104  69.556  1.00  0.00     0.000 HD 
ENDBRANCH  34  41
ENDBRANCH  29  30
ENDBRANCH  23  29
ENDBRANCH  14  15
ENDBRANCH   9  14
ENDBRANCH   4   5
ENDBRANCH   2   4
TORSDOF 7
ENDMDL
MODEL        3
REMARK 921   NORMALIZED FREE ENERGY PREDICTED BY IDOCK:   -7.32 KCAL/MOL
REMARK 922        TOTAL FREE ENERGY PREDICTED BY IDOCK:  -12.02 KCAL/MOL
REMARK 923 INTER-LIGAND FREE ENERGY PREDICTED BY IDOCK:  -10.91 KCAL/MOL
REMARK 924 INTRA-LIGAND FREE ENERGY PREDICTED BY IDOCK:   -1.12 KCAL/MOL
REMARK 927      BINDING AFFINITY PREDICTED BY RF-SCORE:    0.00 PKD
ROOT
HETATM    1  C   UNL     1     -12.919  15.322  70.799  1.00  0.00    -0.436 C  
HETATM    2  N   UNL     1     -12.166  15.775  69.639  1.00  0.00    -0.463 NA 
HETATM    3  H   UNL     1     -12.696  16.475  69.120  1.00  0.00     0.000 HD 
ENDROOT
BRANCH   2   4
HETATM    4  C   UNL     1     -10.822  16.277  69.960  1.00  0.00    -0.329 C  
BRANCH   4   5
HETATM    5  C   UNL     1     -10.218  17.291  68.952  1.00  0.00    -0.349 C  
HETATM    6  C   UNL     1      -9.965  18.667  69.540  1.00  0.00     0.182 C  
HETATM    7  C   UNL     1      -9.326  19.556  68.473  1.00  0.00    -0.435 C  
HETATM    8  C   UNL     1     -10.056  19.478  67.115  1.00  0.00    -0.400 C  
HETATM    9  C   UNL     1     -10.525  18.010  66.701  1.00  0.00    -0.325 C  
HETATM   10  N   UNL     1      -9.285  20.241  66.106  1.00  0.00    -0.621 NA 
HETATM   11  O   UNL     1     -11.141  17.430  67.847  1.00  0.00    -0.256 OA 
HETATM   12  H1  UNL     1      -9.767  20.189  65.209  1.00  0.00     0.000 HD 
HETATM   13  H2  UNL     1      -8.314  19.931  66.043  1.00  0.00     0.000 HD 
BRANCH   9  14
HETATM   14  O   UNL     1      -9.516  17.150  66.121  1.00  0.00    -0.378 OA 
BRANCH  14  15
HETATM   15  C   UNL     1      -9.913  15.794  65.650  1.00  0.00    -0.345 C  
HETATM   16  C   UNL     1     -11.353  15.700  65.075  1.00  0.00    -0.253 C  
HETATM   17  N   UNL     1     -11.426  16.354  63.752  1.00  0.00    -1.470 NA 
HETATM   18  C   UNL     1     -11.816  14.241  64.886  1.00  0.00    -0.414 C  
HETATM   19  H2  UNL     1     -10.734  15.978  63.104  1.00  0.00     0.000 HD 
HETATM   20  H1  UNL     1     -12.371  16.293  63.374  1.00  0.00     0.000 HD 
HETATM   21  C   UNL     1     -11.721  13.413  66.177  1.00  0.00    -0.368 C  
HETATM   22  N   UNL     1     -12.361  12.106  65.998  1.00  0.00    -0.400 NA 
HETATM   23  C   UNL     1     -10.254  13.249  66.617  1.00  0.00    -0.265 C  
HETATM   24  C   UNL     1      -9.593  14.662  66.681  1.00  0.00    -0.278 C  
HETATM   25  O   UNL     1      -8.158  14.507  66.786  1.00  0.00    -0.381 OA 
HETATM   26  H1  UNL     1     -12.298  11.556  66.855  1.00  0.00     0.000 HD 
HETATM   27  H2  UNL     1     -11.979  11.603  65.196  1.00  0.00     0.000 HD 
HETATM   28  H   UNL     1      -7.964  13.819  67.413  1.00  0.00     0.000 HD 
BRANCH  23  29
HETATM   29  O   UNL     1     -10.200  12.719  67.974  1.00  0.00    -0.215 OA 
BRANCH  29  30
HETATM   30  C   UNL     1      -9.857  11.347  68.255  1.00  0.00    -0.200 C  
HETATM   31  O   UNL     1      -9.419  10.577  67.133  1.00  0.00    -0.156 OA 
HETATM   32  C   UNL     1      -8.959   9.274  67.522  1.00  0.00    -0.118 C  
HETATM   33  C   UNL     1     -10.065   8.403  68.174  1.00  0.00    -0.200 C  
HETATM   34  C   UNL     1     -10.608   9.150  69.423  1.00  0.00    -0.223 C  
HETATM   35  O   UNL     1     -11.125   8.213  67.223  1.00  0.00    -0.451 OA 
HETATM   36  C   UNL     1      -9.476   7.025  68.514  1.00  0.00    -0.134 C  
HETATM   37  H   UNL     1     -12.003  10.867  70.789  1.00  0.00     0.000 HD 
HETATM   38  H   UNL     1     -11.802   7.680  67.623  1.00  0.00     0.000 HD 
HETATM   39  C   UNL     1     -11.000  10.624  69.062  1.00  0.00    -0.248 C  
HETATM   40  O   UNL     1     -11.313  11.303  70.302  1.00  0.00    -0.248 OA 
BRANCH  34  41
HETATM   41  N   UNL     1     -11.627   8.484  70.291  1.00  0.00    -0.469 NA 
HETATM   42  C   UNL     1     -11.240   8.139  71.647  1.00  0.00    -0.261 C  
HETATM   43  H   UNL     1     -12.564   8.280  69.942  1.00  0.00     0.000 HD 
ENDBRANCH  34  41
ENDBRANCH  29  30
ENDBRANCH  23  29
ENDBRANCH  14  15
ENDBRANCH   9  14
ENDBRANCH   4   5
ENDBRANCH   2   4
TORSDOF 7
ENDMDL
MODEL        4
REMARK 921   NORMALIZED FREE ENERGY PREDICTED BY IDOCK:   -7.16 KCAL/MOL
REMARK 922        TOTAL FREE ENERGY PREDICTED BY IDOCK:  -11.80 KCAL/MOL
REMARK 923 INTER-LIGAND FREE ENERGY PREDICTED BY IDOCK:  -10.48 KCAL/MOL
REMARK 924 INTRA-LIGAND FREE ENERGY PREDICTED BY IDOCK:   -1.32 KCAL/MOL
REMARK 927      BINDING AFFINITY PREDICTED BY RF-SCORE:    0.00 PKD
ROOT
HETATM    1  C   UNL     1      -8.836   4.410  65.635  1.00  0.00    -0.124 C  
HETATM    2  N   UNL     1      -9.266   5.741  65.234  1.00  0.00    -0.363 NA 
HETATM    3  H   UNL     1     -10.022   6.070  65.835  1.00  0.00     0.000 HD 
ENDROOT
BRANCH   2   4
HETATM    4  C   UNL     1      -8.178   6.729  65.184  1.00  0.00    -0.114 C  
BRANCH   4   5
HETATM    5  C   UNL     1      -8.168   7.785  66.322  1.00  0.00    -0.122 C  
HETATM    6  C   UNL     1      -7.364   7.369  67.540  1.00  0.00    -0.102 C  
HETATM    7  C   UNL     1      -7.387   8.505  68.563  1.00  0.00    -0.092 C  
HETATM    8  C   UNL     1      -8.804   9.071  68.796  1.00  0.00    -0.137 C  
HETATM    9  C   UNL     1      -9.680   9.224  67.472  1.00  0.00    -0.158 C  
HETATM   10  N   UNL     1      -8.712  10.259  69.676  1.00  0.00    -0.340 NA 
HETATM   11  O   UNL     1      -9.536   8.013  66.734  1.00  0.00    -0.174 OA 
HETATM   12  H1  UNL     1      -9.649  10.633  69.829  1.00  0.00     0.000 HD 
HETATM   13  H2  UNL     1      -8.069  10.963  69.312  1.00  0.00     0.000 HD 
BRANCH   9  14
HETATM   14  O   UNL     1      -9.428  10.397  66.663  1.00  0.00    -0.159 OA 
BRANCH  14  15
HETATM   15  C   UNL     1     -10.512  10.903  65.775  1.00  0.00    -0.210 C  
HETATM   16  C   UNL     1     -10.088  11.134  64.299  1.00  0.00    -0.326 C  
HETATM   17  N   UNL     1      -9.905   9.843  63.603  1.00  0.00    -0.465 NA 
HETATM   18  C   UNL     1     -11.141  11.933  63.504  1.00  0.00    -0.506 C  
HETATM   19  H2  UNL     1     -10.735   9.255  63.671  1.00  0.00     0.000 HD 
HETATM   20  H1  UNL     1      -9.626   9.995  62.634  1.00  0.00     0.000 HD 
HETATM   21  C   UNL     1     -11.488  13.279  64.158  1.00  0.00    -0.396 C  
HETATM   22  N   UNL     1     -12.330  14.083  63.265  1.00  0.00    -1.145 NA 
HETATM   23  C   UNL     1     -12.180  13.066  65.518  1.00  0.00    -0.469 C  
HETATM   24  C   UNL     1     -11.295  12.113  66.381  1.00  0.00    -0.356 C  
HETATM   25  O   UNL     1     -12.063  11.659  67.520  1.00  0.00    -0.611 OA 
HETATM   26  H1  UNL     1     -12.560  14.976  63.700  1.00  0.00     0.000 HD 
HETATM   27  H2  UNL     1     -13.166  13.576  62.974  1.00  0.00     0.000 HD 
HETATM   28  H   UNL     1     -12.539  12.394  67.889  1.00  0.00     0.000 HD 
BRANCH  23  29
HETATM   29  O   UNL     1     -12.240  14.327  66.246  1.00  0.00    -0.436 OA 
BRANCH  29  30
HETATM   30  C   UNL     1     -11.064  14.972  66.776  1.00  0.00    -0.326 C  
HETATM   31  O   UNL     1     -10.947  14.966  68.201  1.00  0.00    -0.256 OA 
HETATM   32  C   UNL     1      -9.684  15.494  68.638  1.00  0.00    -0.208 C  
HETATM   33  C   UNL     1      -9.471  16.979  68.244  1.00  0.00    -0.265 C  
HETATM   34  C   UNL     1      -9.570  17.097  66.698  1.00  0.00    -0.267 C  
HETATM   35  O   UNL     1     -10.499  17.773  68.857  1.00  0.00    -0.354 OA 
HETATM   36  C   UNL     1      -8.114  17.447  68.791  1.00  0.00    -0.234 C  
HETATM   37  H   UNL     1     -10.693  17.268  64.359  1.00  0.00     0.000 HD 
HETATM   38  H   UNL     1     -10.368  18.682  68.616  1.00  0.00     0.000 HD 
HETATM   39  C   UNL     1     -10.878  16.414  66.171  1.00  0.00    -0.075 C  
HETATM   40  O   UNL     1     -10.805  16.399  64.724  1.00  0.00    -0.697 OA 
BRANCH  34  41
HETATM   41  N   UNL     1      -9.312  18.416  66.044  1.00  0.00    -0.503 NA 
HETATM   42  C   UNL     1     -10.298  19.467  66.227  1.00  0.00    -0.493 C  
HETATM   43  H   UNL     1      -8.471  18.573  65.489  1.00  0.00     0.000 HD 
ENDBRANCH  34  41
ENDBRANCH  29  30
ENDBRANCH  23  29
ENDBRANCH  14  15
ENDBRANCH   9  14
ENDBRANCH   4   5
ENDBRANCH   2   4
TORSDOF 7
ENDMDL
MODEL        5
REMARK 921   NORMALIZED FREE ENERGY PREDICTED BY IDOCK:   -7.16 KCAL/MOL
REMARK 922        TOTAL FREE ENERGY PREDICTED BY IDOCK:  -11.80 KCAL/MOL
REMARK 923 INTER-LIGAND FREE ENERGY PREDICTED BY IDOCK:  -10.62 KCAL/MOL
REMARK 924 INTRA-LIGAND FREE ENERGY PREDICTED BY IDOCK:   -1.18 KCAL/MOL
REMARK 927      BINDING AFFINITY PREDICTED BY RF-SCORE:    0.00 PKD
ROOT
HETATM    1  C   UNL     1     -12.789   8.682  72.118  1.00  0.00    -0.391 C  
HETATM    2  N   UNL     1     -11.520   9.264  71.708  1.00  0.00    -0.384 NA 
HETATM    3  H   UNL     1     -10.879   8.538  71.390  1.00  0.00     0.000 HD 
ENDROOT
BRANCH   2   4
HETATM    4  C   UNL     1     -11.649  10.321  70.694  1.00  0.00    -0.347 C  
BRANCH   4   5
HETATM    5  C   UNL     1     -11.284   9.914  69.240  1.00  0.00    -0.130 C  
HETATM    6  C   UNL     1     -10.474   8.634  69.145  1.00  0.00    -0.223 C  
HETATM    7  C   UNL     1     -10.223   8.312  67.672  1.00  0.00    -0.294 C  
HETATM    8  C   UNL     1      -9.732   9.535  66.868  1.00  0.00    -0.182 C  
HETATM    9  C   UNL     1     -10.468  10.902  67.232  1.00  0.00    -0.232 C  
HETATM   10  N   UNL     1      -9.665   9.175  65.432  1.00  0.00    -0.457 NA 
HETATM   11  O   UNL     1     -10.513  10.987  68.653  1.00  0.00    -0.175 OA 
HETATM   12  H1  UNL     1      -9.341   9.984  64.901  1.00  0.00     0.000 HD 
HETATM   13  H2  UNL     1     -10.551   8.811  65.081  1.00  0.00     0.000 HD 
BRANCH   9  14
HETATM   14  O   UNL     1     -11.763  11.120  66.625  1.00  0.00    -0.289 OA 
BRANCH  14  15
HETATM   15  C   UNL     1     -12.106  12.484  66.133  1.00  0.00    -0.286 C  
HETATM   16  C   UNL     1     -12.047  12.652  64.590  1.00  0.00    -0.420 C  
HETATM   17  N   UNL     1     -13.184  11.962  63.948  1.00  0.00    -0.576 NA 
HETATM   18  C   UNL     1     -12.111  14.132  64.158  1.00  0.00    -0.437 C  
HETATM   19  H2  UNL     1     -14.079  12.271  64.328  1.00  0.00     0.000 HD 
HETATM   20  H1  UNL     1     -13.145  12.072  62.935  1.00  0.00     0.000 HD 
HETATM   21  C   UNL     1     -11.021  14.993  64.815  1.00  0.00    -0.373 C  
HETATM   22  N   UNL     1     -10.996  16.333  64.219  1.00  0.00    -1.114 NA 
HETATM   23  C   UNL     1     -11.230  15.075  66.339  1.00  0.00    -0.310 C  
HETATM   24  C   UNL     1     -11.363  13.625  66.901  1.00  0.00    -0.327 C  
HETATM   25  O   UNL     1     -11.863  13.689  68.257  1.00  0.00    -0.338 OA 
HETATM   26  H1  UNL     1     -10.273  16.905  64.655  1.00  0.00     0.000 HD 
HETATM   27  H2  UNL     1     -11.911  16.783  64.260  1.00  0.00     0.000 HD 
HETATM   28  H   UNL     1     -11.411  14.382  68.724  1.00  0.00     0.000 HD 
BRANCH  23  29
HETATM   29  O   UNL     1     -10.047  15.644  66.972  1.00  0.00    -0.244 OA 
BRANCH  29  30
HETATM   30  C   UNL     1      -9.968  17.031  67.359  1.00  0.00    -0.278 C  
HETATM   31  O   UNL     1     -10.741  17.937  66.568  1.00  0.00    -0.263 OA 
HETATM   32  C   UNL     1     -10.724  19.269  67.107  1.00  0.00    -0.480 C  
HETATM   33  C   UNL     1      -9.307  19.900  67.136  1.00  0.00    -0.364 C  
HETATM   34  C   UNL     1      -8.380  18.990  67.987  1.00  0.00    -0.301 C  
HETATM   35  O   UNL     1      -8.808  19.979  65.791  1.00  0.00    -0.461 OA 
HETATM   36  C   UNL     1      -9.412  21.329  67.692  1.00  0.00     0.078 C  
HETATM   37  H   UNL     1      -6.832  16.978  68.550  1.00  0.00     0.000 HD 
HETATM   38  H   UNL     1      -7.941  20.366  65.810  1.00  0.00     0.000 HD 
HETATM   39  C   UNL     1      -8.472  17.500  67.509  1.00  0.00    -0.213 C  
HETATM   40  O   UNL     1      -7.734  16.695  68.460  1.00  0.00    -0.192 OA 
BRANCH  34  41
HETATM   41  N   UNL     1      -6.972  19.419  68.251  1.00  0.00    -0.272 NA 
HETATM   42  C   UNL     1      -6.601  19.718  69.623  1.00  0.00    -0.343 C  
HETATM   43  H   UNL     1      -6.295  19.498  67.492  1.00  0.00     0.000 HD 
ENDBRANCH  34  41
ENDBRANCH  29  30
ENDBRANCH  23  29
ENDBRANCH  14  15
ENDBRANCH   9  14
ENDBRANCH   4   5
ENDBRANCH   2   4
TORSDOF 7
ENDMDL
MODEL        6
REMARK 921   NORMALIZED FREE ENERGY PREDICTED BY IDOCK:   -7.03 KCAL/MOL
REMARK 922        TOTAL FREE ENERGY PREDICTED BY IDOCK:  -11.61 KCAL/MOL
REMARK 923 INTER-LIGAND FREE ENERGY PREDICTED BY IDOCK:  -10.73 KCAL/MOL
REMARK 924 INTRA-LIGAND FREE ENERGY PREDICTED BY IDOCK:   -0.88 KCAL/MOL
REMARK 927      BINDING AFFINITY PREDICTED BY RF-SCORE:    0.00 PKD
ROOT
HETATM    1  C   UNL     1     -12.042  16.222  73.006  1.00  0.00    -0.530 C  
HETATM    2  N   UNL     1     -13.187  15.673  72.296  1.00  0.00    -0.449 NA 
HETATM    3  H   UNL     1     -13.967  16.330  72.311  1.00  0.00     0.000 HD 
ENDROOT
BRANCH   2   4
HETATM    4  C   UNL     1     -12.889  15.254  70.918  1.00  0.00    -0.449 C  
BRANCH   4   5
HETATM    5  C   UNL     1     -12.837  13.722  70.671  1.00  0.00    -0.192 C  
HETATM    6  C   UNL     1     -12.929  12.891  71.938  1.00  0.00    -0.405 C  
HETATM    7  C   UNL     1     -12.919  11.409  71.564  1.00  0.00    -0.505 C  
HETATM    8  C   UNL     1     -11.809  11.056  70.550  1.00  0.00    -0.367 C  
HETATM    9  C   UNL     1     -11.605  12.134  69.392  1.00  0.00    -0.317 C  
HETATM   10  N   UNL     1     -11.971   9.646  70.128  1.00  0.00    -0.464 NA 
HETATM   11  O   UNL     1     -11.586  13.416  70.013  1.00  0.00    -0.241 OA 
HETATM   12  H1  UNL     1     -11.237   9.412  69.458  1.00  0.00     0.000 HD 
HETATM   13  H2  UNL     1     -12.904   9.454  69.763  1.00  0.00     0.000 HD 
BRANCH   9  14
HETATM   14  O   UNL     1     -12.531  12.072  68.282  1.00  0.00    -0.103 OA 
BRANCH  14  15
HETATM   15  C   UNL     1     -12.028  11.634  66.950  1.00  0.00     0.311 C  
HETATM   16  C   UNL     1     -10.775  10.717  66.997  1.00  0.00    -0.265 C  
HETATM   17  N   UNL     1     -11.137   9.369  67.480  1.00  0.00    -0.415 NA 
HETATM   18  C   UNL     1     -10.123  10.543  65.610  1.00  0.00    -0.333 C  
HETATM   19  H2  UNL     1     -11.888   8.956  66.926  1.00  0.00     0.000 HD 
HETATM   20  H1  UNL     1     -10.315   8.767  67.511  1.00  0.00     0.000 HD 
HETATM   21  C   UNL     1      -9.759  11.882  64.950  1.00  0.00    -0.137 C  
HETATM   22  N   UNL     1      -8.962  11.658  63.739  1.00  0.00    -0.352 NA 
HETATM   23  C   UNL     1     -11.026  12.698  64.628  1.00  0.00    -0.313 C  
HETATM   24  C   UNL     1     -11.888  12.806  65.925  1.00  0.00    -0.437 C  
HETATM   25  O   UNL     1     -13.206  13.292  65.575  1.00  0.00    -0.494 OA 
HETATM   26  H1  UNL     1      -8.720  12.546  63.300  1.00  0.00     0.000 HD 
HETATM   27  H2  UNL     1      -9.431  11.029  63.087  1.00  0.00     0.000 HD 
HETATM   28  H   UNL     1     -13.121  14.004  64.952  1.00  0.00     0.000 HD 
BRANCH  23  29
HETATM   29  O   UNL     1     -10.659  14.063  64.274  1.00  0.00    -0.290 OA 
BRANCH  29  30
HETATM   30  C   UNL     1      -9.945  14.932  65.178  1.00  0.00    -0.242 C  
HETATM   31  O   UNL     1      -9.385  14.297  66.330  1.00  0.00    -0.280 OA 
HETATM   32  C   UNL     1      -8.570  15.198  67.097  1.00  0.00    -0.223 C  
HETATM   33  C   UNL     1      -9.361  16.403  67.671  1.00  0.00    -0.212 C  
HETATM   34  C   UNL     1     -10.009  17.175  66.489  1.00  0.00    -0.302 C  
HETATM   35  O   UNL     1     -10.387  15.908  68.546  1.00  0.00    -0.222 OA 
HETATM   36  C   UNL     1      -8.405  17.275  68.499  1.00  0.00    -0.267 C  
HETATM   37  H   UNL     1     -11.729  17.716  64.615  1.00  0.00     0.000 HD 
HETATM   38  H   UNL     1     -10.871  16.645  68.898  1.00  0.00     0.000 HD 
HETATM   39  C   UNL     1     -10.802  16.198  65.554  1.00  0.00    -0.270 C  
HETATM   40  O   UNL     1     -11.212  16.953  64.388  1.00  0.00    -1.159 OA 
BRANCH  34  41
HETATM   41  N   UNL     1     -10.759  18.439  66.761  1.00  0.00    -0.314 NA 
HETATM   42  C   UNL     1     -10.201  19.680  66.252  1.00  0.00    -0.498 C  
HETATM   43  H   UNL     1     -11.633  18.430  67.286  1.00  0.00     0.000 HD 
ENDBRANCH  34  41
ENDBRANCH  29  30
ENDBRANCH  23  29
ENDBRANCH  14  15
ENDBRANCH   9  14
ENDBRANCH   4   5
ENDBRANCH   2   4
TORSDOF 7
ENDMDL
MODEL        7
REMARK 921   NORMALIZED FREE ENERGY PREDICTED BY IDOCK:   -7.02 KCAL/MOL
REMARK 922        TOTAL FREE ENERGY PREDICTED BY IDOCK:  -11.61 KCAL/MOL
REMARK 923 INTER-LIGAND FREE ENERGY PREDICTED BY IDOCK:  -10.16 KCAL/MOL
REMARK 924 INTRA-LIGAND FREE ENERGY PREDICTED BY IDOCK:   -1.45 KCAL/MOL
REMARK 927      BINDING AFFINITY PREDICTED BY RF-SCORE:    0.00 PKD
ROOT
HETATM    1  C   UNL     1     -14.139   7.388  71.753  1.00  0.00    -0.380 C  
HETATM    2  N   UNL     1     -12.895   7.713  72.435  1.00  0.00    -0.513 NA 
HETATM    3  H   UNL     1     -12.963   7.493  73.428  1.00  0.00     0.000 HD 
ENDROOT
BRANCH   2   4
HETATM    4  C   UNL     1     -11.709   7.076  71.844  1.00  0.00    -0.296 C  
BRANCH   4   5
HETATM    5  C   UNL     1     -11.452   7.381  70.343  1.00  0.00    -0.225 C  
HETATM    6  C   UNL     1     -11.216   6.144  69.496  1.00  0.00    -0.482 C  
HETATM    7  C   UNL     1     -11.028   6.567  68.039  1.00  0.00    -0.368 C  
HETATM    8  C   UNL     1     -10.044   7.745  67.881  1.00  0.00    -0.185 C  
HETATM    9  C   UNL     1     -10.193   8.883  68.989  1.00  0.00    -0.206 C  
HETATM   10  N   UNL     1     -10.041   8.188  66.467  1.00  0.00    -0.424 NA 
HETATM   11  O   UNL     1     -10.283   8.228  70.251  1.00  0.00    -0.191 OA 
HETATM   12  H1  UNL     1      -9.391   8.966  66.362  1.00  0.00     0.000 HD 
HETATM   13  H2  UNL     1     -10.977   8.416  66.129  1.00  0.00     0.000 HD 
BRANCH   9  14
HETATM   14  O   UNL     1     -11.255   9.845  68.788  1.00  0.00    -0.175 OA 
BRANCH  14  15
HETATM   15  C   UNL     1     -11.214  11.129  69.541  1.00  0.00    -0.277 C  
HETATM   16  C   UNL     1     -12.506  11.459  70.336  1.00  0.00    -0.261 C  
HETATM   17  N   UNL     1     -12.623  10.586  71.522  1.00  0.00    -0.410 NA 
HETATM   18  C   UNL     1     -12.528  12.917  70.842  1.00  0.00    -0.383 C  
HETATM   19  H2  UNL     1     -11.792  10.634  72.112  1.00  0.00     0.000 HD 
HETATM   20  H1  UNL     1     -13.472  10.802  72.044  1.00  0.00     0.000 HD 
HETATM   21  C   UNL     1     -12.340  13.942  69.713  1.00  0.00    -0.275 C  
HETATM   22  N   UNL     1     -12.574  15.303  70.211  1.00  0.00    -0.545 NA 
HETATM   23  C   UNL     1     -10.936  13.821  69.090  1.00  0.00    -0.208 C  
HETATM   24  C   UNL     1     -10.700  12.333  68.684  1.00  0.00    -0.233 C  
HETATM   25  O   UNL     1      -9.297  12.141  68.389  1.00  0.00    -0.209 OA 
HETATM   26  H1  UNL     1     -12.449  15.983  69.462  1.00  0.00     0.000 HD 
HETATM   27  H2  UNL     1     -11.990  15.516  71.019  1.00  0.00     0.000 HD 
HETATM   28  H   UNL     1      -8.984  12.873  67.869  1.00  0.00     0.000 HD 
BRANCH  23  29
HETATM   29  O   UNL     1     -10.876  14.589  67.853  1.00  0.00    -0.249 OA 
BRANCH  29  30
HETATM   30  C   UNL     1     -10.326  15.921  67.795  1.00  0.00    -0.278 C  
HETATM   31  O   UNL     1     -11.283  16.984  67.785  1.00  0.00    -0.186 OA 
HETATM   32  C   UNL     1     -10.656  18.272  67.875  1.00  0.00    -0.370 C  
HETATM   33  C   UNL     1      -9.724  18.586  66.675  1.00  0.00    -0.341 C  
HETATM   34  C   UNL     1      -8.629  17.487  66.601  1.00  0.00    -0.258 C  
HETATM   35  O   UNL     1     -10.504  18.577  65.469  1.00  0.00    -0.597 OA 
HETATM   36  C   UNL     1      -9.140  19.996  66.856  1.00  0.00    -0.467 C  
HETATM   37  H   UNL     1      -7.560  15.182  66.047  1.00  0.00     0.000 HD 
HETATM   38  H   UNL     1      -9.933  18.769  64.735  1.00  0.00     0.000 HD 
HETATM   39  C   UNL     1      -9.274  16.058  66.631  1.00  0.00    -0.249 C  
HETATM   40  O   UNL     1      -8.194  15.100  66.749  1.00  0.00    -0.221 OA 
BRANCH  34  41
HETATM   41  N   UNL     1      -7.543  17.601  65.580  1.00  0.00    -0.455 NA 
HETATM   42  C   UNL     1      -6.231  18.028  66.034  1.00  0.00    -0.242 C  
HETATM   43  H   UNL     1      -7.717  17.385  64.599  1.00  0.00     0.000 HD 
ENDBRANCH  34  41
ENDBRANCH  29  30
ENDBRANCH  23  29
ENDBRANCH  14  15
ENDBRANCH   9  14
ENDBRANCH   4   5
ENDBRANCH   2   4
TORSDOF 7
ENDMDL
MODEL        8
REMARK 921   NORMALIZED FREE ENERGY PREDICTED BY IDOCK:   -6.99 KCAL/MOL
REMARK 922        TOTAL FREE ENERGY PREDICTED BY IDOCK:  -11.56 KCAL/MOL
REMARK 923 INTER-LIGAND FREE ENERGY PREDICTED BY IDOCK:   -9.88 KCAL/MOL
REMARK 924 INTRA-LIGAND FREE ENERGY PREDICTED BY IDOCK:   -1.68 KCAL/MOL
REMARK 927      BINDING AFFINITY PREDICTED BY RF-SCORE:    0.00 PKD
ROOT
HETATM    1  C   UNL     1      -6.053  14.035  69.588  1.00  0.00    -0.122 C  
HETATM    2  N   UNL     1      -7.032  13.061  69.129  1.00  0.00    -0.249 NA 
HETATM    3  H   UNL     1      -7.264  13.221  68.149  1.00  0.00     0.000 HD 
ENDROOT
BRANCH   2   4
HETATM    4  C   UNL     1      -6.626  11.664  69.344  1.00  0.00    -0.115 C  
BRANCH   4   5
HETATM    5  C   UNL     1      -7.024  10.663  68.225  1.00  0.00    -0.072 C  
HETATM    6  C   UNL     1      -5.979   9.595  67.956  1.00  0.00    -0.043 C  
HETATM    7  C   UNL     1      -6.503   8.646  66.879  1.00  0.00    -0.061 C  
HETATM    8  C   UNL     1      -7.099   9.391  65.665  1.00  0.00    -0.090 C  
HETATM    9  C   UNL     1      -7.973  10.671  66.040  1.00  0.00    -0.159 C  
HETATM   10  N   UNL     1      -7.719   8.405  64.749  1.00  0.00    -0.102 NA 
HETATM   11  O   UNL     1      -7.234  11.413  67.006  1.00  0.00    -0.125 OA 
HETATM   12  H1  UNL     1      -8.113   8.897  63.947  1.00  0.00     0.000 HD 
HETATM   13  H2  UNL     1      -8.408   7.817  65.219  1.00  0.00     0.000 HD 
BRANCH   9  14
HETATM   14  O   UNL     1      -9.336  10.423  66.459  1.00  0.00    -0.158 OA 
BRANCH  14  15
HETATM   15  C   UNL     1     -10.452  10.934  65.615  1.00  0.00    -0.208 C  
HETATM   16  C   UNL     1     -10.079  11.191  64.129  1.00  0.00    -0.333 C  
HETATM   17  N   UNL     1      -9.909   9.913  63.408  1.00  0.00    -0.464 NA 
HETATM   18  C   UNL     1     -11.165  11.994  63.382  1.00  0.00    -0.481 C  
HETATM   19  H2  UNL     1     -10.732   9.317  63.494  1.00  0.00     0.000 HD 
HETATM   20  H1  UNL     1      -9.664  10.082  62.433  1.00  0.00     0.000 HD 
HETATM   21  C   UNL     1     -11.500  13.326  64.070  1.00  0.00    -0.388 C  
HETATM   22  N   UNL     1     -12.377  14.137  63.218  1.00  0.00    -1.133 NA 
HETATM   23  C   UNL     1     -12.144  13.086  65.448  1.00  0.00    -0.444 C  
HETATM   24  C   UNL     1     -11.224  12.128  66.266  1.00  0.00    -0.334 C  
HETATM   25  O   UNL     1     -11.951  11.650  67.423  1.00  0.00    -0.621 OA 
HETATM   26  H1  UNL     1     -12.600  15.022  63.673  1.00  0.00     0.000 HD 
HETATM   27  H2  UNL     1     -13.218  13.628  62.946  1.00  0.00     0.000 HD 
HETATM   28  H   UNL     1     -12.420  12.375  67.819  1.00  0.00     0.000 HD 
BRANCH  23  29
HETATM   29  O   UNL     1     -12.191  14.335  66.197  1.00  0.00    -0.431 OA 
BRANCH  29  30
HETATM   30  C   UNL     1     -11.002  14.988  66.687  1.00  0.00    -0.325 C  
HETATM   31  O   UNL     1     -10.815  14.947  68.105  1.00  0.00    -0.245 OA 
HETATM   32  C   UNL     1      -9.542  15.488  68.494  1.00  0.00    -0.203 C  
HETATM   33  C   UNL     1      -9.375  16.986  68.130  1.00  0.00    -0.254 C  
HETATM   34  C   UNL     1      -9.551  17.143  66.594  1.00  0.00    -0.267 C  
HETATM   35  O   UNL     1     -10.386  17.744  68.814  1.00  0.00    -0.367 OA 
HETATM   36  C   UNL     1      -8.001  17.466  68.624  1.00  0.00    -0.271 C  
HETATM   37  H   UNL     1     -10.789  17.354  64.318  1.00  0.00     0.000 HD 
HETATM   38  H   UNL     1     -10.282  18.662  68.590  1.00  0.00     0.000 HD 
HETATM   39  C   UNL     1     -10.871  16.449  66.113  1.00  0.00    -0.075 C  
HETATM   40  O   UNL     1     -10.868  16.473  64.665  1.00  0.00    -0.741 OA 
BRANCH  34  41
HETATM   41  N   UNL     1      -9.348  18.484  65.965  1.00  0.00    -0.493 NA 
HETATM   42  C   UNL     1     -10.318  19.524  66.261  1.00  0.00    -0.506 C  
HETATM   43  H   UNL     1      -8.555  18.662  65.348  1.00  0.00     0.000 HD 
ENDBRANCH  34  41
ENDBRANCH  29  30
ENDBRANCH  23  29
ENDBRANCH  14  15
ENDBRANCH   9  14
ENDBRANCH   4   5
ENDBRANCH   2   4
TORSDOF 7
ENDMDL
MODEL        9
REMARK 921   NORMALIZED FREE ENERGY PREDICTED BY IDOCK:   -6.87 KCAL/MOL
REMARK 922        TOTAL FREE ENERGY PREDICTED BY IDOCK:  -11.39 KCAL/MOL
REMARK 923 INTER-LIGAND FREE ENERGY PREDICTED BY IDOCK:   -9.82 KCAL/MOL
REMARK 924 INTRA-LIGAND FREE ENERGY PREDICTED BY IDOCK:   -1.56 KCAL/MOL
REMARK 927      BINDING AFFINITY PREDICTED BY RF-SCORE:    0.00 PKD
ROOT
HETATM    1  C   UNL     1     -12.704  10.524  70.891  1.00  0.00    -0.402 C  
HETATM    2  N   UNL     1     -12.202  10.139  69.581  1.00  0.00    -0.499 NA 
HETATM    3  H   UNL     1     -12.136  10.953  68.969  1.00  0.00     0.000 HD 
ENDROOT
BRANCH   2   4
HETATM    4  C   UNL     1     -10.920   9.419  69.622  1.00  0.00    -0.197 C  
BRANCH   4   5
HETATM    5  C   UNL     1     -10.100   9.418  68.303  1.00  0.00    -0.183 C  
HETATM    6  C   UNL     1      -8.785   8.666  68.397  1.00  0.00    -0.142 C  
HETATM    7  C   UNL     1      -8.098   8.691  67.032  1.00  0.00    -0.100 C  
HETATM    8  C   UNL     1      -8.076  10.100  66.401  1.00  0.00    -0.122 C  
HETATM    9  C   UNL     1      -9.427  10.928  66.587  1.00  0.00    -0.179 C  
HETATM   10  N   UNL     1      -7.537  10.005  65.024  1.00  0.00    -0.135 NA 
HETATM   11  O   UNL     1      -9.815  10.792  67.951  1.00  0.00    -0.163 OA 
HETATM   12  H1  UNL     1      -7.523  10.936  64.607  1.00  0.00     0.000 HD 
HETATM   13  H2  UNL     1      -8.047   9.332  64.452  1.00  0.00     0.000 HD 
BRANCH   9  14
HETATM   14  O   UNL     1     -10.505  10.619  65.673  1.00  0.00    -0.236 OA 
BRANCH  14  15
HETATM   15  C   UNL     1     -11.422  11.713  65.247  1.00  0.00    -0.105 C  
HETATM   16  C   UNL     1     -11.258  12.161  63.769  1.00  0.00    -0.436 C  
HETATM   17  N   UNL     1     -11.799  11.135  62.853  1.00  0.00    -0.449 NA 
HETATM   18  C   UNL     1     -12.004  13.477  63.468  1.00  0.00    -0.388 C  
HETATM   19  H2  UNL     1     -12.768  10.904  63.073  1.00  0.00     0.000 HD 
HETATM   20  H1  UNL     1     -11.691  11.429  61.883  1.00  0.00     0.000 HD 
HETATM   21  C   UNL     1     -11.591  14.623  64.405  1.00  0.00    -0.305 C  
HETATM   22  N   UNL     1     -12.168  15.893  63.949  1.00  0.00    -1.148 NA 
HETATM   23  C   UNL     1     -12.006  14.323  65.857  1.00  0.00    -0.391 C  
HETATM   24  C   UNL     1     -11.461  12.913  66.248  1.00  0.00    -0.348 C  
HETATM   25  O   UNL     1     -12.094  12.487  67.477  1.00  0.00    -0.453 OA 
HETATM   26  H1  UNL     1     -11.894  16.654  64.570  1.00  0.00     0.000 HD 
HETATM   27  H2  UNL     1     -13.181  15.833  63.846  1.00  0.00     0.000 HD 
HETATM   28  H   UNL     1     -12.117  13.217  68.086  1.00  0.00     0.000 HD 
BRANCH  23  29
HETATM   29  O   UNL     1     -11.363  15.267  66.762  1.00  0.00    -0.291 OA 
BRANCH  29  30
HETATM   30  C   UNL     1      -9.994  15.688  66.596  1.00  0.00    -0.258 C  
HETATM   31  O   UNL     1      -9.051  15.085  67.486  1.00  0.00    -0.178 OA 
HETATM   32  C   UNL     1      -7.699  15.444  67.159  1.00  0.00    -0.211 C  
HETATM   33  C   UNL     1      -7.422  16.966  67.283  1.00  0.00    -0.166 C  
HETATM   34  C   UNL     1      -8.397  17.723  66.339  1.00  0.00    -0.248 C  
HETATM   35  O   UNL     1      -7.653  17.369  68.643  1.00  0.00    -0.246 OA 
HETATM   36  C   UNL     1      -5.946  17.230  66.950  1.00  0.00    -0.214 C  
HETATM   37  H   UNL     1     -10.618  18.809  65.535  1.00  0.00     0.000 HD 
HETATM   38  H   UNL     1      -7.483  18.300  68.718  1.00  0.00     0.000 HD 
HETATM   39  C   UNL     1      -9.874  17.259  66.579  1.00  0.00    -0.298 C  
HETATM   40  O   UNL     1     -10.689  17.862  65.545  1.00  0.00    -0.585 OA 
BRANCH  34  41
HETATM   41  N   UNL     1      -8.280  19.206  66.200  1.00  0.00    -0.406 NA 
HETATM   42  C   UNL     1      -8.565  20.021  67.368  1.00  0.00    -0.341 C  
HETATM   43  H   UNL     1      -8.008  19.632  65.314  1.00  0.00     0.000 HD 
ENDBRANCH  34  41
ENDBRANCH  29  30
ENDBRANCH  23  29
ENDBRANCH  14  15
ENDBRANCH   9  14
ENDBRANCH   4   5
ENDBRANCH   2   4
TORSDOF 7
ENDMDL
MODEL       10
REMARK 921   NORMALIZED FREE ENERGY PREDICTED BY IDOCK:   -6.82 KCAL/MOL
REMARK 922        TOTAL FREE ENERGY PREDICTED BY IDOCK:  -11.32 KCAL/MOL
REMARK 923 INTER-LIGAND FREE ENERGY PREDICTED BY IDOCK:   -9.81 KCAL/MOL
REMARK 924 INTRA-LIGAND FREE ENERGY PREDICTED BY IDOCK:   -1.52 KCAL/MOL
REMARK 927      BINDING AFFINITY PREDICTED BY RF-SCORE:    0.00 PKD
ROOT
HETATM    1  C   UNL     1      -9.962   5.411  67.081  1.00  0.00    -0.174 C  
HETATM    2  N   UNL     1     -10.037   6.718  66.445  1.00  0.00    -0.430 NA 
HETATM    3  H   UNL     1     -10.954   7.138  66.596  1.00  0.00     0.000 HD 
ENDROOT
BRANCH   2   4
HETATM    4  C   UNL     1      -8.970   7.643  66.856  1.00  0.00    -0.138 C  
BRANCH   4   5
HETATM    5  C   UNL     1      -9.413   8.836  67.745  1.00  0.00    -0.142 C  
HETATM    6  C   UNL     1      -9.362   8.545  69.234  1.00  0.00    -0.154 C  
HETATM    7  C   UNL     1      -9.768   9.804  70.002  1.00  0.00    -0.292 C  
HETATM    8  C   UNL     1     -11.048  10.459  69.440  1.00  0.00    -0.254 C  
HETATM    9  C   UNL     1     -11.135  10.479  67.848  1.00  0.00    -0.304 C  
HETATM   10  N   UNL     1     -11.278  11.746  70.137  1.00  0.00    -0.456 NA 
HETATM   11  O   UNL     1     -10.773   9.178  67.393  1.00  0.00    -0.277 OA 
HETATM   12  H1  UNL     1     -12.123  12.179  69.766  1.00  0.00     0.000 HD 
HETATM   13  H2  UNL     1     -10.470  12.367  70.084  1.00  0.00     0.000 HD 
BRANCH   9  14
HETATM   14  O   UNL     1     -10.396  11.525  67.173  1.00  0.00    -0.206 OA 
BRANCH  14  15
HETATM   15  C   UNL     1     -11.141  12.502  66.331  1.00  0.00    -0.290 C  
HETATM   16  C   UNL     1     -10.639  12.613  64.866  1.00  0.00    -0.307 C  
HETATM   17  N   UNL     1     -11.025  11.414  64.093  1.00  0.00    -0.359 NA 
HETATM   18  C   UNL     1     -11.232  13.835  64.134  1.00  0.00    -0.238 C  
HETATM   19  H2  UNL     1     -12.030  11.241  64.138  1.00  0.00     0.000 HD 
HETATM   20  H1  UNL     1     -10.696  11.487  63.131  1.00  0.00     0.000 HD 
HETATM   21  C   UNL     1     -10.969  15.157  64.871  1.00  0.00    -0.419 C  
HETATM   22  N   UNL     1     -11.367  16.298  64.039  1.00  0.00    -1.475 NA 
HETATM   23  C   UNL     1     -11.702  15.186  66.226  1.00  0.00    -0.002 C  
HETATM   24  C   UNL     1     -11.330  13.894  67.019  1.00  0.00    -0.326 C  
HETATM   25  O   UNL     1     -12.234  13.752  68.140  1.00  0.00    -0.429 OA 
HETATM   26  H1  UNL     1     -11.193  17.175  64.528  1.00  0.00     0.000 HD 
HETATM   27  H2  UNL     1     -12.336  16.222  63.730  1.00  0.00     0.000 HD 
HETATM   28  H   UNL     1     -12.348  14.598  68.558  1.00  0.00     0.000 HD 
BRANCH  23  29
HETATM   29  O   UNL     1     -11.220  16.303  67.027  1.00  0.00    -0.064 OA 
BRANCH  29  30
HETATM   30  C   UNL     1      -9.837  16.714  67.028  1.00  0.00    -0.260 C  
HETATM   31  O   UNL     1      -9.090  16.363  68.195  1.00  0.00    -0.195 OA 
HETATM   32  C   UNL     1      -7.695  16.677  68.055  1.00  0.00    -0.165 C  
HETATM   33  C   UNL     1      -7.423  18.193  67.868  1.00  0.00    -0.227 C  
HETATM   34  C   UNL     1      -8.189  18.679  66.607  1.00  0.00    -0.278 C  
HETATM   35  O   UNL     1      -7.902  18.895  69.027  1.00  0.00    -0.297 OA 
HETATM   36  C   UNL     1      -5.906  18.416  67.766  1.00  0.00    -0.163 C  
HETATM   37  H   UNL     1     -10.199  19.481  65.166  1.00  0.00     0.000 HD 
HETATM   38  H   UNL     1      -7.735  19.823  68.912  1.00  0.00     0.000 HD 
HETATM   39  C   UNL     1      -9.692  18.240  66.666  1.00  0.00    -0.339 C  
HETATM   40  O   UNL     1     -10.286  18.561  65.384  1.00  0.00    -0.479 OA 
BRANCH  34  41
HETATM   41  N   UNL     1      -8.025  20.092  66.148  1.00  0.00    -0.491 NA 
HETATM   42  C   UNL     1      -6.965  20.376  65.196  1.00  0.00    -0.181 C  
HETATM   43  H   UNL     1      -8.637  20.832  66.492  1.00  0.00     0.000 HD 
ENDBRANCH  34  41
ENDBRANCH  29  30
ENDBRANCH  23  29
ENDBRANCH  14  15
ENDBRANCH   9  14
ENDBRANCH   4   5
ENDBRANCH   2   4
TORSDOF 7
ENDMDL
MODEL       11
REMARK 921   NORMALIZED FREE ENERGY PREDICTED BY IDOCK:   -6.81 KCAL/MOL
REMARK 922        TOTAL FREE ENERGY PREDICTED BY IDOCK:  -11.31 KCAL/MOL
REMARK 923 INTER-LIGAND FREE ENERGY PREDICTED BY IDOCK:   -9.92 KCAL/MOL
REMARK 924 INTRA-LIGAND FREE ENERGY PREDICTED BY IDOCK:   -1.38 KCAL/MOL
REMARK 927      BINDING AFFINITY PREDICTED BY RF-SCORE:    0.00 PKD
ROOT
HETATM    1  C   UNL     1     -10.752   3.673  64.100  1.00  0.00    -0.210 C  
HETATM    2  N   UNL     1     -11.053   4.502  65.258  1.00  0.00    -0.949 NA 
HETATM    3  H   UNL     1     -11.510   3.950  65.984  1.00  0.00     0.000 HD 
ENDROOT
BRANCH   2   4
HETATM    4  C   UNL     1      -9.885   5.208  65.805  1.00  0.00    -0.084 C  
BRANCH   4   5
HETATM    5  C   UNL     1      -9.686   5.102  67.341  1.00  0.00    -0.152 C  
HETATM    6  C   UNL     1      -9.548   3.678  67.847  1.00  0.00    -0.180 C  
HETATM    7  C   UNL     1      -9.307   3.706  69.356  1.00  0.00    -0.246 C  
HETATM    8  C   UNL     1     -10.284   4.641  70.099  1.00  0.00    -0.127 C  
HETATM    9  C   UNL     1     -10.579   6.018  69.351  1.00  0.00    -0.298 C  
HETATM   10  N   UNL     1      -9.883   4.728  71.523  1.00  0.00    -0.179 NA 
HETATM   11  O   UNL     1     -10.833   5.706  67.985  1.00  0.00    -0.204 OA 
HETATM   12  H1  UNL     1     -10.529   5.345  72.014  1.00  0.00     0.000 HD 
HETATM   13  H2  UNL     1      -8.911   5.015  71.636  1.00  0.00     0.000 HD 
BRANCH   9  14
HETATM   14  O   UNL     1      -9.587   7.061  69.504  1.00  0.00    -0.154 OA 
BRANCH  14  15
HETATM   15  C   UNL     1      -9.991   8.350  70.133  1.00  0.00    -0.187 C  
HETATM   16  C   UNL     1     -11.025   8.217  71.283  1.00  0.00    -0.240 C  
HETATM   17  N   UNL     1     -10.390   7.646  72.489  1.00  0.00    -0.232 NA 
HETATM   18  C   UNL     1     -11.629   9.577  71.690  1.00  0.00    -0.451 C  
HETATM   19  H2  UNL     1      -9.571   8.182  72.776  1.00  0.00     0.000 HD 
HETATM   20  H1  UNL     1     -11.069   7.558  73.244  1.00  0.00     0.000 HD 
HETATM   21  C   UNL     1     -12.264  10.324  70.507  1.00  0.00    -0.301 C  
HETATM   22  N   UNL     1     -13.000  11.503  70.979  1.00  0.00    -0.239 NA 
HETATM   23  C   UNL     1     -11.196  10.724  69.472  1.00  0.00    -0.281 C  
HETATM   24  C   UNL     1     -10.373   9.453  69.093  1.00  0.00    -0.211 C  
HETATM   25  O   UNL     1      -9.186   9.859  68.371  1.00  0.00    -0.128 OA 
HETATM   26  H1  UNL     1     -13.422  11.999  70.195  1.00  0.00     0.000 HD 
HETATM   27  H2  UNL     1     -12.411  12.116  71.543  1.00  0.00     0.000 HD 
HETATM   28  H   UNL     1      -9.418  10.529  67.739  1.00  0.00     0.000 HD 
BRANCH  23  29
HETATM   29  O   UNL     1     -11.840  11.167  68.242  1.00  0.00    -0.522 OA 
BRANCH  29  30
HETATM   30  C   UNL     1     -11.446  12.373  67.554  1.00  0.00    -0.346 C  
HETATM   31  O   UNL     1     -12.361  13.467  67.655  1.00  0.00    -0.248 OA 
HETATM   32  C   UNL     1     -11.829  14.667  67.071  1.00  0.00    -0.337 C  
HETATM   33  C   UNL     1     -11.555  14.538  65.549  1.00  0.00    -0.350 C  
HETATM   34  C   UNL     1     -10.554  13.372  65.327  1.00  0.00    -0.325 C  
HETATM   35  O   UNL     1     -12.792  14.251  64.879  1.00  0.00    -0.680 OA 
HETATM   36  C   UNL     1     -11.027  15.883  65.025  1.00  0.00    -0.426 C  
HETATM   37  H   UNL     1      -9.727  10.920  65.067  1.00  0.00     0.000 HD 
HETATM   38  H   UNL     1     -12.623  14.172  63.947  1.00  0.00     0.000 HD 
HETATM   39  C   UNL     1     -11.039  12.075  66.062  1.00  0.00    -0.320 C  
HETATM   40  O   UNL     1      -9.972  11.100  65.966  1.00  0.00    -0.218 OA 
BRANCH  34  41
HETATM   41  N   UNL     1     -10.049  13.090  63.948  1.00  0.00    -0.757 NA 
HETATM   42  C   UNL     1     -10.671  12.007  63.207  1.00  0.00    -0.342 C  
HETATM   43  H   UNL     1      -9.293  13.642  63.541  1.00  0.00     0.000 HD 
ENDBRANCH  34  41
ENDBRANCH  29  30
ENDBRANCH  23  29
ENDBRANCH  14  15
ENDBRANCH   9  14
ENDBRANCH   4   5
ENDBRANCH   2   4
TORSDOF 7
ENDMDL
MODEL       12
REMARK 921   NORMALIZED FREE ENERGY PREDICTED BY IDOCK:   -6.80 KCAL/MOL
REMARK 922        TOTAL FREE ENERGY PREDICTED BY IDOCK:  -11.30 KCAL/MOL
REMARK 923 INTER-LIGAND FREE ENERGY PREDICTED BY IDOCK:   -9.48 KCAL/MOL
REMARK 924 INTRA-LIGAND FREE ENERGY PREDICTED BY IDOCK:   -1.82 KCAL/MOL
REMARK 927      BINDING AFFINITY PREDICTED BY RF-SCORE:    0.00 PKD
ROOT
HETATM    1  C   UNL     1     -12.565  15.333  70.517  1.00  0.00    -0.399 C  
HETATM    2  N   UNL     1     -11.573  15.575  69.481  1.00  0.00    -0.325 NA 
HETATM    3  H   UNL     1     -12.024  15.863  68.613  1.00  0.00     0.000 HD 
ENDROOT
BRANCH   2   4
HETATM    4  C   UNL     1     -10.532  16.540  69.867  1.00  0.00    -0.166 C  
BRANCH   4   5
HETATM    5  C   UNL     1     -10.096  17.543  68.765  1.00  0.00    -0.363 C  
HETATM    6  C   UNL     1      -9.904  18.963  69.268  1.00  0.00    -0.182 C  
HETATM    7  C   UNL     1      -9.428  19.841  68.111  1.00  0.00    -0.454 C  
HETATM    8  C   UNL     1     -10.260  19.639  66.827  1.00  0.00    -0.449 C  
HETATM    9  C   UNL     1     -10.645  18.122  66.521  1.00  0.00    -0.272 C  
HETATM   10  N   UNL     1      -9.638  20.405  65.721  1.00  0.00    -0.593 NA 
HETATM   11  O   UNL     1     -11.116  17.556  67.740  1.00  0.00    -0.235 OA 
HETATM   12  H1  UNL     1     -10.188  20.272  64.873  1.00  0.00     0.000 HD 
HETATM   13  H2  UNL     1      -8.655  20.167  65.588  1.00  0.00     0.000 HD 
BRANCH   9  14
HETATM   14  O   UNL     1      -9.624  17.310  65.894  1.00  0.00    -0.500 OA 
BRANCH  14  15
HETATM   15  C   UNL     1      -9.958  15.914  65.497  1.00  0.00    -0.278 C  
HETATM   16  C   UNL     1     -11.408  15.714  64.978  1.00  0.00    -0.253 C  
HETATM   17  N   UNL     1     -11.562  16.302  63.632  1.00  0.00    -1.280 NA 
HETATM   18  C   UNL     1     -11.793  14.224  64.871  1.00  0.00    -0.414 C  
HETATM   19  H2  UNL     1     -10.872  15.935  62.977  1.00  0.00     0.000 HD 
HETATM   20  H1  UNL     1     -12.514  16.171  63.291  1.00  0.00     0.000 HD 
HETATM   21  C   UNL     1     -11.607  13.464  66.193  1.00  0.00    -0.346 C  
HETATM   22  N   UNL     1     -12.178  12.116  66.095  1.00  0.00    -0.514 NA 
HETATM   23  C   UNL     1     -10.119  13.402  66.587  1.00  0.00    -0.275 C  
HETATM   24  C   UNL     1      -9.539  14.851  66.564  1.00  0.00    -0.276 C  
HETATM   25  O   UNL     1      -8.095  14.781  66.626  1.00  0.00    -0.361 OA 
HETATM   26  H1  UNL     1     -12.055  11.611  66.972  1.00  0.00     0.000 HD 
HETATM   27  H2  UNL     1     -11.794  11.599  65.303  1.00  0.00     0.000 HD 
HETATM   28  H   UNL     1      -7.841  14.134  67.274  1.00  0.00     0.000 HD 
BRANCH  23  29
HETATM   29  O   UNL     1      -9.990  12.939  67.963  1.00  0.00    -0.222 OA 
BRANCH  29  30
HETATM   30  C   UNL     1      -9.051  11.915  68.350  1.00  0.00    -0.167 C  
HETATM   31  O   UNL     1      -7.672  12.293  68.304  1.00  0.00    -0.127 OA 
HETATM   32  C   UNL     1      -6.817  11.272  68.842  1.00  0.00    -0.086 C  
HETATM   33  C   UNL     1      -6.875   9.942  68.045  1.00  0.00    -0.072 C  
HETATM   34  C   UNL     1      -8.343   9.433  68.042  1.00  0.00    -0.119 C  
HETATM   35  O   UNL     1      -6.445  10.191  66.697  1.00  0.00    -0.068 OA 
HETATM   36  C   UNL     1      -5.899   8.940  68.682  1.00  0.00    -0.041 C  
HETATM   37  H   UNL     1     -10.836   9.267  67.322  1.00  0.00     0.000 HD 
HETATM   38  H   UNL     1      -6.480   9.376  66.211  1.00  0.00     0.000 HD 
HETATM   39  C   UNL     1      -9.323  10.567  67.582  1.00  0.00    -0.149 C  
HETATM   40  O   UNL     1     -10.672  10.080  67.785  1.00  0.00    -0.243 OA 
BRANCH  34  41
HETATM   41  N   UNL     1      -8.661   8.114  67.414  1.00  0.00    -0.124 NA 
HETATM   42  C   UNL     1      -9.009   7.012  68.293  1.00  0.00    -0.128 C  
HETATM   43  H   UNL     1      -8.635   7.993  66.401  1.00  0.00     0.000 HD 
ENDBRANCH  34  41
ENDBRANCH  29  30
ENDBRANCH  23  29
ENDBRANCH  14  15
ENDBRANCH   9  14
ENDBRANCH   4   5
ENDBRANCH   2   4
TORSDOF 7
ENDMDL
MODEL       13
REMARK 921   NORMALIZED FREE ENERGY PREDICTED BY IDOCK:   -6.77 KCAL/MOL
REMARK 922        TOTAL FREE ENERGY PREDICTED BY IDOCK:  -11.25 KCAL/MOL
REMARK 923 INTER-LIGAND FREE ENERGY PREDICTED BY IDOCK:   -9.48 KCAL/MOL
REMARK 924 INTRA-LIGAND FREE ENERGY PREDICTED BY IDOCK:   -1.78 KCAL/MOL
REMARK 927      BINDING AFFINITY PREDICTED BY RF-SCORE:    0.00 PKD
ROOT
HETATM    1  C   UNL     1     -12.887  11.154  71.404  1.00  0.00    -0.439 C  
HETATM    2  N   UNL     1     -13.302   9.907  70.779  1.00  0.00    -0.605 NA 
HETATM    3  H   UNL     1     -12.835   9.783  69.881  1.00  0.00     0.000 HD 
ENDROOT
BRANCH   2   4
HETATM    4  C   UNL     1     -13.112   8.723  71.630  1.00  0.00    -0.352 C  
BRANCH   4   5
HETATM    5  C   UNL     1     -12.112   7.660  71.099  1.00  0.00    -0.298 C  
HETATM    6  C   UNL     1     -11.709   6.624  72.132  1.00  0.00    -0.342 C  
HETATM    7  C   UNL     1     -10.769   5.610  71.481  1.00  0.00    -0.306 C  
HETATM    8  C   UNL     1      -9.647   6.279  70.658  1.00  0.00    -0.172 C  
HETATM    9  C   UNL     1     -10.118   7.538  69.800  1.00  0.00    -0.194 C  
HETATM   10  N   UNL     1      -8.883   5.231  69.941  1.00  0.00    -0.111 NA 
HETATM   11  O   UNL     1     -10.920   8.349  70.654  1.00  0.00    -0.235 OA 
HETATM   12  H1  UNL     1      -8.142   5.673  69.397  1.00  0.00     0.000 HD 
HETATM   13  H2  UNL     1      -9.482   4.637  69.368  1.00  0.00     0.000 HD 
BRANCH   9  14
HETATM   14  O   UNL     1     -10.768   7.254  68.539  1.00  0.00    -0.194 OA 
BRANCH  14  15
HETATM   15  C   UNL     1     -10.471   8.122  67.366  1.00  0.00    -0.285 C  
HETATM   16  C   UNL     1      -9.267   7.658  66.501  1.00  0.00    -0.176 C  
HETATM   17  N   UNL     1      -9.622   6.454  65.721  1.00  0.00    -0.373 NA 
HETATM   18  C   UNL     1      -8.818   8.736  65.493  1.00  0.00    -0.229 C  
HETATM   19  H2  UNL     1     -10.459   6.602  65.157  1.00  0.00     0.000 HD 
HETATM   20  H1  UNL     1      -8.832   6.150  65.153  1.00  0.00     0.000 HD 
HETATM   21  C   UNL     1      -8.485  10.078  66.164  1.00  0.00    -0.127 C  
HETATM   22  N   UNL     1      -7.871  10.996  65.199  1.00  0.00    -0.349 NA 
HETATM   23  C   UNL     1      -9.744  10.705  66.792  1.00  0.00    -0.185 C  
HETATM   24  C   UNL     1     -10.417   9.644  67.719  1.00  0.00    -0.256 C  
HETATM   25  O   UNL     1     -11.746  10.099  68.068  1.00  0.00    -0.685 OA 
HETATM   26  H1  UNL     1      -7.650  11.887  65.644  1.00  0.00     0.000 HD 
HETATM   27  H2  UNL     1      -8.453  11.121  64.371  1.00  0.00     0.000 HD 
HETATM   28  H   UNL     1     -11.713  11.024  68.283  1.00  0.00     0.000 HD 
BRANCH  23  29
HETATM   29  O   UNL     1      -9.366  11.813  67.659  1.00  0.00    -0.173 OA 
BRANCH  29  30
HETATM   30  C   UNL     1      -9.761  13.175  67.391  1.00  0.00    -0.220 C  
HETATM   31  O   UNL     1      -8.689  14.106  67.222  1.00  0.00    -0.196 OA 
HETATM   32  C   UNL     1      -9.162  15.400  66.815  1.00  0.00    -0.249 C  
HETATM   33  C   UNL     1     -10.089  16.071  67.862  1.00  0.00    -0.241 C  
HETATM   34  C   UNL     1     -11.305  15.137  68.114  1.00  0.00    -0.335 C  
HETATM   35  O   UNL     1      -9.355  16.251  69.083  1.00  0.00    -0.246 OA 
HETATM   36  C   UNL     1     -10.502  17.457  67.343  1.00  0.00    -0.336 C  
HETATM   37  H   UNL     1     -12.648  13.141  69.099  1.00  0.00     0.000 HD 
HETATM   38  H   UNL     1      -9.923  16.663  69.723  1.00  0.00     0.000 HD 
HETATM   39  C   UNL     1     -10.827  13.679  68.435  1.00  0.00    -0.256 C  
HETATM   40  O   UNL     1     -12.005  12.837  68.469  1.00  0.00    -0.308 OA 
BRANCH  34  41
HETATM   41  N   UNL     1     -12.403  15.590  69.020  1.00  0.00    -0.611 NA 
HETATM   42  C   UNL     1     -12.159  15.553  70.452  1.00  0.00    -0.392 C  
HETATM   43  H   UNL     1     -13.295  15.915  68.646  1.00  0.00     0.000 HD 
ENDBRANCH  34  41
ENDBRANCH  29  30
ENDBRANCH  23  29
ENDBRANCH  14  15
ENDBRANCH   9  14
ENDBRANCH   4   5
ENDBRANCH   2   4
TORSDOF 7
ENDMDL
MODEL       14
REMARK 921   NORMALIZED FREE ENERGY PREDICTED BY IDOCK:   -6.75 KCAL/MOL
REMARK 922        TOTAL FREE ENERGY PREDICTED BY IDOCK:  -11.23 KCAL/MOL
REMARK 923 INTER-LIGAND FREE ENERGY PREDICTED BY IDOCK:  -10.08 KCAL/MOL
REMARK 924 INTRA-LIGAND FREE ENERGY PREDICTED BY IDOCK:   -1.15 KCAL/MOL
REMARK 927      BINDING AFFINITY PREDICTED BY RF-SCORE:    0.00 PKD
ROOT
HETATM    1  C   UNL     1     -10.975  12.282  63.581  1.00  0.00    -0.471 C  
HETATM    2  N   UNL     1     -10.541  11.097  62.857  1.00  0.00    -0.800 NA 
HETATM    3  H   UNL     1     -10.174  11.352  61.940  1.00  0.00     0.000 HD 
ENDROOT
BRANCH   2   4
HETATM    4  C   UNL     1      -9.570  10.272  63.591  1.00  0.00    -0.277 C  
BRANCH   4   5
HETATM    5  C   UNL     1      -9.261  10.722  65.045  1.00  0.00    -0.211 C  
HETATM    6  C   UNL     1      -7.805  10.560  65.443  1.00  0.00    -0.119 C  
HETATM    7  C   UNL     1      -7.617  11.080  66.868  1.00  0.00    -0.133 C  
HETATM    8  C   UNL     1      -8.692  10.553  67.843  1.00  0.00    -0.126 C  
HETATM    9  C   UNL     1     -10.167  10.510  67.238  1.00  0.00    -0.215 C  
HETATM   10  N   UNL     1      -8.528  11.225  69.153  1.00  0.00    -0.378 NA 
HETATM   11  O   UNL     1     -10.071   9.927  65.942  1.00  0.00    -0.271 OA 
HETATM   12  H1  UNL     1      -9.238  10.877  69.797  1.00  0.00     0.000 HD 
HETATM   13  H2  UNL     1      -8.542  12.242  69.073  1.00  0.00     0.000 HD 
BRANCH   9  14
HETATM   14  O   UNL     1     -10.899  11.758  67.229  1.00  0.00    -0.228 OA 
BRANCH  14  15
HETATM   15  C   UNL     1     -10.805  12.656  68.414  1.00  0.00    -0.245 C  
HETATM   16  C   UNL     1     -12.032  12.608  69.365  1.00  0.00    -0.260 C  
HETATM   17  N   UNL     1     -12.050  11.342  70.126  1.00  0.00    -0.344 NA 
HETATM   18  C   UNL     1     -12.022  13.757  70.394  1.00  0.00    -0.385 C  
HETATM   19  H2  UNL     1     -11.176  11.190  70.629  1.00  0.00     0.000 HD 
HETATM   20  H1  UNL     1     -12.856  11.311  70.750  1.00  0.00     0.000 HD 
HETATM   21  C   UNL     1     -11.929  15.144  69.739  1.00  0.00    -0.334 C  
HETATM   22  N   UNL     1     -12.131  16.199  70.738  1.00  0.00    -0.501 NA 
HETATM   23  C   UNL     1     -10.579  15.322  69.019  1.00  0.00    -0.245 C  
HETATM   24  C   UNL     1     -10.367  14.113  68.054  1.00  0.00    -0.231 C  
HETATM   25  O   UNL     1      -8.990  14.100  67.610  1.00  0.00    -0.176 OA 
HETATM   26  H1  UNL     1     -12.069  17.119  70.303  1.00  0.00     0.000 HD 
HETATM   27  H2  UNL     1     -11.486  16.106  71.522  1.00  0.00     0.000 HD 
HETATM   28  H   UNL     1      -8.724  14.986  67.391  1.00  0.00     0.000 HD 
BRANCH  23  29
HETATM   29  O   UNL     1     -10.620  16.508  68.173  1.00  0.00    -0.300 OA 
BRANCH  29  30
HETATM   30  C   UNL     1      -9.560  17.485  68.158  1.00  0.00    -0.294 C  
HETATM   31  O   UNL     1      -9.841  18.712  68.837  1.00  0.00    -0.382 OA 
HETATM   32  C   UNL     1      -8.688  19.566  68.901  1.00  0.00    -0.249 C  
HETATM   33  C   UNL     1      -8.175  20.011  67.506  1.00  0.00    -0.329 C  
HETATM   34  C   UNL     1      -7.827  18.741  66.682  1.00  0.00    -0.262 C  
HETATM   35  O   UNL     1      -9.215  20.749  66.844  1.00  0.00    -0.609 OA 
HETATM   36  C   UNL     1      -6.971  20.946  67.695  1.00  0.00    -0.368 C  
HETATM   37  H   UNL     1      -8.229  16.646  65.195  1.00  0.00     0.000 HD 
HETATM   38  H   UNL     1      -8.900  21.021  65.991  1.00  0.00     0.000 HD 
HETATM   39  C   UNL     1      -9.020  17.724  66.698  1.00  0.00    -0.266 C  
HETATM   40  O   UNL     1      -8.554  16.502  66.076  1.00  0.00    -0.398 OA 
BRANCH  34  41
HETATM   41  N   UNL     1      -7.223  18.890  65.323  1.00  0.00    -0.422 NA 
HETATM   42  C   UNL     1      -5.805  18.612  65.178  1.00  0.00    -0.253 C  
HETATM   43  H   UNL     1      -7.788  19.178  64.524  1.00  0.00     0.000 HD 
ENDBRANCH  34  41
ENDBRANCH  29  30
ENDBRANCH  23  29
ENDBRANCH  14  15
ENDBRANCH   9  14
ENDBRANCH   4   5
ENDBRANCH   2   4
TORSDOF 7
ENDMDL
MODEL       15
REMARK 921   NORMALIZED FREE ENERGY PREDICTED BY IDOCK:   -6.73 KCAL/MOL
REMARK 922        TOTAL FREE ENERGY PREDICTED BY IDOCK:  -11.20 KCAL/MOL
REMARK 923 INTER-LIGAND FREE ENERGY PREDICTED BY IDOCK:  -10.24 KCAL/MOL
REMARK 924 INTRA-LIGAND FREE ENERGY PREDICTED BY IDOCK:   -0.96 KCAL/MOL
REMARK 927      BINDING AFFINITY PREDICTED BY RF-SCORE:    0.00 PKD
ROOT
HETATM    1  C   UNL     1     -10.487  20.152  65.650  1.00  0.00    -0.218 C  
HETATM    2  N   UNL     1     -10.438  19.840  67.071  1.00  0.00    -0.459 NA 
HETATM    3  H   UNL     1     -11.032  19.038  67.282  1.00  0.00     0.000 HD 
ENDROOT
BRANCH   2   4
HETATM    4  C   UNL     1      -9.078  19.627  67.587  1.00  0.00    -0.329 C  
BRANCH   4   5
HETATM    5  C   UNL     1      -8.632  18.147  67.732  1.00  0.00    -0.255 C  
HETATM    6  C   UNL     1      -7.439  17.952  68.650  1.00  0.00    -0.280 C  
HETATM    7  C   UNL     1      -7.128  16.459  68.753  1.00  0.00    -0.180 C  
HETATM    8  C   UNL     1      -7.099  15.759  67.377  1.00  0.00    -0.203 C  
HETATM    9  C   UNL     1      -8.245  16.229  66.373  1.00  0.00    -0.319 C  
HETATM   10  N   UNL     1      -6.948  14.299  67.580  1.00  0.00    -0.184 NA 
HETATM   11  O   UNL     1      -8.283  17.653  66.418  1.00  0.00    -0.255 OA 
HETATM   12  H1  UNL     1      -6.928  13.837  66.671  1.00  0.00     0.000 HD 
HETATM   13  H2  UNL     1      -7.666  13.916  68.195  1.00  0.00     0.000 HD 
BRANCH   9  14
HETATM   14  O   UNL     1      -9.552  15.636  66.560  1.00  0.00    -0.237 OA 
BRANCH  14  15
HETATM   15  C   UNL     1     -10.099  14.752  65.494  1.00  0.00    -0.380 C  
HETATM   16  C   UNL     1     -11.464  15.207  64.909  1.00  0.00    -0.374 C  
HETATM   17  N   UNL     1     -11.290  16.398  64.052  1.00  0.00    -1.539 NA 
HETATM   18  C   UNL     1     -12.124  14.115  64.041  1.00  0.00    -0.382 C  
HETATM   19  H2  UNL     1     -10.598  16.240  63.319  1.00  0.00     0.000 HD 
HETATM   20  H1  UNL     1     -12.186  16.696  63.668  1.00  0.00     0.000 HD 
HETATM   21  C   UNL     1     -12.300  12.784  64.789  1.00  0.00    -0.478 C  
HETATM   22  N   UNL     1     -13.111  11.853  63.997  1.00  0.00    -0.602 NA 
HETATM   23  C   UNL     1     -10.933  12.163  65.133  1.00  0.00    -0.310 C  
HETATM   24  C   UNL     1     -10.073  13.235  65.873  1.00  0.00    -0.291 C  
HETATM   25  O   UNL     1      -8.700  12.782  65.928  1.00  0.00    -0.245 OA 
HETATM   26  H1  UNL     1     -13.228  10.970  64.493  1.00  0.00     0.000 HD 
HETATM   27  H2  UNL     1     -12.726  11.715  63.062  1.00  0.00     0.000 HD 
HETATM   28  H   UNL     1      -8.684  11.860  66.158  1.00  0.00     0.000 HD 
BRANCH  23  29
HETATM   29  O   UNL     1     -11.111  11.068  66.078  1.00  0.00    -0.136 OA 
BRANCH  29  30
HETATM   30  C   UNL     1     -10.267  10.901  67.237  1.00  0.00    -0.205 C  
HETATM   31  O   UNL     1      -9.057  10.171  67.019  1.00  0.00    -0.138 OA 
HETATM   32  C   UNL     1      -8.211  10.177  68.179  1.00  0.00    -0.113 C  
HETATM   33  C   UNL     1      -8.855   9.490  69.412  1.00  0.00    -0.170 C  
HETATM   34  C   UNL     1     -10.185  10.220  69.744  1.00  0.00    -0.220 C  
HETATM   35  O   UNL     1      -9.123   8.116  69.088  1.00  0.00    -0.147 OA 
HETATM   36  C   UNL     1      -7.853   9.520  70.576  1.00  0.00    -0.182 C  
HETATM   37  H   UNL     1     -12.697  10.862  69.549  1.00  0.00     0.000 HD 
HETATM   38  H   UNL     1      -9.517   7.696  69.844  1.00  0.00     0.000 HD 
HETATM   39  C   UNL     1     -11.083  10.348  68.465  1.00  0.00    -0.266 C  
HETATM   40  O   UNL     1     -12.205  11.196  68.809  1.00  0.00    -0.555 OA 
BRANCH  34  41
HETATM   41  N   UNL     1     -10.966   9.811  70.951  1.00  0.00    -0.326 NA 
HETATM   42  C   UNL     1     -11.590   8.499  70.941  1.00  0.00    -0.263 C  
HETATM   43  H   UNL     1     -11.057  10.432  71.755  1.00  0.00     0.000 HD 
ENDBRANCH  34  41
ENDBRANCH  29  30
ENDBRANCH  23  29
ENDBRANCH  14  15
ENDBRANCH   9  14
ENDBRANCH   4   5
ENDBRANCH   2   4
TORSDOF 7
ENDMDL
MODEL       16
REMARK 921   NORMALIZED FREE ENERGY PREDICTED BY IDOCK:   -6.72 KCAL/MOL
REMARK 922        TOTAL FREE ENERGY PREDICTED BY IDOCK:  -11.17 KCAL/MOL
REMARK 923 INTER-LIGAND FREE ENERGY PREDICTED BY IDOCK:   -9.48 KCAL/MOL
REMARK 924 INTRA-LIGAND FREE ENERGY PREDICTED BY IDOCK:   -1.69 KCAL/MOL
REMARK 927      BINDING AFFINITY PREDICTED BY RF-SCORE:    0.00 PKD
ROOT
HETATM    1  C   UNL     1      -9.361  11.697  65.718  1.00  0.00    -0.205 C  
HETATM    2  N   UNL     1      -9.028  11.479  67.118  1.00  0.00    -0.162 NA 
HETATM    3  H   UNL     1      -9.874  11.343  67.670  1.00  0.00     0.000 HD 
ENDROOT
BRANCH   2   4
HETATM    4  C   UNL     1      -8.081  10.377  67.340  1.00  0.00    -0.107 C  
BRANCH   4   5
HETATM    5  C   UNL     1      -8.682   8.946  67.286  1.00  0.00    -0.121 C  
HETATM    6  C   UNL     1      -8.560   8.278  65.928  1.00  0.00    -0.170 C  
HETATM    7  C   UNL     1      -9.136   6.865  66.014  1.00  0.00    -0.101 C  
HETATM    8  C   UNL     1     -10.511   6.822  66.715  1.00  0.00    -0.228 C  
HETATM    9  C   UNL     1     -10.631   7.771  67.992  1.00  0.00    -0.139 C  
HETATM   10  N   UNL     1     -10.920   5.410  66.893  1.00  0.00    -0.400 NA 
HETATM   11  O   UNL     1     -10.085   9.035  67.626  1.00  0.00    -0.188 OA 
HETATM   12  H1  UNL     1     -11.828   5.382  67.356  1.00  0.00     0.000 HD 
HETATM   13  H2  UNL     1     -10.216   4.861  67.387  1.00  0.00     0.000 HD 
BRANCH   9  14
HETATM   14  O   UNL     1     -10.072   7.265  69.227  1.00  0.00    -0.174 OA 
BRANCH  14  15
HETATM   15  C   UNL     1     -10.769   7.567  70.508  1.00  0.00    -0.235 C  
HETATM   16  C   UNL     1     -11.852   6.532  70.920  1.00  0.00    -0.331 C  
HETATM   17  N   UNL     1     -11.221   5.275  71.375  1.00  0.00     0.073 NA 
HETATM   18  C   UNL     1     -12.740   7.039  72.074  1.00  0.00    -0.228 C  
HETATM   19  H2  UNL     1     -10.549   5.438  72.125  1.00  0.00     0.000 HD 
HETATM   20  H1  UNL     1     -11.932   4.596  71.645  1.00  0.00     0.000 HD 
HETATM   21  C   UNL     1     -13.406   8.388  71.766  1.00  0.00    -0.357 C  
HETATM   22  N   UNL     1     -14.393   8.722  72.798  1.00  0.00    -1.038 NA 
HETATM   23  C   UNL     1     -12.352   9.504  71.634  1.00  0.00    -0.398 C  
HETATM   24  C   UNL     1     -11.269   9.045  70.608  1.00  0.00    -0.270 C  
HETATM   25  O   UNL     1     -10.127   9.928  70.702  1.00  0.00    -0.344 OA 
HETATM   26  H1  UNL     1     -14.836   9.618  72.593  1.00  0.00     0.000 HD 
HETATM   27  H2  UNL     1     -13.984   8.706  73.733  1.00  0.00     0.000 HD 
HETATM   28  H   UNL     1     -10.430  10.826  70.763  1.00  0.00     0.000 HD 
BRANCH  23  29
HETATM   29  O   UNL     1     -12.963  10.699  71.065  1.00  0.00    -0.366 OA 
BRANCH  29  30
HETATM   30  C   UNL     1     -12.562  12.030  71.448  1.00  0.00    -0.225 C  
HETATM   31  O   UNL     1     -13.461  12.718  72.321  1.00  0.00    -0.565 OA 
HETATM   32  C   UNL     1     -12.921  13.971  72.769  1.00  0.00    -0.378 C  
HETATM   33  C   UNL     1     -12.664  14.976  71.616  1.00  0.00    -0.340 C  
HETATM   34  C   UNL     1     -11.680  14.325  70.605  1.00  0.00    -0.223 C  
HETATM   35  O   UNL     1     -13.912  15.261  70.963  1.00  0.00    -0.681 OA 
HETATM   36  C   UNL     1     -12.125  16.287  72.210  1.00  0.00    -0.567 C  
HETATM   37  H   UNL     1     -10.887  12.808  68.648  1.00  0.00     0.000 HD 
HETATM   38  H   UNL     1     -13.754  15.876  70.257  1.00  0.00     0.000 HD 
HETATM   39  C   UNL     1     -12.174  12.896  70.191  1.00  0.00    -0.266 C  
HETATM   40  O   UNL     1     -11.121  12.286  69.406  1.00  0.00    -0.198 OA 
BRANCH  34  41
HETATM   41  N   UNL     1     -11.193  15.121  69.437  1.00  0.00    -0.266 NA 
HETATM   42  C   UNL     1      -9.803  15.541  69.436  1.00  0.00    -0.283 C  
HETATM   43  H   UNL     1     -11.818  15.361  68.667  1.00  0.00     0.000 HD 
ENDBRANCH  34  41
ENDBRANCH  29  30
ENDBRANCH  23  29
ENDBRANCH  14  15
ENDBRANCH   9  14
ENDBRANCH   4   5
ENDBRANCH   2   4
TORSDOF 7
ENDMDL
MODEL       17
REMARK 921   NORMALIZED FREE ENERGY PREDICTED BY IDOCK:   -6.60 KCAL/MOL
REMARK 922        TOTAL FREE ENERGY PREDICTED BY IDOCK:  -11.01 KCAL/MOL
REMARK 923 INTER-LIGAND FREE ENERGY PREDICTED BY IDOCK:   -9.95 KCAL/MOL
REMARK 924 INTRA-LIGAND FREE ENERGY PREDICTED BY IDOCK:   -1.06 KCAL/MOL
REMARK 927      BINDING AFFINITY PREDICTED BY RF-SCORE:    0.00 PKD
ROOT
HETATM    1  C   UNL     1     -10.373   6.842  73.850  1.00  0.00    -0.368 C  
HETATM    2  N   UNL     1     -11.501   7.253  73.027  1.00  0.00    -0.575 NA 
HETATM    3  H   UNL     1     -11.403   8.229  72.747  1.00  0.00     0.000 HD 
ENDROOT
BRANCH   2   4
HETATM    4  C   UNL     1     -11.725   6.398  71.853  1.00  0.00    -0.328 C  
BRANCH   4   5
HETATM    5  C   UNL     1     -11.551   7.084  70.471  1.00  0.00    -0.319 C  
HETATM    6  C   UNL     1     -11.141   6.134  69.360  1.00  0.00    -0.479 C  
HETATM    7  C   UNL     1     -11.053   6.911  68.047  1.00  0.00    -0.179 C  
HETATM    8  C   UNL     1     -10.269   8.234  68.188  1.00  0.00    -0.210 C  
HETATM    9  C   UNL     1     -10.572   9.041  69.530  1.00  0.00    -0.225 C  
HETATM   10  N   UNL     1     -10.366   8.991  66.918  1.00  0.00    -0.263 NA 
HETATM   11  O   UNL     1     -10.532   8.102  70.600  1.00  0.00    -0.204 OA 
HETATM   12  H1  UNL     1      -9.848   9.865  67.011  1.00  0.00     0.000 HD 
HETATM   13  H2  UNL     1     -11.333   9.142  66.628  1.00  0.00     0.000 HD 
BRANCH   9  14
HETATM   14  O   UNL     1     -11.776   9.843  69.544  1.00  0.00    -0.078 OA 
BRANCH  14  15
HETATM   15  C   UNL     1     -11.870  10.983  70.498  1.00  0.00    -0.367 C  
HETATM   16  C   UNL     1     -13.105  10.944  71.439  1.00  0.00    -0.356 C  
HETATM   17  N   UNL     1     -12.944   9.892  72.464  1.00  0.00    -0.405 NA 
HETATM   18  C   UNL     1     -13.317  12.277  72.185  1.00  0.00    -0.473 C  
HETATM   19  H2  UNL     1     -12.074  10.001  72.986  1.00  0.00     0.000 HD 
HETATM   20  H1  UNL     1     -13.755   9.866  73.081  1.00  0.00     0.000 HD 
HETATM   21  C   UNL     1     -13.427  13.480  71.236  1.00  0.00    -0.083 C  
HETATM   22  N   UNL     1     -13.832  14.682  71.975  1.00  0.00    -0.415 NA 
HETATM   23  C   UNL     1     -12.100  13.716  70.491  1.00  0.00    -0.339 C  
HETATM   24  C   UNL     1     -11.662  12.377  69.821  1.00  0.00    -0.291 C  
HETATM   25  O   UNL     1     -10.287  12.494  69.387  1.00  0.00    -0.380 OA 
HETATM   26  H1  UNL     1     -13.906  15.480  71.346  1.00  0.00     0.000 HD 
HETATM   27  H2  UNL     1     -13.208  14.873  72.759  1.00  0.00     0.000 HD 
HETATM   28  H   UNL     1     -10.161  13.341  68.975  1.00  0.00     0.000 HD 
BRANCH  23  29
HETATM   29  O   UNL     1     -12.304  14.663  69.402  1.00  0.00    -0.263 OA 
BRANCH  29  30
HETATM   30  C   UNL     1     -11.208  15.283  68.701  1.00  0.00    -0.296 C  
HETATM   31  O   UNL     1     -10.865  16.602  69.134  1.00  0.00    -0.320 OA 
HETATM   32  C   UNL     1      -9.677  17.088  68.490  1.00  0.00    -0.282 C  
HETATM   33  C   UNL     1      -9.824  17.218  66.951  1.00  0.00    -0.287 C  
HETATM   34  C   UNL     1     -10.189  15.824  66.371  1.00  0.00    -0.293 C  
HETATM   35  O   UNL     1     -10.876  18.154  66.664  1.00  0.00    -0.237 OA 
HETATM   36  C   UNL     1      -8.515  17.778  66.373  1.00  0.00    -0.270 C  
HETATM   37  H   UNL     1     -11.684  13.794  65.732  1.00  0.00     0.000 HD 
HETATM   38  H   UNL     1     -10.965  18.233  65.722  1.00  0.00     0.000 HD 
HETATM   39  C   UNL     1     -11.406  15.204  67.140  1.00  0.00    -0.290 C  
HETATM   40  O   UNL     1     -11.564  13.842  66.673  1.00  0.00    -0.339 OA 
BRANCH  34  41
HETATM   41  N   UNL     1     -10.302  15.651  64.890  1.00  0.00    -0.546 NA 
HETATM   42  C   UNL     1     -11.618  15.789  64.291  1.00  0.00    -0.191 C  
HETATM   43  H   UNL     1      -9.482  15.444  64.320  1.00  0.00     0.000 HD 
ENDBRANCH  34  41
ENDBRANCH  29  30
ENDBRANCH  23  29
ENDBRANCH  14  15
ENDBRANCH   9  14
ENDBRANCH   4   5
ENDBRANCH   2   4
TORSDOF 7
ENDMDL
MODEL       18
REMARK 921   NORMALIZED FREE ENERGY PREDICTED BY IDOCK:   -6.60 KCAL/MOL
REMARK 922        TOTAL FREE ENERGY PREDICTED BY IDOCK:  -11.01 KCAL/MOL
REMARK 923 INTER-LIGAND FREE ENERGY PREDICTED BY IDOCK:  -10.00 KCAL/MOL
REMARK 924 INTRA-LIGAND FREE ENERGY PREDICTED BY IDOCK:   -1.01 KCAL/MOL
REMARK 927      BINDING AFFINITY PREDICTED BY RF-SCORE:    0.00 PKD
ROOT
HETATM    1  C   UNL     1     -13.790   8.650  71.717  1.00  0.00    -0.425 C  
HETATM    2  N   UNL     1     -12.708   9.580  72.007  1.00  0.00    -0.394 NA 
HETATM    3  H   UNL     1     -11.816   9.088  72.050  1.00  0.00     0.000 HD 
ENDROOT
BRANCH   2   4
HETATM    4  C   UNL     1     -12.631  10.712  71.072  1.00  0.00    -0.416 C  
BRANCH   4   5
HETATM    5  C   UNL     1     -11.902  10.435  69.729  1.00  0.00    -0.207 C  
HETATM    6  C   UNL     1     -10.872   9.322  69.807  1.00  0.00    -0.239 C  
HETATM    7  C   UNL     1     -10.263   9.109  68.422  1.00  0.00    -0.230 C  
HETATM    8  C   UNL     1      -9.843  10.431  67.744  1.00  0.00    -0.168 C  
HETATM    9  C   UNL     1     -10.874  11.632  67.945  1.00  0.00    -0.210 C  
HETATM   10  N   UNL     1      -9.412  10.147  66.355  1.00  0.00    -0.169 NA 
HETATM   11  O   UNL     1     -11.230  11.650  69.324  1.00  0.00    -0.244 OA 
HETATM   12  H1  UNL     1      -9.135  11.021  65.908  1.00  0.00     0.000 HD 
HETATM   13  H2  UNL     1     -10.124   9.647  65.822  1.00  0.00     0.000 HD 
BRANCH   9  14
HETATM   14  O   UNL     1     -12.030  11.644  67.075  1.00  0.00    -0.593 OA 
BRANCH  14  15
HETATM   15  C   UNL     1     -12.367  12.897  66.344  1.00  0.00    -0.075 C  
HETATM   16  C   UNL     1     -12.109  12.847  64.813  1.00  0.00    -0.422 C  
HETATM   17  N   UNL     1     -13.116  11.999  64.145  1.00  0.00    -0.685 NA 
HETATM   18  C   UNL     1     -12.184  14.243  64.160  1.00  0.00    -0.410 C  
HETATM   19  H2  UNL     1     -14.067  12.299  64.359  1.00  0.00     0.000 HD 
HETATM   20  H1  UNL     1     -12.946  11.966  63.140  1.00  0.00     0.000 HD 
HETATM   21  C   UNL     1     -11.234  15.259  64.812  1.00  0.00    -0.396 C  
HETATM   22  N   UNL     1     -11.192  16.499  64.029  1.00  0.00    -1.454 NA 
HETATM   23  C   UNL     1     -11.649  15.544  66.268  1.00  0.00     0.211 C  
HETATM   24  C   UNL     1     -11.788  14.183  67.020  1.00  0.00    -0.429 C  
HETATM   25  O   UNL     1     -12.467  14.406  68.277  1.00  0.00    -0.587 OA 
HETATM   26  H1  UNL     1     -10.561  17.173  64.462  1.00  0.00     0.000 HD 
HETATM   27  H2  UNL     1     -12.124  16.889  63.887  1.00  0.00     0.000 HD 
HETATM   28  H   UNL     1     -12.115  15.188  68.688  1.00  0.00     0.000 HD 
BRANCH  23  29
HETATM   29  O   UNL     1     -10.589  16.274  66.952  1.00  0.00    -0.310 OA 
BRANCH  29  30
HETATM   30  C   UNL     1      -9.234  15.786  67.022  1.00  0.00    -0.216 C  
HETATM   31  O   UNL     1      -8.952  14.901  68.109  1.00  0.00    -0.167 OA 
HETATM   32  C   UNL     1      -7.630  14.348  68.023  1.00  0.00    -0.137 C  
HETATM   33  C   UNL     1      -6.510  15.419  68.103  1.00  0.00    -0.125 C  
HETATM   34  C   UNL     1      -6.718  16.436  66.947  1.00  0.00    -0.170 C  
HETATM   35  O   UNL     1      -6.607  16.095  69.367  1.00  0.00    -0.176 OA 
HETATM   36  C   UNL     1      -5.146  14.716  68.039  1.00  0.00    -0.099 C  
HETATM   37  H   UNL     1      -7.730  18.463  65.671  1.00  0.00     0.000 HD 
HETATM   38  H   UNL     1      -5.921  16.751  69.415  1.00  0.00     0.000 HD 
HETATM   39  C   UNL     1      -8.194  16.965  66.931  1.00  0.00    -0.213 C  
HETATM   40  O   UNL     1      -8.357  17.752  65.726  1.00  0.00    -0.529 OA 
BRANCH  34  41
HETATM   41  N   UNL     1      -5.718  17.528  66.741  1.00  0.00    -0.155 NA 
HETATM   42  C   UNL     1      -6.001  18.825  67.330  1.00  0.00    -0.159 C  
HETATM   43  H   UNL     1      -4.866  17.367  66.204  1.00  0.00     0.000 HD 
ENDBRANCH  34  41
ENDBRANCH  29  30
ENDBRANCH  23  29
ENDBRANCH  14  15
ENDBRANCH   9  14
ENDBRANCH   4   5
ENDBRANCH   2   4
TORSDOF 7
ENDMDL
MODEL       19
REMARK 921   NORMALIZED FREE ENERGY PREDICTED BY IDOCK:   -6.59 KCAL/MOL
REMARK 922        TOTAL FREE ENERGY PREDICTED BY IDOCK:  -10.99 KCAL/MOL
REMARK 923 INTER-LIGAND FREE ENERGY PREDICTED BY IDOCK:  -10.25 KCAL/MOL
REMARK 924 INTRA-LIGAND FREE ENERGY PREDICTED BY IDOCK:   -0.74 KCAL/MOL
REMARK 927      BINDING AFFINITY PREDICTED BY RF-SCORE:    0.00 PKD
ROOT
HETATM    1  C   UNL     1      -8.658   8.938  62.448  1.00  0.00    -0.208 C  
HETATM    2  N   UNL     1      -9.605  10.042  62.388  1.00  0.00    -0.603 NA 
HETATM    3  H   UNL     1     -10.537   9.730  62.661  1.00  0.00     0.000 HD 
ENDROOT
BRANCH   2   4
HETATM    4  C   UNL     1      -9.201  11.216  63.176  1.00  0.00    -0.289 C  
BRANCH   4   5
HETATM    5  C   UNL     1     -10.339  11.941  63.944  1.00  0.00    -0.389 C  
HETATM    6  C   UNL     1     -11.717  11.734  63.341  1.00  0.00    -0.423 C  
HETATM    7  C   UNL     1     -12.753  12.449  64.209  1.00  0.00    -0.437 C  
HETATM    8  C   UNL     1     -12.335  13.890  64.572  1.00  0.00    -0.372 C  
HETATM    9  C   UNL     1     -10.792  14.059  64.937  1.00  0.00    -0.410 C  
HETATM   10  N   UNL     1     -13.313  14.450  65.534  1.00  0.00    -0.520 NA 
HETATM   11  O   UNL     1     -10.049  13.358  63.944  1.00  0.00    -0.178 OA 
HETATM   12  H1  UNL     1     -13.037  15.402  65.774  1.00  0.00     0.000 HD 
HETATM   13  H2  UNL     1     -13.428  13.860  66.359  1.00  0.00     0.000 HD 
BRANCH   9  14
HETATM   14  O   UNL     1     -10.402  13.690  66.281  1.00  0.00    -0.281 OA 
BRANCH  14  15
HETATM   15  C   UNL     1     -11.289  14.069  67.416  1.00  0.00    -0.329 C  
HETATM   16  C   UNL     1     -10.944  15.428  68.086  1.00  0.00    -0.297 C  
HETATM   17  N   UNL     1     -11.325  16.551  67.206  1.00  0.00     0.152 NA 
HETATM   18  C   UNL     1     -11.685  15.627  69.424  1.00  0.00    -0.395 C  
HETATM   19  H2  UNL     1     -12.306  16.503  66.932  1.00  0.00     0.000 HD 
HETATM   20  H1  UNL     1     -11.098  17.443  67.645  1.00  0.00     0.000 HD 
HETATM   21  C   UNL     1     -11.437  14.483  70.419  1.00  0.00    -0.203 C  
HETATM   22  N   UNL     1     -11.989  14.818  71.736  1.00  0.00    -0.356 NA 
HETATM   23  C   UNL     1     -12.032  13.162  69.896  1.00  0.00    -0.317 C  
HETATM   24  C   UNL     1     -11.499  12.915  68.450  1.00  0.00    -0.312 C  
HETATM   25  O   UNL     1     -12.276  11.861  67.834  1.00  0.00    -0.508 OA 
HETATM   26  H1  UNL     1     -11.825  14.059  72.397  1.00  0.00     0.000 HD 
HETATM   27  H2  UNL     1     -12.977  15.066  71.681  1.00  0.00     0.000 HD 
HETATM   28  H   UNL     1     -12.404  11.160  68.463  1.00  0.00     0.000 HD 
BRANCH  23  29
HETATM   29  O   UNL     1     -11.546  12.047  70.699  1.00  0.00    -0.008 OA 
BRANCH  29  30
HETATM   30  C   UNL     1     -12.237  10.783  70.766  1.00  0.00    -0.381 C  
HETATM   31  O   UNL     1     -13.105  10.612  71.889  1.00  0.00    -0.469 OA 
HETATM   32  C   UNL     1     -13.862   9.395  71.803  1.00  0.00    -0.286 C  
HETATM   33  C   UNL     1     -12.977   8.121  71.809  1.00  0.00    -0.342 C  
HETATM   34  C   UNL     1     -11.992   8.199  70.609  1.00  0.00    -0.029 C  
HETATM   35  O   UNL     1     -12.238   8.076  73.040  1.00  0.00    -0.659 OA 
HETATM   36  C   UNL     1     -13.886   6.884  71.752  1.00  0.00    -0.253 C  
HETATM   37  H   UNL     1      -9.891   8.918  69.257  1.00  0.00     0.000 HD 
HETATM   38  H   UNL     1     -11.696   7.296  73.043  1.00  0.00     0.000 HD 
HETATM   39  C   UNL     1     -11.240   9.575  70.597  1.00  0.00    -0.302 C  
HETATM   40  O   UNL     1     -10.492   9.647  69.359  1.00  0.00    -0.200 OA 
BRANCH  34  41
HETATM   41  N   UNL     1     -11.081   7.048  70.331  1.00  0.00    -0.274 NA 
HETATM   42  C   UNL     1     -11.276   6.314  69.093  1.00  0.00    -0.371 C  
HETATM   43  H   UNL     1     -10.346   6.787  70.988  1.00  0.00     0.000 HD 
ENDBRANCH  34  41
ENDBRANCH  29  30
ENDBRANCH  23  29
ENDBRANCH  14  15
ENDBRANCH   9  14
ENDBRANCH   4   5
ENDBRANCH   2   4
TORSDOF 7
ENDMDL
MODEL       20
REMARK 921   NORMALIZED FREE ENERGY PREDICTED BY IDOCK:   -6.55 KCAL/MOL
REMARK 922        TOTAL FREE ENERGY PREDICTED BY IDOCK:  -10.94 KCAL/MOL
REMARK 923 INTER-LIGAND FREE ENERGY PREDICTED BY IDOCK:   -9.32 KCAL/MOL
REMARK 924 INTRA-LIGAND FREE ENERGY PREDICTED BY IDOCK:   -1.62 KCAL/MOL
REMARK 927      BINDING AFFINITY PREDICTED BY RF-SCORE:    0.00 PKD
ROOT
HETATM    1  C   UNL     1     -14.240  15.643  72.554  1.00  0.00    -0.388 C  
HETATM    2  N   UNL     1     -14.201  15.159  71.182  1.00  0.00    -0.716 NA 
HETATM    3  H   UNL     1     -14.445  15.905  70.531  1.00  0.00     0.000 HD 
ENDROOT
BRANCH   2   4
HETATM    4  C   UNL     1     -12.922  14.541  70.805  1.00  0.00    -0.343 C  
BRANCH   4   5
HETATM    5  C   UNL     1     -12.907  12.989  70.754  1.00  0.00    -0.074 C  
HETATM    6  C   UNL     1     -13.225  12.327  72.083  1.00  0.00    -0.466 C  
HETATM    7  C   UNL     1     -13.232  10.810  71.895  1.00  0.00    -0.524 C  
HETATM    8  C   UNL     1     -12.002  10.300  71.114  1.00  0.00    -0.376 C  
HETATM    9  C   UNL     1     -11.576  11.217  69.880  1.00  0.00    -0.337 C  
HETATM   10  N   UNL     1     -12.166   8.852  70.843  1.00  0.00    -0.468 NA 
HETATM   11  O   UNL     1     -11.588  12.566  70.338  1.00  0.00    -0.126 OA 
HETATM   12  H1  UNL     1     -11.353   8.515  70.327  1.00  0.00     0.000 HD 
HETATM   13  H2  UNL     1     -13.043   8.643  70.365  1.00  0.00     0.000 HD 
BRANCH   9  14
HETATM   14  O   UNL     1     -12.329  11.043  68.656  1.00  0.00    -0.539 OA 
BRANCH  14  15
HETATM   15  C   UNL     1     -11.592  10.764  67.392  1.00  0.00     0.160 C  
HETATM   16  C   UNL     1     -10.355   9.837  67.551  1.00  0.00    -0.237 C  
HETATM   17  N   UNL     1     -10.780   8.443  67.797  1.00  0.00    -0.465 NA 
HETATM   18  C   UNL     1      -9.465   9.825  66.291  1.00  0.00    -0.250 C  
HETATM   19  H2  UNL     1     -11.415   8.107  67.073  1.00  0.00     0.000 HD 
HETATM   20  H1  UNL     1      -9.969   7.835  67.902  1.00  0.00     0.000 HD 
HETATM   21  C   UNL     1      -9.007  11.230  65.872  1.00  0.00    -0.197 C  
HETATM   22  N   UNL     1      -8.004  11.146  64.804  1.00  0.00    -0.176 NA 
HETATM   23  C   UNL     1     -10.206  12.090  65.430  1.00  0.00    -0.263 C  
HETATM   24  C   UNL     1     -11.287  12.049  66.556  1.00  0.00    -0.354 C  
HETATM   25  O   UNL     1     -12.527  12.585  66.038  1.00  0.00    -0.565 OA 
HETATM   26  H1  UNL     1      -7.700  12.078  64.525  1.00  0.00     0.000 HD 
HETATM   27  H2  UNL     1      -8.342  10.604  64.009  1.00  0.00     0.000 HD 
HETATM   28  H   UNL     1     -12.342  13.366  65.530  1.00  0.00     0.000 HD 
BRANCH  23  29
HETATM   29  O   UNL     1      -9.800  13.484  65.313  1.00  0.00    -0.208 OA 
BRANCH  29  30
HETATM   30  C   UNL     1      -9.944  14.426  66.397  1.00  0.00    -0.294 C  
HETATM   31  O   UNL     1     -10.961  15.416  66.223  1.00  0.00    -0.324 OA 
HETATM   32  C   UNL     1     -11.137  16.217  67.402  1.00  0.00    -0.095 C  
HETATM   33  C   UNL     1      -9.873  17.031  67.785  1.00  0.00    -0.271 C  
HETATM   34  C   UNL     1      -8.698  16.040  68.009  1.00  0.00    -0.171 C  
HETATM   35  O   UNL     1      -9.554  17.925  66.707  1.00  0.00    -0.282 OA 
HETATM   36  C   UNL     1     -10.185  17.875  69.031  1.00  0.00    -0.274 C  
HETATM   37  H   UNL     1      -6.741  14.441  67.395  1.00  0.00     0.000 HD 
HETATM   38  H   UNL     1      -8.780  18.424  66.942  1.00  0.00     0.000 HD 
HETATM   39  C   UNL     1      -8.558  15.060  66.793  1.00  0.00    -0.244 C  
HETATM   40  O   UNL     1      -7.577  14.059  67.156  1.00  0.00    -0.123 OA 
BRANCH  34  41
HETATM   41  N   UNL     1      -7.377  16.560  68.477  1.00  0.00    -0.176 NA 
HETATM   42  C   UNL     1      -6.827  16.006  69.702  1.00  0.00    -0.153 C  
HETATM   43  H   UNL     1      -6.879  17.281  67.954  1.00  0.00     0.000 HD 
ENDBRANCH  34  41
ENDBRANCH  29  30
ENDBRANCH  23  29
ENDBRANCH  14  15
ENDBRANCH   9  14
ENDBRANCH   4   5
ENDBRANCH   2   4
TORSDOF 7
ENDMDL
MODEL       21
REMARK 921   NORMALIZED FREE ENERGY PREDICTED BY IDOCK:   -6.50 KCAL/MOL
REMARK 922        TOTAL FREE ENERGY PREDICTED BY IDOCK:  -10.87 KCAL/MOL
REMARK 923 INTER-LIGAND FREE ENERGY PREDICTED BY IDOCK:   -9.49 KCAL/MOL
REMARK 924 INTRA-LIGAND FREE ENERGY PREDICTED BY IDOCK:   -1.38 KCAL/MOL
REMARK 927      BINDING AFFINITY PREDICTED BY RF-SCORE:    0.00 PKD
ROOT
HETATM    1  C   UNL     1     -10.249   3.374  63.988  1.00  0.00    -0.212 C  
HETATM    2  N   UNL     1     -10.476   4.545  64.822  1.00  0.00    -0.464 NA 
HETATM    3  H   UNL     1     -11.441   4.569  65.151  1.00  0.00     0.000 HD 
ENDROOT
BRANCH   2   4
HETATM    4  C   UNL     1      -9.541   4.662  65.951  1.00  0.00    -0.185 C  
BRANCH   4   5
HETATM    5  C   UNL     1      -9.291   6.101  66.478  1.00  0.00    -0.153 C  
HETATM    6  C   UNL     1      -8.242   6.869  65.696  1.00  0.00    -0.134 C  
HETATM    7  C   UNL     1      -8.123   8.279  66.274  1.00  0.00    -0.109 C  
HETATM    8  C   UNL     1      -8.020   8.287  67.814  1.00  0.00    -0.122 C  
HETATM    9  C   UNL     1      -8.981   7.245  68.545  1.00  0.00    -0.130 C  
HETATM   10  N   UNL     1      -8.065   9.687  68.295  1.00  0.00    -0.104 NA 
HETATM   11  O   UNL     1      -8.856   6.005  67.854  1.00  0.00    -0.112 OA 
HETATM   12  H1  UNL     1      -7.997   9.692  69.313  1.00  0.00     0.000 HD 
HETATM   13  H2  UNL     1      -8.889  10.187  67.959  1.00  0.00     0.000 HD 
BRANCH   9  14
HETATM   14  O   UNL     1     -10.361   7.646  68.713  1.00  0.00    -0.200 OA 
BRANCH  14  15
HETATM   15  C   UNL     1     -10.883   7.868  70.090  1.00  0.00    -0.243 C  
HETATM   16  C   UNL     1     -11.878   6.786  70.591  1.00  0.00    -0.387 C  
HETATM   17  N   UNL     1     -11.166   5.527  70.893  1.00  0.00    -0.047 NA 
HETATM   18  C   UNL     1     -12.611   7.214  71.879  1.00  0.00    -0.328 C  
HETATM   19  H2  UNL     1     -10.401   5.672  71.552  1.00  0.00     0.000 HD 
HETATM   20  H1  UNL     1     -11.819   4.816  71.221  1.00  0.00     0.000 HD 
HETATM   21  C   UNL     1     -13.340   8.558  71.732  1.00  0.00    -0.367 C  
HETATM   22  N   UNL     1     -14.184   8.815  72.904  1.00  0.00    -1.095 NA 
HETATM   23  C   UNL     1     -12.337   9.706  71.516  1.00  0.00    -0.390 C  
HETATM   24  C   UNL     1     -11.395   9.326  70.331  1.00  0.00    -0.242 C  
HETATM   25  O   UNL     1     -10.268  10.234  70.314  1.00  0.00    -0.413 OA 
HETATM   26  H1  UNL     1     -14.668   9.707  72.807  1.00  0.00     0.000 HD 
HETATM   27  H2  UNL     1     -13.651   8.766  73.773  1.00  0.00     0.000 HD 
HETATM   28  H   UNL     1     -10.579  11.120  70.461  1.00  0.00     0.000 HD 
BRANCH  23  29
HETATM   29  O   UNL     1     -13.044  10.909  71.096  1.00  0.00    -0.355 OA 
BRANCH  29  30
HETATM   30  C   UNL     1     -12.613  12.232  71.476  1.00  0.00    -0.152 C  
HETATM   31  O   UNL     1     -13.384  12.861  72.503  1.00  0.00    -0.499 OA 
HETATM   32  C   UNL     1     -12.804  14.106  72.923  1.00  0.00    -0.335 C  
HETATM   33  C   UNL     1     -12.740  15.166  71.792  1.00  0.00    -0.349 C  
HETATM   34  C   UNL     1     -11.907  14.582  70.617  1.00  0.00    -0.303 C  
HETATM   35  O   UNL     1     -14.076  15.448  71.345  1.00  0.00    -0.504 OA 
HETATM   36  C   UNL     1     -12.141  16.462  72.359  1.00  0.00    -0.496 C  
HETATM   37  H   UNL     1     -11.389  13.170  68.496  1.00  0.00     0.000 HD 
HETATM   38  H   UNL     1     -14.036  16.097  70.653  1.00  0.00     0.000 HD 
HETATM   39  C   UNL     1     -12.432  13.161  70.216  1.00  0.00    -0.163 C  
HETATM   40  O   UNL     1     -11.498  12.610  69.256  1.00  0.00    -0.277 OA 
BRANCH  34  41
HETATM   41  N   UNL     1     -11.614  15.439  69.428  1.00  0.00    -0.317 NA 
HETATM   42  C   UNL     1     -10.413  16.254  69.460  1.00  0.00    -0.299 C  
HETATM   43  H   UNL     1     -12.238  15.450  68.621  1.00  0.00     0.000 HD 
ENDBRANCH  34  41
ENDBRANCH  29  30
ENDBRANCH  23  29
ENDBRANCH  14  15
ENDBRANCH   9  14
ENDBRANCH   4   5
ENDBRANCH   2   4
TORSDOF 7
ENDMDL
MODEL       22
REMARK 921   NORMALIZED FREE ENERGY PREDICTED BY IDOCK:   -6.44 KCAL/MOL
REMARK 922        TOTAL FREE ENERGY PREDICTED BY IDOCK:  -10.78 KCAL/MOL
REMARK 923 INTER-LIGAND FREE ENERGY PREDICTED BY IDOCK:  -10.13 KCAL/MOL
REMARK 924 INTRA-LIGAND FREE ENERGY PREDICTED BY IDOCK:   -0.66 KCAL/MOL
REMARK 927      BINDING AFFINITY PREDICTED BY RF-SCORE:    0.00 PKD
ROOT
HETATM    1  C   UNL     1     -12.621  10.556  71.456  1.00  0.00    -0.424 C  
HETATM    2  N   UNL     1     -13.543  10.968  72.504  1.00  0.00    -0.283 NA 
HETATM    3  H   UNL     1     -13.143  10.786  73.424  1.00  0.00     0.000 HD 
ENDROOT
BRANCH   2   4
HETATM    4  C   UNL     1     -13.978  12.368  72.397  1.00  0.00     0.175 C  
BRANCH   4   5
HETATM    5  C   UNL     1     -12.945  13.356  71.791  1.00  0.00    -0.342 C  
HETATM    6  C   UNL     1     -12.572  14.500  72.716  1.00  0.00    -0.399 C  
HETATM    7  C   UNL     1     -11.516  15.369  72.032  1.00  0.00    -0.521 C  
HETATM    8  C   UNL     1     -11.880  15.714  70.572  1.00  0.00    -0.373 C  
HETATM    9  C   UNL     1     -12.520  14.508  69.749  1.00  0.00    -0.215 C  
HETATM   10  N   UNL     1     -10.740  16.421  69.943  1.00  0.00    -0.326 NA 
HETATM   11  O   UNL     1     -13.511  13.912  70.582  1.00  0.00    -0.032 OA 
HETATM   12  H1  UNL     1     -10.981  16.649  68.979  1.00  0.00     0.000 HD 
HETATM   13  H2  UNL     1      -9.870  15.892  70.011  1.00  0.00     0.000 HD 
BRANCH   9  14
HETATM   14  O   UNL     1     -11.597  13.534  69.207  1.00  0.00    -0.278 OA 
BRANCH  14  15
HETATM   15  C   UNL     1     -11.716  13.152  67.772  1.00  0.00    -0.358 C  
HETATM   16  C   UNL     1     -10.931  11.873  67.372  1.00  0.00    -0.263 C  
HETATM   17  N   UNL     1     -11.594  10.668  67.912  1.00  0.00    -0.687 NA 
HETATM   18  C   UNL     1     -10.839  11.695  65.843  1.00  0.00    -0.339 C  
HETATM   19  H2  UNL     1     -12.573  10.615  67.629  1.00  0.00     0.000 HD 
HETATM   20  H1  UNL     1     -11.079   9.828  67.649  1.00  0.00     0.000 HD 
HETATM   21  C   UNL     1     -10.231  12.916  65.136  1.00  0.00    -0.271 C  
HETATM   22  N   UNL     1      -9.976  12.617  63.722  1.00  0.00    -0.659 NA 
HETATM   23  C   UNL     1     -11.147  14.146  65.279  1.00  0.00    -0.331 C  
HETATM   24  C   UNL     1     -11.476  14.346  66.791  1.00  0.00    -0.370 C  
HETATM   25  O   UNL     1     -12.566  15.290  66.915  1.00  0.00     0.277 OA 
HETATM   26  H1  UNL     1      -9.572  13.427  63.253  1.00  0.00     0.000 HD 
HETATM   27  H2  UNL     1     -10.815  12.283  63.248  1.00  0.00     0.000 HD 
HETATM   28  H   UNL     1     -12.421  16.016  66.319  1.00  0.00     0.000 HD 
BRANCH  23  29
HETATM   29  O   UNL     1     -10.434  15.346  64.860  1.00  0.00    -0.396 OA 
BRANCH  29  30
HETATM   30  C   UNL     1     -10.142  16.429  65.767  1.00  0.00    -0.327 C  
HETATM   31  O   UNL     1     -10.564  17.725  65.337  1.00  0.00    -0.659 OA 
HETATM   32  C   UNL     1     -10.369  18.719  66.355  1.00  0.00    -0.439 C  
HETATM   33  C   UNL     1      -8.880  18.912  66.747  1.00  0.00    -0.309 C  
HETATM   34  C   UNL     1      -8.321  17.551  67.244  1.00  0.00    -0.213 C  
HETATM   35  O   UNL     1      -8.149  19.343  65.588  1.00  0.00    -0.414 OA 
HETATM   36  C   UNL     1      -8.787  20.018  67.809  1.00  0.00    -0.379 C  
HETATM   37  H   UNL     1      -7.340  15.147  67.094  1.00  0.00     0.000 HD 
HETATM   38  H   UNL     1      -7.238  19.461  65.828  1.00  0.00     0.000 HD 
HETATM   39  C   UNL     1      -8.631  16.412  66.212  1.00  0.00    -0.340 C  
HETATM   40  O   UNL     1      -8.251  15.157  66.826  1.00  0.00    -0.221 OA 
BRANCH  34  41
HETATM   41  N   UNL     1      -6.924  17.479  67.770  1.00  0.00    -0.169 NA 
HETATM   42  C   UNL     1      -6.729  17.641  69.200  1.00  0.00    -0.243 C  
HETATM   43  H   UNL     1      -6.133  17.321  67.144  1.00  0.00     0.000 HD 
ENDBRANCH  34  41
ENDBRANCH  29  30
ENDBRANCH  23  29
ENDBRANCH  14  15
ENDBRANCH   9  14
ENDBRANCH   4   5
ENDBRANCH   2   4
TORSDOF 7
ENDMDL
MODEL       23
REMARK 921   NORMALIZED FREE ENERGY PREDICTED BY IDOCK:   -6.43 KCAL/MOL
REMARK 922        TOTAL FREE ENERGY PREDICTED BY IDOCK:  -10.77 KCAL/MOL
REMARK 923 INTER-LIGAND FREE ENERGY PREDICTED BY IDOCK:   -8.94 KCAL/MOL
REMARK 924 INTRA-LIGAND FREE ENERGY PREDICTED BY IDOCK:   -1.83 KCAL/MOL
REMARK 927      BINDING AFFINITY PREDICTED BY RF-SCORE:    0.00 PKD
ROOT
HETATM    1  C   UNL     1     -14.110  15.181  71.976  1.00  0.00    -0.559 C  
HETATM    2  N   UNL     1     -13.703  15.354  70.589  1.00  0.00    -0.841 NA 
HETATM    3  H   UNL     1     -14.286  16.052  70.129  1.00  0.00     0.000 HD 
ENDROOT
BRANCH   2   4
HETATM    4  C   UNL     1     -12.278  15.678  70.423  1.00  0.00    -0.395 C  
BRANCH   4   5
HETATM    5  C   UNL     1     -11.489  14.779  69.433  1.00  0.00    -0.301 C  
HETATM    6  C   UNL     1     -10.872  15.537  68.272  1.00  0.00    -0.292 C  
HETATM    7  C   UNL     1     -10.084  14.559  67.401  1.00  0.00    -0.235 C  
HETATM    8  C   UNL     1     -10.875  13.272  67.081  1.00  0.00    -0.258 C  
HETATM    9  C   UNL     1     -11.715  12.692  68.307  1.00  0.00    -0.342 C  
HETATM   10  N   UNL     1      -9.987  12.322  66.372  1.00  0.00    -0.223 NA 
HETATM   11  O   UNL     1     -12.401  13.790  68.901  1.00  0.00    -0.291 OA 
HETATM   12  H1  UNL     1     -10.509  11.472  66.160  1.00  0.00     0.000 HD 
HETATM   13  H2  UNL     1      -9.129  12.131  66.890  1.00  0.00     0.000 HD 
BRANCH   9  14
HETATM   14  O   UNL     1     -10.983  11.908  69.278  1.00  0.00    -0.220 OA 
BRANCH  14  15
HETATM   15  C   UNL     1     -11.404  10.502  69.531  1.00  0.00    -0.278 C  
HETATM   16  C   UNL     1     -11.687  10.166  71.021  1.00  0.00    -0.382 C  
HETATM   17  N   UNL     1     -12.950  10.791  71.463  1.00  0.00    -0.439 NA 
HETATM   18  C   UNL     1     -11.821   8.649  71.265  1.00  0.00    -0.344 C  
HETATM   19  H2  UNL     1     -13.732  10.533  70.862  1.00  0.00     0.000 HD 
HETATM   20  H1  UNL     1     -13.135  10.571  72.441  1.00  0.00     0.000 HD 
HETATM   21  C   UNL     1     -10.598   7.856  70.780  1.00  0.00    -0.214 C  
HETATM   22  N   UNL     1     -10.684   6.458  71.218  1.00  0.00    -0.233 NA 
HETATM   23  C   UNL     1     -10.461   7.941  69.248  1.00  0.00    -0.216 C  
HETATM   24  C   UNL     1     -10.490   9.445  68.830  1.00  0.00    -0.216 C  
HETATM   25  O   UNL     1     -10.673   9.533  67.398  1.00  0.00    -0.279 OA 
HETATM   26  H1  UNL     1      -9.873   5.932  70.896  1.00  0.00     0.000 HD 
HETATM   27  H2  UNL     1     -11.559   6.023  70.926  1.00  0.00     0.000 HD 
HETATM   28  H   UNL     1     -10.117   8.891  66.971  1.00  0.00     0.000 HD 
BRANCH  23  29
HETATM   29  O   UNL     1      -9.157   7.435  68.838  1.00  0.00    -0.137 OA 
BRANCH  29  30
HETATM   30  C   UNL     1      -9.003   6.448  67.798  1.00  0.00    -0.113 C  
HETATM   31  O   UNL     1      -9.476   6.833  66.505  1.00  0.00    -0.164 OA 
HETATM   32  C   UNL     1      -9.153   5.858  65.502  1.00  0.00     0.010 C  
HETATM   33  C   UNL     1      -9.813   4.477  65.754  1.00  0.00    -0.222 C  
HETATM   34  C   UNL     1      -9.351   3.957  67.143  1.00  0.00    -0.191 C  
HETATM   35  O   UNL     1     -11.241   4.637  65.746  1.00  0.00    -0.765 OA 
HETATM   36  C   UNL     1      -9.432   3.528  64.607  1.00  0.00    -0.156 C  
HETATM   37  H   UNL     1      -9.291   3.722  69.732  1.00  0.00     0.000 HD 
HETATM   38  H   UNL     1     -11.644   3.792  65.901  1.00  0.00     0.000 HD 
HETATM   39  C   UNL     1      -9.570   5.049  68.246  1.00  0.00    -0.140 C  
HETATM   40  O   UNL     1      -8.949   4.566  69.462  1.00  0.00    -0.085 OA 
BRANCH  34  41
HETATM   41  N   UNL     1      -9.774   2.596  67.596  1.00  0.00    -0.323 NA 
HETATM   42  C   UNL     1      -8.774   1.543  67.602  1.00  0.00    -0.101 C  
HETATM   43  H   UNL     1     -10.734   2.414  67.890  1.00  0.00     0.000 HD 
ENDBRANCH  34  41
ENDBRANCH  29  30
ENDBRANCH  23  29
ENDBRANCH  14  15
ENDBRANCH   9  14
ENDBRANCH   4   5
ENDBRANCH   2   4
TORSDOF 7
ENDMDL
MODEL       24
REMARK 921   NORMALIZED FREE ENERGY PREDICTED BY IDOCK:   -6.42 KCAL/MOL
REMARK 922        TOTAL FREE ENERGY PREDICTED BY IDOCK:  -10.76 KCAL/MOL
REMARK 923 INTER-LIGAND FREE ENERGY PREDICTED BY IDOCK:   -9.76 KCAL/MOL
REMARK 924 INTRA-LIGAND FREE ENERGY PREDICTED BY IDOCK:   -1.01 KCAL/MOL
REMARK 927      BINDING AFFINITY PREDICTED BY RF-SCORE:    0.00 PKD
ROOT
HETATM    1  C   UNL     1     -10.822   7.172  69.869  1.00  0.00    -0.254 C  
HETATM    2  N   UNL     1     -10.841   7.691  68.510  1.00  0.00    -0.415 NA 
HETATM    3  H   UNL     1     -11.385   8.553  68.464  1.00  0.00     0.000 HD 
ENDROOT
BRANCH   2   4
HETATM    4  C   UNL     1      -9.505   7.891  67.930  1.00  0.00    -0.145 C  
BRANCH   4   5
HETATM    5  C   UNL     1      -9.457   8.679  66.593  1.00  0.00    -0.207 C  
HETATM    6  C   UNL     1      -8.470   8.119  65.584  1.00  0.00    -0.170 C  
HETATM    7  C   UNL     1      -8.551   8.942  64.299  1.00  0.00    -0.133 C  
HETATM    8  C   UNL     1      -8.526  10.463  64.561  1.00  0.00    -0.169 C  
HETATM    9  C   UNL     1      -9.389  10.931  65.818  1.00  0.00    -0.203 C  
HETATM   10  N   UNL     1      -8.763  11.179  63.286  1.00  0.00    -0.427 NA 
HETATM   11  O   UNL     1      -9.081  10.044  66.890  1.00  0.00    -0.138 OA 
HETATM   12  H1  UNL     1      -8.747  12.183  63.459  1.00  0.00     0.000 HD 
HETATM   13  H2  UNL     1      -9.624  10.878  62.827  1.00  0.00     0.000 HD 
BRANCH   9  14
HETATM   14  O   UNL     1     -10.814  11.069  65.608  1.00  0.00    -0.198 OA 
BRANCH  14  15
HETATM   15  C   UNL     1     -11.412  12.433  65.606  1.00  0.00    -0.367 C  
HETATM   16  C   UNL     1     -12.219  12.788  64.328  1.00  0.00    -0.425 C  
HETATM   17  N   UNL     1     -13.501  12.054  64.304  1.00  0.00    -0.417 NA 
HETATM   18  C   UNL     1     -12.555  14.292  64.245  1.00  0.00    -0.154 C  
HETATM   19  H2  UNL     1     -14.045  12.213  65.152  1.00  0.00     0.000 HD 
HETATM   20  H1  UNL     1     -14.031  12.287  63.465  1.00  0.00     0.000 HD 
HETATM   21  C   UNL     1     -11.309  15.187  64.334  1.00  0.00    -0.203 C  
HETATM   22  N   UNL     1     -11.657  16.582  64.044  1.00  0.00    -1.544 NA 
HETATM   23  C   UNL     1     -10.643  15.064  65.718  1.00  0.00    -0.339 C  
HETATM   24  C   UNL     1     -10.401  13.552  66.021  1.00  0.00    -0.303 C  
HETATM   25  O   UNL     1     -10.070  13.399  67.421  1.00  0.00    -0.232 OA 
HETATM   26  H1  UNL     1     -10.830  17.176  64.104  1.00  0.00     0.000 HD 
HETATM   27  H2  UNL     1     -12.409  16.918  64.645  1.00  0.00     0.000 HD 
HETATM   28  H   UNL     1      -9.456  14.079  67.673  1.00  0.00     0.000 HD 
BRANCH  23  29
HETATM   29  O   UNL     1      -9.325  15.685  65.691  1.00  0.00    -0.301 OA 
BRANCH  29  30
HETATM   30  C   UNL     1      -9.046  16.939  66.345  1.00  0.00    -0.283 C  
HETATM   31  O   UNL     1      -9.696  18.084  65.788  1.00  0.00    -0.521 OA 
HETATM   32  C   UNL     1      -9.484  19.262  66.582  1.00  0.00    -0.344 C  
HETATM   33  C   UNL     1      -7.993  19.678  66.676  1.00  0.00    -0.300 C  
HETATM   34  C   UNL     1      -7.189  18.496  67.286  1.00  0.00    -0.209 C  
HETATM   35  O   UNL     1      -7.508  19.963  65.355  1.00  0.00    -0.361 OA 
HETATM   36  C   UNL     1      -7.888  20.962  67.513  1.00  0.00    -0.188 C  
HETATM   37  H   UNL     1      -5.931  16.222  67.364  1.00  0.00     0.000 HD 
HETATM   38  H   UNL     1      -6.595  20.218  65.413  1.00  0.00     0.000 HD 
HETATM   39  C   UNL     1      -7.497  17.162  66.522  1.00  0.00    -0.283 C  
HETATM   40  O   UNL     1      -6.866  16.087  67.258  1.00  0.00    -0.172 OA 
BRANCH  34  41
HETATM   41  N   UNL     1      -5.731  18.668  67.569  1.00  0.00    -0.156 NA 
HETATM   42  C   UNL     1      -5.325  18.830  68.954  1.00  0.00    -0.197 C  
HETATM   43  H   UNL     1      -5.045  18.671  66.814  1.00  0.00     0.000 HD 
ENDBRANCH  34  41
ENDBRANCH  29  30
ENDBRANCH  23  29
ENDBRANCH  14  15
ENDBRANCH   9  14
ENDBRANCH   4   5
ENDBRANCH   2   4
TORSDOF 7
ENDMDL
MODEL       25
REMARK 921   NORMALIZED FREE ENERGY PREDICTED BY IDOCK:   -6.41 KCAL/MOL
REMARK 922        TOTAL FREE ENERGY PREDICTED BY IDOCK:  -10.74 KCAL/MOL
REMARK 923 INTER-LIGAND FREE ENERGY PREDICTED BY IDOCK:   -9.13 KCAL/MOL
REMARK 924 INTRA-LIGAND FREE ENERGY PREDICTED BY IDOCK:   -1.61 KCAL/MOL
REMARK 927      BINDING AFFINITY PREDICTED BY RF-SCORE:    0.00 PKD
ROOT
HETATM    1  C   UNL     1     -14.058  15.426  71.895  1.00  0.00    -0.537 C  
HETATM    2  N   UNL     1     -13.443  15.390  70.577  1.00  0.00    -0.793 NA 
HETATM    3  H   UNL     1     -12.988  16.279  70.370  1.00  0.00     0.000 HD 
ENDROOT
BRANCH   2   4
HETATM    4  C   UNL     1     -12.507  14.273  70.386  1.00  0.00    -0.362 C  
BRANCH   4   5
HETATM    5  C   UNL     1     -11.611  14.348  69.120  1.00  0.00    -0.307 C  
HETATM    6  C   UNL     1     -11.743  15.648  68.348  1.00  0.00    -0.301 C  
HETATM    7  C   UNL     1     -10.781  15.624  67.161  1.00  0.00    -0.314 C  
HETATM    8  C   UNL     1     -10.851  14.304  66.363  1.00  0.00    -0.307 C  
HETATM    9  C   UNL     1     -10.980  12.994  67.264  1.00  0.00    -0.264 C  
HETATM   10  N   UNL     1      -9.784  14.303  65.334  1.00  0.00    -0.557 NA 
HETATM   11  O   UNL     1     -11.980  13.258  68.244  1.00  0.00    -0.342 OA 
HETATM   12  H1  UNL     1      -9.831  13.432  64.807  1.00  0.00     0.000 HD 
HETATM   13  H2  UNL     1      -8.860  14.467  65.733  1.00  0.00     0.000 HD 
BRANCH   9  14
HETATM   14  O   UNL     1      -9.756  12.487  67.846  1.00  0.00    -0.192 OA 
BRANCH  14  15
HETATM   15  C   UNL     1      -9.416  11.048  67.666  1.00  0.00    -0.164 C  
HETATM   16  C   UNL     1      -9.540  10.528  66.207  1.00  0.00    -0.187 C  
HETATM   17  N   UNL     1      -8.441  11.056  65.373  1.00  0.00    -0.350 NA 
HETATM   18  C   UNL     1      -9.474   8.989  66.125  1.00  0.00    -0.318 C  
HETATM   19  H2  UNL     1      -7.527  10.845  65.774  1.00  0.00     0.000 HD 
HETATM   20  H1  UNL     1      -8.522  10.715  64.416  1.00  0.00     0.000 HD 
HETATM   21  C   UNL     1     -10.524   8.299  67.011  1.00  0.00    -0.314 C  
HETATM   22  N   UNL     1     -10.557   6.858  66.741  1.00  0.00    -0.483 NA 
HETATM   23  C   UNL     1     -10.248   8.571  68.502  1.00  0.00    -0.198 C  
HETATM   24  C   UNL     1     -10.111  10.112  68.708  1.00  0.00    -0.187 C  
HETATM   25  O   UNL     1      -9.553  10.364  70.019  1.00  0.00    -0.403 OA 
HETATM   26  H1  UNL     1     -11.253   6.400  67.328  1.00  0.00     0.000 HD 
HETATM   27  H2  UNL     1      -9.635   6.432  66.843  1.00  0.00     0.000 HD 
HETATM   28  H   UNL     1      -9.975   9.795  70.653  1.00  0.00     0.000 HD 
BRANCH  23  29
HETATM   29  O   UNL     1     -11.396   8.160  69.301  1.00  0.00     0.182 OA 
BRANCH  29  30
HETATM   30  C   UNL     1     -11.254   7.510  70.580  1.00  0.00    -0.268 C  
HETATM   31  O   UNL     1     -11.016   8.379  71.691  1.00  0.00    -0.246 OA 
HETATM   32  C   UNL     1     -11.035   7.671  72.940  1.00  0.00    -0.400 C  
HETATM   33  C   UNL     1      -9.923   6.595  73.052  1.00  0.00    -0.174 C  
HETATM   34  C   UNL     1     -10.097   5.583  71.887  1.00  0.00    -0.189 C  
HETATM   35  O   UNL     1      -8.643   7.240  72.948  1.00  0.00    -0.117 OA 
HETATM   36  C   UNL     1     -10.012   5.931  74.435  1.00  0.00    -0.279 C  
HETATM   37  H   UNL     1      -9.929   4.634  69.472  1.00  0.00     0.000 HD 
HETATM   38  H   UNL     1      -7.963   6.580  73.017  1.00  0.00     0.000 HD 
HETATM   39  C   UNL     1     -10.212   6.331  70.514  1.00  0.00    -0.193 C  
HETATM   40  O   UNL     1     -10.559   5.345  69.512  1.00  0.00    -0.292 OA 
BRANCH  34  41
HETATM   41  N   UNL     1      -9.203   4.388  71.812  1.00  0.00    -0.129 NA 
HETATM   42  C   UNL     1      -9.825   3.087  71.636  1.00  0.00    -0.143 C  
HETATM   43  H   UNL     1      -8.190   4.483  71.882  1.00  0.00     0.000 HD 
ENDBRANCH  34  41
ENDBRANCH  29  30
ENDBRANCH  23  29
ENDBRANCH  14  15
ENDBRANCH   9  14
ENDBRANCH   4   5
ENDBRANCH   2   4
TORSDOF 7
ENDMDL
MODEL       26
REMARK 921   NORMALIZED FREE ENERGY PREDICTED BY IDOCK:   -6.37 KCAL/MOL
REMARK 922        TOTAL FREE ENERGY PREDICTED BY IDOCK:  -10.69 KCAL/MOL
REMARK 923 INTER-LIGAND FREE ENERGY PREDICTED BY IDOCK:   -9.17 KCAL/MOL
REMARK 924 INTRA-LIGAND FREE ENERGY PREDICTED BY IDOCK:   -1.51 KCAL/MOL
REMARK 927      BINDING AFFINITY PREDICTED BY RF-SCORE:    0.00 PKD
ROOT
HETATM    1  C   UNL     1      -7.161   4.807  71.653  1.00  0.00    -0.060 C  
HETATM    2  N   UNL     1      -7.620   5.601  70.523  1.00  0.00    -0.087 NA 
HETATM    3  H   UNL     1      -8.601   5.405  70.323  1.00  0.00     0.000 HD 
ENDROOT
BRANCH   2   4
HETATM    4  C   UNL     1      -7.404   7.046  70.685  1.00  0.00    -0.076 C  
BRANCH   4   5
HETATM    5  C   UNL     1      -8.685   7.922  70.741  1.00  0.00    -0.134 C  
HETATM    6  C   UNL     1      -9.409   7.866  72.074  1.00  0.00    -0.217 C  
HETATM    7  C   UNL     1     -10.617   8.802  72.024  1.00  0.00    -0.414 C  
HETATM    8  C   UNL     1     -11.457   8.626  70.741  1.00  0.00    -0.259 C  
HETATM    9  C   UNL     1     -10.598   8.422  69.413  1.00  0.00    -0.197 C  
HETATM   10  N   UNL     1     -12.507   9.670  70.703  1.00  0.00    -0.491 NA 
HETATM   11  O   UNL     1      -9.589   7.461  69.711  1.00  0.00    -0.163 OA 
HETATM   12  H1  UNL     1     -13.062   9.553  69.855  1.00  0.00     0.000 HD 
HETATM   13  H2  UNL     1     -12.122  10.611  70.788  1.00  0.00     0.000 HD 
BRANCH   9  14
HETATM   14  O   UNL     1     -10.059   9.618  68.802  1.00  0.00    -0.167 OA 
BRANCH  14  15
HETATM   15  C   UNL     1     -10.608  10.067  67.492  1.00  0.00    -0.280 C  
HETATM   16  C   UNL     1      -9.623   9.947  66.298  1.00  0.00    -0.209 C  
HETATM   17  N   UNL     1      -9.440   8.532  65.916  1.00  0.00    -0.411 NA 
HETATM   18  C   UNL     1     -10.125  10.695  65.046  1.00  0.00    -0.388 C  
HETATM   19  H2  UNL     1     -10.330   8.074  65.719  1.00  0.00     0.000 HD 
HETATM   20  H1  UNL     1      -8.793   8.454  65.132  1.00  0.00     0.000 HD 
HETATM   21  C   UNL     1     -10.430  12.176  65.318  1.00  0.00    -0.276 C  
HETATM   22  N   UNL     1     -10.702  12.884  64.062  1.00  0.00    -0.415 NA 
HETATM   23  C   UNL     1     -11.611  12.323  66.296  1.00  0.00    -0.385 C  
HETATM   24  C   UNL     1     -11.317  11.459  67.562  1.00  0.00    -0.292 C  
HETATM   25  O   UNL     1     -12.530  11.336  68.342  1.00  0.00    -0.495 OA 
HETATM   26  H1  UNL     1     -10.905  13.867  64.242  1.00  0.00     0.000 HD 
HETATM   27  H2  UNL     1     -11.446  12.435  63.528  1.00  0.00     0.000 HD 
HETATM   28  H   UNL     1     -12.960  12.183  68.384  1.00  0.00     0.000 HD 
BRANCH  23  29
HETATM   29  O   UNL     1     -11.701  13.700  66.762  1.00  0.00    -0.351 OA 
BRANCH  29  30
HETATM   30  C   UNL     1     -10.538  14.470  67.131  1.00  0.00    -0.274 C  
HETATM   31  O   UNL     1     -10.268  14.545  68.533  1.00  0.00    -0.227 OA 
HETATM   32  C   UNL     1      -9.019  15.200  68.805  1.00  0.00    -0.197 C  
HETATM   33  C   UNL     1      -8.986  16.677  68.331  1.00  0.00    -0.223 C  
HETATM   34  C   UNL     1      -9.260  16.709  66.802  1.00  0.00    -0.238 C  
HETATM   35  O   UNL     1     -10.010  17.409  69.023  1.00  0.00    -0.302 OA 
HETATM   36  C   UNL     1      -7.626  17.287  68.704  1.00  0.00    -0.260 C  
HETATM   37  H   UNL     1     -10.640  16.667  64.598  1.00  0.00     0.000 HD 
HETATM   38  H   UNL     1      -9.989  18.313  68.732  1.00  0.00     0.000 HD 
HETATM   39  C   UNL     1     -10.550  15.891  66.452  1.00  0.00    -0.297 C  
HETATM   40  O   UNL     1     -10.632  15.810  65.008  1.00  0.00    -0.432 OA 
BRANCH  34  41
HETATM   41  N   UNL     1      -9.196  18.012  66.072  1.00  0.00    -0.522 NA 
HETATM   42  C   UNL     1     -10.229  18.994  66.347  1.00  0.00    -0.437 C  
HETATM   43  H   UNL     1      -8.450  18.204  65.403  1.00  0.00     0.000 HD 
ENDBRANCH  34  41
ENDBRANCH  29  30
ENDBRANCH  23  29
ENDBRANCH  14  15
ENDBRANCH   9  14
ENDBRANCH   4   5
ENDBRANCH   2   4
TORSDOF 7
ENDMDL
MODEL       27
REMARK 921   NORMALIZED FREE ENERGY PREDICTED BY IDOCK:   -6.37 KCAL/MOL
REMARK 922        TOTAL FREE ENERGY PREDICTED BY IDOCK:  -10.69 KCAL/MOL
REMARK 923 INTER-LIGAND FREE ENERGY PREDICTED BY IDOCK:   -9.06 KCAL/MOL
REMARK 924 INTRA-LIGAND FREE ENERGY PREDICTED BY IDOCK:   -1.62 KCAL/MOL
REMARK 927      BINDING AFFINITY PREDICTED BY RF-SCORE:    0.00 PKD
ROOT
HETATM    1  C   UNL     1     -10.787   5.764  69.969  1.00  0.00    -0.333 C  
HETATM    2  N   UNL     1     -11.275   6.738  69.005  1.00  0.00    -0.522 NA 
HETATM    3  H   UNL     1     -10.822   7.641  69.147  1.00  0.00     0.000 HD 
ENDROOT
BRANCH   2   4
HETATM    4  C   UNL     1     -11.145   6.308  67.605  1.00  0.00    -0.266 C  
BRANCH   4   5
HETATM    5  C   UNL     1      -9.999   6.974  66.795  1.00  0.00    -0.197 C  
HETATM    6  C   UNL     1      -9.090   5.984  66.089  1.00  0.00    -0.159 C  
HETATM    7  C   UNL     1      -8.040   6.754  65.289  1.00  0.00    -0.130 C  
HETATM    8  C   UNL     1      -7.376   7.883  66.107  1.00  0.00    -0.074 C  
HETATM    9  C   UNL     1      -8.380   8.706  67.034  1.00  0.00    -0.106 C  
HETATM   10  N   UNL     1      -6.493   8.671  65.216  1.00  0.00    -0.063 NA 
HETATM   11  O   UNL     1      -9.197   7.755  67.711  1.00  0.00    -0.136 OA 
HETATM   12  H1  UNL     1      -6.054   9.416  65.757  1.00  0.00     0.000 HD 
HETATM   13  H2  UNL     1      -6.985   9.025  64.396  1.00  0.00     0.000 HD 
BRANCH   9  14
HETATM   14  O   UNL     1      -9.158   9.739  66.385  1.00  0.00    -0.147 OA 
BRANCH  14  15
HETATM   15  C   UNL     1      -9.669  10.874  67.202  1.00  0.00    -0.174 C  
HETATM   16  C   UNL     1     -11.159  10.753  67.625  1.00  0.00    -0.319 C  
HETATM   17  N   UNL     1     -11.319   9.721  68.670  1.00  0.00    -0.493 NA 
HETATM   18  C   UNL     1     -11.715  12.072  68.200  1.00  0.00    -0.398 C  
HETATM   19  H2  UNL     1     -10.712   9.894  69.470  1.00  0.00     0.000 HD 
HETATM   20  H1  UNL     1     -12.297   9.641  68.947  1.00  0.00     0.000 HD 
HETATM   21  C   UNL     1     -11.546  13.259  67.240  1.00  0.00    -0.359 C  
HETATM   22  N   UNL     1     -12.270  14.433  67.740  1.00  0.00    -0.624 NA 
HETATM   23  C   UNL     1     -10.055  13.585  67.027  1.00  0.00    -0.244 C  
HETATM   24  C   UNL     1      -9.316  12.276  66.605  1.00  0.00    -0.228 C  
HETATM   25  O   UNL     1      -7.888  12.488  66.703  1.00  0.00    -0.395 OA 
HETATM   26  H1  UNL     1     -12.157  15.221  67.104  1.00  0.00     0.000 HD 
HETATM   27  H2  UNL     1     -11.991  14.672  68.692  1.00  0.00     0.000 HD 
HETATM   28  H   UNL     1      -7.674  13.340  66.340  1.00  0.00     0.000 HD 
BRANCH  23  29
HETATM   29  O   UNL     1      -9.904  14.508  65.910  1.00  0.00    -0.305 OA 
BRANCH  29  30
HETATM   30  C   UNL     1      -9.051  15.670  65.976  1.00  0.00    -0.311 C  
HETATM   31  O   UNL     1      -7.977  15.594  66.916  1.00  0.00    -0.220 OA 
HETATM   32  C   UNL     1      -7.094  16.722  66.815  1.00  0.00    -0.235 C  
HETATM   33  C   UNL     1      -7.786  18.073  67.135  1.00  0.00    -0.217 C  
HETATM   34  C   UNL     1      -8.975  18.262  66.154  1.00  0.00    -0.095 C  
HETATM   35  O   UNL     1      -8.274  18.034  68.486  1.00  0.00    -0.296 OA 
HETATM   36  C   UNL     1      -6.747  19.200  67.034  1.00  0.00    -0.203 C  
HETATM   37  H   UNL     1     -11.366  17.962  65.175  1.00  0.00     0.000 HD 
HETATM   38  H   UNL     1      -8.698  18.861  68.682  1.00  0.00     0.000 HD 
HETATM   39  C   UNL     1      -9.893  16.991  66.141  1.00  0.00    -0.278 C  
HETATM   40  O   UNL     1     -10.858  17.166  65.076  1.00  0.00    -0.684 OA 
BRANCH  34  41
HETATM   41  N   UNL     1      -9.762  19.533  66.189  1.00  0.00    -0.394 NA 
HETATM   42  C   UNL     1     -10.775  19.673  67.219  1.00  0.00    -0.458 C  
HETATM   43  H   UNL     1      -9.591  20.276  65.511  1.00  0.00     0.000 HD 
ENDBRANCH  34  41
ENDBRANCH  29  30
ENDBRANCH  23  29
ENDBRANCH  14  15
ENDBRANCH   9  14
ENDBRANCH   4   5
ENDBRANCH   2   4
TORSDOF 7
ENDMDL
MODEL       28
REMARK 921   NORMALIZED FREE ENERGY PREDICTED BY IDOCK:   -6.36 KCAL/MOL
REMARK 922        TOTAL FREE ENERGY PREDICTED BY IDOCK:  -10.67 KCAL/MOL
REMARK 923 INTER-LIGAND FREE ENERGY PREDICTED BY IDOCK:   -9.69 KCAL/MOL
REMARK 924 INTRA-LIGAND FREE ENERGY PREDICTED BY IDOCK:   -0.98 KCAL/MOL
REMARK 927      BINDING AFFINITY PREDICTED BY RF-SCORE:    0.00 PKD
ROOT
HETATM    1  C   UNL     1     -11.718   9.894  70.998  1.00  0.00    -0.382 C  
HETATM    2  N   UNL     1     -10.949  10.200  69.801  1.00  0.00    -0.261 NA 
HETATM    3  H   UNL     1     -11.009  11.194  69.581  1.00  0.00     0.000 HD 
ENDROOT
BRANCH   2   4
HETATM    4  C   UNL     1      -9.545   9.769  69.870  1.00  0.00    -0.235 C  
BRANCH   4   5
HETATM    5  C   UNL     1      -8.747   9.844  68.540  1.00  0.00    -0.121 C  
HETATM    6  C   UNL     1      -7.262   9.570  68.697  1.00  0.00    -0.074 C  
HETATM    7  C   UNL     1      -6.598   9.621  67.321  1.00  0.00    -0.070 C  
HETATM    8  C   UNL     1      -7.018  10.859  66.501  1.00  0.00    -0.139 C  
HETATM    9  C   UNL     1      -8.565  11.231  66.611  1.00  0.00    -0.167 C  
HETATM   10  N   UNL     1      -6.455  10.748  65.135  1.00  0.00    -0.363 NA 
HETATM   11  O   UNL     1      -8.911  11.173  67.992  1.00  0.00    -0.132 OA 
HETATM   12  H1  UNL     1      -6.732  11.566  64.593  1.00  0.00     0.000 HD 
HETATM   13  H2  UNL     1      -6.714   9.874  64.677  1.00  0.00     0.000 HD 
BRANCH   9  14
HETATM   14  O   UNL     1      -9.473  10.469  65.782  1.00  0.00    -0.181 OA 
BRANCH  14  15
HETATM   15  C   UNL     1     -10.646  11.160  65.177  1.00  0.00    -0.253 C  
HETATM   16  C   UNL     1     -10.384  11.782  63.778  1.00  0.00    -0.410 C  
HETATM   17  N   UNL     1     -10.278  10.724  62.752  1.00  0.00    -0.773 NA 
HETATM   18  C   UNL     1     -11.517  12.731  63.336  1.00  0.00    -0.454 C  
HETATM   19  H2  UNL     1     -11.097  10.115  62.749  1.00  0.00     0.000 HD 
HETATM   20  H1  UNL     1     -10.106  11.132  61.834  1.00  0.00     0.000 HD 
HETATM   21  C   UNL     1     -11.791  13.848  64.355  1.00  0.00    -0.429 C  
HETATM   22  N   UNL     1     -12.723  14.834  63.799  1.00  0.00    -0.847 NA 
HETATM   23  C   UNL     1     -12.331  13.267  65.676  1.00  0.00    -0.465 C  
HETATM   24  C   UNL     1     -11.358  12.147  66.160  1.00  0.00    -0.361 C  
HETATM   25  O   UNL     1     -11.999  11.389  67.213  1.00  0.00    -0.580 OA 
HETATM   26  H1  UNL     1     -12.905  15.576  64.475  1.00  0.00     0.000 HD 
HETATM   27  H2  UNL     1     -13.586  14.398  63.474  1.00  0.00     0.000 HD 
HETATM   28  H   UNL     1     -12.432  11.988  67.810  1.00  0.00     0.000 HD 
BRANCH  23  29
HETATM   29  O   UNL     1     -12.311  14.291  66.712  1.00  0.00    -0.429 OA 
BRANCH  29  30
HETATM   30  C   UNL     1     -11.146  15.097  66.982  1.00  0.00    -0.328 C  
HETATM   31  O   UNL     1     -10.384  15.483  65.835  1.00  0.00    -0.302 OA 
HETATM   32  C   UNL     1      -9.332  16.400  66.174  1.00  0.00    -0.325 C  
HETATM   33  C   UNL     1      -8.283  15.799  67.146  1.00  0.00    -0.206 C  
HETATM   34  C   UNL     1      -9.012  15.353  68.443  1.00  0.00    -0.189 C  
HETATM   35  O   UNL     1      -7.669  14.661  66.519  1.00  0.00    -0.169 OA 
HETATM   36  C   UNL     1      -7.191  16.848  67.408  1.00  0.00    -0.186 C  
HETATM   37  H   UNL     1     -10.436  13.846  70.012  1.00  0.00     0.000 HD 
HETATM   38  H   UNL     1      -7.027  14.294  67.114  1.00  0.00     0.000 HD 
HETATM   39  C   UNL     1     -10.248  14.452  68.103  1.00  0.00    -0.232 C  
HETATM   40  O   UNL     1     -10.977  14.236  69.336  1.00  0.00    -0.248 OA 
BRANCH  34  41
HETATM   41  N   UNL     1      -8.213  14.817  69.587  1.00  0.00    -0.416 NA 
HETATM   42  C   UNL     1      -7.263  13.754  69.311  1.00  0.00     0.041 C  
HETATM   43  H   UNL     1      -8.331  15.187  70.531  1.00  0.00     0.000 HD 
ENDBRANCH  34  41
ENDBRANCH  29  30
ENDBRANCH  23  29
ENDBRANCH  14  15
ENDBRANCH   9  14
ENDBRANCH   4   5
ENDBRANCH   2   4
TORSDOF 7
ENDMDL
MODEL       29
REMARK 921   NORMALIZED FREE ENERGY PREDICTED BY IDOCK:   -6.33 KCAL/MOL
REMARK 922        TOTAL FREE ENERGY PREDICTED BY IDOCK:  -10.63 KCAL/MOL
REMARK 923 INTER-LIGAND FREE ENERGY PREDICTED BY IDOCK:   -9.13 KCAL/MOL
REMARK 924 INTRA-LIGAND FREE ENERGY PREDICTED BY IDOCK:   -1.50 KCAL/MOL
REMARK 927      BINDING AFFINITY PREDICTED BY RF-SCORE:    0.00 PKD
ROOT
HETATM    1  C   UNL     1     -12.544  12.444  64.269  1.00  0.00    -0.401 C  
HETATM    2  N   UNL     1     -12.661  13.664  65.053  1.00  0.00    -0.681 NA 
HETATM    3  H   UNL     1     -12.765  13.444  66.043  1.00  0.00     0.000 HD 
ENDROOT
BRANCH   2   4
HETATM    4  C   UNL     1     -11.557  14.613  64.846  1.00  0.00    -0.405 C  
BRANCH   4   5
HETATM    5  C   UNL     1     -10.778  15.034  66.121  1.00  0.00    -0.327 C  
HETATM    6  C   UNL     1      -9.468  15.746  65.833  1.00  0.00    -0.377 C  
HETATM    7  C   UNL     1      -8.822  16.154  67.157  1.00  0.00    -0.218 C  
HETATM    8  C   UNL     1      -8.806  15.009  68.192  1.00  0.00    -0.167 C  
HETATM    9  C   UNL     1     -10.142  14.139  68.235  1.00  0.00    -0.241 C  
HETATM   10  N   UNL     1      -8.309  15.532  69.486  1.00  0.00    -0.243 NA 
HETATM   11  O   UNL     1     -10.490  13.841  66.886  1.00  0.00    -0.269 OA 
HETATM   12  H1  UNL     1      -8.299  14.776  70.170  1.00  0.00     0.000 HD 
HETATM   13  H2  UNL     1      -8.843  16.339  69.809  1.00  0.00     0.000 HD 
BRANCH   9  14
HETATM   14  O   UNL     1     -11.251  14.694  68.982  1.00  0.00    -0.243 OA 
BRANCH  14  15
HETATM   15  C   UNL     1     -12.255  13.767  69.573  1.00  0.00    -0.293 C  
HETATM   16  C   UNL     1     -12.548  14.000  71.080  1.00  0.00    -0.371 C  
HETATM   17  N   UNL     1     -13.339  15.233  71.271  1.00  0.00    -0.478 NA 
HETATM   18  C   UNL     1     -13.352  12.842  71.708  1.00  0.00    -0.451 C  
HETATM   19  H2  UNL     1     -14.195  15.224  70.716  1.00  0.00     0.000 HD 
HETATM   20  H1  UNL     1     -13.531  15.386  72.261  1.00  0.00     0.000 HD 
HETATM   21  C   UNL     1     -12.677  11.475  71.517  1.00  0.00    -0.334 C  
HETATM   22  N   UNL     1     -13.368  10.447  72.303  1.00  0.00    -0.586 NA 
HETATM   23  C   UNL     1     -12.632  11.088  70.027  1.00  0.00    -0.175 C  
HETATM   24  C   UNL     1     -11.991  12.265  69.227  1.00  0.00    -0.253 C  
HETATM   25  O   UNL     1     -12.221  12.055  67.814  1.00  0.00    -0.474 OA 
HETATM   26  H1  UNL     1     -12.920   9.540  72.177  1.00  0.00     0.000 HD 
HETATM   27  H2  UNL     1     -14.364  10.411  72.088  1.00  0.00     0.000 HD 
HETATM   28  H   UNL     1     -12.061  11.142  67.604  1.00  0.00     0.000 HD 
BRANCH  23  29
HETATM   29  O   UNL     1     -11.747   9.946  69.838  1.00  0.00    -0.184 OA 
BRANCH  29  30
HETATM   30  C   UNL     1     -10.387   9.933  70.317  1.00  0.00    -0.281 C  
HETATM   31  O   UNL     1      -9.377  10.051  69.311  1.00  0.00    -0.188 OA 
HETATM   32  C   UNL     1      -8.065  10.178  69.879  1.00  0.00    -0.122 C  
HETATM   33  C   UNL     1      -7.634   8.940  70.710  1.00  0.00    -0.103 C  
HETATM   34  C   UNL     1      -8.668   8.727  71.849  1.00  0.00    -0.129 C  
HETATM   35  O   UNL     1      -7.615   7.790  69.850  1.00  0.00    -0.086 OA 
HETATM   36  C   UNL     1      -6.208   9.168  71.236  1.00  0.00    -0.073 C  
HETATM   37  H   UNL     1     -10.877   7.964  72.988  1.00  0.00     0.000 HD 
HETATM   38  H   UNL     1      -7.351   7.033  70.358  1.00  0.00     0.000 HD 
HETATM   39  C   UNL     1     -10.128   8.713  71.278  1.00  0.00    -0.242 C  
HETATM   40  O   UNL     1     -11.033   8.700  72.408  1.00  0.00    -0.353 OA 
BRANCH  34  41
HETATM   41  N   UNL     1      -8.439   7.646  72.856  1.00  0.00    -0.128 NA 
HETATM   42  C   UNL     1      -8.228   8.041  74.237  1.00  0.00    -0.253 C  
HETATM   43  H   UNL     1      -8.431   6.663  72.581  1.00  0.00     0.000 HD 
ENDBRANCH  34  41
ENDBRANCH  29  30
ENDBRANCH  23  29
ENDBRANCH  14  15
ENDBRANCH   9  14
ENDBRANCH   4   5
ENDBRANCH   2   4
TORSDOF 7
ENDMDL
MODEL       30
REMARK 921   NORMALIZED FREE ENERGY PREDICTED BY IDOCK:   -6.33 KCAL/MOL
REMARK 922        TOTAL FREE ENERGY PREDICTED BY IDOCK:  -10.63 KCAL/MOL
REMARK 923 INTER-LIGAND FREE ENERGY PREDICTED BY IDOCK:   -8.86 KCAL/MOL
REMARK 924 INTRA-LIGAND FREE ENERGY PREDICTED BY IDOCK:   -1.76 KCAL/MOL
REMARK 927      BINDING AFFINITY PREDICTED BY RF-SCORE:    0.00 PKD
ROOT
HETATM    1  C   UNL     1     -12.493  12.060  63.481  1.00  0.00    -0.540 C  
HETATM    2  N   UNL     1     -12.718  12.737  64.749  1.00  0.00    -0.706 NA 
HETATM    3  H   UNL     1     -12.864  12.059  65.497  1.00  0.00     0.000 HD 
ENDROOT
BRANCH   2   4
HETATM    4  C   UNL     1     -11.658  13.688  65.114  1.00  0.00    -0.319 C  
BRANCH   4   5
HETATM    5  C   UNL     1     -11.600  14.100  66.610  1.00  0.00    -0.384 C  
HETATM    6  C   UNL     1     -11.155  15.533  66.836  1.00  0.00    -0.221 C  
HETATM    7  C   UNL     1     -11.188  15.835  68.334  1.00  0.00    -0.362 C  
HETATM    8  C   UNL     1     -10.517  14.731  69.180  1.00  0.00    -0.239 C  
HETATM    9  C   UNL     1     -10.835  13.244  68.697  1.00  0.00    -0.259 C  
HETATM   10  N   UNL     1     -10.731  15.025  70.617  1.00  0.00    -0.528 NA 
HETATM   11  O   UNL     1     -10.669  13.221  67.282  1.00  0.00    -0.253 OA 
HETATM   12  H1  UNL     1     -10.288  14.296  71.175  1.00  0.00     0.000 HD 
HETATM   13  H2  UNL     1     -11.718  15.144  70.846  1.00  0.00     0.000 HD 
BRANCH   9  14
HETATM   14  O   UNL     1     -12.103  12.686  69.114  1.00  0.00    -0.249 OA 
BRANCH  14  15
HETATM   15  C   UNL     1     -12.140  11.285  69.619  1.00  0.00    -0.322 C  
HETATM   16  C   UNL     1     -12.173  11.153  71.167  1.00  0.00    -0.282 C  
HETATM   17  N   UNL     1     -13.496  11.546  71.693  1.00  0.00    -0.132 NA 
HETATM   18  C   UNL     1     -11.908   9.708  71.637  1.00  0.00    -0.457 C  
HETATM   19  H2  UNL     1     -14.251  11.021  71.252  1.00  0.00     0.000 HD 
HETATM   20  H1  UNL     1     -13.518  11.459  72.709  1.00  0.00     0.000 HD 
HETATM   21  C   UNL     1     -10.587   9.138  71.098  1.00  0.00    -0.309 C  
HETATM   22  N   UNL     1     -10.283   7.852  71.736  1.00  0.00    -0.190 NA 
HETATM   23  C   UNL     1     -10.638   8.991  69.565  1.00  0.00    -0.225 C  
HETATM   24  C   UNL     1     -11.075  10.357  68.950  1.00  0.00    -0.247 C  
HETATM   25  O   UNL     1     -11.425  10.157  67.560  1.00  0.00    -0.518 OA 
HETATM   26  H1  UNL     1      -9.407   7.473  71.378  1.00  0.00     0.000 HD 
HETATM   27  H2  UNL     1     -11.052   7.188  71.636  1.00  0.00     0.000 HD 
HETATM   28  H   UNL     1     -10.778   9.592  67.153  1.00  0.00     0.000 HD 
BRANCH  23  29
HETATM   29  O   UNL     1      -9.301   8.727  69.048  1.00  0.00    -0.144 OA 
BRANCH  29  30
HETATM   30  C   UNL     1      -9.031   7.669  68.105  1.00  0.00    -0.126 C  
HETATM   31  O   UNL     1      -9.474   7.908  66.767  1.00  0.00    -0.175 OA 
HETATM   32  C   UNL     1      -9.038   6.878  65.865  1.00  0.00    -0.009 C  
HETATM   33  C   UNL     1      -9.608   5.478  66.213  1.00  0.00    -0.156 C  
HETATM   34  C   UNL     1      -9.172   5.113  67.658  1.00  0.00    -0.117 C  
HETATM   35  O   UNL     1     -11.042   5.530  66.137  1.00  0.00    -0.747 OA 
HETATM   36  C   UNL     1      -9.111   4.466  65.168  1.00  0.00    -0.148 C  
HETATM   37  H   UNL     1      -9.209   5.103  70.258  1.00  0.00     0.000 HD 
HETATM   38  H   UNL     1     -11.391   4.672  66.349  1.00  0.00     0.000 HD 
HETATM   39  C   UNL     1      -9.517   6.274  68.653  1.00  0.00    -0.121 C  
HETATM   40  O   UNL     1      -8.916   5.944  69.928  1.00  0.00    -0.136 OA 
BRANCH  34  41
HETATM   41  N   UNL     1      -9.517   3.767  68.212  1.00  0.00    -0.169 NA 
HETATM   42  C   UNL     1      -8.430   2.835  68.451  1.00  0.00    -0.073 C  
HETATM   43  H   UNL     1     -10.484   3.513  68.414  1.00  0.00     0.000 HD 
ENDBRANCH  34  41
ENDBRANCH  29  30
ENDBRANCH  23  29
ENDBRANCH  14  15
ENDBRANCH   9  14
ENDBRANCH   4   5
ENDBRANCH   2   4
TORSDOF 7
ENDMDL
MODEL       31
REMARK 921   NORMALIZED FREE ENERGY PREDICTED BY IDOCK:   -6.31 KCAL/MOL
REMARK 922        TOTAL FREE ENERGY PREDICTED BY IDOCK:  -10.60 KCAL/MOL
REMARK 923 INTER-LIGAND FREE ENERGY PREDICTED BY IDOCK:   -9.23 KCAL/MOL
REMARK 924 INTRA-LIGAND FREE ENERGY PREDICTED BY IDOCK:   -1.37 KCAL/MOL
REMARK 927      BINDING AFFINITY PREDICTED BY RF-SCORE:    0.00 PKD
ROOT
HETATM    1  C   UNL     1     -13.264  10.047  71.185  1.00  0.00    -0.361 C  
HETATM    2  N   UNL     1     -12.425  11.230  71.060  1.00  0.00    -0.402 NA 
HETATM    3  H   UNL     1     -11.609  11.156  71.667  1.00  0.00     0.000 HD 
ENDROOT
BRANCH   2   4
HETATM    4  C   UNL     1     -12.017  11.528  69.679  1.00  0.00    -0.339 C  
BRANCH   4   5
HETATM    5  C   UNL     1     -11.597  12.996  69.398  1.00  0.00    -0.299 C  
HETATM    6  C   UNL     1     -12.155  13.997  70.393  1.00  0.00    -0.426 C  
HETATM    7  C   UNL     1     -11.634  15.391  70.044  1.00  0.00    -0.343 C  
HETATM    8  C   UNL     1     -11.768  15.720  68.542  1.00  0.00    -0.319 C  
HETATM    9  C   UNL     1     -11.413  14.509  67.566  1.00  0.00    -0.356 C  
HETATM   10  N   UNL     1     -11.102  17.014  68.268  1.00  0.00    -0.272 NA 
HETATM   11  O   UNL     1     -12.070  13.353  68.078  1.00  0.00    -0.342 OA 
HETATM   12  H1  UNL     1     -11.191  17.232  67.276  1.00  0.00     0.000 HD 
HETATM   13  H2  UNL     1     -10.131  17.026  68.582  1.00  0.00     0.000 HD 
BRANCH   9  14
HETATM   14  O   UNL     1     -10.008  14.277  67.310  1.00  0.00    -0.246 OA 
BRANCH  14  15
HETATM   15  C   UNL     1      -9.618  13.460  66.127  1.00  0.00    -0.202 C  
HETATM   16  C   UNL     1     -10.750  13.239  65.088  1.00  0.00    -0.322 C  
HETATM   17  N   UNL     1     -11.017  14.484  64.339  1.00  0.00    -0.621 NA 
HETATM   18  C   UNL     1     -10.391  12.154  64.052  1.00  0.00    -0.412 C  
HETATM   19  H2  UNL     1     -10.172  14.854  63.905  1.00  0.00     0.000 HD 
HETATM   20  H1  UNL     1     -11.761  14.339  63.656  1.00  0.00     0.000 HD 
HETATM   21  C   UNL     1     -10.015  10.812  64.699  1.00  0.00    -0.324 C  
HETATM   22  N   UNL     1      -9.886   9.767  63.678  1.00  0.00    -0.404 NA 
HETATM   23  C   UNL     1      -8.716  10.942  65.517  1.00  0.00    -0.171 C  
HETATM   24  C   UNL     1      -8.870  12.140  66.505  1.00  0.00    -0.151 C  
HETATM   25  O   UNL     1      -7.571  12.470  67.052  1.00  0.00    -0.322 OA 
HETATM   26  H1  UNL     1      -9.637   8.876  64.108  1.00  0.00     0.000 HD 
HETATM   27  H2  UNL     1      -9.228  10.032  62.945  1.00  0.00     0.000 HD 
HETATM   28  H   UNL     1      -7.116  11.667  67.282  1.00  0.00     0.000 HD 
BRANCH  23  29
HETATM   29  O   UNL     1      -8.531   9.758  66.346  1.00  0.00    -0.122 OA 
BRANCH  29  30
HETATM   30  C   UNL     1      -9.030   9.674  67.697  1.00  0.00    -0.125 C  
HETATM   31  O   UNL     1      -8.053   9.845  68.727  1.00  0.00    -0.095 OA 
HETATM   32  C   UNL     1      -8.651   9.894  70.031  1.00  0.00    -0.167 C  
HETATM   33  C   UNL     1      -9.388   8.585  70.418  1.00  0.00    -0.164 C  
HETATM   34  C   UNL     1     -10.490   8.309  69.358  1.00  0.00    -0.220 C  
HETATM   35  O   UNL     1      -8.441   7.505  70.425  1.00  0.00    -0.136 OA 
HETATM   36  C   UNL     1      -9.953   8.734  71.839  1.00  0.00    -0.401 C  
HETATM   37  H   UNL     1     -11.530   7.515  67.111  1.00  0.00     0.000 HD 
HETATM   38  H   UNL     1      -8.893   6.704  70.661  1.00  0.00     0.000 HD 
HETATM   39  C   UNL     1      -9.896   8.376  67.909  1.00  0.00    -0.170 C  
HETATM   40  O   UNL     1     -11.007   8.298  66.983  1.00  0.00    -0.134 OA 
BRANCH  34  41
HETATM   41  N   UNL     1     -11.413   7.147  69.543  1.00  0.00    -0.514 NA 
HETATM   42  C   UNL     1     -10.825   5.821  69.615  1.00  0.00    -0.348 C  
HETATM   43  H   UNL     1     -12.421   7.282  69.617  1.00  0.00     0.000 HD 
ENDBRANCH  34  41
ENDBRANCH  29  30
ENDBRANCH  23  29
ENDBRANCH  14  15
ENDBRANCH   9  14
ENDBRANCH   4   5
ENDBRANCH   2   4
TORSDOF 7
ENDMDL
MODEL       32
REMARK 921   NORMALIZED FREE ENERGY PREDICTED BY IDOCK:   -6.27 KCAL/MOL
REMARK 922        TOTAL FREE ENERGY PREDICTED BY IDOCK:  -10.55 KCAL/MOL
REMARK 923 INTER-LIGAND FREE ENERGY PREDICTED BY IDOCK:   -8.68 KCAL/MOL
REMARK 924 INTRA-LIGAND FREE ENERGY PREDICTED BY IDOCK:   -1.87 KCAL/MOL
REMARK 927      BINDING AFFINITY PREDICTED BY RF-SCORE:    0.00 PKD
ROOT
HETATM    1  C   UNL     1     -12.620  12.216  63.497  1.00  0.00    -0.506 C  
HETATM    2  N   UNL     1     -12.270  13.578  63.124  1.00  0.00    -0.999 NA 
HETATM    3  H   UNL     1     -12.981  13.976  62.511  1.00  0.00     0.000 HD 
ENDROOT
BRANCH   2   4
HETATM    4  C   UNL     1     -12.021  14.464  64.271  1.00  0.00    -0.410 C  
BRANCH   4   5
HETATM    5  C   UNL     1     -11.742  13.758  65.625  1.00  0.00    -0.347 C  
HETATM    6  C   UNL     1     -12.149  14.574  66.839  1.00  0.00    -0.309 C  
HETATM    7  C   UNL     1     -11.874  13.758  68.102  1.00  0.00    -0.411 C  
HETATM    8  C   UNL     1     -10.470  13.116  68.105  1.00  0.00    -0.248 C  
HETATM    9  C   UNL     1     -10.016  12.516  66.698  1.00  0.00    -0.236 C  
HETATM   10  N   UNL     1     -10.347  12.224  69.281  1.00  0.00    -0.402 NA 
HETATM   11  O   UNL     1     -10.322  13.493  65.708  1.00  0.00    -0.280 OA 
HETATM   12  H1  UNL     1      -9.420  11.800  69.283  1.00  0.00     0.000 HD 
HETATM   13  H2  UNL     1     -11.092  11.528  69.320  1.00  0.00     0.000 HD 
BRANCH   9  14
HETATM   14  O   UNL     1     -10.529  11.206  66.359  1.00  0.00    -0.244 OA 
BRANCH  14  15
HETATM   15  C   UNL     1      -9.675  10.012  66.611  1.00  0.00    -0.194 C  
HETATM   16  C   UNL     1      -8.974   9.435  65.351  1.00  0.00    -0.206 C  
HETATM   17  N   UNL     1      -7.878  10.324  64.915  1.00  0.00    -0.163 NA 
HETATM   18  C   UNL     1      -8.357   8.045  65.607  1.00  0.00    -0.146 C  
HETATM   19  H2  UNL     1      -7.214  10.505  65.667  1.00  0.00     0.000 HD 
HETATM   20  H1  UNL     1      -7.418   9.945  64.087  1.00  0.00     0.000 HD 
HETATM   21  C   UNL     1      -9.378   7.029  66.141  1.00  0.00    -0.040 C  
HETATM   22  N   UNL     1      -8.797   5.682  66.170  1.00  0.00    -0.138 NA 
HETATM   23  C   UNL     1      -9.882   7.438  67.538  1.00  0.00    -0.158 C  
HETATM   24  C   UNL     1     -10.383   8.915  67.472  1.00  0.00    -0.263 C  
HETATM   25  O   UNL     1     -10.565   9.412  68.819  1.00  0.00    -0.220 OA 
HETATM   26  H1  UNL     1      -9.474   5.008  66.525  1.00  0.00     0.000 HD 
HETATM   27  H2  UNL     1      -7.925   5.657  66.699  1.00  0.00     0.000 HD 
HETATM   28  H   UNL     1     -10.995   8.745  69.342  1.00  0.00     0.000 HD 
BRANCH  23  29
HETATM   29  O   UNL     1     -11.043   6.636  67.902  1.00  0.00    -0.269 OA 
BRANCH  29  30
HETATM   30  C   UNL     1     -11.233   6.107  69.230  1.00  0.00    -0.367 C  
HETATM   31  O   UNL     1     -11.596   7.064  70.229  1.00  0.00    -0.299 OA 
HETATM   32  C   UNL     1     -11.908   6.438  71.484  1.00  0.00    -0.298 C  
HETATM   33  C   UNL     1     -10.708   5.675  72.104  1.00  0.00    -0.234 C  
HETATM   34  C   UNL     1     -10.237   4.593  71.094  1.00  0.00    -0.129 C  
HETATM   35  O   UNL     1      -9.643   6.608  72.348  1.00  0.00    -0.150 OA 
HETATM   36  C   UNL     1     -11.142   5.081  73.453  1.00  0.00    -0.404 C  
HETATM   37  H   UNL     1      -9.022   3.592  69.024  1.00  0.00     0.000 HD 
HETATM   38  H   UNL     1      -8.909   6.140  72.728  1.00  0.00     0.000 HD 
HETATM   39  C   UNL     1     -10.010   5.219  69.675  1.00  0.00    -0.232 C  
HETATM   40  O   UNL     1      -9.759   4.128  68.756  1.00  0.00    -0.158 OA 
BRANCH  34  41
HETATM   41  N   UNL     1      -9.143   3.652  71.483  1.00  0.00    -0.107 NA 
HETATM   42  C   UNL     1      -9.515   2.294  71.842  1.00  0.00    -0.115 C  
HETATM   43  H   UNL     1      -8.169   3.953  71.496  1.00  0.00     0.000 HD 
ENDBRANCH  34  41
ENDBRANCH  29  30
ENDBRANCH  23  29
ENDBRANCH  14  15
ENDBRANCH   9  14
ENDBRANCH   4   5
ENDBRANCH   2   4
TORSDOF 7
ENDMDL
MODEL       33
REMARK 921   NORMALIZED FREE ENERGY PREDICTED BY IDOCK:   -6.27 KCAL/MOL
REMARK 922        TOTAL FREE ENERGY PREDICTED BY IDOCK:  -10.55 KCAL/MOL
REMARK 923 INTER-LIGAND FREE ENERGY PREDICTED BY IDOCK:   -9.11 KCAL/MOL
REMARK 924 INTRA-LIGAND FREE ENERGY PREDICTED BY IDOCK:   -1.44 KCAL/MOL
REMARK 927      BINDING AFFINITY PREDICTED BY RF-SCORE:    0.00 PKD
ROOT
HETATM    1  C   UNL     1     -10.565   2.417  73.755  1.00  0.00    -0.154 C  
HETATM    2  N   UNL     1     -10.368   3.465  72.765  1.00  0.00    -0.167 NA 
HETATM    3  H   UNL     1      -9.808   4.224  73.153  1.00  0.00     0.000 HD 
ENDROOT
BRANCH   2   4
HETATM    4  C   UNL     1      -9.789   2.988  71.501  1.00  0.00    -0.122 C  
BRANCH   4   5
HETATM    5  C   UNL     1      -9.864   3.977  70.305  1.00  0.00    -0.134 C  
HETATM    6  C   UNL     1      -9.374   3.393  68.993  1.00  0.00    -0.239 C  
HETATM    7  C   UNL     1      -9.544   4.436  67.889  1.00  0.00    -0.205 C  
HETATM    8  C   UNL     1      -9.017   5.829  68.297  1.00  0.00    -0.115 C  
HETATM    9  C   UNL     1      -9.356   6.248  69.798  1.00  0.00    -0.145 C  
HETATM   10  N   UNL     1      -9.361   6.806  67.238  1.00  0.00    -0.131 NA 
HETATM   11  O   UNL     1      -9.050   5.129  70.624  1.00  0.00    -0.134 OA 
HETATM   12  H1  UNL     1      -9.013   7.726  67.508  1.00  0.00     0.000 HD 
HETATM   13  H2  UNL     1     -10.359   6.815  67.027  1.00  0.00     0.000 HD 
BRANCH   9  14
HETATM   14  O   UNL     1     -10.686   6.766  70.040  1.00  0.00    -0.221 OA 
BRANCH  14  15
HETATM   15  C   UNL     1     -10.832   8.136  70.606  1.00  0.00    -0.233 C  
HETATM   16  C   UNL     1     -11.845   8.250  71.778  1.00  0.00    -0.306 C  
HETATM   17  N   UNL     1     -11.295   7.632  73.002  1.00  0.00    -0.581 NA 
HETATM   18  C   UNL     1     -12.181   9.716  72.122  1.00  0.00    -0.211 C  
HETATM   19  H2  UNL     1     -10.385   8.022  73.248  1.00  0.00     0.000 HD 
HETATM   20  H1  UNL     1     -11.960   7.707  73.771  1.00  0.00     0.000 HD 
HETATM   21  C   UNL     1     -12.699  10.509  70.911  1.00  0.00    -0.402 C  
HETATM   22  N   UNL     1     -13.196  11.823  71.332  1.00  0.00    -0.213 NA 
HETATM   23  C   UNL     1     -11.602  10.655  69.840  1.00  0.00    -0.316 C  
HETATM   24  C   UNL     1     -11.033   9.238  69.516  1.00  0.00    -0.151 C  
HETATM   25  O   UNL     1      -9.810   9.384  68.756  1.00  0.00    -0.156 OA 
HETATM   26  H1  UNL     1     -13.540  12.349  70.529  1.00  0.00     0.000 HD 
HETATM   27  H2  UNL     1     -12.492  12.345  71.854  1.00  0.00     0.000 HD 
HETATM   28  H   UNL     1      -9.932  10.054  68.094  1.00  0.00     0.000 HD 
BRANCH  23  29
HETATM   29  O   UNL     1     -12.184  11.148  68.599  1.00  0.00    -0.582 OA 
BRANCH  29  30
HETATM   30  C   UNL     1     -11.619  12.255  67.866  1.00  0.00    -0.354 C  
HETATM   31  O   UNL     1     -12.369  13.472  67.911  1.00  0.00    -0.225 OA 
HETATM   32  C   UNL     1     -11.669  14.557  67.283  1.00  0.00    -0.406 C  
HETATM   33  C   UNL     1     -11.407  14.326  65.771  1.00  0.00    -0.326 C  
HETATM   34  C   UNL     1     -10.582  13.020  65.609  1.00  0.00    -0.282 C  
HETATM   35  O   UNL     1     -12.670  14.188  65.099  1.00  0.00    -0.616 OA 
HETATM   36  C   UNL     1     -10.691  15.558  65.197  1.00  0.00    -0.460 C  
HETATM   37  H   UNL     1     -10.111  10.467  65.460  1.00  0.00     0.000 HD 
HETATM   38  H   UNL     1     -12.509  14.047  64.174  1.00  0.00     0.000 HD 
HETATM   39  C   UNL     1     -11.250  11.838  66.392  1.00  0.00    -0.323 C  
HETATM   40  O   UNL     1     -10.333  10.718  66.349  1.00  0.00    -0.239 OA 
BRANCH  34  41
HETATM   41  N   UNL     1     -10.115  12.611  64.248  1.00  0.00    -0.563 NA 
HETATM   42  C   UNL     1     -11.097  12.051  63.336  1.00  0.00    -0.398 C  
HETATM   43  H   UNL     1      -9.140  12.722  63.971  1.00  0.00     0.000 HD 
ENDBRANCH  34  41
ENDBRANCH  29  30
ENDBRANCH  23  29
ENDBRANCH  14  15
ENDBRANCH   9  14
ENDBRANCH   4   5
ENDBRANCH   2   4
TORSDOF 7
ENDMDL
MODEL       34
REMARK 921   NORMALIZED FREE ENERGY PREDICTED BY IDOCK:   -6.26 KCAL/MOL
REMARK 922        TOTAL FREE ENERGY PREDICTED BY IDOCK:  -10.53 KCAL/MOL
REMARK 923 INTER-LIGAND FREE ENERGY PREDICTED BY IDOCK:   -9.34 KCAL/MOL
REMARK 924 INTRA-LIGAND FREE ENERGY PREDICTED BY IDOCK:   -1.19 KCAL/MOL
REMARK 927      BINDING AFFINITY PREDICTED BY RF-SCORE:    0.00 PKD
ROOT
HETATM    1  C   UNL     1     -10.523   6.731  73.683  1.00  0.00    -0.347 C  
HETATM    2  N   UNL     1     -11.418   7.576  72.907  1.00  0.00    -0.572 NA 
HETATM    3  H   UNL     1     -10.924   8.400  72.563  1.00  0.00     0.000 HD 
ENDROOT
BRANCH   2   4
HETATM    4  C   UNL     1     -12.089   6.877  71.801  1.00  0.00    -0.346 C  
BRANCH   4   5
HETATM    5  C   UNL     1     -11.574   7.212  70.375  1.00  0.00    -0.258 C  
HETATM    6  C   UNL     1     -11.249   5.990  69.535  1.00  0.00    -0.416 C  
HETATM    7  C   UNL     1     -10.805   6.445  68.145  1.00  0.00    -0.386 C  
HETATM    8  C   UNL     1      -9.762   7.582  68.193  1.00  0.00    -0.154 C  
HETATM    9  C   UNL     1     -10.049   8.694  69.301  1.00  0.00    -0.202 C  
HETATM   10  N   UNL     1      -9.507   8.063  66.815  1.00  0.00    -0.187 NA 
HETATM   11  O   UNL     1     -10.373   8.008  70.506  1.00  0.00    -0.198 OA 
HETATM   12  H1  UNL     1      -8.818   8.815  66.847  1.00  0.00     0.000 HD 
HETATM   13  H2  UNL     1     -10.364   8.343  66.337  1.00  0.00     0.000 HD 
BRANCH   9  14
HETATM   14  O   UNL     1     -11.024   9.707  68.962  1.00  0.00    -0.208 OA 
BRANCH  14  15
HETATM   15  C   UNL     1     -11.055  10.968  69.754  1.00  0.00    -0.235 C  
HETATM   16  C   UNL     1     -12.392  11.235  70.499  1.00  0.00    -0.356 C  
HETATM   17  N   UNL     1     -12.534  10.321  71.651  1.00  0.00    -0.405 NA 
HETATM   18  C   UNL     1     -12.481  12.674  71.047  1.00  0.00    -0.354 C  
HETATM   19  H2  UNL     1     -11.732  10.375  72.280  1.00  0.00     0.000 HD 
HETATM   20  H1  UNL     1     -13.411  10.496  72.141  1.00  0.00     0.000 HD 
HETATM   21  C   UNL     1     -12.274  13.740  69.960  1.00  0.00    -0.342 C  
HETATM   22  N   UNL     1     -12.572  15.076  70.487  1.00  0.00    -0.387 NA 
HETATM   23  C   UNL     1     -10.841  13.680  69.397  1.00  0.00    -0.009 C  
HETATM   24  C   UNL     1     -10.542  12.212  68.958  1.00  0.00    -0.079 C  
HETATM   25  O   UNL     1      -9.121  12.072  68.722  1.00  0.00    -0.370 OA 
HETATM   26  H1  UNL     1     -12.435  15.784  69.766  1.00  0.00     0.000 HD 
HETATM   27  H2  UNL     1     -12.031  15.281  71.327  1.00  0.00     0.000 HD 
HETATM   28  H   UNL     1      -8.809  12.828  68.238  1.00  0.00     0.000 HD 
BRANCH  23  29
HETATM   29  O   UNL     1     -10.749  14.488  68.188  1.00  0.00    -0.233 OA 
BRANCH  29  30
HETATM   30  C   UNL     1      -9.786  15.551  68.039  1.00  0.00    -0.212 C  
HETATM   31  O   UNL     1      -9.268  16.090  69.258  1.00  0.00    -0.247 OA 
HETATM   32  C   UNL     1      -8.214  17.036  69.022  1.00  0.00    -0.130 C  
HETATM   33  C   UNL     1      -8.675  18.281  68.220  1.00  0.00    -0.288 C  
HETATM   34  C   UNL     1      -9.251  17.804  66.859  1.00  0.00    -0.258 C  
HETATM   35  O   UNL     1      -9.696  18.961  68.968  1.00  0.00    -0.363 OA 
HETATM   36  C   UNL     1      -7.483  19.237  68.060  1.00  0.00    -0.312 C  
HETATM   37  H   UNL     1     -10.985  16.834  65.181  1.00  0.00     0.000 HD 
HETATM   38  H   UNL     1      -9.978  19.723  68.477  1.00  0.00     0.000 HD 
HETATM   39  C   UNL     1     -10.317  16.675  67.071  1.00  0.00    -0.301 C  
HETATM   40  O   UNL     1     -10.664  16.157  65.764  1.00  0.00    -0.329 OA 
BRANCH  34  41
HETATM   41  N   UNL     1      -9.688  18.818  65.851  1.00  0.00    -0.467 NA 
HETATM   42  C   UNL     1     -10.763  19.721  66.221  1.00  0.00    -0.394 C  
HETATM   43  H   UNL     1      -9.245  18.874  64.934  1.00  0.00     0.000 HD 
ENDBRANCH  34  41
ENDBRANCH  29  30
ENDBRANCH  23  29
ENDBRANCH  14  15
ENDBRANCH   9  14
ENDBRANCH   4   5
ENDBRANCH   2   4
TORSDOF 7
ENDMDL
MODEL       35
REMARK 921   NORMALIZED FREE ENERGY PREDICTED BY IDOCK:   -6.22 KCAL/MOL
REMARK 922        TOTAL FREE ENERGY PREDICTED BY IDOCK:  -10.48 KCAL/MOL
REMARK 923 INTER-LIGAND FREE ENERGY PREDICTED BY IDOCK:   -8.35 KCAL/MOL
REMARK 924 INTRA-LIGAND FREE ENERGY PREDICTED BY IDOCK:   -2.13 KCAL/MOL
REMARK 927      BINDING AFFINITY PREDICTED BY RF-SCORE:    0.00 PKD
ROOT
HETATM    1  C   UNL     1     -10.876  11.086  65.847  1.00  0.00    -0.115 C  
HETATM    2  N   UNL     1     -10.375  10.066  66.756  1.00  0.00    -0.227 NA 
HETATM    3  H   UNL     1     -11.148   9.562  67.190  1.00  0.00     0.000 HD 
ENDROOT
BRANCH   2   4
HETATM    4  C   UNL     1      -9.429   9.127  66.135  1.00  0.00    -0.245 C  
BRANCH   4   5
HETATM    5  C   UNL     1      -9.216   7.784  66.884  1.00  0.00    -0.152 C  
HETATM    6  C   UNL     1      -8.906   6.612  65.970  1.00  0.00    -0.151 C  
HETATM    7  C   UNL     1      -8.667   5.366  66.822  1.00  0.00    -0.113 C  
HETATM    8  C   UNL     1      -9.750   5.166  67.904  1.00  0.00    -0.145 C  
HETATM    9  C   UNL     1     -10.210   6.508  68.634  1.00  0.00    -0.172 C  
HETATM   10  N   UNL     1      -9.360   4.033  68.776  1.00  0.00    -0.152 NA 
HETATM   11  O   UNL     1     -10.426   7.483  67.618  1.00  0.00    -0.223 OA 
HETATM   12  H1  UNL     1     -10.075   3.901  69.491  1.00  0.00     0.000 HD 
HETATM   13  H2  UNL     1      -8.429   4.154  69.176  1.00  0.00     0.000 HD 
BRANCH   9  14
HETATM   14  O   UNL     1      -9.352   6.995  69.692  1.00  0.00    -0.149 OA 
BRANCH  14  15
HETATM   15  C   UNL     1      -9.957   7.776  70.806  1.00  0.00    -0.181 C  
HETATM   16  C   UNL     1     -10.691   6.923  71.876  1.00  0.00    -0.218 C  
HETATM   17  N   UNL     1      -9.718   6.187  72.710  1.00  0.00    -0.159 NA 
HETATM   18  C   UNL     1     -11.546   7.784  72.829  1.00  0.00    -0.368 C  
HETATM   19  H2  UNL     1      -9.030   6.811  73.130  1.00  0.00     0.000 HD 
HETATM   20  H1  UNL     1     -10.200   5.626  73.411  1.00  0.00     0.000 HD 
HETATM   21  C   UNL     1     -12.561   8.666  72.086  1.00  0.00    -0.391 C  
HETATM   22  N   UNL     1     -13.480   9.303  73.035  1.00  0.00    -0.814 NA 
HETATM   23  C   UNL     1     -11.843   9.724  71.225  1.00  0.00    -0.399 C  
HETATM   24  C   UNL     1     -10.799   9.000  70.318  1.00  0.00    -0.238 C  
HETATM   25  O   UNL     1      -9.913   9.987  69.740  1.00  0.00    -0.225 OA 
HETATM   26  H1  UNL     1     -14.154   9.889  72.543  1.00  0.00     0.000 HD 
HETATM   27  H2  UNL     1     -12.980   9.824  73.756  1.00  0.00     0.000 HD 
HETATM   28  H   UNL     1     -10.425  10.731  69.443  1.00  0.00     0.000 HD 
BRANCH  23  29
HETATM   29  O   UNL     1     -12.794  10.354  70.319  1.00  0.00    -0.277 OA 
BRANCH  29  30
HETATM   30  C   UNL     1     -12.757  11.763  70.016  1.00  0.00     0.199 C  
HETATM   31  O   UNL     1     -11.860  12.147  68.971  1.00  0.00    -0.303 OA 
HETATM   32  C   UNL     1     -11.991  13.537  68.634  1.00  0.00    -0.343 C  
HETATM   33  C   UNL     1     -11.640  14.489  69.807  1.00  0.00    -0.295 C  
HETATM   34  C   UNL     1     -12.574  14.161  71.004  1.00  0.00    -0.369 C  
HETATM   35  O   UNL     1     -10.271  14.271  70.186  1.00  0.00    -0.105 OA 
HETATM   36  C   UNL     1     -11.777  15.941  69.326  1.00  0.00    -0.360 C  
HETATM   37  H   UNL     1     -13.461  12.895  73.095  1.00  0.00     0.000 HD 
HETATM   38  H   UNL     1     -10.057  14.854  70.905  1.00  0.00     0.000 HD 
HETATM   39  C   UNL     1     -12.556  12.625  71.319  1.00  0.00    -0.240 C  
HETATM   40  O   UNL     1     -13.582  12.375  72.309  1.00  0.00    -0.504 OA 
BRANCH  34  41
HETATM   41  N   UNL     1     -12.505  14.998  72.241  1.00  0.00    -0.333 NA 
HETATM   42  C   UNL     1     -13.703  15.714  72.642  1.00  0.00    -0.579 C  
HETATM   43  H   UNL     1     -11.644  15.063  72.784  1.00  0.00     0.000 HD 
ENDBRANCH  34  41
ENDBRANCH  29  30
ENDBRANCH  23  29
ENDBRANCH  14  15
ENDBRANCH   9  14
ENDBRANCH   4   5
ENDBRANCH   2   4
TORSDOF 7
ENDMDL
MODEL       36
REMARK 921   NORMALIZED FREE ENERGY PREDICTED BY IDOCK:   -6.20 KCAL/MOL
REMARK 922        TOTAL FREE ENERGY PREDICTED BY IDOCK:  -10.44 KCAL/MOL
REMARK 923 INTER-LIGAND FREE ENERGY PREDICTED BY IDOCK:   -9.68 KCAL/MOL
REMARK 924 INTRA-LIGAND FREE ENERGY PREDICTED BY IDOCK:   -0.76 KCAL/MOL
REMARK 927      BINDING AFFINITY PREDICTED BY RF-SCORE:    0.00 PKD
ROOT
HETATM    1  C   UNL     1     -10.555   6.166  66.581  1.00  0.00    -0.228 C  
HETATM    2  N   UNL     1     -11.512   6.475  67.633  1.00  0.00    -0.688 NA 
HETATM    3  H   UNL     1     -12.282   5.806  67.625  1.00  0.00     0.000 HD 
ENDROOT
BRANCH   2   4
HETATM    4  C   UNL     1     -10.916   6.563  68.974  1.00  0.00    -0.321 C  
BRANCH   4   5
HETATM    5  C   UNL     1      -9.811   7.639  69.156  1.00  0.00    -0.171 C  
HETATM    6  C   UNL     1      -9.036   7.510  70.455  1.00  0.00    -0.156 C  
HETATM    7  C   UNL     1      -7.950   8.585  70.495  1.00  0.00    -0.095 C  
HETATM    8  C   UNL     1      -8.479   9.983  70.109  1.00  0.00    -0.017 C  
HETATM    9  C   UNL     1      -9.506   9.986  68.888  1.00  0.00    -0.172 C  
HETATM   10  N   UNL     1      -7.339  10.926  70.023  1.00  0.00    -0.426 NA 
HETATM   11  O   UNL     1     -10.443   8.940  69.128  1.00  0.00    -0.224 OA 
HETATM   12  H1  UNL     1      -7.688  11.849  69.767  1.00  0.00     0.000 HD 
HETATM   13  H2  UNL     1      -6.611  10.597  69.388  1.00  0.00     0.000 HD 
BRANCH   9  14
HETATM   14  O   UNL     1      -8.933   9.921  67.561  1.00  0.00    -0.134 OA 
BRANCH  14  15
HETATM   15  C   UNL     1      -9.817  10.149  66.384  1.00  0.00    -0.222 C  
HETATM   16  C   UNL     1      -9.069  10.343  65.037  1.00  0.00    -0.203 C  
HETATM   17  N   UNL     1      -8.507   9.061  64.566  1.00  0.00    -0.176 NA 
HETATM   18  C   UNL     1      -9.996  10.870  63.922  1.00  0.00    -0.400 C  
HETATM   19  H2  UNL     1      -9.220   8.335  64.502  1.00  0.00     0.000 HD 
HETATM   20  H1  UNL     1      -8.016   9.189  63.682  1.00  0.00     0.000 HD 
HETATM   21  C   UNL     1     -10.713  12.173  64.308  1.00  0.00    -0.338 C  
HETATM   22  N   UNL     1     -11.413  12.737  63.149  1.00  0.00    -0.795 NA 
HETATM   23  C   UNL     1     -11.688  11.938  65.477  1.00  0.00    -0.157 C  
HETATM   24  C   UNL     1     -10.915  11.234  66.635  1.00  0.00    -0.268 C  
HETATM   25  O   UNL     1     -11.868  10.732  67.601  1.00  0.00    -0.647 OA 
HETATM   26  H1  UNL     1     -11.889  13.602  63.405  1.00  0.00     0.000 HD 
HETATM   27  H2  UNL     1     -12.052  12.063  62.728  1.00  0.00     0.000 HD 
HETATM   28  H   UNL     1     -12.535  11.391  67.754  1.00  0.00     0.000 HD 
BRANCH  23  29
HETATM   29  O   UNL     1     -12.137  13.216  66.012  1.00  0.00    -0.410 OA 
BRANCH  29  30
HETATM   30  C   UNL     1     -11.689  13.722  67.286  1.00  0.00    -0.382 C  
HETATM   31  O   UNL     1     -12.432  13.276  68.423  1.00  0.00     0.005 OA 
HETATM   32  C   UNL     1     -11.835  13.704  69.657  1.00  0.00    -0.335 C  
HETATM   33  C   UNL     1     -11.789  15.247  69.813  1.00  0.00    -0.332 C  
HETATM   34  C   UNL     1     -10.986  15.839  68.622  1.00  0.00    -0.307 C  
HETATM   35  O   UNL     1     -13.133  15.755  69.793  1.00  0.00    -0.513 OA 
HETATM   36  C   UNL     1     -11.169  15.589  71.177  1.00  0.00    -0.423 C  
HETATM   37  H   UNL     1     -10.526  16.677  66.204  1.00  0.00     0.000 HD 
HETATM   38  H   UNL     1     -13.104  16.699  69.888  1.00  0.00     0.000 HD 
HETATM   39  C   UNL     1     -11.530  15.289  67.258  1.00  0.00    -0.224 C  
HETATM   40  O   UNL     1     -10.622  15.732  66.221  1.00  0.00    -0.306 OA 
BRANCH  34  41
HETATM   41  N   UNL     1     -10.715  17.308  68.577  1.00  0.00    -0.339 NA 
HETATM   42  C   UNL     1      -9.332  17.743  68.660  1.00  0.00    -0.275 C  
HETATM   43  H   UNL     1     -11.476  17.982  68.491  1.00  0.00     0.000 HD 
ENDBRANCH  34  41
ENDBRANCH  29  30
ENDBRANCH  23  29
ENDBRANCH  14  15
ENDBRANCH   9  14
ENDBRANCH   4   5
ENDBRANCH   2   4
TORSDOF 7
ENDMDL
MODEL       37
REMARK 921   NORMALIZED FREE ENERGY PREDICTED BY IDOCK:   -6.13 KCAL/MOL
REMARK 922        TOTAL FREE ENERGY PREDICTED BY IDOCK:  -10.35 KCAL/MOL
REMARK 923 INTER-LIGAND FREE ENERGY PREDICTED BY IDOCK:   -8.57 KCAL/MOL
REMARK 924 INTRA-LIGAND FREE ENERGY PREDICTED BY IDOCK:   -1.78 KCAL/MOL
REMARK 927      BINDING AFFINITY PREDICTED BY RF-SCORE:    0.00 PKD
ROOT
HETATM    1  C   UNL     1     -12.203  13.312  70.514  1.00  0.00    -0.340 C  
HETATM    2  N   UNL     1     -11.358  13.486  69.342  1.00  0.00    -0.364 NA 
HETATM    3  H   UNL     1     -10.965  12.592  69.048  1.00  0.00     0.000 HD 
ENDROOT
BRANCH   2   4
HETATM    4  C   UNL     1     -12.031  14.151  68.216  1.00  0.00    -0.332 C  
BRANCH   4   5
HETATM    5  C   UNL     1     -11.716  13.582  66.806  1.00  0.00    -0.391 C  
HETATM    6  C   UNL     1     -12.587  14.156  65.703  1.00  0.00    -0.495 C  
HETATM    7  C   UNL     1     -12.150  13.562  64.364  1.00  0.00    -0.468 C  
HETATM    8  C   UNL     1     -11.975  12.029  64.418  1.00  0.00    -0.300 C  
HETATM    9  C   UNL     1     -11.282  11.491  65.751  1.00  0.00    -0.164 C  
HETATM   10  N   UNL     1     -11.404  11.561  63.134  1.00  0.00    -0.848 NA 
HETATM   11  O   UNL     1     -11.913  12.150  66.845  1.00  0.00    -0.603 OA 
HETATM   12  H1  UNL     1     -11.289  10.548  63.170  1.00  0.00     0.000 HD 
HETATM   13  H2  UNL     1     -10.536  12.041  62.896  1.00  0.00     0.000 HD 
BRANCH   9  14
HETATM   14  O   UNL     1      -9.839  11.579  65.810  1.00  0.00    -0.218 OA 
BRANCH  14  15
HETATM   15  C   UNL     1      -9.061  10.377  66.218  1.00  0.00    -0.158 C  
HETATM   16  C   UNL     1      -8.248   9.710  65.075  1.00  0.00    -0.136 C  
HETATM   17  N   UNL     1      -7.079  10.540  64.718  1.00  0.00    -0.346 NA 
HETATM   18  C   UNL     1      -7.712   8.318  65.472  1.00  0.00    -0.101 C  
HETATM   19  H2  UNL     1      -6.496  10.743  65.529  1.00  0.00     0.000 HD 
HETATM   20  H1  UNL     1      -6.545  10.102  63.968  1.00  0.00     0.000 HD 
HETATM   21  C   UNL     1      -8.821   7.364  65.942  1.00  0.00    -0.120 C  
HETATM   22  N   UNL     1      -8.294   6.005  66.106  1.00  0.00    -0.121 NA 
HETATM   23  C   UNL     1      -9.460   7.867  67.250  1.00  0.00    -0.149 C  
HETATM   24  C   UNL     1      -9.898   9.351  67.051  1.00  0.00    -0.201 C  
HETATM   25  O   UNL     1     -10.209   9.928  68.341  1.00  0.00    -0.164 OA 
HETATM   26  H1  UNL     1      -9.030   5.372  66.418  1.00  0.00     0.000 HD 
HETATM   27  H2  UNL     1      -7.487   5.985  66.730  1.00  0.00     0.000 HD 
HETATM   28  H   UNL     1     -10.717   9.305  68.847  1.00  0.00     0.000 HD 
BRANCH  23  29
HETATM   29  O   UNL     1     -10.681   7.121  67.524  1.00  0.00    -0.254 OA 
BRANCH  29  30
HETATM   30  C   UNL     1     -10.981   6.578  68.826  1.00  0.00    -0.305 C  
HETATM   31  O   UNL     1     -11.331   7.537  69.828  1.00  0.00    -0.127 OA 
HETATM   32  C   UNL     1     -11.755   6.908  71.048  1.00  0.00    -0.345 C  
HETATM   33  C   UNL     1     -10.649   6.047  71.712  1.00  0.00    -0.229 C  
HETATM   34  C   UNL     1     -10.200   4.956  70.701  1.00  0.00    -0.211 C  
HETATM   35  O   UNL     1      -9.535   6.895  72.036  1.00  0.00    -0.142 OA 
HETATM   36  C   UNL     1     -11.198   5.457  73.020  1.00  0.00    -0.370 C  
HETATM   37  H   UNL     1      -8.947   3.915  68.675  1.00  0.00     0.000 HD 
HETATM   38  H   UNL     1      -8.858   6.368  72.443  1.00  0.00     0.000 HD 
HETATM   39  C   UNL     1      -9.852   5.595  69.313  1.00  0.00    -0.174 C  
HETATM   40  O   UNL     1      -9.629   4.508  68.382  1.00  0.00    -0.143 OA 
BRANCH  34  41
HETATM   41  N   UNL     1      -9.200   3.930  71.125  1.00  0.00    -0.121 NA 
HETATM   42  C   UNL     1      -9.668   2.570  71.326  1.00  0.00    -0.131 C  
HETATM   43  H   UNL     1      -8.220   4.177  71.268  1.00  0.00     0.000 HD 
ENDBRANCH  34  41
ENDBRANCH  29  30
ENDBRANCH  23  29
ENDBRANCH  14  15
ENDBRANCH   9  14
ENDBRANCH   4   5
ENDBRANCH   2   4
TORSDOF 7
ENDMDL
MODEL       38
REMARK 921   NORMALIZED FREE ENERGY PREDICTED BY IDOCK:   -6.13 KCAL/MOL
REMARK 922        TOTAL FREE ENERGY PREDICTED BY IDOCK:  -10.35 KCAL/MOL
REMARK 923 INTER-LIGAND FREE ENERGY PREDICTED BY IDOCK:   -9.29 KCAL/MOL
REMARK 924 INTRA-LIGAND FREE ENERGY PREDICTED BY IDOCK:   -1.06 KCAL/MOL
REMARK 927      BINDING AFFINITY PREDICTED BY RF-SCORE:    0.00 PKD
ROOT
HETATM    1  C   UNL     1      -9.983  19.311  68.419  1.00  0.00    -0.419 C  
HETATM    2  N   UNL     1      -9.324  18.750  67.249  1.00  0.00    -0.287 NA 
HETATM    3  H   UNL     1      -8.424  19.204  67.093  1.00  0.00     0.000 HD 
ENDROOT
BRANCH   2   4
HETATM    4  C   UNL     1      -9.164  17.289  67.299  1.00  0.00    -0.232 C  
BRANCH   4   5
HETATM    5  C   UNL     1      -9.869  16.491  66.170  1.00  0.00    -0.332 C  
HETATM    6  C   UNL     1     -10.836  17.319  65.342  1.00  0.00    -0.024 C  
HETATM    7  C   UNL     1     -11.424  16.442  64.238  1.00  0.00     0.120 C  
HETATM    8  C   UNL     1     -11.914  15.074  64.759  1.00  0.00    -0.311 C  
HETATM    9  C   UNL     1     -10.953  14.396  65.837  1.00  0.00    -0.312 C  
HETATM   10  N   UNL     1     -12.321  14.235  63.608  1.00  0.00    -1.109 NA 
HETATM   11  O   UNL     1     -10.605  15.405  66.780  1.00  0.00    -0.298 OA 
HETATM   12  H1  UNL     1     -12.645  13.331  63.952  1.00  0.00     0.000 HD 
HETATM   13  H2  UNL     1     -11.580  14.142  62.913  1.00  0.00     0.000 HD 
BRANCH   9  14
HETATM   14  O   UNL     1      -9.795  13.698  65.322  1.00  0.00    -0.223 OA 
BRANCH  14  15
HETATM   15  C   UNL     1      -9.521  12.313  65.795  1.00  0.00    -0.121 C  
HETATM   16  C   UNL     1     -10.036  11.190  64.853  1.00  0.00    -0.278 C  
HETATM   17  N   UNL     1      -9.201  11.109  63.637  1.00  0.00    -0.367 NA 
HETATM   18  C   UNL     1      -9.999   9.800  65.522  1.00  0.00    -0.329 C  
HETATM   19  H2  UNL     1      -8.213  10.991  63.863  1.00  0.00     0.000 HD 
HETATM   20  H1  UNL     1      -9.539  10.372  63.019  1.00  0.00     0.000 HD 
HETATM   21  C   UNL     1     -10.772   9.757  66.849  1.00  0.00    -0.122 C  
HETATM   22  N   UNL     1     -10.881   8.377  67.336  1.00  0.00    -0.485 NA 
HETATM   23  C   UNL     1     -10.104  10.658  67.904  1.00  0.00    -0.168 C  
HETATM   24  C   UNL     1      -9.911  12.081  67.291  1.00  0.00    -0.192 C  
HETATM   25  O   UNL     1      -9.018  12.842  68.139  1.00  0.00    -0.194 OA 
HETATM   26  H1  UNL     1     -11.394   8.348  68.217  1.00  0.00     0.000 HD 
HETATM   27  H2  UNL     1      -9.968   7.930  67.414  1.00  0.00     0.000 HD 
HETATM   28  H   UNL     1      -9.255  12.701  69.048  1.00  0.00     0.000 HD 
BRANCH  23  29
HETATM   29  O   UNL     1     -10.993  10.830  69.045  1.00  0.00    -0.205 OA 
BRANCH  29  30
HETATM   30  C   UNL     1     -10.754  10.191  70.316  1.00  0.00    -0.293 C  
HETATM   31  O   UNL     1      -9.664   9.266  70.347  1.00  0.00    -0.207 OA 
HETATM   32  C   UNL     1      -9.402   8.789  71.676  1.00  0.00    -0.275 C  
HETATM   33  C   UNL     1     -10.589   8.000  72.289  1.00  0.00    -0.291 C  
HETATM   34  C   UNL     1     -11.836   8.926  72.313  1.00  0.00    -0.295 C  
HETATM   35  O   UNL     1     -10.855   6.851  71.469  1.00  0.00    -0.226 OA 
HETATM   36  C   UNL     1     -10.187   7.507  73.688  1.00  0.00    -0.333 C  
HETATM   37  H   UNL     1     -13.927  10.180  71.408  1.00  0.00     0.000 HD 
HETATM   38  H   UNL     1     -11.581   6.368  71.845  1.00  0.00     0.000 HD 
HETATM   39  C   UNL     1     -12.077   9.570  70.904  1.00  0.00    -0.278 C  
HETATM   40  O   UNL     1     -13.129  10.555  71.054  1.00  0.00    -0.377 OA 
BRANCH  34  41
HETATM   41  N   UNL     1     -13.102   8.438  72.941  1.00  0.00    -0.646 NA 
HETATM   42  C   UNL     1     -14.044   7.723  72.098  1.00  0.00    -0.177 C  
HETATM   43  H   UNL     1     -13.297   8.602  73.929  1.00  0.00     0.000 HD 
ENDBRANCH  34  41
ENDBRANCH  29  30
ENDBRANCH  23  29
ENDBRANCH  14  15
ENDBRANCH   9  14
ENDBRANCH   4   5
ENDBRANCH   2   4
TORSDOF 7
ENDMDL
MODEL       39
REMARK 921   NORMALIZED FREE ENERGY PREDICTED BY IDOCK:   -6.13 KCAL/MOL
REMARK 922        TOTAL FREE ENERGY PREDICTED BY IDOCK:  -10.35 KCAL/MOL
REMARK 923 INTER-LIGAND FREE ENERGY PREDICTED BY IDOCK:   -9.52 KCAL/MOL
REMARK 924 INTRA-LIGAND FREE ENERGY PREDICTED BY IDOCK:   -0.82 KCAL/MOL
REMARK 927      BINDING AFFINITY PREDICTED BY RF-SCORE:    0.00 PKD
ROOT
HETATM    1  C   UNL     1     -12.906  10.690  71.438  1.00  0.00    -0.451 C  
HETATM    2  N   UNL     1     -11.822  11.368  70.744  1.00  0.00    -0.410 NA 
HETATM    3  H   UNL     1     -11.093  10.703  70.482  1.00  0.00     0.000 HD 
ENDROOT
BRANCH   2   4
HETATM    4  C   UNL     1     -12.257  12.145  69.574  1.00  0.00    -0.109 C  
BRANCH   4   5
HETATM    5  C   UNL     1     -11.584  13.532  69.392  1.00  0.00    -0.312 C  
HETATM    6  C   UNL     1     -11.677  14.426  70.616  1.00  0.00    -0.315 C  
HETATM    7  C   UNL     1     -10.939  15.734  70.335  1.00  0.00    -0.369 C  
HETATM    8  C   UNL     1     -11.309  16.347  68.968  1.00  0.00    -0.253 C  
HETATM    9  C   UNL     1     -11.452  15.286  67.785  1.00  0.00    -0.303 C  
HETATM   10  N   UNL     1     -10.440  17.519  68.711  1.00  0.00    -0.348 NA 
HETATM   11  O   UNL     1     -12.231  14.204  68.287  1.00  0.00    -0.317 OA 
HETATM   12  H1  UNL     1     -10.685  17.924  67.807  1.00  0.00     0.000 HD 
HETATM   13  H2  UNL     1      -9.448  17.289  68.776  1.00  0.00     0.000 HD 
BRANCH   9  14
HETATM   14  O   UNL     1     -10.223  14.841  67.165  1.00  0.00    -0.243 OA 
BRANCH  14  15
HETATM   15  C   UNL     1     -10.289  14.179  65.832  1.00  0.00    -0.316 C  
HETATM   16  C   UNL     1     -11.485  14.621  64.945  1.00  0.00    -0.401 C  
HETATM   17  N   UNL     1     -11.271  15.990  64.432  1.00  0.00    -0.924 NA 
HETATM   18  C   UNL     1     -11.678  13.702  63.721  1.00  0.00    -0.292 C  
HETATM   19  H2  UNL     1     -10.383  16.076  63.939  1.00  0.00     0.000 HD 
HETATM   20  H1  UNL     1     -12.057  16.280  63.849  1.00  0.00     0.000 HD 
HETATM   21  C   UNL     1     -11.839  12.223  64.106  1.00  0.00    -0.419 C  
HETATM   22  N   UNL     1     -12.225  11.427  62.936  1.00  0.00    -0.825 NA 
HETATM   23  C   UNL     1     -10.545  11.677  64.738  1.00  0.00    -0.304 C  
HETATM   24  C   UNL     1     -10.122  12.626  65.903  1.00  0.00    -0.264 C  
HETATM   25  O   UNL     1      -8.767  12.311  66.299  1.00  0.00    -0.391 OA 
HETATM   26  H1  UNL     1     -12.331  10.445  63.190  1.00  0.00     0.000 HD 
HETATM   27  H2  UNL     1     -11.571  11.549  62.162  1.00  0.00     0.000 HD 
HETATM   28  H   UNL     1      -8.665  11.367  66.342  1.00  0.00     0.000 HD 
BRANCH  23  29
HETATM   29  O   UNL     1     -10.802  10.380  65.351  1.00  0.00     0.003 OA 
BRANCH  29  30
HETATM   30  C   UNL     1      -9.774   9.623  66.022  1.00  0.00    -0.264 C  
HETATM   31  O   UNL     1      -8.887   8.895  65.169  1.00  0.00    -0.195 OA 
HETATM   32  C   UNL     1      -7.810   8.292  65.903  1.00  0.00    -0.093 C  
HETATM   33  C   UNL     1      -8.288   7.243  66.942  1.00  0.00    -0.118 C  
HETATM   34  C   UNL     1      -9.259   7.940  67.934  1.00  0.00    -0.134 C  
HETATM   35  O   UNL     1      -8.975   6.188  66.251  1.00  0.00    -0.147 OA 
HETATM   36  C   UNL     1      -7.058   6.639  67.638  1.00  0.00    -0.085 C  
HETATM   37  H   UNL     1     -11.486   8.943  68.826  1.00  0.00     0.000 HD 
HETATM   38  H   UNL     1      -9.267   5.546  66.888  1.00  0.00     0.000 HD 
HETATM   39  C   UNL     1     -10.378   8.719  67.162  1.00  0.00    -0.293 C  
HETATM   40  O   UNL     1     -11.122   9.488  68.139  1.00  0.00    -0.140 OA 
BRANCH  34  41
HETATM   41  N   UNL     1      -9.798   7.169  69.096  1.00  0.00    -0.158 NA 
HETATM   42  C   UNL     1     -10.879   6.233  68.844  1.00  0.00    -0.333 C  
HETATM   43  H   UNL     1      -9.419   7.297  70.035  1.00  0.00     0.000 HD 
ENDBRANCH  34  41
ENDBRANCH  29  30
ENDBRANCH  23  29
ENDBRANCH  14  15
ENDBRANCH   9  14
ENDBRANCH   4   5
ENDBRANCH   2   4
TORSDOF 7
ENDMDL
MODEL       40
REMARK 921   NORMALIZED FREE ENERGY PREDICTED BY IDOCK:   -6.13 KCAL/MOL
REMARK 922        TOTAL FREE ENERGY PREDICTED BY IDOCK:  -10.35 KCAL/MOL
REMARK 923 INTER-LIGAND FREE ENERGY PREDICTED BY IDOCK:   -8.78 KCAL/MOL
REMARK 924 INTRA-LIGAND FREE ENERGY PREDICTED BY IDOCK:   -1.56 KCAL/MOL
REMARK 927      BINDING AFFINITY PREDICTED BY RF-SCORE:    0.00 PKD
ROOT
HETATM    1  C   UNL     1     -12.628  15.978  74.038  1.00  0.00    -0.608 C  
HETATM    2  N   UNL     1     -12.271  15.331  72.785  1.00  0.00    -0.379 NA 
HETATM    3  H   UNL     1     -13.039  14.748  72.451  1.00  0.00     0.000 HD 
ENDROOT
BRANCH   2   4
HETATM    4  C   UNL     1     -11.836  16.264  71.735  1.00  0.00    -0.439 C  
BRANCH   4   5
HETATM    5  C   UNL     1     -11.404  15.620  70.390  1.00  0.00    -0.358 C  
HETATM    6  C   UNL     1     -10.951  16.623  69.345  1.00  0.00    -0.235 C  
HETATM    7  C   UNL     1     -10.506  15.870  68.092  1.00  0.00    -0.270 C  
HETATM    8  C   UNL     1     -11.514  14.785  67.657  1.00  0.00    -0.347 C  
HETATM    9  C   UNL     1     -12.145  13.950  68.861  1.00  0.00    -0.319 C  
HETATM   10  N   UNL     1     -10.934  14.006  66.538  1.00  0.00    -0.303 NA 
HETATM   11  O   UNL     1     -12.534  14.888  69.861  1.00  0.00    -0.299 OA 
HETATM   12  H1  UNL     1     -11.600  13.289  66.251  1.00  0.00     0.000 HD 
HETATM   13  H2  UNL     1     -10.020  13.616  66.768  1.00  0.00     0.000 HD 
BRANCH   9  14
HETATM   14  O   UNL     1     -11.337  12.876  69.396  1.00  0.00    -0.250 OA 
BRANCH  14  15
HETATM   15  C   UNL     1     -12.016  11.666  69.938  1.00  0.00    -0.340 C  
HETATM   16  C   UNL     1     -12.431  11.768  71.432  1.00  0.00    -0.175 C  
HETATM   17  N   UNL     1     -13.583  12.680  71.589  1.00  0.00    -0.087 NA 
HETATM   18  C   UNL     1     -12.848  10.404  72.019  1.00  0.00    -0.447 C  
HETATM   19  H2  UNL     1     -14.366  12.407  70.996  1.00  0.00     0.000 HD 
HETATM   20  H1  UNL     1     -13.855  12.747  72.570  1.00  0.00     0.000 HD 
HETATM   21  C   UNL     1     -11.764   9.327  71.856  1.00  0.00    -0.350 C  
HETATM   22  N   UNL     1     -12.122   8.119  72.607  1.00  0.00    -0.581 NA 
HETATM   23  C   UNL     1     -11.535   9.000  70.368  1.00  0.00    -0.173 C  
HETATM   24  C   UNL     1     -11.271  10.334  69.601  1.00  0.00    -0.269 C  
HETATM   25  O   UNL     1     -11.362  10.085  68.178  1.00  0.00    -0.509 OA 
HETATM   26  H1  UNL     1     -11.403   7.405  72.498  1.00  0.00     0.000 HD 
HETATM   27  H2  UNL     1     -13.045   7.770  72.346  1.00  0.00     0.000 HD 
HETATM   28  H   UNL     1     -10.909   9.275  67.973  1.00  0.00     0.000 HD 
BRANCH  23  29
HETATM   29  O   UNL     1     -10.324   8.204  70.217  1.00  0.00    -0.201 OA 
BRANCH  29  30
HETATM   30  C   UNL     1     -10.348   6.839  69.749  1.00  0.00    -0.201 C  
HETATM   31  O   UNL     1      -9.749   5.877  70.621  1.00  0.00    -0.169 OA 
HETATM   32  C   UNL     1      -9.945   4.534  70.154  1.00  0.00    -0.208 C  
HETATM   33  C   UNL     1      -9.287   4.261  68.775  1.00  0.00    -0.153 C  
HETATM   34  C   UNL     1      -9.881   5.256  67.741  1.00  0.00    -0.152 C  
HETATM   35  O   UNL     1      -7.870   4.470  68.890  1.00  0.00    -0.070 OA 
HETATM   36  C   UNL     1      -9.526   2.793  68.393  1.00  0.00    -0.209 C  
HETATM   37  H   UNL     1     -10.209   7.497  66.462  1.00  0.00     0.000 HD 
HETATM   38  H   UNL     1      -7.468   4.303  68.046  1.00  0.00     0.000 HD 
HETATM   39  C   UNL     1      -9.802   6.728  68.276  1.00  0.00    -0.142 C  
HETATM   40  O   UNL     1     -10.538   7.564  67.351  1.00  0.00    -0.270 OA 
BRANCH  34  41
HETATM   41  N   UNL     1      -9.480   5.149  66.305  1.00  0.00    -0.149 NA 
HETATM   42  C   UNL     1      -8.265   5.826  65.889  1.00  0.00    -0.121 C  
HETATM   43  H   UNL     1     -10.042   4.618  65.639  1.00  0.00     0.000 HD 
ENDBRANCH  34  41
ENDBRANCH  29  30
ENDBRANCH  23  29
ENDBRANCH  14  15
ENDBRANCH   9  14
ENDBRANCH   4   5
ENDBRANCH   2   4
TORSDOF 7
ENDMDL
MODEL       41
REMARK 921   NORMALIZED FREE ENERGY PREDICTED BY IDOCK:   -6.11 KCAL/MOL
REMARK 922        TOTAL FREE ENERGY PREDICTED BY IDOCK:  -10.32 KCAL/MOL
REMARK 923 INTER-LIGAND FREE ENERGY PREDICTED BY IDOCK:   -9.04 KCAL/MOL
REMARK 924 INTRA-LIGAND FREE ENERGY PREDICTED BY IDOCK:   -1.29 KCAL/MOL
REMARK 927      BINDING AFFINITY PREDICTED BY RF-SCORE:    0.00 PKD
ROOT
HETATM    1  C   UNL     1     -11.426  16.201  69.466  1.00  0.00    -0.292 C  
HETATM    2  N   UNL     1     -12.438  15.228  69.085  1.00  0.00    -0.602 NA 
HETATM    3  H   UNL     1     -13.044  15.607  68.357  1.00  0.00     0.000 HD 
ENDROOT
BRANCH   2   4
HETATM    4  C   UNL     1     -11.888  13.927  68.674  1.00  0.00    -0.372 C  
BRANCH   4   5
HETATM    5  C   UNL     1     -11.681  13.730  67.148  1.00  0.00    -0.385 C  
HETATM    6  C   UNL     1     -12.606  14.572  66.288  1.00  0.00    -0.005 C  
HETATM    7  C   UNL     1     -12.274  14.332  64.815  1.00  0.00    -0.456 C  
HETATM    8  C   UNL     1     -12.138  12.833  64.471  1.00  0.00    -0.414 C  
HETATM    9  C   UNL     1     -11.374  11.969  65.573  1.00  0.00    -0.328 C  
HETATM   10  N   UNL     1     -11.665  12.698  63.073  1.00  0.00    -0.759 NA 
HETATM   11  O   UNL     1     -11.914  12.336  66.839  1.00  0.00    -0.578 OA 
HETATM   12  H1  UNL     1     -11.575  11.708  62.846  1.00  0.00     0.000 HD 
HETATM   13  H2  UNL     1     -10.802  13.215  62.904  1.00  0.00     0.000 HD 
BRANCH   9  14
HETATM   14  O   UNL     1      -9.928  12.026  65.551  1.00  0.00    -0.236 OA 
BRANCH  14  15
HETATM   15  C   UNL     1      -9.155  10.816  65.947  1.00  0.00    -0.188 C  
HETATM   16  C   UNL     1      -8.756   9.885  64.769  1.00  0.00    -0.189 C  
HETATM   17  N   UNL     1      -7.683  10.502  63.962  1.00  0.00    -0.344 NA 
HETATM   18  C   UNL     1      -8.231   8.518  65.254  1.00  0.00    -0.149 C  
HETATM   19  H2  UNL     1      -6.877  10.756  64.533  1.00  0.00     0.000 HD 
HETATM   20  H1  UNL     1      -7.421   9.891  63.189  1.00  0.00     0.000 HD 
HETATM   21  C   UNL     1      -9.224   7.791  66.174  1.00  0.00    -0.128 C  
HETATM   22  N   UNL     1      -8.772   6.420  66.436  1.00  0.00    -0.133 NA 
HETATM   23  C   UNL     1      -9.420   8.564  67.491  1.00  0.00    -0.149 C  
HETATM   24  C   UNL     1      -9.788  10.042  67.149  1.00  0.00    -0.185 C  
HETATM   25  O   UNL     1      -9.672  10.846  68.346  1.00  0.00    -0.162 OA 
HETATM   26  H1  UNL     1      -9.431   5.937  67.047  1.00  0.00     0.000 HD 
HETATM   27  H2  UNL     1      -7.823   6.399  66.810  1.00  0.00     0.000 HD 
HETATM   28  H   UNL     1     -10.056  10.376  69.077  1.00  0.00     0.000 HD 
BRANCH  23  29
HETATM   29  O   UNL     1     -10.562   8.024  68.218  1.00  0.00    -0.183 OA 
BRANCH  29  30
HETATM   30  C   UNL     1     -10.413   7.233  69.415  1.00  0.00    -0.216 C  
HETATM   31  O   UNL     1     -11.371   6.185  69.585  1.00  0.00    -0.414 OA 
HETATM   32  C   UNL     1     -11.066   5.358  70.719  1.00  0.00     0.078 C  
HETATM   33  C   UNL     1     -11.098   6.127  72.066  1.00  0.00    -0.274 C  
HETATM   34  C   UNL     1     -10.075   7.293  71.992  1.00  0.00    -0.184 C  
HETATM   35  O   UNL     1     -12.420   6.653  72.267  1.00  0.00    -0.525 OA 
HETATM   36  C   UNL     1     -10.796   5.142  73.206  1.00  0.00    -0.352 C  
HETATM   37  H   UNL     1      -9.128   9.634  71.374  1.00  0.00     0.000 HD 
HETATM   38  H   UNL     1     -12.439   7.123  73.092  1.00  0.00     0.000 HD 
HETATM   39  C   UNL     1     -10.296   8.145  70.694  1.00  0.00    -0.199 C  
HETATM   40  O   UNL     1      -9.198   9.085  70.602  1.00  0.00    -0.190 OA 
BRANCH  34  41
HETATM   41  N   UNL     1      -9.841   8.143  73.199  1.00  0.00    -0.260 NA 
HETATM   42  C   UNL     1      -8.550   8.044  73.857  1.00  0.00    -0.262 C  
HETATM   43  H   UNL     1     -10.565   8.771  73.549  1.00  0.00     0.000 HD 
ENDBRANCH  34  41
ENDBRANCH  29  30
ENDBRANCH  23  29
ENDBRANCH  14  15
ENDBRANCH   9  14
ENDBRANCH   4   5
ENDBRANCH   2   4
TORSDOF 7
ENDMDL
MODEL       42
REMARK 921   NORMALIZED FREE ENERGY PREDICTED BY IDOCK:   -6.11 KCAL/MOL
REMARK 922        TOTAL FREE ENERGY PREDICTED BY IDOCK:  -10.32 KCAL/MOL
REMARK 923 INTER-LIGAND FREE ENERGY PREDICTED BY IDOCK:   -8.75 KCAL/MOL
REMARK 924 INTRA-LIGAND FREE ENERGY PREDICTED BY IDOCK:   -1.57 KCAL/MOL
REMARK 927      BINDING AFFINITY PREDICTED BY RF-SCORE:    0.00 PKD
ROOT
HETATM    1  C   UNL     1     -13.990   9.010  71.905  1.00  0.00    -0.387 C  
HETATM    2  N   UNL     1     -13.187  10.185  72.207  1.00  0.00    -0.564 NA 
HETATM    3  H   UNL     1     -12.294   9.913  72.618  1.00  0.00     0.000 HD 
ENDROOT
BRANCH   2   4
HETATM    4  C   UNL     1     -12.977  11.075  71.056  1.00  0.00    -0.276 C  
BRANCH   4   5
HETATM    5  C   UNL     1     -12.565  12.534  71.392  1.00  0.00    -0.194 C  
HETATM    6  C   UNL     1     -13.315  13.129  72.570  1.00  0.00    -0.525 C  
HETATM    7  C   UNL     1     -12.789  14.539  72.835  1.00  0.00    -0.534 C  
HETATM    8  C   UNL     1     -12.681  15.387  71.550  1.00  0.00    -0.411 C  
HETATM    9  C   UNL     1     -12.126  14.595  70.281  1.00  0.00    -0.319 C  
HETATM   10  N   UNL     1     -12.021  16.674  71.873  1.00  0.00    -0.563 NA 
HETATM   11  O   UNL     1     -12.821  13.352  70.228  1.00  0.00    -0.079 OA 
HETATM   12  H1  UNL     1     -11.950  17.234  71.023  1.00  0.00     0.000 HD 
HETATM   13  H2  UNL     1     -11.118  16.544  72.329  1.00  0.00     0.000 HD 
BRANCH   9  14
HETATM   14  O   UNL     1     -10.691  14.429  70.200  1.00  0.00     0.031 OA 
BRANCH  14  15
HETATM   15  C   UNL     1     -10.055  14.314  68.858  1.00  0.00    -0.175 C  
HETATM   16  C   UNL     1     -10.248  15.551  67.938  1.00  0.00    -0.238 C  
HETATM   17  N   UNL     1      -9.420  16.680  68.409  1.00  0.00    -0.224 NA 
HETATM   18  C   UNL     1      -9.840  15.266  66.478  1.00  0.00    -0.283 C  
HETATM   19  H2  UNL     1      -8.437  16.421  68.493  1.00  0.00     0.000 HD 
HETATM   20  H1  UNL     1      -9.547  17.492  67.805  1.00  0.00     0.000 HD 
HETATM   21  C   UNL     1     -10.575  14.057  65.879  1.00  0.00    -0.301 C  
HETATM   22  N   UNL     1     -10.310  13.956  64.440  1.00  0.00    -0.673 NA 
HETATM   23  C   UNL     1     -10.175  12.757  66.602  1.00  0.00    -0.238 C  
HETATM   24  C   UNL     1     -10.371  12.962  68.137  1.00  0.00    -0.240 C  
HETATM   25  O   UNL     1      -9.717  11.882  68.844  1.00  0.00    -0.396 OA 
HETATM   26  H1  UNL     1     -10.797  13.154  64.042  1.00  0.00     0.000 HD 
HETATM   27  H2  UNL     1      -9.310  13.929  64.239  1.00  0.00     0.000 HD 
HETATM   28  H   UNL     1      -9.908  11.061  68.406  1.00  0.00     0.000 HD 
BRANCH  23  29
HETATM   29  O   UNL     1     -11.080  11.680  66.223  1.00  0.00    -0.299 OA 
BRANCH  29  30
HETATM   30  C   UNL     1     -10.645  10.310  66.103  1.00  0.00    -0.054 C  
HETATM   31  O   UNL     1     -10.709   9.535  67.303  1.00  0.00    -0.263 OA 
HETATM   32  C   UNL     1     -10.401   8.152  67.066  1.00  0.00    -0.333 C  
HETATM   33  C   UNL     1      -8.958   7.926  66.542  1.00  0.00    -0.161 C  
HETATM   34  C   UNL     1      -8.784   8.724  65.220  1.00  0.00    -0.182 C  
HETATM   35  O   UNL     1      -8.028   8.407  67.525  1.00  0.00    -0.104 OA 
HETATM   36  C   UNL     1      -8.727   6.418  66.360  1.00  0.00    -0.140 C  
HETATM   37  H   UNL     1      -8.372  10.779  63.681  1.00  0.00     0.000 HD 
HETATM   38  H   UNL     1      -7.145   8.268  67.203  1.00  0.00     0.000 HD 
HETATM   39  C   UNL     1      -9.235  10.214  65.407  1.00  0.00    -0.202 C  
HETATM   40  O   UNL     1      -9.222  10.836  64.100  1.00  0.00    -0.205 OA 
BRANCH  34  41
HETATM   41  N   UNL     1      -7.505   8.608  64.455  1.00  0.00    -0.102 NA 
HETATM   42  C   UNL     1      -7.514   7.817  63.237  1.00  0.00    -0.116 C  
HETATM   43  H   UNL     1      -6.654   9.068  64.779  1.00  0.00     0.000 HD 
ENDBRANCH  34  41
ENDBRANCH  29  30
ENDBRANCH  23  29
ENDBRANCH  14  15
ENDBRANCH   9  14
ENDBRANCH   4   5
ENDBRANCH   2   4
TORSDOF 7
ENDMDL
MODEL       43
REMARK 921   NORMALIZED FREE ENERGY PREDICTED BY IDOCK:   -6.09 KCAL/MOL
REMARK 922        TOTAL FREE ENERGY PREDICTED BY IDOCK:  -10.30 KCAL/MOL
REMARK 923 INTER-LIGAND FREE ENERGY PREDICTED BY IDOCK:   -8.59 KCAL/MOL
REMARK 924 INTRA-LIGAND FREE ENERGY PREDICTED BY IDOCK:   -1.71 KCAL/MOL
REMARK 927      BINDING AFFINITY PREDICTED BY RF-SCORE:    0.00 PKD
ROOT
HETATM    1  C   UNL     1     -10.575   3.833  63.652  1.00  0.00    -0.246 C  
HETATM    2  N   UNL     1     -10.797   4.208  65.041  1.00  0.00    -0.659 NA 
HETATM    3  H   UNL     1     -10.928   3.378  65.619  1.00  0.00     0.000 HD 
ENDROOT
BRANCH   2   4
HETATM    4  C   UNL     1      -9.743   5.068  65.600  1.00  0.00    -0.106 C  
BRANCH   4   5
HETATM    5  C   UNL     1      -9.525   4.961  67.134  1.00  0.00    -0.142 C  
HETATM    6  C   UNL     1      -9.363   3.538  67.635  1.00  0.00    -0.250 C  
HETATM    7  C   UNL     1      -9.104   3.566  69.141  1.00  0.00    -0.203 C  
HETATM    8  C   UNL     1     -10.085   4.487  69.898  1.00  0.00    -0.125 C  
HETATM    9  C   UNL     1     -10.405   5.862  69.156  1.00  0.00    -0.238 C  
HETATM   10  N   UNL     1      -9.668   4.576  71.317  1.00  0.00    -0.171 NA 
HETATM   11  O   UNL     1     -10.671   5.549  67.792  1.00  0.00    -0.197 OA 
HETATM   12  H1  UNL     1     -10.315   5.184  71.817  1.00  0.00     0.000 HD 
HETATM   13  H2  UNL     1      -8.698   4.875  71.419  1.00  0.00     0.000 HD 
BRANCH   9  14
HETATM   14  O   UNL     1      -9.425   6.917  69.300  1.00  0.00    -0.147 OA 
BRANCH  14  15
HETATM   15  C   UNL     1      -9.820   8.177  69.989  1.00  0.00    -0.182 C  
HETATM   16  C   UNL     1     -10.661   7.977  71.279  1.00  0.00    -0.209 C  
HETATM   17  N   UNL     1      -9.815   7.457  72.374  1.00  0.00    -0.162 NA 
HETATM   18  C   UNL     1     -11.292   9.293  71.779  1.00  0.00    -0.437 C  
HETATM   19  H2  UNL     1      -9.002   8.051  72.539  1.00  0.00     0.000 HD 
HETATM   20  H1  UNL     1     -10.367   7.325  73.221  1.00  0.00     0.000 HD 
HETATM   21  C   UNL     1     -12.147   9.988  70.708  1.00  0.00    -0.327 C  
HETATM   22  N   UNL     1     -12.886  11.113  71.291  1.00  0.00    -0.415 NA 
HETATM   23  C   UNL     1     -11.275  10.457  69.528  1.00  0.00    -0.269 C  
HETATM   24  C   UNL     1     -10.430   9.246  69.023  1.00  0.00    -0.216 C  
HETATM   25  O   UNL     1      -9.394   9.730  68.137  1.00  0.00    -0.129 OA 
HETATM   26  H1  UNL     1     -13.453  11.575  70.580  1.00  0.00     0.000 HD 
HETATM   27  H2  UNL     1     -12.264  11.769  71.765  1.00  0.00     0.000 HD 
HETATM   28  H   UNL     1      -9.764  10.380  67.550  1.00  0.00     0.000 HD 
BRANCH  23  29
HETATM   29  O   UNL     1     -12.123  10.848  68.410  1.00  0.00    -0.559 OA 
BRANCH  29  30
HETATM   30  C   UNL     1     -11.817  11.975  67.564  1.00  0.00    -0.205 C  
HETATM   31  O   UNL     1     -11.085  11.673  66.373  1.00  0.00    -0.290 OA 
HETATM   32  C   UNL     1     -10.951  12.820  65.520  1.00  0.00    -0.280 C  
HETATM   33  C   UNL     1     -10.155  13.981  66.173  1.00  0.00    -0.309 C  
HETATM   34  C   UNL     1     -10.879  14.398  67.483  1.00  0.00    -0.282 C  
HETATM   35  O   UNL     1      -8.829  13.520  66.477  1.00  0.00    -0.436 OA 
HETATM   36  C   UNL     1     -10.041  15.134  65.164  1.00  0.00    -0.331 C  
HETATM   37  H   UNL     1     -11.597  14.293  69.980  1.00  0.00     0.000 HD 
HETATM   38  H   UNL     1      -8.343  14.231  66.877  1.00  0.00     0.000 HD 
HETATM   39  C   UNL     1     -11.159  13.147  68.385  1.00  0.00    -0.268 C  
HETATM   40  O   UNL     1     -11.994  13.586  69.484  1.00  0.00    -0.311 OA 
BRANCH  34  41
HETATM   41  N   UNL     1     -10.366  15.563  68.266  1.00  0.00    -0.232 NA 
HETATM   42  C   UNL     1     -11.097  16.815  68.176  1.00  0.00    -0.254 C  
HETATM   43  H   UNL     1      -9.530  15.481  68.846  1.00  0.00     0.000 HD 
ENDBRANCH  34  41
ENDBRANCH  29  30
ENDBRANCH  23  29
ENDBRANCH  14  15
ENDBRANCH   9  14
ENDBRANCH   4   5
ENDBRANCH   2   4
TORSDOF 7
ENDMDL
MODEL       44
REMARK 921   NORMALIZED FREE ENERGY PREDICTED BY IDOCK:   -6.09 KCAL/MOL
REMARK 922        TOTAL FREE ENERGY PREDICTED BY IDOCK:  -10.29 KCAL/MOL
REMARK 923 INTER-LIGAND FREE ENERGY PREDICTED BY IDOCK:   -8.63 KCAL/MOL
REMARK 924 INTRA-LIGAND FREE ENERGY PREDICTED BY IDOCK:   -1.66 KCAL/MOL
REMARK 927      BINDING AFFINITY PREDICTED BY RF-SCORE:    0.00 PKD
ROOT
HETATM    1  C   UNL     1      -9.878   4.378  67.315  1.00  0.00    -0.162 C  
HETATM    2  N   UNL     1      -9.939   5.655  68.009  1.00  0.00    -0.134 NA 
HETATM    3  H   UNL     1      -9.001   6.025  68.161  1.00  0.00     0.000 HD 
ENDROOT
BRANCH   2   4
HETATM    4  C   UNL     1     -10.788   6.655  67.344  1.00  0.00    -0.363 C  
BRANCH   4   5
HETATM    5  C   UNL     1     -10.090   7.987  66.958  1.00  0.00    -0.279 C  
HETATM    6  C   UNL     1      -8.993   7.828  65.921  1.00  0.00    -0.155 C  
HETATM    7  C   UNL     1      -8.421   9.206  65.587  1.00  0.00    -0.151 C  
HETATM    8  C   UNL     1      -8.106  10.043  66.845  1.00  0.00    -0.117 C  
HETATM    9  C   UNL     1      -9.200   9.935  68.001  1.00  0.00    -0.124 C  
HETATM   10  N   UNL     1      -7.707  11.409  66.430  1.00  0.00    -0.325 NA 
HETATM   11  O   UNL     1      -9.509   8.553  68.155  1.00  0.00    -0.139 OA 
HETATM   12  H1  UNL     1      -7.499  11.962  67.261  1.00  0.00     0.000 HD 
HETATM   13  H2  UNL     1      -8.405  11.853  65.833  1.00  0.00     0.000 HD 
BRANCH   9  14
HETATM   14  O   UNL     1     -10.384  10.752  67.848  1.00  0.00    -0.172 OA 
BRANCH  14  15
HETATM   15  C   UNL     1     -10.638  11.841  68.832  1.00  0.00    -0.180 C  
HETATM   16  C   UNL     1     -11.992  11.732  69.586  1.00  0.00    -0.312 C  
HETATM   17  N   UNL     1     -11.950  10.634  70.573  1.00  0.00    -0.321 NA 
HETATM   18  C   UNL     1     -12.339  13.023  70.358  1.00  0.00    -0.351 C  
HETATM   19  H2  UNL     1     -11.165  10.732  71.217  1.00  0.00     0.000 HD 
HETATM   20  H1  UNL     1     -12.838  10.563  71.068  1.00  0.00     0.000 HD 
HETATM   21  C   UNL     1     -12.345  14.270  69.461  1.00  0.00    -0.230 C  
HETATM   22  N   UNL     1     -12.878  15.426  70.190  1.00  0.00    -0.654 NA 
HETATM   23  C   UNL     1     -10.932  14.567  68.922  1.00  0.00    -0.256 C  
HETATM   24  C   UNL     1     -10.372  13.270  68.258  1.00  0.00    -0.249 C  
HETATM   25  O   UNL     1      -8.953  13.434  68.028  1.00  0.00    -0.176 OA 
HETATM   26  H1  UNL     1     -12.882  16.254  69.595  1.00  0.00     0.000 HD 
HETATM   27  H2  UNL     1     -12.375  15.588  71.063  1.00  0.00     0.000 HD 
HETATM   28  H   UNL     1      -8.791  14.303  67.679  1.00  0.00     0.000 HD 
BRANCH  23  29
HETATM   29  O   UNL     1     -11.005  15.563  67.861  1.00  0.00    -0.297 OA 
BRANCH  29  30
HETATM   30  C   UNL     1     -10.205  16.762  67.870  1.00  0.00    -0.300 C  
HETATM   31  O   UNL     1     -10.907  17.971  68.172  1.00  0.00    -0.303 OA 
HETATM   32  C   UNL     1     -10.018  19.090  68.305  1.00  0.00    -0.394 C  
HETATM   33  C   UNL     1      -9.242  19.416  67.001  1.00  0.00    -0.318 C  
HETATM   34  C   UNL     1      -8.428  18.159  66.586  1.00  0.00    -0.264 C  
HETATM   35  O   UNL     1     -10.187  19.744  65.970  1.00  0.00    -0.462 OA 
HETATM   36  C   UNL     1      -8.355  20.646  67.246  1.00  0.00    -0.305 C  
HETATM   37  H   UNL     1      -7.966  15.817  65.557  1.00  0.00     0.000 HD 
HETATM   38  H   UNL     1      -9.712  19.943  65.173  1.00  0.00     0.000 HD 
HETATM   39  C   UNL     1      -9.344  16.888  66.556  1.00  0.00    -0.270 C  
HETATM   40  O   UNL     1      -8.485  15.741  66.349  1.00  0.00    -0.286 OA 
BRANCH  34  41
HETATM   41  N   UNL     1      -7.516  18.233  65.403  1.00  0.00    -0.353 NA 
HETATM   42  C   UNL     1      -6.085  18.195  65.648  1.00  0.00    -0.230 C  
HETATM   43  H   UNL     1      -7.888  18.308  64.456  1.00  0.00     0.000 HD 
ENDBRANCH  34  41
ENDBRANCH  29  30
ENDBRANCH  23  29
ENDBRANCH  14  15
ENDBRANCH   9  14
ENDBRANCH   4   5
ENDBRANCH   2   4
TORSDOF 7
ENDMDL
MODEL       45
REMARK 921   NORMALIZED FREE ENERGY PREDICTED BY IDOCK:   -6.07 KCAL/MOL
REMARK 922        TOTAL FREE ENERGY PREDICTED BY IDOCK:  -10.27 KCAL/MOL
REMARK 923 INTER-LIGAND FREE ENERGY PREDICTED BY IDOCK:   -9.17 KCAL/MOL
REMARK 924 INTRA-LIGAND FREE ENERGY PREDICTED BY IDOCK:   -1.10 KCAL/MOL
REMARK 927      BINDING AFFINITY PREDICTED BY RF-SCORE:    0.00 PKD
ROOT
HETATM    1  C   UNL     1     -12.391  12.134  63.702  1.00  0.00    -0.568 C  
HETATM    2  N   UNL     1     -12.962  12.723  64.904  1.00  0.00    -0.853 NA 
HETATM    3  H   UNL     1     -12.730  12.163  65.723  1.00  0.00     0.000 HD 
ENDROOT
BRANCH   2   4
HETATM    4  C   UNL     1     -12.586  14.129  65.115  1.00  0.00    -0.408 C  
BRANCH   4   5
HETATM    5  C   UNL     1     -11.758  14.424  66.395  1.00  0.00    -0.386 C  
HETATM    6  C   UNL     1     -10.698  15.495  66.209  1.00  0.00    -0.307 C  
HETATM    7  C   UNL     1      -9.990  15.732  67.542  1.00  0.00    -0.236 C  
HETATM    8  C   UNL     1      -9.572  14.419  68.239  1.00  0.00    -0.211 C  
HETATM    9  C   UNL     1     -10.655  13.251  68.150  1.00  0.00    -0.249 C  
HETATM   10  N   UNL     1      -9.038  14.733  69.584  1.00  0.00    -0.422 NA 
HETATM   11  O   UNL     1     -11.104  13.199  66.800  1.00  0.00    -0.278 OA 
HETATM   12  H1  UNL     1      -8.762  13.866  70.044  1.00  0.00     0.000 HD 
HETATM   13  H2  UNL     1      -9.694  15.278  70.145  1.00  0.00     0.000 HD 
BRANCH   9  14
HETATM   14  O   UNL     1     -11.749  13.312  69.095  1.00  0.00    -0.289 OA 
BRANCH  14  15
HETATM   15  C   UNL     1     -12.268  12.044  69.677  1.00  0.00    -0.139 C  
HETATM   16  C   UNL     1     -12.453  12.064  71.219  1.00  0.00    -0.198 C  
HETATM   17  N   UNL     1     -13.617  12.896  71.591  1.00  0.00    -0.166 NA 
HETATM   18  C   UNL     1     -12.698  10.655  71.799  1.00  0.00    -0.489 C  
HETATM   19  H2  UNL     1     -14.465  12.596  71.112  1.00  0.00     0.000 HD 
HETATM   20  H1  UNL     1     -13.738  12.909  72.603  1.00  0.00     0.000 HD 
HETATM   21  C   UNL     1     -11.593   9.656  71.425  1.00  0.00    -0.400 C  
HETATM   22  N   UNL     1     -11.762   8.401  72.165  1.00  0.00    -0.349 NA 
HETATM   23  C   UNL     1     -11.577   9.399  69.906  1.00  0.00     0.064 C  
HETATM   24  C   UNL     1     -11.510  10.774  69.170  1.00  0.00    -0.298 C  
HETATM   25  O   UNL     1     -11.804  10.573  67.768  1.00  0.00    -0.679 OA 
HETATM   26  H1  UNL     1     -11.029   7.737  71.916  1.00  0.00     0.000 HD 
HETATM   27  H2  UNL     1     -12.693   8.005  72.031  1.00  0.00     0.000 HD 
HETATM   28  H   UNL     1     -11.343   9.801  67.460  1.00  0.00     0.000 HD 
BRANCH  23  29
HETATM   29  O   UNL     1     -10.360   8.686  69.537  1.00  0.00    -0.206 OA 
BRANCH  29  30
HETATM   30  C   UNL     1     -10.365   7.297  69.148  1.00  0.00    -0.205 C  
HETATM   31  O   UNL     1      -9.717   6.401  70.055  1.00  0.00    -0.163 OA 
HETATM   32  C   UNL     1      -9.894   5.028  69.671  1.00  0.00    -0.220 C  
HETATM   33  C   UNL     1      -9.270   4.692  68.291  1.00  0.00    -0.128 C  
HETATM   34  C   UNL     1      -9.918   5.613  67.220  1.00  0.00    -0.159 C  
HETATM   35  O   UNL     1      -7.856   4.939  68.350  1.00  0.00    -0.081 OA 
HETATM   36  C   UNL     1      -9.484   3.199  68.000  1.00  0.00    -0.218 C  
HETATM   37  H   UNL     1     -10.337   7.768  65.827  1.00  0.00     0.000 HD 
HETATM   38  H   UNL     1      -7.475   4.733  67.505  1.00  0.00     0.000 HD 
HETATM   39  C   UNL     1      -9.859   7.113  67.668  1.00  0.00    -0.147 C  
HETATM   40  O   UNL     1     -10.642   7.878  66.720  1.00  0.00    -0.326 OA 
BRANCH  34  41
HETATM   41  N   UNL     1      -9.557   5.432  65.781  1.00  0.00    -0.312 NA 
HETATM   42  C   UNL     1      -8.278   5.956  65.333  1.00  0.00    -0.139 C  
HETATM   43  H   UNL     1     -10.188   4.957  65.135  1.00  0.00     0.000 HD 
ENDBRANCH  34  41
ENDBRANCH  29  30
ENDBRANCH  23  29
ENDBRANCH  14  15
ENDBRANCH   9  14
ENDBRANCH   4   5
ENDBRANCH   2   4
TORSDOF 7
ENDMDL
MODEL       46
REMARK 921   NORMALIZED FREE ENERGY PREDICTED BY IDOCK:   -6.06 KCAL/MOL
REMARK 922        TOTAL FREE ENERGY PREDICTED BY IDOCK:  -10.25 KCAL/MOL
REMARK 923 INTER-LIGAND FREE ENERGY PREDICTED BY IDOCK:   -8.13 KCAL/MOL
REMARK 924 INTRA-LIGAND FREE ENERGY PREDICTED BY IDOCK:   -2.12 KCAL/MOL
REMARK 927      BINDING AFFINITY PREDICTED BY RF-SCORE:    0.00 PKD
ROOT
HETATM    1  C   UNL     1     -12.743  15.341  70.741  1.00  0.00    -0.433 C  
HETATM    2  N   UNL     1     -11.658  14.888  69.884  1.00  0.00    -0.272 NA 
HETATM    3  H   UNL     1     -11.796  13.913  69.617  1.00  0.00     0.000 HD 
ENDROOT
BRANCH   2   4
HETATM    4  C   UNL     1     -11.450  15.725  68.694  1.00  0.00    -0.386 C  
BRANCH   4   5
HETATM    5  C   UNL     1     -10.917  14.992  67.433  1.00  0.00    -0.315 C  
HETATM    6  C   UNL     1     -10.696  15.903  66.239  1.00  0.00    -0.261 C  
HETATM    7  C   UNL     1     -10.125  15.080  65.084  1.00  0.00    -0.350 C  
HETATM    8  C   UNL     1     -10.896  13.763  64.851  1.00  0.00    -0.391 C  
HETATM    9  C   UNL     1     -11.323  13.003  66.187  1.00  0.00    -0.314 C  
HETATM   10  N   UNL     1     -10.187  12.962  63.826  1.00  0.00    -0.684 NA 
HETATM   11  O   UNL     1     -11.880  13.978  67.063  1.00  0.00    -0.383 OA 
HETATM   12  H1  UNL     1     -10.696  12.092  63.672  1.00  0.00     0.000 HD 
HETATM   13  H2  UNL     1      -9.208  12.802  64.066  1.00  0.00     0.000 HD 
BRANCH   9  14
HETATM   14  O   UNL     1     -10.303  12.202  66.829  1.00  0.00    -0.211 OA 
BRANCH  14  15
HETATM   15  C   UNL     1     -10.712  10.979  67.574  1.00  0.00    -0.244 C  
HETATM   16  C   UNL     1     -10.780  11.149  69.116  1.00  0.00    -0.221 C  
HETATM   17  N   UNL     1     -11.951  11.965  69.497  1.00  0.00    -0.306 NA 
HETATM   18  C   UNL     1     -10.909   9.799  69.850  1.00  0.00    -0.306 C  
HETATM   19  H2  UNL     1     -12.818  11.583  69.120  1.00  0.00     0.000 HD 
HETATM   20  H1  UNL     1     -11.996  12.077  70.509  1.00  0.00     0.000 HD 
HETATM   21  C   UNL     1      -9.788   8.813  69.488  1.00  0.00    -0.180 C  
HETATM   22  N   UNL     1      -9.838   7.634  70.360  1.00  0.00    -0.183 NA 
HETATM   23  C   UNL     1      -9.875   8.403  68.006  1.00  0.00    -0.169 C  
HETATM   24  C   UNL     1      -9.933   9.697  67.135  1.00  0.00    -0.194 C  
HETATM   25  O   UNL     1     -10.323   9.341  65.788  1.00  0.00    -0.268 OA 
HETATM   26  H1  UNL     1      -9.093   6.980  70.119  1.00  0.00     0.000 HD 
HETATM   27  H2  UNL     1     -10.755   7.188  70.342  1.00  0.00     0.000 HD 
HETATM   28  H   UNL     1      -9.849   8.561  65.521  1.00  0.00     0.000 HD 
BRANCH  23  29
HETATM   29  O   UNL     1      -8.657   7.707  67.611  1.00  0.00    -0.116 OA 
BRANCH  29  30
HETATM   30  C   UNL     1      -8.676   6.496  66.828  1.00  0.00    -0.123 C  
HETATM   31  O   UNL     1      -9.114   6.644  65.475  1.00  0.00     0.012 OA 
HETATM   32  C   UNL     1      -8.964   5.427  64.727  1.00  0.00     0.043 C  
HETATM   33  C   UNL     1      -9.819   4.257  65.280  1.00  0.00    -0.207 C  
HETATM   34  C   UNL     1      -9.411   4.004  66.758  1.00  0.00    -0.199 C  
HETATM   35  O   UNL     1     -11.206   4.627  65.216  1.00  0.00    -0.916 OA 
HETATM   36  C   UNL     1      -9.611   3.024  64.387  1.00  0.00    -0.150 C  
HETATM   37  H   UNL     1      -9.331   4.362  69.332  1.00  0.00     0.000 HD 
HETATM   38  H   UNL     1     -11.729   3.910  65.555  1.00  0.00     0.000 HD 
HETATM   39  C   UNL     1      -9.438   5.340  67.578  1.00  0.00    -0.125 C  
HETATM   40  O   UNL     1      -8.870   5.059  68.880  1.00  0.00    -0.092 OA 
BRANCH  34  41
HETATM   41  N   UNL     1     -10.025   2.864  67.504  1.00  0.00    -0.025 NA 
HETATM   42  C   UNL     1      -9.176   1.730  67.826  1.00  0.00    -0.156 C  
HETATM   43  H   UNL     1     -11.008   2.882  67.778  1.00  0.00     0.000 HD 
ENDBRANCH  34  41
ENDBRANCH  29  30
ENDBRANCH  23  29
ENDBRANCH  14  15
ENDBRANCH   9  14
ENDBRANCH   4   5
ENDBRANCH   2   4
TORSDOF 7
ENDMDL
MODEL       47
REMARK 921   NORMALIZED FREE ENERGY PREDICTED BY IDOCK:   -6.06 KCAL/MOL
REMARK 922        TOTAL FREE ENERGY PREDICTED BY IDOCK:  -10.24 KCAL/MOL
REMARK 923 INTER-LIGAND FREE ENERGY PREDICTED BY IDOCK:   -8.98 KCAL/MOL
REMARK 924 INTRA-LIGAND FREE ENERGY PREDICTED BY IDOCK:   -1.26 KCAL/MOL
REMARK 927      BINDING AFFINITY PREDICTED BY RF-SCORE:    0.00 PKD
ROOT
HETATM    1  C   UNL     1      -8.836   7.689  66.707  1.00  0.00    -0.136 C  
HETATM    2  N   UNL     1      -9.801   6.929  65.927  1.00  0.00    -0.263 NA 
HETATM    3  H   UNL     1      -9.436   6.738  64.994  1.00  0.00     0.000 HD 
ENDROOT
BRANCH   2   4
HETATM    4  C   UNL     1     -10.243   5.685  66.574  1.00  0.00    -0.211 C  
BRANCH   4   5
HETATM    5  C   UNL     1      -9.925   5.558  68.088  1.00  0.00    -0.153 C  
HETATM    6  C   UNL     1      -9.484   4.168  68.509  1.00  0.00    -0.216 C  
HETATM    7  C   UNL     1      -9.152   4.181  70.001  1.00  0.00    -0.182 C  
HETATM    8  C   UNL     1     -10.238   4.878  70.849  1.00  0.00    -0.202 C  
HETATM    9  C   UNL     1     -10.839   6.202  70.192  1.00  0.00    -0.329 C  
HETATM   10  N   UNL     1      -9.766   4.984  72.249  1.00  0.00    -0.154 NA 
HETATM   11  O   UNL     1     -11.120   5.901  68.828  1.00  0.00    -0.297 OA 
HETATM   12  H1  UNL     1     -10.484   5.445  72.808  1.00  0.00     0.000 HD 
HETATM   13  H2  UNL     1      -8.861   5.450  72.320  1.00  0.00     0.000 HD 
BRANCH   9  14
HETATM   14  O   UNL     1     -10.057   7.410  70.341  1.00  0.00    -0.191 OA 
BRANCH  14  15
HETATM   15  C   UNL     1     -10.622   8.539  71.132  1.00  0.00    -0.220 C  
HETATM   16  C   UNL     1     -11.798   8.152  72.069  1.00  0.00    -0.338 C  
HETATM   17  N   UNL     1     -11.306   7.379  73.228  1.00  0.00    -0.589 NA 
HETATM   18  C   UNL     1     -12.535   9.388  72.627  1.00  0.00     0.037 C  
HETATM   19  H2  UNL     1     -10.569   7.876  73.729  1.00  0.00     0.000 HD 
HETATM   20  H1  UNL     1     -12.078   7.125  73.843  1.00  0.00     0.000 HD 
HETATM   21  C   UNL     1     -13.041  10.329  71.524  1.00  0.00    -0.433 C  
HETATM   22  N   UNL     1     -13.905  11.369  72.092  1.00  0.00    -0.167 NA 
HETATM   23  C   UNL     1     -11.864  10.956  70.753  1.00  0.00    -0.319 C  
HETATM   24  C   UNL     1     -10.920   9.810  70.271  1.00  0.00    -0.298 C  
HETATM   25  O   UNL     1      -9.670  10.385  69.824  1.00  0.00    -0.378 OA 
HETATM   26  H1  UNL     1     -14.242  11.994  71.360  1.00  0.00     0.000 HD 
HETATM   27  H2  UNL     1     -13.440  11.880  72.842  1.00  0.00     0.000 HD 
HETATM   28  H   UNL     1      -9.850  11.158  69.301  1.00  0.00     0.000 HD 
BRANCH  23  29
HETATM   29  O   UNL     1     -12.353  11.608  69.545  1.00  0.00    -0.211 OA 
BRANCH  29  30
HETATM   30  C   UNL     1     -11.943  12.937  69.164  1.00  0.00    -0.259 C  
HETATM   31  O   UNL     1     -10.708  13.021  68.448  1.00  0.00    -0.241 OA 
HETATM   32  C   UNL     1     -10.448  14.354  67.980  1.00  0.00    -0.237 C  
HETATM   33  C   UNL     1     -10.296  15.388  69.126  1.00  0.00    -0.240 C  
HETATM   34  C   UNL     1     -11.602  15.385  69.968  1.00  0.00    -0.321 C  
HETATM   35  O   UNL     1      -9.185  15.003  69.952  1.00  0.00    -0.460 OA 
HETATM   36  C   UNL     1      -9.984  16.763  68.516  1.00  0.00    -0.271 C  
HETATM   37  H   UNL     1     -13.327  14.582  71.739  1.00  0.00     0.000 HD 
HETATM   38  H   UNL     1      -9.093  15.637  70.654  1.00  0.00     0.000 HD 
HETATM   39  C   UNL     1     -11.988  13.926  70.389  1.00  0.00    -0.323 C  
HETATM   40  O   UNL     1     -13.300  13.986  71.000  1.00  0.00    -0.283 OA 
BRANCH  34  41
HETATM   41  N   UNL     1     -11.754  16.362  71.090  1.00  0.00    -0.620 NA 
HETATM   42  C   UNL     1     -11.765  15.840  72.445  1.00  0.00    -0.474 C  
HETATM   43  H   UNL     1     -11.846  17.362  70.908  1.00  0.00     0.000 HD 
ENDBRANCH  34  41
ENDBRANCH  29  30
ENDBRANCH  23  29
ENDBRANCH  14  15
ENDBRANCH   9  14
ENDBRANCH   4   5
ENDBRANCH   2   4
TORSDOF 7
ENDMDL
MODEL       48
REMARK 921   NORMALIZED FREE ENERGY PREDICTED BY IDOCK:   -6.02 KCAL/MOL
REMARK 922        TOTAL FREE ENERGY PREDICTED BY IDOCK:  -10.19 KCAL/MOL
REMARK 923 INTER-LIGAND FREE ENERGY PREDICTED BY IDOCK:   -8.50 KCAL/MOL
REMARK 924 INTRA-LIGAND FREE ENERGY PREDICTED BY IDOCK:   -1.69 KCAL/MOL
REMARK 927      BINDING AFFINITY PREDICTED BY RF-SCORE:    0.00 PKD
ROOT
HETATM    1  C   UNL     1     -11.605   6.382  70.547  1.00  0.00    -0.358 C  
HETATM    2  N   UNL     1     -11.339   7.225  69.391  1.00  0.00    -0.476 NA 
HETATM    3  H   UNL     1     -11.305   8.207  69.664  1.00  0.00     0.000 HD 
ENDROOT
BRANCH   2   4
HETATM    4  C   UNL     1     -10.126   6.853  68.648  1.00  0.00    -0.162 C  
BRANCH   4   5
HETATM    5  C   UNL     1      -8.925   7.829  68.778  1.00  0.00    -0.141 C  
HETATM    6  C   UNL     1      -7.638   7.163  69.231  1.00  0.00    -0.102 C  
HETATM    7  C   UNL     1      -6.523   8.208  69.271  1.00  0.00    -0.039 C  
HETATM    8  C   UNL     1      -6.950   9.508  69.985  1.00  0.00    -0.081 C  
HETATM    9  C   UNL     1      -8.433   9.991  69.649  1.00  0.00    -0.180 C  
HETATM   10  N   UNL     1      -5.872  10.515  69.842  1.00  0.00    -0.051 NA 
HETATM   11  O   UNL     1      -9.276   8.846  69.744  1.00  0.00    -0.156 OA 
HETATM   12  H1  UNL     1      -6.154  11.374  70.314  1.00  0.00     0.000 HD 
HETATM   13  H2  UNL     1      -5.617  10.675  68.867  1.00  0.00     0.000 HD 
BRANCH   9  14
HETATM   14  O   UNL     1      -8.612  10.707  68.405  1.00  0.00    -0.122 OA 
BRANCH  14  15
HETATM   15  C   UNL     1      -9.787  11.611  68.259  1.00  0.00    -0.199 C  
HETATM   16  C   UNL     1     -10.907  11.077  67.325  1.00  0.00    -0.281 C  
HETATM   17  N   UNL     1     -11.639   9.970  67.975  1.00  0.00    -0.621 NA 
HETATM   18  C   UNL     1     -11.945  12.162  66.972  1.00  0.00    -0.156 C  
HETATM   19  H2  UNL     1     -12.005  10.241  68.887  1.00  0.00     0.000 HD 
HETATM   20  H1  UNL     1     -12.374   9.619  67.361  1.00  0.00     0.000 HD 
HETATM   21  C   UNL     1     -11.309  13.416  66.352  1.00  0.00    -0.313 C  
HETATM   22  N   UNL     1     -12.346  14.323  65.848  1.00  0.00    -0.425 NA 
HETATM   23  C   UNL     1     -10.401  14.133  67.369  1.00  0.00    -0.256 C  
HETATM   24  C   UNL     1      -9.394  13.094  67.954  1.00  0.00    -0.215 C  
HETATM   25  O   UNL     1      -8.751  13.664  69.118  1.00  0.00    -0.341 OA 
HETATM   26  H1  UNL     1     -11.924  15.155  65.436  1.00  0.00     0.000 HD 
HETATM   27  H2  UNL     1     -13.025  14.561  66.571  1.00  0.00     0.000 HD 
HETATM   28  H   UNL     1      -8.512  14.565  68.933  1.00  0.00     0.000 HD 
BRANCH  23  29
HETATM   29  O   UNL     1      -9.593  15.138  66.691  1.00  0.00    -0.228 OA 
BRANCH  29  30
HETATM   30  C   UNL     1      -9.774  16.552  66.908  1.00  0.00    -0.251 C  
HETATM   31  O   UNL     1     -10.141  17.311  65.753  1.00  0.00    -0.533 OA 
HETATM   32  C   UNL     1     -10.444  18.676  66.083  1.00  0.00    -0.430 C  
HETATM   33  C   UNL     1      -9.236  19.446  66.678  1.00  0.00    -0.342 C  
HETATM   34  C   UNL     1      -8.760  18.703  67.956  1.00  0.00    -0.303 C  
HETATM   35  O   UNL     1      -8.178  19.468  65.707  1.00  0.00    -0.427 OA 
HETATM   36  C   UNL     1      -9.661  20.897  66.956  1.00  0.00    -0.289 C  
HETATM   37  H   UNL     1      -7.544  16.906  69.389  1.00  0.00     0.000 HD 
HETATM   38  H   UNL     1      -7.438  19.940  66.072  1.00  0.00     0.000 HD 
HETATM   39  C   UNL     1      -8.543  17.179  67.665  1.00  0.00    -0.212 C  
HETATM   40  O   UNL     1      -8.287  16.528  68.933  1.00  0.00    -0.235 OA 
BRANCH  34  41
HETATM   41  N   UNL     1      -7.657  19.290  68.778  1.00  0.00    -0.350 NA 
HETATM   42  C   UNL     1      -6.295  19.117  68.305  1.00  0.00    -0.229 C  
HETATM   43  H   UNL     1      -7.856  19.794  69.642  1.00  0.00     0.000 HD 
ENDBRANCH  34  41
ENDBRANCH  29  30
ENDBRANCH  23  29
ENDBRANCH  14  15
ENDBRANCH   9  14
ENDBRANCH   4   5
ENDBRANCH   2   4
TORSDOF 7
ENDMDL
MODEL       49
REMARK 921   NORMALIZED FREE ENERGY PREDICTED BY IDOCK:   -6.01 KCAL/MOL
REMARK 922        TOTAL FREE ENERGY PREDICTED BY IDOCK:  -10.18 KCAL/MOL
REMARK 923 INTER-LIGAND FREE ENERGY PREDICTED BY IDOCK:   -9.46 KCAL/MOL
REMARK 924 INTRA-LIGAND FREE ENERGY PREDICTED BY IDOCK:   -0.72 KCAL/MOL
REMARK 927      BINDING AFFINITY PREDICTED BY RF-SCORE:    0.00 PKD
ROOT
HETATM    1  C   UNL     1      -6.687   6.847  72.842  1.00  0.00    -0.069 C  
HETATM    2  N   UNL     1      -7.554   7.870  72.278  1.00  0.00    -0.091 NA 
HETATM    3  H   UNL     1      -7.307   8.053  71.306  1.00  0.00     0.000 HD 
ENDROOT
BRANCH   2   4
HETATM    4  C   UNL     1      -8.988   7.568  72.400  1.00  0.00    -0.135 C  
BRANCH   4   5
HETATM    5  C   UNL     1      -9.781   7.495  71.067  1.00  0.00    -0.167 C  
HETATM    6  C   UNL     1     -10.761   6.338  70.997  1.00  0.00    -0.313 C  
HETATM    7  C   UNL     1     -11.513   6.402  69.668  1.00  0.00    -0.446 C  
HETATM    8  C   UNL     1     -10.576   6.624  68.461  1.00  0.00    -0.233 C  
HETATM    9  C   UNL     1      -9.403   7.673  68.721  1.00  0.00    -0.148 C  
HETATM   10  N   UNL     1     -11.395   6.829  67.244  1.00  0.00    -0.753 NA 
HETATM   11  O   UNL     1      -8.830   7.354  69.986  1.00  0.00    -0.140 OA 
HETATM   12  H1  UNL     1     -10.776   6.976  66.447  1.00  0.00     0.000 HD 
HETATM   13  H2  UNL     1     -12.073   7.584  67.353  1.00  0.00     0.000 HD 
BRANCH   9  14
HETATM   14  O   UNL     1      -9.751   9.073  68.610  1.00  0.00    -0.154 OA 
BRANCH  14  15
HETATM   15  C   UNL     1     -10.265   9.585  67.310  1.00  0.00    -0.234 C  
HETATM   16  C   UNL     1      -9.231   9.571  66.151  1.00  0.00    -0.177 C  
HETATM   17  N   UNL     1      -8.986   8.188  65.691  1.00  0.00    -0.344 NA 
HETATM   18  C   UNL     1      -9.710  10.379  64.927  1.00  0.00    -0.372 C  
HETATM   19  H2  UNL     1      -9.853   7.717  65.431  1.00  0.00     0.000 HD 
HETATM   20  H1  UNL     1      -8.307   8.179  64.930  1.00  0.00     0.000 HD 
HETATM   21  C   UNL     1     -10.074  11.830  65.276  1.00  0.00    -0.262 C  
HETATM   22  N   UNL     1     -10.322  12.606  64.056  1.00  0.00    -0.468 NA 
HETATM   23  C   UNL     1     -11.296  11.879  66.214  1.00  0.00    -0.334 C  
HETATM   24  C   UNL     1     -11.021  10.948  67.436  1.00  0.00    -0.293 C  
HETATM   25  O   UNL     1     -12.258  10.740  68.157  1.00  0.00    -0.765 OA 
HETATM   26  H1  UNL     1     -10.564  13.569  64.288  1.00  0.00     0.000 HD 
HETATM   27  H2  UNL     1     -11.029  12.169  63.466  1.00  0.00     0.000 HD 
HETATM   28  H   UNL     1     -12.718  11.568  68.234  1.00  0.00     0.000 HD 
BRANCH  23  29
HETATM   29  O   UNL     1     -11.449  13.222  66.758  1.00  0.00    -0.320 OA 
BRANCH  29  30
HETATM   30  C   UNL     1     -10.321  14.039  67.131  1.00  0.00    -0.265 C  
HETATM   31  O   UNL     1     -10.044  14.107  68.533  1.00  0.00    -0.235 OA 
HETATM   32  C   UNL     1      -8.826  14.816  68.806  1.00  0.00    -0.179 C  
HETATM   33  C   UNL     1      -8.864  16.299  68.353  1.00  0.00    -0.202 C  
HETATM   34  C   UNL     1      -9.151  16.340  66.826  1.00  0.00    -0.232 C  
HETATM   35  O   UNL     1      -9.917  16.973  69.062  1.00  0.00    -0.274 OA 
HETATM   36  C   UNL     1      -7.532  16.967  68.726  1.00  0.00    -0.237 C  
HETATM   37  H   UNL     1     -10.543  16.265  64.631  1.00  0.00     0.000 HD 
HETATM   38  H   UNL     1      -9.940  17.881  68.784  1.00  0.00     0.000 HD 
HETATM   39  C   UNL     1     -10.404  15.467  66.473  1.00  0.00    -0.288 C  
HETATM   40  O   UNL     1     -10.492  15.404  65.028  1.00  0.00    -0.406 OA 
BRANCH  34  41
HETATM   41  N   UNL     1      -9.152  17.655  66.115  1.00  0.00    -0.496 NA 
HETATM   42  C   UNL     1     -10.342  18.481  66.220  1.00  0.00    -0.427 C  
HETATM   43  H   UNL     1      -8.344  17.961  65.573  1.00  0.00     0.000 HD 
ENDBRANCH  34  41
ENDBRANCH  29  30
ENDBRANCH  23  29
ENDBRANCH  14  15
ENDBRANCH   9  14
ENDBRANCH   4   5
ENDBRANCH   2   4
TORSDOF 7
ENDMDL
MODEL       50
REMARK 921   NORMALIZED FREE ENERGY PREDICTED BY IDOCK:   -6.00 KCAL/MOL
REMARK 922        TOTAL FREE ENERGY PREDICTED BY IDOCK:  -10.16 KCAL/MOL
REMARK 923 INTER-LIGAND FREE ENERGY PREDICTED BY IDOCK:   -8.49 KCAL/MOL
REMARK 924 INTRA-LIGAND FREE ENERGY PREDICTED BY IDOCK:   -1.67 KCAL/MOL
REMARK 927      BINDING AFFINITY PREDICTED BY RF-SCORE:    0.00 PKD
ROOT
HETATM    1  C   UNL     1      -7.938   4.251  73.322  1.00  0.00    -0.090 C  
HETATM    2  N   UNL     1      -9.247   4.733  72.908  1.00  0.00    -0.124 NA 
HETATM    3  H   UNL     1      -9.195   5.711  72.622  1.00  0.00     0.000 HD 
ENDROOT
BRANCH   2   4
HETATM    4  C   UNL     1      -9.876   3.920  71.856  1.00  0.00    -0.178 C  
BRANCH   4   5
HETATM    5  C   UNL     1      -9.915   4.555  70.440  1.00  0.00    -0.213 C  
HETATM    6  C   UNL     1      -9.418   3.635  69.339  1.00  0.00    -0.249 C  
HETATM    7  C   UNL     1      -9.553   4.350  67.994  1.00  0.00    -0.204 C  
HETATM    8  C   UNL     1      -9.004   5.793  68.027  1.00  0.00    -0.111 C  
HETATM    9  C   UNL     1      -9.355   6.602  69.356  1.00  0.00    -0.147 C  
HETATM   10  N   UNL     1      -9.314   6.458  66.740  1.00  0.00    -0.143 NA 
HETATM   11  O   UNL     1      -9.082   5.738  70.456  1.00  0.00    -0.143 OA 
HETATM   12  H1  UNL     1      -8.952   7.411  66.762  1.00  0.00     0.000 HD 
HETATM   13  H2  UNL     1     -10.309   6.426  66.516  1.00  0.00     0.000 HD 
BRANCH   9  14
HETATM   14  O   UNL     1     -10.677   7.186  69.427  1.00  0.00    -0.231 OA 
BRANCH  14  15
HETATM   15  C   UNL     1     -10.919   8.305  70.379  1.00  0.00    -0.239 C  
HETATM   16  C   UNL     1     -11.964   8.003  71.488  1.00  0.00    -0.297 C  
HETATM   17  N   UNL     1     -11.406   7.066  72.484  1.00  0.00    -0.310 NA 
HETATM   18  C   UNL     1     -12.395   9.273  72.249  1.00  0.00    -0.344 C  
HETATM   19  H2  UNL     1     -10.528   7.407  72.875  1.00  0.00     0.000 HD 
HETATM   20  H1  UNL     1     -12.092   6.868  73.212  1.00  0.00     0.000 HD 
HETATM   21  C   UNL     1     -12.931  10.373  71.320  1.00  0.00    -0.419 C  
HETATM   22  N   UNL     1     -13.515  11.468  72.102  1.00  0.00    -0.523 NA 
HETATM   23  C   UNL     1     -11.820  10.897  70.391  1.00  0.00    -0.357 C  
HETATM   24  C   UNL     1     -11.159   9.679  69.671  1.00  0.00    -0.193 C  
HETATM   25  O   UNL     1      -9.930  10.112  69.043  1.00  0.00    -0.186 OA 
HETATM   26  H1  UNL     1     -13.871  12.198  71.486  1.00  0.00     0.000 HD 
HETATM   27  H2  UNL     1     -12.856  11.838  72.787  1.00  0.00     0.000 HD 
HETATM   28  H   UNL     1     -10.076  10.947  68.613  1.00  0.00     0.000 HD 
BRANCH  23  29
HETATM   29  O   UNL     1     -12.401  11.719  69.337  1.00  0.00    -0.189 OA 
BRANCH  29  30
HETATM   30  C   UNL     1     -11.917  13.043  69.033  1.00  0.00    -0.267 C  
HETATM   31  O   UNL     1     -10.602  13.107  68.475  1.00  0.00    -0.250 OA 
HETATM   32  C   UNL     1     -10.256  14.440  68.067  1.00  0.00    -0.228 C  
HETATM   33  C   UNL     1     -10.221  15.451  69.243  1.00  0.00    -0.250 C  
HETATM   34  C   UNL     1     -11.619  15.468  69.920  1.00  0.00    -0.335 C  
HETATM   35  O   UNL     1      -9.229  15.026  70.190  1.00  0.00    -0.397 OA 
HETATM   36  C   UNL     1      -9.806  16.828  68.701  1.00  0.00    -0.261 C  
HETATM   37  H   UNL     1     -13.566  14.680  71.453  1.00  0.00     0.000 HD 
HETATM   38  H   UNL     1      -9.207  15.645  70.909  1.00  0.00     0.000 HD 
HETATM   39  C   UNL     1     -12.088  14.013  70.263  1.00  0.00    -0.355 C  
HETATM   40  O   UNL     1     -13.463  14.096  70.712  1.00  0.00    -0.208 OA 
BRANCH  34  41
HETATM   41  N   UNL     1     -11.884  16.430  71.033  1.00  0.00    -0.566 NA 
HETATM   42  C   UNL     1     -11.752  15.943  72.395  1.00  0.00    -0.477 C  
HETATM   43  H   UNL     1     -12.149  17.397  70.842  1.00  0.00     0.000 HD 
ENDBRANCH  34  41
ENDBRANCH  29  30
ENDBRANCH  23  29
ENDBRANCH  14  15
ENDBRANCH   9  14
ENDBRANCH   4   5
ENDBRANCH   2   4
TORSDOF 7
ENDMDL
MODEL       51
REMARK 921   NORMALIZED FREE ENERGY PREDICTED BY IDOCK:   -5.99 KCAL/MOL
REMARK 922        TOTAL FREE ENERGY PREDICTED BY IDOCK:  -10.16 KCAL/MOL
REMARK 923 INTER-LIGAND FREE ENERGY PREDICTED BY IDOCK:   -8.76 KCAL/MOL
REMARK 924 INTRA-LIGAND FREE ENERGY PREDICTED BY IDOCK:   -1.39 KCAL/MOL
REMARK 927      BINDING AFFINITY PREDICTED BY RF-SCORE:    0.00 PKD
ROOT
HETATM    1  C   UNL     1     -10.685  19.358  67.168  1.00  0.00    -0.483 C  
HETATM    2  N   UNL     1     -10.762  18.323  68.188  1.00  0.00    -0.288 NA 
HETATM    3  H   UNL     1     -11.703  17.932  68.231  1.00  0.00     0.000 HD 
ENDROOT
BRANCH   2   4
HETATM    4  C   UNL     1      -9.764  17.255  68.028  1.00  0.00    -0.277 C  
BRANCH   4   5
HETATM    5  C   UNL     1     -10.291  15.916  67.444  1.00  0.00    -0.288 C  
HETATM    6  C   UNL     1     -10.365  15.893  65.928  1.00  0.00    -0.383 C  
HETATM    7  C   UNL     1     -10.846  14.515  65.474  1.00  0.00    -0.342 C  
HETATM    8  C   UNL     1     -12.079  14.023  66.261  1.00  0.00    -0.456 C  
HETATM    9  C   UNL     1     -12.030  14.333  67.825  1.00  0.00    -0.349 C  
HETATM   10  N   UNL     1     -12.379  12.627  65.868  1.00  0.00    -0.595 NA 
HETATM   11  O   UNL     1     -11.620  15.690  67.970  1.00  0.00    -0.332 OA 
HETATM   12  H1  UNL     1     -13.194  12.302  66.388  1.00  0.00     0.000 HD 
HETATM   13  H2  UNL     1     -11.575  12.009  65.981  1.00  0.00     0.000 HD 
BRANCH   9  14
HETATM   14  O   UNL     1     -11.247  13.429  68.639  1.00  0.00    -0.240 OA 
BRANCH  14  15
HETATM   15  C   UNL     1     -11.922  12.262  69.272  1.00  0.00    -0.253 C  
HETATM   16  C   UNL     1     -12.246  12.438  70.781  1.00  0.00    -0.242 C  
HETATM   17  N   UNL     1     -13.363  13.386  70.965  1.00  0.00    -0.034 NA 
HETATM   18  C   UNL     1     -12.661  11.111  71.450  1.00  0.00    -0.479 C  
HETATM   19  H2  UNL     1     -14.187  13.110  70.431  1.00  0.00     0.000 HD 
HETATM   20  H1  UNL     1     -13.575  13.501  71.956  1.00  0.00     0.000 HD 
HETATM   21  C   UNL     1     -11.614  10.000  71.271  1.00  0.00    -0.350 C  
HETATM   22  N   UNL     1     -11.956   8.834  72.094  1.00  0.00    -0.366 NA 
HETATM   23  C   UNL     1     -11.481   9.605  69.788  1.00  0.00    -0.052 C  
HETATM   24  C   UNL     1     -11.231  10.897  68.950  1.00  0.00    -0.267 C  
HETATM   25  O   UNL     1     -11.411  10.592  67.548  1.00  0.00    -0.497 OA 
HETATM   26  H1  UNL     1     -11.262   8.097  71.975  1.00  0.00     0.000 HD 
HETATM   27  H2  UNL     1     -12.901   8.500  71.902  1.00  0.00     0.000 HD 
HETATM   28  H   UNL     1     -10.991   9.762  67.352  1.00  0.00     0.000 HD 
BRANCH  23  29
HETATM   29  O   UNL     1     -10.301   8.770  69.602  1.00  0.00    -0.203 OA 
BRANCH  29  30
HETATM   30  C   UNL     1     -10.385   7.395  69.177  1.00  0.00    -0.208 C  
HETATM   31  O   UNL     1      -9.840   6.434  70.085  1.00  0.00    -0.165 OA 
HETATM   32  C   UNL     1     -10.095   5.087  69.658  1.00  0.00    -0.251 C  
HETATM   33  C   UNL     1      -9.436   4.741  68.296  1.00  0.00    -0.142 C  
HETATM   34  C   UNL     1      -9.972   5.729  67.224  1.00  0.00    -0.154 C  
HETATM   35  O   UNL     1      -8.012   4.886  68.421  1.00  0.00    -0.085 OA 
HETATM   36  C   UNL     1      -9.740   3.273  67.957  1.00  0.00    -0.030 C  
HETATM   37  H   UNL     1     -10.181   7.941  65.873  1.00  0.00     0.000 HD 
HETATM   38  H   UNL     1      -7.610   4.673  67.587  1.00  0.00     0.000 HD 
HETATM   39  C   UNL     1      -9.829   7.211  67.714  1.00  0.00    -0.145 C  
HETATM   40  O   UNL     1     -10.516   8.052  66.755  1.00  0.00    -0.330 OA 
BRANCH  34  41
HETATM   41  N   UNL     1      -9.562   5.558  65.797  1.00  0.00    -0.338 NA 
HETATM   42  C   UNL     1      -8.244   6.030  65.410  1.00  0.00    -0.141 C  
HETATM   43  H   UNL     1     -10.188   5.124  65.118  1.00  0.00     0.000 HD 
ENDBRANCH  34  41
ENDBRANCH  29  30
ENDBRANCH  23  29
ENDBRANCH  14  15
ENDBRANCH   9  14
ENDBRANCH   4   5
ENDBRANCH   2   4
TORSDOF 7
ENDMDL
MODEL       52
REMARK 921   NORMALIZED FREE ENERGY PREDICTED BY IDOCK:   -5.98 KCAL/MOL
REMARK 922        TOTAL FREE ENERGY PREDICTED BY IDOCK:  -10.14 KCAL/MOL
REMARK 923 INTER-LIGAND FREE ENERGY PREDICTED BY IDOCK:   -8.54 KCAL/MOL
REMARK 924 INTRA-LIGAND FREE ENERGY PREDICTED BY IDOCK:   -1.60 KCAL/MOL
REMARK 927      BINDING AFFINITY PREDICTED BY RF-SCORE:    0.00 PKD
ROOT
HETATM    1  C   UNL     1     -10.345  20.034  66.665  1.00  0.00    -0.440 C  
HETATM    2  N   UNL     1      -9.221  19.708  67.530  1.00  0.00    -0.314 NA 
HETATM    3  H   UNL     1      -8.832  20.554  67.947  1.00  0.00     0.000 HD 
ENDROOT
BRANCH   2   4
HETATM    4  C   UNL     1      -9.538  18.718  68.570  1.00  0.00    -0.369 C  
BRANCH   4   5
HETATM    5  C   UNL     1      -9.329  17.230  68.176  1.00  0.00    -0.274 C  
HETATM    6  C   UNL     1      -8.275  17.021  67.104  1.00  0.00    -0.214 C  
HETATM    7  C   UNL     1      -8.124  15.523  66.840  1.00  0.00    -0.284 C  
HETATM    8  C   UNL     1      -9.480  14.807  66.666  1.00  0.00    -0.273 C  
HETATM    9  C   UNL     1     -10.616  15.289  67.676  1.00  0.00    -0.270 C  
HETATM   10  N   UNL     1      -9.248  13.346  66.572  1.00  0.00    -0.407 NA 
HETATM   11  O   UNL     1     -10.588  16.714  67.687  1.00  0.00    -0.316 OA 
HETATM   12  H1  UNL     1     -10.144  12.873  66.456  1.00  0.00     0.000 HD 
HETATM   13  H2  UNL     1      -8.718  12.985  67.365  1.00  0.00     0.000 HD 
BRANCH   9  14
HETATM   14  O   UNL     1     -10.578  14.726  69.008  1.00  0.00    -0.235 OA 
BRANCH  14  15
HETATM   15  C   UNL     1     -11.667  13.801  69.429  1.00  0.00    -0.325 C  
HETATM   16  C   UNL     1     -12.496  14.284  70.650  1.00  0.00    -0.358 C  
HETATM   17  N   UNL     1     -13.380  15.404  70.266  1.00  0.00    -0.690 NA 
HETATM   18  C   UNL     1     -13.396  13.171  71.226  1.00  0.00    -0.117 C  
HETATM   19  H2  UNL     1     -13.977  15.162  69.475  1.00  0.00     0.000 HD 
HETATM   20  H1  UNL     1     -13.924  15.721  71.068  1.00  0.00     0.000 HD 
HETATM   21  C   UNL     1     -12.612  11.905  71.602  1.00  0.00    -0.131 C  
HETATM   22  N   UNL     1     -13.471  10.965  72.330  1.00  0.00    -0.528 NA 
HETATM   23  C   UNL     1     -12.009  11.239  70.350  1.00  0.00    -0.380 C  
HETATM   24  C   UNL     1     -11.201  12.314  69.557  1.00  0.00    -0.115 C  
HETATM   25  O   UNL     1     -10.893  11.796  68.242  1.00  0.00    -0.199 OA 
HETATM   26  H1  UNL     1     -12.951  10.124  72.580  1.00  0.00     0.000 HD 
HETATM   27  H2  UNL     1     -14.319  10.745  71.807  1.00  0.00     0.000 HD 
HETATM   28  H   UNL     1     -10.610  10.892  68.320  1.00  0.00     0.000 HD 
BRANCH  23  29
HETATM   29  O   UNL     1     -11.044  10.221  70.745  1.00  0.00    -0.326 OA 
BRANCH  29  30
HETATM   30  C   UNL     1     -10.981   8.927  70.112  1.00  0.00    -0.227 C  
HETATM   31  O   UNL     1     -11.483   7.836  70.887  1.00  0.00    -0.277 OA 
HETATM   32  C   UNL     1     -11.521   6.614  70.133  1.00  0.00    -0.385 C  
HETATM   33  C   UNL     1     -10.120   6.138  69.666  1.00  0.00    -0.179 C  
HETATM   34  C   UNL     1      -9.483   7.259  68.797  1.00  0.00    -0.142 C  
HETATM   35  O   UNL     1      -9.303   5.899  70.823  1.00  0.00    -0.157 OA 
HETATM   36  C   UNL     1     -10.274   4.812  68.906  1.00  0.00    -0.081 C  
HETATM   37  H   UNL     1      -8.241   9.478  68.256  1.00  0.00     0.000 HD 
HETATM   38  H   UNL     1      -8.446   5.607  70.536  1.00  0.00     0.000 HD 
HETATM   39  C   UNL     1      -9.543   8.638  69.539  1.00  0.00    -0.170 C  
HETATM   40  O   UNL     1      -9.109   9.652  68.601  1.00  0.00    -0.130 OA 
BRANCH  34  41
HETATM   41  N   UNL     1      -8.161   7.019  68.144  1.00  0.00    -0.118 NA 
HETATM   42  C   UNL     1      -8.116   6.998  66.692  1.00  0.00    -0.110 C  
HETATM   43  H   UNL     1      -7.317   6.875  68.699  1.00  0.00     0.000 HD 
ENDBRANCH  34  41
ENDBRANCH  29  30
ENDBRANCH  23  29
ENDBRANCH  14  15
ENDBRANCH   9  14
ENDBRANCH   4   5
ENDBRANCH   2   4
TORSDOF 7
ENDMDL
MODEL       53
REMARK 921   NORMALIZED FREE ENERGY PREDICTED BY IDOCK:   -5.96 KCAL/MOL
REMARK 922        TOTAL FREE ENERGY PREDICTED BY IDOCK:  -10.11 KCAL/MOL
REMARK 923 INTER-LIGAND FREE ENERGY PREDICTED BY IDOCK:   -8.27 KCAL/MOL
REMARK 924 INTRA-LIGAND FREE ENERGY PREDICTED BY IDOCK:   -1.84 KCAL/MOL
REMARK 927      BINDING AFFINITY PREDICTED BY RF-SCORE:    0.00 PKD
ROOT
HETATM    1  C   UNL     1     -10.186   4.086  72.769  1.00  0.00    -0.163 C  
HETATM    2  N   UNL     1     -10.289   4.617  71.418  1.00  0.00    -0.141 NA 
HETATM    3  H   UNL     1      -9.964   5.583  71.387  1.00  0.00     0.000 HD 
ENDROOT
BRANCH   2   4
HETATM    4  C   UNL     1      -9.598   3.805  70.405  1.00  0.00    -0.192 C  
BRANCH   4   5
HETATM    5  C   UNL     1      -9.637   4.355  68.954  1.00  0.00    -0.163 C  
HETATM    6  C   UNL     1      -9.393   3.300  67.890  1.00  0.00    -0.246 C  
HETATM    7  C   UNL     1      -9.506   3.948  66.510  1.00  0.00    -0.211 C  
HETATM    8  C   UNL     1      -8.717   5.270  66.405  1.00  0.00    -0.118 C  
HETATM    9  C   UNL     1      -8.819   6.204  67.694  1.00  0.00    -0.103 C  
HETATM   10  N   UNL     1      -9.006   5.904  65.098  1.00  0.00    -0.367 NA 
HETATM   11  O   UNL     1      -8.614   5.371  68.831  1.00  0.00    -0.099 OA 
HETATM   12  H1  UNL     1      -8.485   6.778  65.028  1.00  0.00     0.000 HD 
HETATM   13  H2  UNL     1     -10.006   6.036  64.943  1.00  0.00     0.000 HD 
BRANCH   9  14
HETATM   14  O   UNL     1     -10.011   7.016  67.811  1.00  0.00    -0.140 OA 
BRANCH  14  15
HETATM   15  C   UNL     1      -9.951   8.271  68.611  1.00  0.00    -0.190 C  
HETATM   16  C   UNL     1     -10.413   8.126  70.086  1.00  0.00    -0.225 C  
HETATM   17  N   UNL     1      -9.405   7.388  70.875  1.00  0.00    -0.155 NA 
HETATM   18  C   UNL     1     -10.618   9.491  70.774  1.00  0.00    -0.387 C  
HETATM   19  H2  UNL     1      -8.482   7.817  70.808  1.00  0.00     0.000 HD 
HETATM   20  H1  UNL     1      -9.708   7.292  71.844  1.00  0.00     0.000 HD 
HETATM   21  C   UNL     1     -11.594  10.401  70.014  1.00  0.00    -0.301 C  
HETATM   22  N   UNL     1     -11.912  11.593  70.810  1.00  0.00    -0.433 NA 
HETATM   23  C   UNL     1     -11.021  10.797  68.640  1.00  0.00    -0.239 C  
HETATM   24  C   UNL     1     -10.596   9.498  67.887  1.00  0.00    -0.244 C  
HETATM   25  O   UNL     1      -9.783   9.859  66.746  1.00  0.00    -0.174 OA 
HETATM   26  H1  UNL     1     -12.560  12.197  70.305  1.00  0.00     0.000 HD 
HETATM   27  H2  UNL     1     -11.070  12.094  71.094  1.00  0.00     0.000 HD 
HETATM   28  H   UNL     1     -10.175  10.604  66.306  1.00  0.00     0.000 HD 
BRANCH  23  29
HETATM   29  O   UNL     1     -12.062  11.411  67.827  1.00  0.00    -0.637 OA 
BRANCH  29  30
HETATM   30  C   UNL     1     -11.853  12.640  67.102  1.00  0.00    -0.330 C  
HETATM   31  O   UNL     1     -10.993  12.547  65.963  1.00  0.00    -0.268 OA 
HETATM   32  C   UNL     1     -10.955  13.773  65.216  1.00  0.00    -0.322 C  
HETATM   33  C   UNL     1     -10.387  14.968  66.027  1.00  0.00    -0.312 C  
HETATM   34  C   UNL     1     -11.265  15.165  67.293  1.00  0.00    -0.324 C  
HETATM   35  O   UNL     1      -9.038  14.665  66.414  1.00  0.00    -0.369 OA 
HETATM   36  C   UNL     1     -10.358  16.211  65.124  1.00  0.00    -0.202 C  
HETATM   37  H   UNL     1     -12.157  14.742  69.699  1.00  0.00     0.000 HD 
HETATM   38  H   UNL     1      -8.691  15.397  66.910  1.00  0.00     0.000 HD 
HETATM   39  C   UNL     1     -11.436  13.813  68.067  1.00  0.00    -0.310 C  
HETATM   40  O   UNL     1     -12.409  14.035  69.116  1.00  0.00    -0.313 OA 
BRANCH  34  41
HETATM   41  N   UNL     1     -10.987  16.315  68.208  1.00  0.00    -0.338 NA 
HETATM   42  C   UNL     1      -9.699  16.350  68.877  1.00  0.00    -0.257 C  
HETATM   43  H   UNL     1     -11.679  17.049  68.356  1.00  0.00     0.000 HD 
ENDBRANCH  34  41
ENDBRANCH  29  30
ENDBRANCH  23  29
ENDBRANCH  14  15
ENDBRANCH   9  14
ENDBRANCH   4   5
ENDBRANCH   2   4
TORSDOF 7
ENDMDL
MODEL       54
REMARK 921   NORMALIZED FREE ENERGY PREDICTED BY IDOCK:   -5.96 KCAL/MOL
REMARK 922        TOTAL FREE ENERGY PREDICTED BY IDOCK:  -10.11 KCAL/MOL
REMARK 923 INTER-LIGAND FREE ENERGY PREDICTED BY IDOCK:   -8.88 KCAL/MOL
REMARK 924 INTRA-LIGAND FREE ENERGY PREDICTED BY IDOCK:   -1.23 KCAL/MOL
REMARK 927      BINDING AFFINITY PREDICTED BY RF-SCORE:    0.00 PKD
ROOT
HETATM    1  C   UNL     1      -6.992   7.552  72.135  1.00  0.00    -0.063 C  
HETATM    2  N   UNL     1      -7.238   6.146  72.418  1.00  0.00    -0.084 NA 
HETATM    3  H   UNL     1      -6.786   5.872  73.290  1.00  0.00     0.000 HD 
ENDROOT
BRANCH   2   4
HETATM    4  C   UNL     1      -8.663   5.783  72.437  1.00  0.00    -0.128 C  
BRANCH   4   5
HETATM    5  C   UNL     1      -9.657   6.917  72.067  1.00  0.00    -0.142 C  
HETATM    6  C   UNL     1     -10.709   7.183  73.128  1.00  0.00    -0.385 C  
HETATM    7  C   UNL     1     -11.590   8.347  72.675  1.00  0.00    -0.367 C  
HETATM    8  C   UNL     1     -12.064   8.203  71.213  1.00  0.00    -0.288 C  
HETATM    9  C   UNL     1     -10.952   7.656  70.209  1.00  0.00    -0.252 C  
HETATM   10  N   UNL     1     -12.776   9.438  70.810  1.00  0.00    -0.512 NA 
HETATM   11  O   UNL     1     -10.329   6.542  70.842  1.00  0.00    -0.202 OA 
HETATM   12  H1  UNL     1     -13.089   9.343  69.845  1.00  0.00     0.000 HD 
HETATM   13  H2  UNL     1     -12.212  10.276  70.954  1.00  0.00     0.000 HD 
BRANCH   9  14
HETATM   14  O   UNL     1      -9.992   8.622  69.721  1.00  0.00    -0.183 OA 
BRANCH  14  15
HETATM   15  C   UNL     1     -10.342   9.446  68.530  1.00  0.00    -0.209 C  
HETATM   16  C   UNL     1      -9.922   8.831  67.167  1.00  0.00    -0.230 C  
HETATM   17  N   UNL     1     -10.788   7.684  66.826  1.00  0.00    -0.479 NA 
HETATM   18  C   UNL     1     -10.031   9.843  66.008  1.00  0.00    -0.338 C  
HETATM   19  H2  UNL     1     -11.776   7.938  66.838  1.00  0.00     0.000 HD 
HETATM   20  H1  UNL     1     -10.512   7.280  65.931  1.00  0.00     0.000 HD 
HETATM   21  C   UNL     1      -9.232  11.130  66.263  1.00  0.00    -0.195 C  
HETATM   22  N   UNL     1      -9.199  11.963  65.056  1.00  0.00    -0.417 NA 
HETATM   23  C   UNL     1      -9.817  11.914  67.454  1.00  0.00    -0.183 C  
HETATM   24  C   UNL     1      -9.933  10.948  68.674  1.00  0.00    -0.189 C  
HETATM   25  O   UNL     1     -10.756  11.569  69.690  1.00  0.00    -0.450 OA 
HETATM   26  H1  UNL     1      -8.669  12.817  65.225  1.00  0.00     0.000 HD 
HETATM   27  H2  UNL     1     -10.137  12.162  64.707  1.00  0.00     0.000 HD 
HETATM   28  H   UNL     1     -10.507  12.482  69.778  1.00  0.00     0.000 HD 
BRANCH  23  29
HETATM   29  O   UNL     1      -8.892  12.964  67.859  1.00  0.00    -0.171 OA 
BRANCH  29  30
HETATM   30  C   UNL     1      -9.235  14.363  67.800  1.00  0.00    -0.192 C  
HETATM   31  O   UNL     1     -10.620  14.650  67.584  1.00  0.00    -0.252 OA 
HETATM   32  C   UNL     1     -10.899  16.055  67.685  1.00  0.00    -0.311 C  
HETATM   33  C   UNL     1     -10.162  16.905  66.616  1.00  0.00    -0.312 C  
HETATM   34  C   UNL     1      -8.634  16.673  66.770  1.00  0.00    -0.236 C  
HETATM   35  O   UNL     1     -10.589  16.480  65.312  1.00  0.00    -0.575 OA 
HETATM   36  C   UNL     1     -10.561  18.379  66.793  1.00  0.00    -0.367 C  
HETATM   37  H   UNL     1      -6.340  15.475  66.522  1.00  0.00     0.000 HD 
HETATM   38  H   UNL     1     -10.137  17.000  64.658  1.00  0.00     0.000 HD 
HETATM   39  C   UNL     1      -8.304  15.141  66.795  1.00  0.00    -0.189 C  
HETATM   40  O   UNL     1      -6.901  15.006  67.128  1.00  0.00    -0.260 OA 
BRANCH  34  41
HETATM   41  N   UNL     1      -7.684  17.447  65.914  1.00  0.00    -0.511 NA 
HETATM   42  C   UNL     1      -6.868  18.463  66.556  1.00  0.00    -0.208 C  
HETATM   43  H   UNL     1      -7.611  17.267  64.913  1.00  0.00     0.000 HD 
ENDBRANCH  34  41
ENDBRANCH  29  30
ENDBRANCH  23  29
ENDBRANCH  14  15
ENDBRANCH   9  14
ENDBRANCH   4   5
ENDBRANCH   2   4
TORSDOF 7
ENDMDL
MODEL       55
REMARK 921   NORMALIZED FREE ENERGY PREDICTED BY IDOCK:   -5.95 KCAL/MOL
REMARK 922        TOTAL FREE ENERGY PREDICTED BY IDOCK:  -10.10 KCAL/MOL
REMARK 923 INTER-LIGAND FREE ENERGY PREDICTED BY IDOCK:   -8.30 KCAL/MOL
REMARK 924 INTRA-LIGAND FREE ENERGY PREDICTED BY IDOCK:   -1.80 KCAL/MOL
REMARK 927      BINDING AFFINITY PREDICTED BY RF-SCORE:    0.00 PKD
ROOT
HETATM    1  C   UNL     1     -13.201   9.040  71.913  1.00  0.00    -0.405 C  
HETATM    2  N   UNL     1     -12.041   8.675  71.113  1.00  0.00    -0.350 NA 
HETATM    3  H   UNL     1     -11.763   9.451  70.511  1.00  0.00     0.000 HD 
ENDROOT
BRANCH   2   4
HETATM    4  C   UNL     1     -10.898   8.198  71.904  1.00  0.00    -0.270 C  
BRANCH   4   5
HETATM    5  C   UNL     1      -9.496   8.433  71.280  1.00  0.00    -0.186 C  
HETATM    6  C   UNL     1      -8.367   8.460  72.295  1.00  0.00    -0.218 C  
HETATM    7  C   UNL     1      -7.040   8.645  71.560  1.00  0.00    -0.098 C  
HETATM    8  C   UNL     1      -7.091   9.778  70.512  1.00  0.00    -0.122 C  
HETATM    9  C   UNL     1      -8.442   9.834  69.667  1.00  0.00    -0.185 C  
HETATM   10  N   UNL     1      -5.824   9.784  69.744  1.00  0.00    -0.040 NA 
HETATM   11  O   UNL     1      -9.519   9.705  70.591  1.00  0.00    -0.244 OA 
HETATM   12  H1  UNL     1      -5.857  10.532  69.052  1.00  0.00     0.000 HD 
HETATM   13  H2  UNL     1      -5.618   8.877  69.325  1.00  0.00     0.000 HD 
BRANCH   9  14
HETATM   14  O   UNL     1      -8.551   8.910  68.559  1.00  0.00    -0.131 OA 
BRANCH  14  15
HETATM   15  C   UNL     1      -8.989   9.425  67.232  1.00  0.00    -0.130 C  
HETATM   16  C   UNL     1      -7.908  10.228  66.457  1.00  0.00    -0.116 C  
HETATM   17  N   UNL     1      -6.863   9.322  65.937  1.00  0.00    -0.086 NA 
HETATM   18  C   UNL     1      -8.495  10.986  65.248  1.00  0.00     0.004 C  
HETATM   19  H2  UNL     1      -7.259   8.573  65.369  1.00  0.00     0.000 HD 
HETATM   20  H1  UNL     1      -6.154   9.848  65.428  1.00  0.00     0.000 HD 
HETATM   21  C   UNL     1      -9.653  11.918  65.634  1.00  0.00    -0.204 C  
HETATM   22  N   UNL     1     -10.034  12.763  64.496  1.00  0.00    -0.573 NA 
HETATM   23  C   UNL     1     -10.861  11.111  66.146  1.00  0.00    -0.185 C  
HETATM   24  C   UNL     1     -10.373  10.151  67.276  1.00  0.00    -0.237 C  
HETATM   25  O   UNL     1     -11.411   9.180  67.549  1.00  0.00    -0.291 OA 
HETATM   26  H1  UNL     1     -10.803  13.382  64.752  1.00  0.00     0.000 HD 
HETATM   27  H2  UNL     1     -10.254  12.207  63.669  1.00  0.00     0.000 HD 
HETATM   28  H   UNL     1     -12.252   9.621  67.576  1.00  0.00     0.000 HD 
BRANCH  23  29
HETATM   29  O   UNL     1     -11.827  12.006  66.769  1.00  0.00    -0.581 OA 
BRANCH  29  30
HETATM   30  C   UNL     1     -11.507  12.808  67.925  1.00  0.00    -0.317 C  
HETATM   31  O   UNL     1     -12.151  12.422  69.141  1.00  0.00    -0.253 OA 
HETATM   32  C   UNL     1     -11.668  13.172  70.267  1.00  0.00    -0.127 C  
HETATM   33  C   UNL     1     -11.947  14.694  70.153  1.00  0.00    -0.313 C  
HETATM   34  C   UNL     1     -11.274  15.223  68.857  1.00  0.00    -0.285 C  
HETATM   35  O   UNL     1     -13.366  14.901  70.082  1.00  0.00    -0.583 OA 
HETATM   36  C   UNL     1     -11.425  15.390  71.420  1.00  0.00    -0.465 C  
HETATM   37  H   UNL     1     -10.975  15.705  66.319  1.00  0.00     0.000 HD 
HETATM   38  H   UNL     1     -13.536  15.833  70.013  1.00  0.00     0.000 HD 
HETATM   39  C   UNL     1     -11.678  14.344  67.623  1.00  0.00    -0.391 C  
HETATM   40  O   UNL     1     -10.872  14.778  66.501  1.00  0.00    -0.307 OA 
BRANCH  34  41
HETATM   41  N   UNL     1     -11.314  16.686  68.552  1.00  0.00    -0.252 NA 
HETATM   42  C   UNL     1     -10.074  17.434  68.659  1.00  0.00    -0.355 C  
HETATM   43  H   UNL     1     -12.185  17.143  68.279  1.00  0.00     0.000 HD 
ENDBRANCH  34  41
ENDBRANCH  29  30
ENDBRANCH  23  29
ENDBRANCH  14  15
ENDBRANCH   9  14
ENDBRANCH   4   5
ENDBRANCH   2   4
TORSDOF 7
ENDMDL
MODEL       56
REMARK 921   NORMALIZED FREE ENERGY PREDICTED BY IDOCK:   -5.95 KCAL/MOL
REMARK 922        TOTAL FREE ENERGY PREDICTED BY IDOCK:  -10.10 KCAL/MOL
REMARK 923 INTER-LIGAND FREE ENERGY PREDICTED BY IDOCK:   -8.46 KCAL/MOL
REMARK 924 INTRA-LIGAND FREE ENERGY PREDICTED BY IDOCK:   -1.64 KCAL/MOL
REMARK 927      BINDING AFFINITY PREDICTED BY RF-SCORE:    0.00 PKD
ROOT
HETATM    1  C   UNL     1     -12.102  13.123  63.498  1.00  0.00    -0.514 C  
HETATM    2  N   UNL     1     -12.524  14.445  63.936  1.00  0.00    -1.005 NA 
HETATM    3  H   UNL     1     -13.201  14.372  64.695  1.00  0.00     0.000 HD 
ENDROOT
BRANCH   2   4
HETATM    4  C   UNL     1     -11.412  15.329  64.317  1.00  0.00    -0.153 C  
BRANCH   4   5
HETATM    5  C   UNL     1     -10.876  15.158  65.764  1.00  0.00    -0.353 C  
HETATM    6  C   UNL     1     -10.655  16.469  66.497  1.00  0.00    -0.217 C  
HETATM    7  C   UNL     1     -10.179  16.170  67.918  1.00  0.00    -0.261 C  
HETATM    8  C   UNL     1      -9.046  15.123  67.962  1.00  0.00    -0.180 C  
HETATM    9  C   UNL     1      -9.237  13.902  66.953  1.00  0.00    -0.259 C  
HETATM   10  N   UNL     1      -8.756  14.781  69.374  1.00  0.00    -0.408 NA 
HETATM   11  O   UNL     1      -9.614  14.455  65.695  1.00  0.00    -0.255 OA 
HETATM   12  H1  UNL     1      -8.007  14.089  69.402  1.00  0.00     0.000 HD 
HETATM   13  H2  UNL     1      -9.587  14.474  69.878  1.00  0.00     0.000 HD 
BRANCH   9  14
HETATM   14  O   UNL     1     -10.126  12.844  67.380  1.00  0.00    -0.219 OA 
BRANCH  14  15
HETATM   15  C   UNL     1      -9.658  11.433  67.296  1.00  0.00    -0.174 C  
HETATM   16  C   UNL     1      -9.979  10.719  65.955  1.00  0.00    -0.250 C  
HETATM   17  N   UNL     1      -9.117  11.236  64.872  1.00  0.00    -0.379 NA 
HETATM   18  C   UNL     1      -9.748   9.195  66.031  1.00  0.00    -0.358 C  
HETATM   19  H2  UNL     1      -8.128  11.167  65.110  1.00  0.00     0.000 HD 
HETATM   20  H1  UNL     1      -9.328  10.767  63.992  1.00  0.00     0.000 HD 
HETATM   21  C   UNL     1     -10.533   8.530  67.172  1.00  0.00    -0.299 C  
HETATM   22  N   UNL     1     -10.444   7.069  67.073  1.00  0.00    -0.292 NA 
HETATM   23  C   UNL     1     -10.028   9.017  68.543  1.00  0.00    -0.176 C  
HETATM   24  C   UNL     1     -10.038  10.578  68.549  1.00  0.00    -0.173 C  
HETATM   25  O   UNL     1      -9.287  11.050  69.692  1.00  0.00    -0.363 OA 
HETATM   26  H1  UNL     1     -10.964   6.626  67.830  1.00  0.00     0.000 HD 
HETATM   27  H2  UNL     1      -9.475   6.749  67.041  1.00  0.00     0.000 HD 
HETATM   28  H   UNL     1      -9.519  10.531  70.454  1.00  0.00     0.000 HD 
BRANCH  23  29
HETATM   29  O   UNL     1     -10.957   8.606  69.588  1.00  0.00    -0.198 OA 
BRANCH  29  30
HETATM   30  C   UNL     1     -10.521   7.952  70.797  1.00  0.00    -0.210 C  
HETATM   31  O   UNL     1      -9.620   8.704  71.615  1.00  0.00    -0.221 OA 
HETATM   32  C   UNL     1      -9.352   8.046  72.863  1.00  0.00    -0.271 C  
HETATM   33  C   UNL     1      -8.656   6.670  72.695  1.00  0.00    -0.123 C  
HETATM   34  C   UNL     1      -9.566   5.762  71.821  1.00  0.00    -0.155 C  
HETATM   35  O   UNL     1      -7.394   6.866  72.038  1.00  0.00    -0.084 OA 
HETATM   36  C   UNL     1      -8.385   6.077  74.086  1.00  0.00    -0.108 C  
HETATM   37  H   UNL     1     -10.651   4.797  69.664  1.00  0.00     0.000 HD 
HETATM   38  H   UNL     1      -6.969   6.024  71.935  1.00  0.00     0.000 HD 
HETATM   39  C   UNL     1      -9.986   6.500  70.504  1.00  0.00    -0.184 C  
HETATM   40  O   UNL     1     -10.973   5.673  69.842  1.00  0.00    -0.339 OA 
BRANCH  34  41
HETATM   41  N   UNL     1      -9.169   4.342  71.578  1.00  0.00    -0.127 NA 
HETATM   42  C   UNL     1      -9.790   3.315  72.397  1.00  0.00    -0.156 C  
HETATM   43  H   UNL     1      -8.484   4.102  70.861  1.00  0.00     0.000 HD 
ENDBRANCH  34  41
ENDBRANCH  29  30
ENDBRANCH  23  29
ENDBRANCH  14  15
ENDBRANCH   9  14
ENDBRANCH   4   5
ENDBRANCH   2   4
TORSDOF 7
ENDMDL
MODEL       57
REMARK 921   NORMALIZED FREE ENERGY PREDICTED BY IDOCK:   -5.93 KCAL/MOL
REMARK 922        TOTAL FREE ENERGY PREDICTED BY IDOCK:  -10.07 KCAL/MOL
REMARK 923 INTER-LIGAND FREE ENERGY PREDICTED BY IDOCK:   -8.80 KCAL/MOL
REMARK 924 INTRA-LIGAND FREE ENERGY PREDICTED BY IDOCK:   -1.27 KCAL/MOL
REMARK 927      BINDING AFFINITY PREDICTED BY RF-SCORE:    0.00 PKD
ROOT
HETATM    1  C   UNL     1      -6.676   2.079  70.645  1.00  0.00    -0.032 C  
HETATM    2  N   UNL     1      -7.815   2.684  69.971  1.00  0.00    -0.043 NA 
HETATM    3  H   UNL     1      -8.654   2.122  70.111  1.00  0.00     0.000 HD 
ENDROOT
BRANCH   2   4
HETATM    4  C   UNL     1      -8.060   4.083  70.355  1.00  0.00    -0.054 C  
BRANCH   4   5
HETATM    5  C   UNL     1      -8.411   5.053  69.194  1.00  0.00    -0.086 C  
HETATM    6  C   UNL     1      -7.665   4.763  67.904  1.00  0.00    -0.082 C  
HETATM    7  C   UNL     1      -8.130   5.745  66.829  1.00  0.00    -0.102 C  
HETATM    8  C   UNL     1      -8.164   7.206  67.328  1.00  0.00    -0.119 C  
HETATM    9  C   UNL     1      -8.721   7.383  68.812  1.00  0.00    -0.128 C  
HETATM   10  N   UNL     1      -8.769   8.061  66.281  1.00  0.00    -0.145 NA 
HETATM   11  O   UNL     1      -8.085   6.396  69.619  1.00  0.00    -0.119 OA 
HETATM   12  H1  UNL     1      -8.792   9.026  66.611  1.00  0.00     0.000 HD 
HETATM   13  H2  UNL     1      -9.690   7.729  65.992  1.00  0.00     0.000 HD 
BRANCH   9  14
HETATM   14  O   UNL     1     -10.160   7.379  68.966  1.00  0.00    -0.182 OA 
BRANCH  14  15
HETATM   15  C   UNL     1     -10.742   7.727  70.292  1.00  0.00    -0.236 C  
HETATM   16  C   UNL     1     -11.788   6.712  70.830  1.00  0.00    -0.383 C  
HETATM   17  N   UNL     1     -11.125   5.467  71.270  1.00  0.00    -0.133 NA 
HETATM   18  C   UNL     1     -12.571   7.262  72.040  1.00  0.00    -0.254 C  
HETATM   19  H2  UNL     1     -10.390   5.650  71.952  1.00  0.00     0.000 HD 
HETATM   20  H1  UNL     1     -11.812   4.801  71.622  1.00  0.00     0.000 HD 
HETATM   21  C   UNL     1     -13.257   8.605  71.746  1.00  0.00    -0.363 C  
HETATM   22  N   UNL     1     -14.150   8.978  72.849  1.00  0.00    -1.110 NA 
HETATM   23  C   UNL     1     -12.215   9.709  71.487  1.00  0.00    -0.399 C  
HETATM   24  C   UNL     1     -11.227   9.210  70.387  1.00  0.00    -0.240 C  
HETATM   25  O   UNL     1     -10.077  10.089  70.352  1.00  0.00    -0.367 OA 
HETATM   26  H1  UNL     1     -14.605   9.869  72.654  1.00  0.00     0.000 HD 
HETATM   27  H2  UNL     1     -13.661   8.990  73.744  1.00  0.00     0.000 HD 
HETATM   28  H   UNL     1     -10.372  10.991  70.409  1.00  0.00     0.000 HD 
BRANCH  23  29
HETATM   29  O   UNL     1     -12.869  10.888  70.935  1.00  0.00    -0.346 OA 
BRANCH  29  30
HETATM   30  C   UNL     1     -12.572  12.223  71.392  1.00  0.00    -0.198 C  
HETATM   31  O   UNL     1     -13.548  12.811  72.257  1.00  0.00    -0.556 OA 
HETATM   32  C   UNL     1     -13.110  14.073  72.782  1.00  0.00    -0.440 C  
HETATM   33  C   UNL     1     -12.876  15.146  71.685  1.00  0.00    -0.364 C  
HETATM   34  C   UNL     1     -11.813  14.608  70.688  1.00  0.00    -0.305 C  
HETATM   35  O   UNL     1     -14.114  15.379  70.995  1.00  0.00    -0.768 OA 
HETATM   36  C   UNL     1     -12.449  16.459  72.359  1.00  0.00    -0.206 C  
HETATM   37  H   UNL     1     -10.847  13.239  68.700  1.00  0.00     0.000 HD 
HETATM   38  H   UNL     1     -13.971  16.036  70.325  1.00  0.00     0.000 HD 
HETATM   39  C   UNL     1     -12.195  13.171  70.192  1.00  0.00    -0.290 C  
HETATM   40  O   UNL     1     -11.075  12.668  69.424  1.00  0.00    -0.178 OA 
BRANCH  34  41
HETATM   41  N   UNL     1     -11.337  15.487  69.578  1.00  0.00    -0.288 NA 
HETATM   42  C   UNL     1      -9.928  15.841  69.550  1.00  0.00    -0.283 C  
HETATM   43  H   UNL     1     -11.980  15.828  68.863  1.00  0.00     0.000 HD 
ENDBRANCH  34  41
ENDBRANCH  29  30
ENDBRANCH  23  29
ENDBRANCH  14  15
ENDBRANCH   9  14
ENDBRANCH   4   5
ENDBRANCH   2   4
TORSDOF 7
ENDMDL
MODEL       58
REMARK 921   NORMALIZED FREE ENERGY PREDICTED BY IDOCK:   -5.91 KCAL/MOL
REMARK 922        TOTAL FREE ENERGY PREDICTED BY IDOCK:  -10.04 KCAL/MOL
REMARK 923 INTER-LIGAND FREE ENERGY PREDICTED BY IDOCK:   -8.69 KCAL/MOL
REMARK 924 INTRA-LIGAND FREE ENERGY PREDICTED BY IDOCK:   -1.35 KCAL/MOL
REMARK 927      BINDING AFFINITY PREDICTED BY RF-SCORE:    0.00 PKD
ROOT
HETATM    1  C   UNL     1     -13.056  11.747  71.762  1.00  0.00    -0.375 C  
HETATM    2  N   UNL     1     -13.811  12.639  72.630  1.00  0.00    -0.624 NA 
HETATM    3  H   UNL     1     -13.740  12.337  73.602  1.00  0.00     0.000 HD 
ENDROOT
BRANCH   2   4
HETATM    4  C   UNL     1     -13.438  14.055  72.499  1.00  0.00    -0.558 C  
BRANCH   4   5
HETATM    5  C   UNL     1     -12.466  14.395  71.336  1.00  0.00    -0.359 C  
HETATM    6  C   UNL     1     -11.462  15.482  71.673  1.00  0.00    -0.496 C  
HETATM    7  C   UNL     1     -10.533  15.691  70.477  1.00  0.00    -0.125 C  
HETATM    8  C   UNL     1     -11.298  15.807  69.141  1.00  0.00    -0.349 C  
HETATM    9  C   UNL     1     -12.518  14.791  68.988  1.00  0.00     0.080 C  
HETATM   10  N   UNL     1     -10.322  15.850  68.026  1.00  0.00    -0.256 NA 
HETATM   11  O   UNL     1     -13.254  14.836  70.207  1.00  0.00    -0.163 OA 
HETATM   12  H1  UNL     1     -10.828  15.926  67.144  1.00  0.00     0.000 HD 
HETATM   13  H2  UNL     1      -9.683  15.055  68.039  1.00  0.00     0.000 HD 
BRANCH   9  14
HETATM   14  O   UNL     1     -12.187  13.439  68.592  1.00  0.00    -0.298 OA 
BRANCH  14  15
HETATM   15  C   UNL     1     -11.326  13.231  67.395  1.00  0.00    -0.303 C  
HETATM   16  C   UNL     1     -12.092  12.846  66.100  1.00  0.00    -0.393 C  
HETATM   17  N   UNL     1     -12.826  14.012  65.566  1.00  0.00    -0.668 NA 
HETATM   18  C   UNL     1     -11.149  12.352  64.984  1.00  0.00    -0.344 C  
HETATM   19  H2  UNL     1     -12.211  14.811  65.418  1.00  0.00     0.000 HD 
HETATM   20  H1  UNL     1     -13.330  13.758  64.716  1.00  0.00     0.000 HD 
HETATM   21  C   UNL     1     -10.262  11.179  65.429  1.00  0.00    -0.271 C  
HETATM   22  N   UNL     1      -9.540  10.617  64.282  1.00  0.00    -0.268 NA 
HETATM   23  C   UNL     1      -9.281  11.618  66.532  1.00  0.00    -0.198 C  
HETATM   24  C   UNL     1     -10.093  12.309  67.672  1.00  0.00    -0.200 C  
HETATM   25  O   UNL     1      -9.175  12.995  68.555  1.00  0.00    -0.330 OA 
HETATM   26  H1  UNL     1      -8.952   9.838  64.576  1.00  0.00     0.000 HD 
HETATM   27  H2  UNL     1      -9.005  11.329  63.785  1.00  0.00     0.000 HD 
HETATM   28  H   UNL     1      -8.426  12.435  68.724  1.00  0.00     0.000 HD 
BRANCH  23  29
HETATM   29  O   UNL     1      -8.658  10.448  67.136  1.00  0.00    -0.129 OA 
BRANCH  29  30
HETATM   30  C   UNL     1      -9.426   9.356  67.680  1.00  0.00    -0.132 C  
HETATM   31  O   UNL     1      -9.591   9.364  69.101  1.00  0.00    -0.156 OA 
HETATM   32  C   UNL     1     -10.486   8.333  69.544  1.00  0.00    -0.227 C  
HETATM   33  C   UNL     1      -9.978   6.901  69.228  1.00  0.00    -0.159 C  
HETATM   34  C   UNL     1      -9.774   6.780  67.692  1.00  0.00    -0.126 C  
HETATM   35  O   UNL     1      -8.725   6.696  69.901  1.00  0.00    -0.138 OA 
HETATM   36  C   UNL     1     -10.989   5.883  69.776  1.00  0.00    -0.452 C  
HETATM   37  H   UNL     1      -8.605   7.050  65.386  1.00  0.00     0.000 HD 
HETATM   38  H   UNL     1      -8.415   5.820  69.707  1.00  0.00     0.000 HD 
HETATM   39  C   UNL     1      -8.905   7.967  67.151  1.00  0.00    -0.132 C  
HETATM   40  O   UNL     1      -8.919   7.888  65.705  1.00  0.00    -0.133 OA 
BRANCH  34  41
HETATM   41  N   UNL     1      -9.371   5.464  67.107  1.00  0.00    -0.114 NA 
HETATM   42  C   UNL     1     -10.350   4.750  66.307  1.00  0.00    -0.291 C  
HETATM   43  H   UNL     1      -8.438   5.081  67.265  1.00  0.00     0.000 HD 
ENDBRANCH  34  41
ENDBRANCH  29  30
ENDBRANCH  23  29
ENDBRANCH  14  15
ENDBRANCH   9  14
ENDBRANCH   4   5
ENDBRANCH   2   4
TORSDOF 7
ENDMDL
MODEL       59
REMARK 921   NORMALIZED FREE ENERGY PREDICTED BY IDOCK:   -5.91 KCAL/MOL
REMARK 922        TOTAL FREE ENERGY PREDICTED BY IDOCK:  -10.04 KCAL/MOL
REMARK 923 INTER-LIGAND FREE ENERGY PREDICTED BY IDOCK:   -8.73 KCAL/MOL
REMARK 924 INTRA-LIGAND FREE ENERGY PREDICTED BY IDOCK:   -1.31 KCAL/MOL
REMARK 927      BINDING AFFINITY PREDICTED BY RF-SCORE:    0.00 PKD
ROOT
HETATM    1  C   UNL     1     -10.958   5.881  69.630  1.00  0.00    -0.377 C  
HETATM    2  N   UNL     1     -10.416   6.733  68.583  1.00  0.00    -0.192 NA 
HETATM    3  H   UNL     1     -11.169   7.157  68.041  1.00  0.00     0.000 HD 
ENDROOT
BRANCH   2   4
HETATM    4  C   UNL     1      -9.489   7.763  69.073  1.00  0.00    -0.150 C  
BRANCH   4   5
HETATM    5  C   UNL     1      -8.620   8.463  67.993  1.00  0.00    -0.135 C  
HETATM    6  C   UNL     1      -7.130   8.417  68.278  1.00  0.00    -0.085 C  
HETATM    7  C   UNL     1      -6.382   9.089  67.126  1.00  0.00    -0.060 C  
HETATM    8  C   UNL     1      -6.996  10.448  66.727  1.00  0.00    -0.103 C  
HETATM    9  C   UNL     1      -8.591  10.473  66.715  1.00  0.00    -0.126 C  
HETATM   10  N   UNL     1      -6.311  10.950  65.513  1.00  0.00    -0.357 NA 
HETATM   11  O   UNL     1      -9.028   9.849  67.918  1.00  0.00    -0.128 OA 
HETATM   12  H1  UNL     1      -6.717  11.848  65.249  1.00  0.00     0.000 HD 
HETATM   13  H2  UNL     1      -6.332  10.276  64.748  1.00  0.00     0.000 HD 
BRANCH   9  14
HETATM   14  O   UNL     1      -9.237   9.925  65.542  1.00  0.00    -0.172 OA 
BRANCH  14  15
HETATM   15  C   UNL     1     -10.416  10.634  64.973  1.00  0.00    -0.208 C  
HETATM   16  C   UNL     1     -10.187  11.251  63.565  1.00  0.00    -0.403 C  
HETATM   17  N   UNL     1     -10.130  10.190  62.538  1.00  0.00    -0.614 NA 
HETATM   18  C   UNL     1     -11.318  12.218  63.158  1.00  0.00    -0.254 C  
HETATM   19  H2  UNL     1     -10.958   9.595  62.561  1.00  0.00     0.000 HD 
HETATM   20  H1  UNL     1      -9.980  10.595  61.614  1.00  0.00     0.000 HD 
HETATM   21  C   UNL     1     -11.542  13.340  64.183  1.00  0.00    -0.405 C  
HETATM   22  N   UNL     1     -12.475  14.341  63.655  1.00  0.00    -1.083 NA 
HETATM   23  C   UNL     1     -12.051  12.768  65.520  1.00  0.00    -0.465 C  
HETATM   24  C   UNL     1     -11.082  11.633  65.975  1.00  0.00    -0.270 C  
HETATM   25  O   UNL     1     -11.702  10.886  67.049  1.00  0.00    -0.330 OA 
HETATM   26  H1  UNL     1     -12.624  15.085  64.335  1.00  0.00     0.000 HD 
HETATM   27  H2  UNL     1     -13.355  13.918  63.356  1.00  0.00     0.000 HD 
HETATM   28  H   UNL     1     -12.106  11.493  67.658  1.00  0.00     0.000 HD 
BRANCH  23  29
HETATM   29  O   UNL     1     -11.983  13.793  66.555  1.00  0.00    -0.387 OA 
BRANCH  29  30
HETATM   30  C   UNL     1     -10.732  14.260  67.100  1.00  0.00    -0.282 C  
HETATM   31  O   UNL     1     -10.140  13.419  68.094  1.00  0.00    -0.231 OA 
HETATM   32  C   UNL     1      -8.834  13.878  68.476  1.00  0.00    -0.137 C  
HETATM   33  C   UNL     1      -8.845  15.287  69.125  1.00  0.00    -0.238 C  
HETATM   34  C   UNL     1      -9.466  16.290  68.115  1.00  0.00    -0.215 C  
HETATM   35  O   UNL     1      -9.645  15.242  70.317  1.00  0.00    -0.405 OA 
HETATM   36  C   UNL     1      -7.409  15.659  69.527  1.00  0.00    -0.197 C  
HETATM   37  H   UNL     1     -11.320  17.549  66.797  1.00  0.00     0.000 HD 
HETATM   38  H   UNL     1      -9.651  16.104  70.714  1.00  0.00     0.000 HD 
HETATM   39  C   UNL     1     -10.838  15.758  67.575  1.00  0.00    -0.315 C  
HETATM   40  O   UNL     1     -11.257  16.646  66.510  1.00  0.00     0.161 OA 
BRANCH  34  41
HETATM   41  N   UNL     1      -9.513  17.744  68.459  1.00  0.00    -0.296 NA 
HETATM   42  C   UNL     1      -8.668  18.648  67.698  1.00  0.00    -0.272 C  
HETATM   43  H   UNL     1     -10.119  18.090  69.203  1.00  0.00     0.000 HD 
ENDBRANCH  34  41
ENDBRANCH  29  30
ENDBRANCH  23  29
ENDBRANCH  14  15
ENDBRANCH   9  14
ENDBRANCH   4   5
ENDBRANCH   2   4
TORSDOF 7
ENDMDL
MODEL       60
REMARK 921   NORMALIZED FREE ENERGY PREDICTED BY IDOCK:   -5.85 KCAL/MOL
REMARK 922        TOTAL FREE ENERGY PREDICTED BY IDOCK:   -9.95 KCAL/MOL
REMARK 923 INTER-LIGAND FREE ENERGY PREDICTED BY IDOCK:   -8.56 KCAL/MOL
REMARK 924 INTRA-LIGAND FREE ENERGY PREDICTED BY IDOCK:   -1.39 KCAL/MOL
REMARK 927      BINDING AFFINITY PREDICTED BY RF-SCORE:    0.00 PKD
ROOT
HETATM    1  C   UNL     1     -11.394   8.834  72.200  1.00  0.00    -0.341 C  
HETATM    2  N   UNL     1     -11.242   9.591  70.966  1.00  0.00    -0.330 NA 
HETATM    3  H   UNL     1     -10.946   8.980  70.205  1.00  0.00     0.000 HD 
ENDROOT
BRANCH   2   4
HETATM    4  C   UNL     1     -12.441  10.351  70.583  1.00  0.00    -0.348 C  
BRANCH   4   5
HETATM    5  C   UNL     1     -12.434  11.859  70.951  1.00  0.00    -0.300 C  
HETATM    6  C   UNL     1     -13.367  12.216  72.095  1.00  0.00    -0.438 C  
HETATM    7  C   UNL     1     -13.235  13.709  72.397  1.00  0.00    -0.584 C  
HETATM    8  C   UNL     1     -13.288  14.583  71.126  1.00  0.00    -0.354 C  
HETATM    9  C   UNL     1     -12.489  13.987  69.880  1.00  0.00    -0.246 C  
HETATM   10  N   UNL     1     -12.998  15.989  71.492  1.00  0.00    -0.488 NA 
HETATM   11  O   UNL     1     -12.838  12.609  69.782  1.00  0.00     0.370 OA 
HETATM   12  H1  UNL     1     -13.033  16.566  70.652  1.00  0.00     0.000 HD 
HETATM   13  H2  UNL     1     -12.114  16.086  71.992  1.00  0.00     0.000 HD 
BRANCH   9  14
HETATM   14  O   UNL     1     -11.058  14.196  69.871  1.00  0.00    -0.162 OA 
BRANCH  14  15
HETATM   15  C   UNL     1     -10.356  14.307  68.562  1.00  0.00    -0.244 C  
HETATM   16  C   UNL     1     -11.023  15.276  67.547  1.00  0.00    -0.315 C  
HETATM   17  N   UNL     1     -10.815  16.680  67.957  1.00  0.00    -0.350 NA 
HETATM   18  C   UNL     1     -10.442  15.127  66.125  1.00  0.00    -0.320 C  
HETATM   19  H2  UNL     1      -9.827  16.894  68.091  1.00  0.00     0.000 HD 
HETATM   20  H1  UNL     1     -11.253  17.316  67.290  1.00  0.00     0.000 HD 
HETATM   21  C   UNL     1     -10.523  13.687  65.596  1.00  0.00    -0.299 C  
HETATM   22  N   UNL     1     -10.153  13.639  64.177  1.00  0.00    -0.718 NA 
HETATM   23  C   UNL     1      -9.631  12.745  66.426  1.00  0.00    -0.254 C  
HETATM   24  C   UNL     1      -9.992  12.922  67.935  1.00  0.00    -0.233 C  
HETATM   25  O   UNL     1      -8.971  12.289  68.741  1.00  0.00    -0.376 OA 
HETATM   26  H1  UNL     1     -10.207  12.684  63.825  1.00  0.00     0.000 HD 
HETATM   27  H2  UNL     1      -9.236  14.053  64.011  1.00  0.00     0.000 HD 
HETATM   28  H   UNL     1      -8.749  11.447  68.360  1.00  0.00     0.000 HD 
BRANCH  23  29
HETATM   29  O   UNL     1      -9.937  11.358  66.101  1.00  0.00    -0.213 OA 
BRANCH  29  30
HETATM   30  C   UNL     1      -8.976  10.479  65.481  1.00  0.00    -0.183 C  
HETATM   31  O   UNL     1      -8.596  10.822  64.146  1.00  0.00    -0.137 OA 
HETATM   32  C   UNL     1      -7.533   9.988  63.659  1.00  0.00    -0.137 C  
HETATM   33  C   UNL     1      -7.921   8.488  63.572  1.00  0.00    -0.161 C  
HETATM   34  C   UNL     1      -8.344   8.006  64.987  1.00  0.00    -0.113 C  
HETATM   35  O   UNL     1      -9.023   8.347  62.662  1.00  0.00    -0.411 OA 
HETATM   36  C   UNL     1      -6.730   7.699  63.007  1.00  0.00    -0.067 C  
HETATM   37  H   UNL     1      -9.879   7.658  67.057  1.00  0.00     0.000 HD 
HETATM   38  H   UNL     1      -9.260   7.429  62.609  1.00  0.00     0.000 HD 
HETATM   39  C   UNL     1      -9.414   8.971  65.605  1.00  0.00    -0.203 C  
HETATM   40  O   UNL     1      -9.615   8.567  66.982  1.00  0.00    -0.162 OA 
BRANCH  34  41
HETATM   41  N   UNL     1      -8.684   6.566  65.201  1.00  0.00    -0.356 NA 
HETATM   42  C   UNL     1      -7.716   5.739  65.900  1.00  0.00    -0.092 C  
HETATM   43  H   UNL     1      -9.566   6.177  64.867  1.00  0.00     0.000 HD 
ENDBRANCH  34  41
ENDBRANCH  29  30
ENDBRANCH  23  29
ENDBRANCH  14  15
ENDBRANCH   9  14
ENDBRANCH   4   5
ENDBRANCH   2   4
TORSDOF 7
ENDMDL
MODEL       61
REMARK 921   NORMALIZED FREE ENERGY PREDICTED BY IDOCK:   -5.84 KCAL/MOL
REMARK 922        TOTAL FREE ENERGY PREDICTED BY IDOCK:   -9.95 KCAL/MOL
REMARK 923 INTER-LIGAND FREE ENERGY PREDICTED BY IDOCK:   -9.43 KCAL/MOL
REMARK 924 INTRA-LIGAND FREE ENERGY PREDICTED BY IDOCK:   -0.51 KCAL/MOL
REMARK 927      BINDING AFFINITY PREDICTED BY RF-SCORE:    0.00 PKD
ROOT
HETATM    1  C   UNL     1     -11.951  15.579  70.812  1.00  0.00    -0.378 C  
HETATM    2  N   UNL     1     -12.193  15.353  69.395  1.00  0.00    -0.566 NA 
HETATM    3  H   UNL     1     -12.911  15.989  69.049  1.00  0.00     0.000 HD 
ENDROOT
BRANCH   2   4
HETATM    4  C   UNL     1     -10.983  15.437  68.563  1.00  0.00    -0.278 C  
BRANCH   4   5
HETATM    5  C   UNL     1     -11.141  14.977  67.089  1.00  0.00    -0.332 C  
HETATM    6  C   UNL     1     -11.270  16.120  66.099  1.00  0.00     0.225 C  
HETATM    7  C   UNL     1     -11.367  15.546  64.685  1.00  0.00    -0.363 C  
HETATM    8  C   UNL     1     -12.380  14.385  64.580  1.00  0.00    -0.418 C  
HETATM    9  C   UNL     1     -12.353  13.372  65.811  1.00  0.00    -0.460 C  
HETATM   10  N   UNL     1     -12.295  13.791  63.225  1.00  0.00    -1.124 NA 
HETATM   11  O   UNL     1     -12.330  14.158  66.999  1.00  0.00    -0.396 OA 
HETATM   12  H1  UNL     1     -12.964  13.025  63.155  1.00  0.00     0.000 HD 
HETATM   13  H2  UNL     1     -11.347  13.501  62.986  1.00  0.00     0.000 HD 
BRANCH   9  14
HETATM   14  O   UNL     1     -11.314  12.364  65.796  1.00  0.00    -0.320 OA 
BRANCH  14  15
HETATM   15  C   UNL     1     -10.545  12.106  67.045  1.00  0.00    -0.228 C  
HETATM   16  C   UNL     1      -9.005  12.028  66.856  1.00  0.00    -0.199 C  
HETATM   17  N   UNL     1      -8.445  13.370  66.599  1.00  0.00    -0.426 NA 
HETATM   18  C   UNL     1      -8.289  11.466  68.101  1.00  0.00    -0.149 C  
HETATM   19  H2  UNL     1      -8.703  14.035  67.329  1.00  0.00     0.000 HD 
HETATM   20  H1  UNL     1      -7.434  13.318  66.475  1.00  0.00     0.000 HD 
HETATM   21  C   UNL     1      -8.828  10.093  68.531  1.00  0.00    -0.127 C  
HETATM   22  N   UNL     1      -7.983   9.516  69.582  1.00  0.00    -0.106 NA 
HETATM   23  C   UNL     1     -10.291  10.200  69.001  1.00  0.00    -0.212 C  
HETATM   24  C   UNL     1     -11.117  10.923  67.892  1.00  0.00    -0.302 C  
HETATM   25  O   UNL     1     -12.402  11.306  68.435  1.00  0.00    -0.593 OA 
HETATM   26  H1  UNL     1      -8.341   8.604  69.868  1.00  0.00     0.000 HD 
HETATM   27  H2  UNL     1      -7.880  10.148  70.376  1.00  0.00     0.000 HD 
HETATM   28  H   UNL     1     -12.751  10.587  68.950  1.00  0.00     0.000 HD 
BRANCH  23  29
HETATM   29  O   UNL     1     -10.869   8.869  69.129  1.00  0.00    -0.182 OA 
BRANCH  29  30
HETATM   30  C   UNL     1     -10.955   8.181  70.393  1.00  0.00    -0.247 C  
HETATM   31  O   UNL     1     -10.380   8.865  71.509  1.00  0.00    -0.267 OA 
HETATM   32  C   UNL     1     -10.636   8.185  72.748  1.00  0.00    -0.316 C  
HETATM   33  C   UNL     1     -10.014   6.765  72.808  1.00  0.00    -0.173 C  
HETATM   34  C   UNL     1     -10.586   5.926  71.633  1.00  0.00    -0.241 C  
HETATM   35  O   UNL     1      -8.588   6.879  72.673  1.00  0.00    -0.120 OA 
HETATM   36  C   UNL     1     -10.317   6.148  74.182  1.00  0.00    -0.308 C  
HETATM   37  H   UNL     1     -10.847   5.047  69.199  1.00  0.00     0.000 HD 
HETATM   38  H   UNL     1      -8.207   6.009  72.710  1.00  0.00     0.000 HD 
HETATM   39  C   UNL     1     -10.440   6.697  70.276  1.00  0.00    -0.209 C  
HETATM   40  O   UNL     1     -11.158   5.942  69.270  1.00  0.00    -0.360 OA 
BRANCH  34  41
HETATM   41  N   UNL     1     -10.215   4.483  71.512  1.00  0.00    -0.163 NA 
HETATM   42  C   UNL     1      -8.903   4.164  70.976  1.00  0.00    -0.094 C  
HETATM   43  H   UNL     1     -10.861   3.747  71.796  1.00  0.00     0.000 HD 
ENDBRANCH  34  41
ENDBRANCH  29  30
ENDBRANCH  23  29
ENDBRANCH  14  15
ENDBRANCH   9  14
ENDBRANCH   4   5
ENDBRANCH   2   4
TORSDOF 7
ENDMDL
MODEL       62
REMARK 921   NORMALIZED FREE ENERGY PREDICTED BY IDOCK:   -5.84 KCAL/MOL
REMARK 922        TOTAL FREE ENERGY PREDICTED BY IDOCK:   -9.94 KCAL/MOL
REMARK 923 INTER-LIGAND FREE ENERGY PREDICTED BY IDOCK:   -8.69 KCAL/MOL
REMARK 924 INTRA-LIGAND FREE ENERGY PREDICTED BY IDOCK:   -1.25 KCAL/MOL
REMARK 927      BINDING AFFINITY PREDICTED BY RF-SCORE:    0.00 PKD
ROOT
HETATM    1  C   UNL     1      -8.903  20.046  67.773  1.00  0.00    -0.302 C  
HETATM    2  N   UNL     1      -8.623  18.755  68.385  1.00  0.00    -0.332 NA 
HETATM    3  H   UNL     1      -8.020  18.868  69.199  1.00  0.00     0.000 HD 
ENDROOT
BRANCH   2   4
HETATM    4  C   UNL     1      -9.828  17.988  68.735  1.00  0.00    -0.354 C  
BRANCH   4   5
HETATM    5  C   UNL     1      -9.963  16.595  68.064  1.00  0.00    -0.258 C  
HETATM    6  C   UNL     1      -9.363  16.521  66.671  1.00  0.00    -0.279 C  
HETATM    7  C   UNL     1      -9.511  15.096  66.139  1.00  0.00    -0.354 C  
HETATM    8  C   UNL     1     -10.933  14.529  66.340  1.00  0.00    -0.324 C  
HETATM    9  C   UNL     1     -11.594  14.887  67.747  1.00  0.00    -0.339 C  
HETATM   10  N   UNL     1     -10.945  13.101  65.942  1.00  0.00    -0.270 NA 
HETATM   11  O   UNL     1     -11.371  16.276  67.971  1.00  0.00    -0.313 OA 
HETATM   12  H1  UNL     1     -11.884  12.727  66.075  1.00  0.00     0.000 HD 
HETATM   13  H2  UNL     1     -10.236  12.555  66.433  1.00  0.00     0.000 HD 
BRANCH   9  14
HETATM   14  O   UNL     1     -11.194  14.074  68.875  1.00  0.00    -0.247 OA 
BRANCH  14  15
HETATM   15  C   UNL     1     -12.210  13.205  69.531  1.00  0.00    -0.158 C  
HETATM   16  C   UNL     1     -12.542  13.587  70.999  1.00  0.00    -0.359 C  
HETATM   17  N   UNL     1     -13.343  14.827  71.044  1.00  0.00    -0.458 NA 
HETATM   18  C   UNL     1     -13.357  12.493  71.720  1.00  0.00    -0.382 C  
HETATM   19  H2  UNL     1     -14.185  14.756  70.472  1.00  0.00     0.000 HD 
HETATM   20  H1  UNL     1     -13.561  15.078  72.008  1.00  0.00     0.000 HD 
HETATM   21  C   UNL     1     -12.672  11.119  71.686  1.00  0.00    -0.360 C  
HETATM   22  N   UNL     1     -13.378  10.171  72.554  1.00  0.00    -0.535 NA 
HETATM   23  C   UNL     1     -12.587  10.583  70.244  1.00  0.00    -0.235 C  
HETATM   24  C   UNL     1     -11.931  11.678  69.346  1.00  0.00    -0.316 C  
HETATM   25  O   UNL     1     -12.123  11.324  67.956  1.00  0.00    -0.638 OA 
HETATM   26  H1  UNL     1     -12.924   9.258  72.532  1.00  0.00     0.000 HD 
HETATM   27  H2  UNL     1     -14.369  10.106  72.318  1.00  0.00     0.000 HD 
HETATM   28  H   UNL     1     -11.953  10.396  67.843  1.00  0.00     0.000 HD 
BRANCH  23  29
HETATM   29  O   UNL     1     -11.693   9.433  70.195  1.00  0.00    -0.163 OA 
BRANCH  29  30
HETATM   30  C   UNL     1     -10.281   9.539  70.471  1.00  0.00    -0.287 C  
HETATM   31  O   UNL     1      -9.436   9.671  69.326  1.00  0.00    -0.161 OA 
HETATM   32  C   UNL     1      -8.069   9.916  69.692  1.00  0.00    -0.165 C  
HETATM   33  C   UNL     1      -7.434   8.757  70.504  1.00  0.00    -0.075 C  
HETATM   34  C   UNL     1      -8.278   8.535  71.789  1.00  0.00    -0.155 C  
HETATM   35  O   UNL     1      -7.451   7.566  69.701  1.00  0.00    -0.087 OA 
HETATM   36  C   UNL     1      -5.969   9.108  70.808  1.00  0.00    -0.045 C  
HETATM   37  H   UNL     1     -10.241   7.686  73.268  1.00  0.00     0.000 HD 
HETATM   38  H   UNL     1      -7.061   6.857  70.198  1.00  0.00     0.000 HD 
HETATM   39  C   UNL     1      -9.798   8.391  71.437  1.00  0.00    -0.197 C  
HETATM   40  O   UNL     1     -10.532   8.378  72.686  1.00  0.00    -0.326 OA 
BRANCH  34  41
HETATM   41  N   UNL     1      -7.828   7.527  72.798  1.00  0.00    -0.095 NA 
HETATM   42  C   UNL     1      -8.498   6.239  72.812  1.00  0.00    -0.122 C  
HETATM   43  H   UNL     1      -7.076   7.739  73.454  1.00  0.00     0.000 HD 
ENDBRANCH  34  41
ENDBRANCH  29  30
ENDBRANCH  23  29
ENDBRANCH  14  15
ENDBRANCH   9  14
ENDBRANCH   4   5
ENDBRANCH   2   4
TORSDOF 7
ENDMDL
MODEL       63
REMARK 921   NORMALIZED FREE ENERGY PREDICTED BY IDOCK:   -5.81 KCAL/MOL
REMARK 922        TOTAL FREE ENERGY PREDICTED BY IDOCK:   -9.89 KCAL/MOL
REMARK 923 INTER-LIGAND FREE ENERGY PREDICTED BY IDOCK:   -8.23 KCAL/MOL
REMARK 924 INTRA-LIGAND FREE ENERGY PREDICTED BY IDOCK:   -1.66 KCAL/MOL
REMARK 927      BINDING AFFINITY PREDICTED BY RF-SCORE:    0.00 PKD
ROOT
HETATM    1  C   UNL     1     -10.214   5.311  71.685  1.00  0.00    -0.212 C  
HETATM    2  N   UNL     1     -11.249   6.020  70.948  1.00  0.00    -0.291 NA 
HETATM    3  H   UNL     1     -11.864   6.523  71.587  1.00  0.00     0.000 HD 
ENDROOT
BRANCH   2   4
HETATM    4  C   UNL     1     -10.728   6.925  69.912  1.00  0.00    -0.246 C  
BRANCH   4   5
HETATM    5  C   UNL     1     -10.908   8.443  70.185  1.00  0.00    -0.236 C  
HETATM    6  C   UNL     1     -12.109   8.774  71.052  1.00  0.00    -0.262 C  
HETATM    7  C   UNL     1     -12.151  10.283  71.291  1.00  0.00    -0.479 C  
HETATM    8  C   UNL     1     -11.953  11.098  69.995  1.00  0.00    -0.367 C  
HETATM    9  C   UNL     1     -10.841  10.515  69.011  1.00  0.00    -0.232 C  
HETATM   10  N   UNL     1     -11.851  12.536  70.339  1.00  0.00    -0.550 NA 
HETATM   11  O   UNL     1     -11.066   9.112  68.912  1.00  0.00    -0.047 OA 
HETATM   12  H1  UNL     1     -11.721  13.075  69.483  1.00  0.00     0.000 HD 
HETATM   13  H2  UNL     1     -11.122  12.720  71.028  1.00  0.00     0.000 HD 
BRANCH   9  14
HETATM   14  O   UNL     1      -9.466  10.833  69.329  1.00  0.00    -0.176 OA 
BRANCH  14  15
HETATM   15  C   UNL     1      -8.669  11.632  68.357  1.00  0.00    -0.158 C  
HETATM   16  C   UNL     1      -7.190  11.183  68.204  1.00  0.00    -0.080 C  
HETATM   17  N   UNL     1      -7.109   9.907  67.464  1.00  0.00    -0.087 NA 
HETATM   18  C   UNL     1      -6.342  12.213  67.429  1.00  0.00    -0.144 C  
HETATM   19  H2  UNL     1      -7.584   9.961  66.563  1.00  0.00     0.000 HD 
HETATM   20  H1  UNL     1      -6.138   9.613  67.364  1.00  0.00     0.000 HD 
HETATM   21  C   UNL     1      -6.394  13.617  68.050  1.00  0.00    -0.139 C  
HETATM   22  N   UNL     1      -5.417  14.501  67.405  1.00  0.00    -0.302 NA 
HETATM   23  C   UNL     1      -7.814  14.207  67.954  1.00  0.00    -0.155 C  
HETATM   24  C   UNL     1      -8.822  13.176  68.552  1.00  0.00    -0.045 C  
HETATM   25  O   UNL     1     -10.167  13.570  68.194  1.00  0.00    -0.235 OA 
HETATM   26  H1  UNL     1      -5.452  15.433  67.817  1.00  0.00     0.000 HD 
HETATM   27  H2  UNL     1      -5.542  14.529  66.393  1.00  0.00     0.000 HD 
HETATM   28  H   UNL     1     -10.260  14.508  68.312  1.00  0.00     0.000 HD 
BRANCH  23  29
HETATM   29  O   UNL     1      -7.914  15.397  68.790  1.00  0.00    -0.136 OA 
BRANCH  29  30
HETATM   30  C   UNL     1      -8.442  16.646  68.299  1.00  0.00    -0.203 C  
HETATM   31  O   UNL     1      -9.861  16.691  68.128  1.00  0.00    -0.239 OA 
HETATM   32  C   UNL     1     -10.318  18.007  67.779  1.00  0.00    -0.393 C  
HETATM   33  C   UNL     1      -9.754  18.514  66.425  1.00  0.00    -0.336 C  
HETATM   34  C   UNL     1      -8.203  18.514  66.507  1.00  0.00    -0.281 C  
HETATM   35  O   UNL     1     -10.185  17.624  65.383  1.00  0.00    -0.576 OA 
HETATM   36  C   UNL     1     -10.335  19.906  66.136  1.00  0.00    -0.604 C  
HETATM   37  H   UNL     1      -5.786  17.556  66.463  1.00  0.00     0.000 HD 
HETATM   38  H   UNL     1      -9.840  17.934  64.555  1.00  0.00     0.000 HD 
HETATM   39  C   UNL     1      -7.673  17.127  67.011  1.00  0.00    -0.189 C  
HETATM   40  O   UNL     1      -6.249  17.266  67.239  1.00  0.00    -0.132 OA 
BRANCH  34  41
HETATM   41  N   UNL     1      -7.407  19.045  65.358  1.00  0.00    -0.435 NA 
HETATM   42  C   UNL     1      -6.630  20.252  65.574  1.00  0.00    -0.265 C  
HETATM   43  H   UNL     1      -7.411  18.575  64.453  1.00  0.00     0.000 HD 
ENDBRANCH  34  41
ENDBRANCH  29  30
ENDBRANCH  23  29
ENDBRANCH  14  15
ENDBRANCH   9  14
ENDBRANCH   4   5
ENDBRANCH   2   4
TORSDOF 7
ENDMDL
MODEL       64
REMARK 921   NORMALIZED FREE ENERGY PREDICTED BY IDOCK:   -5.79 KCAL/MOL
REMARK 922        TOTAL FREE ENERGY PREDICTED BY IDOCK:   -9.87 KCAL/MOL
REMARK 923 INTER-LIGAND FREE ENERGY PREDICTED BY IDOCK:   -8.32 KCAL/MOL
REMARK 924 INTRA-LIGAND FREE ENERGY PREDICTED BY IDOCK:   -1.55 KCAL/MOL
REMARK 927      BINDING AFFINITY PREDICTED BY RF-SCORE:    0.00 PKD
ROOT
HETATM    1  C   UNL     1     -12.959   9.521  71.668  1.00  0.00    -0.396 C  
HETATM    2  N   UNL     1     -12.558   8.495  72.619  1.00  0.00    -0.572 NA 
HETATM    3  H   UNL     1     -13.150   7.670  72.527  1.00  0.00     0.000 HD 
ENDROOT
BRANCH   2   4
HETATM    4  C   UNL     1     -11.138   8.125  72.533  1.00  0.00    -0.377 C  
BRANCH   4   5
HETATM    5  C   UNL     1     -10.836   6.733  71.914  1.00  0.00    -0.232 C  
HETATM    6  C   UNL     1     -10.547   5.653  72.941  1.00  0.00    -0.268 C  
HETATM    7  C   UNL     1     -10.318   4.327  72.217  1.00  0.00    -0.214 C  
HETATM    8  C   UNL     1      -9.351   4.458  71.020  1.00  0.00    -0.149 C  
HETATM    9  C   UNL     1      -9.560   5.775  70.145  1.00  0.00    -0.166 C  
HETATM   10  N   UNL     1      -9.309   3.171  70.288  1.00  0.00    -0.156 NA 
HETATM   11  O   UNL     1      -9.681   6.866  71.053  1.00  0.00    -0.174 OA 
HETATM   12  H1  UNL     1      -8.671   3.258  69.498  1.00  0.00     0.000 HD 
HETATM   13  H2  UNL     1     -10.236   2.855  70.004  1.00  0.00     0.000 HD 
BRANCH   9  14
HETATM   14  O   UNL     1     -10.633   5.743  69.175  1.00  0.00    -0.250 OA 
BRANCH  14  15
HETATM   15  C   UNL     1     -10.386   6.284  67.810  1.00  0.00    -0.195 C  
HETATM   16  C   UNL     1      -9.447   5.417  66.926  1.00  0.00    -0.135 C  
HETATM   17  N   UNL     1     -10.140   4.188  66.485  1.00  0.00    -0.371 NA 
HETATM   18  C   UNL     1      -8.986   6.160  65.655  1.00  0.00    -0.056 C  
HETATM   19  H2  UNL     1     -11.019   4.397  66.012  1.00  0.00     0.000 HD 
HETATM   20  H1  UNL     1      -9.524   3.619  65.906  1.00  0.00     0.000 HD 
HETATM   21  C   UNL     1      -8.310   7.504  65.962  1.00  0.00    -0.136 C  
HETATM   22  N   UNL     1      -7.710   8.067  64.748  1.00  0.00    -0.112 NA 
HETATM   23  C   UNL     1      -9.311   8.493  66.588  1.00  0.00    -0.189 C  
HETATM   24  C   UNL     1     -10.000   7.800  67.805  1.00  0.00    -0.174 C  
HETATM   25  O   UNL     1     -11.147   8.584  68.207  1.00  0.00    -0.442 OA 
HETATM   26  H1  UNL     1      -7.261   8.960  64.951  1.00  0.00     0.000 HD 
HETATM   27  H2  UNL     1      -8.390   8.149  63.992  1.00  0.00     0.000 HD 
HETATM   28  H   UNL     1     -10.913   9.505  68.204  1.00  0.00     0.000 HD 
BRANCH  23  29
HETATM   29  O   UNL     1      -8.600   9.643  67.131  1.00  0.00    -0.130 OA 
BRANCH  29  30
HETATM   30  C   UNL     1      -9.078  10.995  66.971  1.00  0.00    -0.147 C  
HETATM   31  O   UNL     1      -9.936  11.472  68.011  1.00  0.00    -0.178 OA 
HETATM   32  C   UNL     1     -10.246  12.866  67.853  1.00  0.00    -0.233 C  
HETATM   33  C   UNL     1     -11.020  13.178  66.545  1.00  0.00    -0.286 C  
HETATM   34  C   UNL     1     -10.162  12.703  65.340  1.00  0.00    -0.284 C  
HETATM   35  O   UNL     1     -12.267  12.464  66.564  1.00  0.00    -0.586 OA 
HETATM   36  C   UNL     1     -11.330  14.682  66.499  1.00  0.00    -0.353 C  
HETATM   37  H   UNL     1      -9.128  11.052  63.617  1.00  0.00     0.000 HD 
HETATM   38  H   UNL     1     -12.740  12.656  65.763  1.00  0.00     0.000 HD 
HETATM   39  C   UNL     1      -9.695  11.220  65.540  1.00  0.00    -0.229 C  
HETATM   40  O   UNL     1      -8.756  10.917  64.481  1.00  0.00    -0.135 OA 
BRANCH  34  41
HETATM   41  N   UNL     1     -10.641  12.968  63.949  1.00  0.00    -0.508 NA 
HETATM   42  C   UNL     1     -11.761  12.184  63.458  1.00  0.00    -0.490 C  
HETATM   43  H   UNL     1     -10.195  13.675  63.364  1.00  0.00     0.000 HD 
ENDBRANCH  34  41
ENDBRANCH  29  30
ENDBRANCH  23  29
ENDBRANCH  14  15
ENDBRANCH   9  14
ENDBRANCH   4   5
ENDBRANCH   2   4
TORSDOF 7
ENDMDL
MODEL       65
REMARK 921   NORMALIZED FREE ENERGY PREDICTED BY IDOCK:   -5.75 KCAL/MOL
REMARK 922        TOTAL FREE ENERGY PREDICTED BY IDOCK:   -9.82 KCAL/MOL
REMARK 923 INTER-LIGAND FREE ENERGY PREDICTED BY IDOCK:   -8.20 KCAL/MOL
REMARK 924 INTRA-LIGAND FREE ENERGY PREDICTED BY IDOCK:   -1.62 KCAL/MOL
REMARK 927      BINDING AFFINITY PREDICTED BY RF-SCORE:    0.00 PKD
ROOT
HETATM    1  C   UNL     1      -9.510  19.500  68.430  1.00  0.00    -0.376 C  
HETATM    2  N   UNL     1     -10.252  18.379  67.871  1.00  0.00    -0.363 NA 
HETATM    3  H   UNL     1      -9.988  18.224  66.898  1.00  0.00     0.000 HD 
ENDROOT
BRANCH   2   4
HETATM    4  C   UNL     1     -10.124  17.136  68.646  1.00  0.00    -0.329 C  
BRANCH   4   5
HETATM    5  C   UNL     1     -10.504  15.828  67.898  1.00  0.00    -0.270 C  
HETATM    6  C   UNL     1     -10.640  15.997  66.396  1.00  0.00    -0.284 C  
HETATM    7  C   UNL     1     -10.962  14.641  65.770  1.00  0.00    -0.330 C  
HETATM    8  C   UNL     1     -12.088  13.892  66.514  1.00  0.00    -0.449 C  
HETATM    9  C   UNL     1     -12.011  13.996  68.104  1.00  0.00    -0.347 C  
HETATM   10  N   UNL     1     -12.227  12.532  65.941  1.00  0.00    -0.624 NA 
HETATM   11  O   UNL     1     -11.769  15.363  68.422  1.00  0.00    -0.352 OA 
HETATM   12  H1  UNL     1     -12.971  12.038  66.433  1.00  0.00     0.000 HD 
HETATM   13  H2  UNL     1     -11.348  12.016  65.948  1.00  0.00     0.000 HD 
BRANCH   9  14
HETATM   14  O   UNL     1     -11.085  13.102  68.766  1.00  0.00    -0.250 OA 
BRANCH  14  15
HETATM   15  C   UNL     1     -11.549  11.739  69.147  1.00  0.00    -0.310 C  
HETATM   16  C   UNL     1     -11.958  11.584  70.637  1.00  0.00    -0.292 C  
HETATM   17  N   UNL     1     -13.243  12.266  70.896  1.00  0.00     0.181 NA 
HETATM   18  C   UNL     1     -12.138  10.107  71.046  1.00  0.00    -0.476 C  
HETATM   19  H2  UNL     1     -13.978  11.943  70.266  1.00  0.00     0.000 HD 
HETATM   20  H1  UNL     1     -13.511  12.164  71.875  1.00  0.00     0.000 HD 
HETATM   21  C   UNL     1     -10.892   9.254  70.760  1.00  0.00    -0.284 C  
HETATM   22  N   UNL     1     -11.037   7.919  71.351  1.00  0.00    -0.239 NA 
HETATM   23  C   UNL     1     -10.629   9.157  69.245  1.00  0.00    -0.216 C  
HETATM   24  C   UNL     1     -10.598  10.601  68.653  1.00  0.00    -0.203 C  
HETATM   25  O   UNL     1     -10.662  10.520  67.210  1.00  0.00    -0.250 OA 
HETATM   26  H1  UNL     1     -10.210   7.353  71.161  1.00  0.00     0.000 HD 
HETATM   27  H2  UNL     1     -11.892   7.458  71.040  1.00  0.00     0.000 HD 
HETATM   28  H   UNL     1     -10.084   9.828  66.910  1.00  0.00     0.000 HD 
BRANCH  23  29
HETATM   29  O   UNL     1      -9.304   8.597  69.007  1.00  0.00    -0.145 OA 
BRANCH  29  30
HETATM   30  C   UNL     1      -9.077   7.512  68.085  1.00  0.00    -0.128 C  
HETATM   31  O   UNL     1      -9.515   7.740  66.743  1.00  0.00    -0.172 OA 
HETATM   32  C   UNL     1      -9.121   6.677  65.861  1.00  0.00    -0.029 C  
HETATM   33  C   UNL     1      -9.743   5.306  66.238  1.00  0.00    -0.169 C  
HETATM   34  C   UNL     1      -9.316   4.954  67.689  1.00  0.00    -0.130 C  
HETATM   35  O   UNL     1     -11.174   5.411  66.165  1.00  0.00    -0.761 OA 
HETATM   36  C   UNL     1      -9.287   4.257  65.212  1.00  0.00    -0.165 C  
HETATM   37  H   UNL     1      -9.345   4.997  70.289  1.00  0.00     0.000 HD 
HETATM   38  H   UNL     1     -11.554   4.572  66.395  1.00  0.00     0.000 HD 
HETATM   39  C   UNL     1      -9.614   6.147  68.661  1.00  0.00    -0.127 C  
HETATM   40  O   UNL     1      -9.022   5.819  69.941  1.00  0.00    -0.128 OA 
BRANCH  34  41
HETATM   41  N   UNL     1      -9.710   3.634  68.270  1.00  0.00    -0.087 NA 
HETATM   42  C   UNL     1      -8.670   2.634  68.445  1.00  0.00    -0.093 C  
HETATM   43  H   UNL     1     -10.676   3.442  68.535  1.00  0.00     0.000 HD 
ENDBRANCH  34  41
ENDBRANCH  29  30
ENDBRANCH  23  29
ENDBRANCH  14  15
ENDBRANCH   9  14
ENDBRANCH   4   5
ENDBRANCH   2   4
TORSDOF 7
ENDMDL
MODEL       66
REMARK 921   NORMALIZED FREE ENERGY PREDICTED BY IDOCK:   -5.74 KCAL/MOL
REMARK 922        TOTAL FREE ENERGY PREDICTED BY IDOCK:   -9.80 KCAL/MOL
REMARK 923 INTER-LIGAND FREE ENERGY PREDICTED BY IDOCK:   -8.32 KCAL/MOL
REMARK 924 INTRA-LIGAND FREE ENERGY PREDICTED BY IDOCK:   -1.48 KCAL/MOL
REMARK 927      BINDING AFFINITY PREDICTED BY RF-SCORE:    0.00 PKD
ROOT
HETATM    1  C   UNL     1      -8.487   8.239  70.984  1.00  0.00    -0.133 C  
HETATM    2  N   UNL     1      -8.397   8.837  69.660  1.00  0.00    -0.123 NA 
HETATM    3  H   UNL     1      -7.963   8.188  69.004  1.00  0.00     0.000 HD 
ENDROOT
BRANCH   2   4
HETATM    4  C   UNL     1      -9.683   9.320  69.137  1.00  0.00    -0.164 C  
BRANCH   4   5
HETATM    5  C   UNL     1      -9.826   9.329  67.591  1.00  0.00    -0.176 C  
HETATM    6  C   UNL     1      -9.006   8.260  66.892  1.00  0.00    -0.169 C  
HETATM    7  C   UNL     1      -9.268   8.336  65.388  1.00  0.00     0.088 C  
HETATM    8  C   UNL     1      -9.188   9.776  64.839  1.00  0.00    -0.257 C  
HETATM    9  C   UNL     1      -9.850  10.879  65.782  1.00  0.00    -0.237 C  
HETATM   10  N   UNL     1      -9.605   9.777  63.417  1.00  0.00    -0.504 NA 
HETATM   11  O   UNL     1      -9.396  10.623  67.108  1.00  0.00    -0.154 OA 
HETATM   12  H1  UNL     1      -9.552  10.729  63.055  1.00  0.00     0.000 HD 
HETATM   13  H2  UNL     1     -10.527   9.362  63.283  1.00  0.00     0.000 HD 
BRANCH   9  14
HETATM   14  O   UNL     1     -11.289  11.014  65.708  1.00  0.00     0.046 OA 
BRANCH  14  15
HETATM   15  C   UNL     1     -11.873  12.360  65.452  1.00  0.00    -0.406 C  
HETATM   16  C   UNL     1     -11.750  12.854  63.984  1.00  0.00    -0.434 C  
HETATM   17  N   UNL     1     -12.678  12.110  63.107  1.00  0.00    -0.821 NA 
HETATM   18  C   UNL     1     -12.090  14.352  63.839  1.00  0.00    -0.190 C  
HETATM   19  H2  UNL     1     -13.639  12.159  63.444  1.00  0.00     0.000 HD 
HETATM   20  H1  UNL     1     -12.597  12.434  62.144  1.00  0.00     0.000 HD 
HETATM   21  C   UNL     1     -11.245  15.247  64.759  1.00  0.00    -0.396 C  
HETATM   22  N   UNL     1     -11.458  16.662  64.435  1.00  0.00    -1.123 NA 
HETATM   23  C   UNL     1     -11.564  14.969  66.240  1.00  0.00    -0.160 C  
HETATM   24  C   UNL     1     -11.431  13.436  66.497  1.00  0.00    -0.341 C  
HETATM   25  O   UNL     1     -12.019  13.120  67.781  1.00  0.00    -0.350 OA 
HETATM   26  H1  UNL     1     -10.898  17.256  65.045  1.00  0.00     0.000 HD 
HETATM   27  H2  UNL     1     -12.447  16.913  64.466  1.00  0.00     0.000 HD 
HETATM   28  H   UNL     1     -11.751  13.774  68.417  1.00  0.00     0.000 HD 
BRANCH  23  29
HETATM   29  O   UNL     1     -10.566  15.607  67.089  1.00  0.00    -0.299 OA 
BRANCH  29  30
HETATM   30  C   UNL     1      -9.225  15.095  67.226  1.00  0.00    -0.198 C  
HETATM   31  O   UNL     1      -8.981  14.308  68.395  1.00  0.00    -0.181 OA 
HETATM   32  C   UNL     1      -7.672  13.717  68.382  1.00  0.00    -0.138 C  
HETATM   33  C   UNL     1      -6.527  14.763  68.380  1.00  0.00    -0.103 C  
HETATM   34  C   UNL     1      -6.693  15.673  67.132  1.00  0.00    -0.045 C  
HETATM   35  O   UNL     1      -6.623  15.556  69.574  1.00  0.00    -0.150 OA 
HETATM   36  C   UNL     1      -5.180  14.025  68.404  1.00  0.00    -0.103 C  
HETATM   37  H   UNL     1      -7.634  17.597  65.658  1.00  0.00     0.000 HD 
HETATM   38  H   UNL     1      -5.922  16.197  69.573  1.00  0.00     0.000 HD 
HETATM   39  C   UNL     1      -8.153  16.234  67.043  1.00  0.00    -0.209 C  
HETATM   40  O   UNL     1      -8.280  16.910  65.768  1.00  0.00    -0.444 OA 
BRANCH  34  41
HETATM   41  N   UNL     1      -5.662  16.716  66.842  1.00  0.00    -0.302 NA 
HETATM   42  C   UNL     1      -5.852  18.035  67.421  1.00  0.00    -0.148 C  
HETATM   43  H   UNL     1      -4.852  16.509  66.257  1.00  0.00     0.000 HD 
ENDBRANCH  34  41
ENDBRANCH  29  30
ENDBRANCH  23  29
ENDBRANCH  14  15
ENDBRANCH   9  14
ENDBRANCH   4   5
ENDBRANCH   2   4
TORSDOF 7
ENDMDL
MODEL       67
REMARK 921   NORMALIZED FREE ENERGY PREDICTED BY IDOCK:   -5.73 KCAL/MOL
REMARK 922        TOTAL FREE ENERGY PREDICTED BY IDOCK:   -9.79 KCAL/MOL
REMARK 923 INTER-LIGAND FREE ENERGY PREDICTED BY IDOCK:   -8.84 KCAL/MOL
REMARK 924 INTRA-LIGAND FREE ENERGY PREDICTED BY IDOCK:   -0.94 KCAL/MOL
REMARK 927      BINDING AFFINITY PREDICTED BY RF-SCORE:    0.00 PKD
ROOT
HETATM    1  C   UNL     1     -10.528  11.242  63.654  1.00  0.00    -0.405 C  
HETATM    2  N   UNL     1     -11.672  11.935  63.079  1.00  0.00    -0.742 NA 
HETATM    3  H   UNL     1     -12.483  11.317  63.042  1.00  0.00     0.000 HD 
ENDROOT
BRANCH   2   4
HETATM    4  C   UNL     1     -12.010  13.193  63.761  1.00  0.00    -0.508 C  
BRANCH   4   5
HETATM    5  C   UNL     1     -11.525  13.319  65.231  1.00  0.00    -0.295 C  
HETATM    6  C   UNL     1     -12.533  13.976  66.157  1.00  0.00    -0.467 C  
HETATM    7  C   UNL     1     -11.966  13.997  67.576  1.00  0.00    -0.430 C  
HETATM    8  C   UNL     1     -10.507  14.499  67.629  1.00  0.00    -0.246 C  
HETATM    9  C   UNL     1      -9.580  13.959  66.448  1.00  0.00    -0.277 C  
HETATM   10  N   UNL     1      -9.990  14.339  69.008  1.00  0.00    -0.395 NA 
HETATM   11  O   UNL     1     -10.315  14.111  65.237  1.00  0.00    -0.344 OA 
HETATM   12  H1  UNL     1      -9.026  14.671  69.043  1.00  0.00     0.000 HD 
HETATM   13  H2  UNL     1     -10.083  13.382  69.350  1.00  0.00     0.000 HD 
BRANCH   9  14
HETATM   14  O   UNL     1      -9.045  12.624  66.605  1.00  0.00    -0.222 OA 
BRANCH  14  15
HETATM   15  C   UNL     1      -8.188  12.327  67.787  1.00  0.00    -0.161 C  
HETATM   16  C   UNL     1      -6.668  12.236  67.482  1.00  0.00    -0.138 C  
HETATM   17  N   UNL     1      -6.111  13.578  67.217  1.00  0.00    -0.422 NA 
HETATM   18  C   UNL     1      -5.869  11.637  68.658  1.00  0.00    -0.046 C  
HETATM   19  H2  UNL     1      -6.306  14.227  67.979  1.00  0.00     0.000 HD 
HETATM   20  H1  UNL     1      -5.113  13.518  67.016  1.00  0.00     0.000 HD 
HETATM   21  C   UNL     1      -6.392  10.260  69.094  1.00  0.00    -0.045 C  
HETATM   22  N   UNL     1      -5.479   9.647  70.066  1.00  0.00    -0.032 NA 
HETATM   23  C   UNL     1      -7.815  10.371  69.674  1.00  0.00    -0.129 C  
HETATM   24  C   UNL     1      -8.711  11.130  68.646  1.00  0.00    -0.153 C  
HETATM   25  O   UNL     1      -9.948  11.513  69.292  1.00  0.00    -0.418 OA 
HETATM   26  H1  UNL     1      -5.826   8.733  70.355  1.00  0.00     0.000 HD 
HETATM   27  H2  UNL     1      -5.310  10.259  70.864  1.00  0.00     0.000 HD 
HETATM   28  H   UNL     1     -10.266  10.786  69.815  1.00  0.00     0.000 HD 
BRANCH  23  29
HETATM   29  O   UNL     1      -8.399   9.043  69.813  1.00  0.00    -0.115 OA 
BRANCH  29  30
HETATM   30  C   UNL     1      -8.807   8.507  71.088  1.00  0.00    -0.179 C  
HETATM   31  O   UNL     1      -8.112   7.333  71.515  1.00  0.00    -0.100 OA 
HETATM   32  C   UNL     1      -8.473   6.951  72.852  1.00  0.00    -0.115 C  
HETATM   33  C   UNL     1      -9.973   6.582  73.000  1.00  0.00    -0.172 C  
HETATM   34  C   UNL     1     -10.827   7.805  72.567  1.00  0.00    -0.328 C  
HETATM   35  O   UNL     1     -10.260   5.463  72.146  1.00  0.00    -0.190 OA 
HETATM   36  C   UNL     1     -10.238   6.156  74.452  1.00  0.00    -0.332 C  
HETATM   37  H   UNL     1     -12.020   9.467  70.961  1.00  0.00     0.000 HD 
HETATM   38  H   UNL     1     -11.178   5.237  72.237  1.00  0.00     0.000 HD 
HETATM   39  C   UNL     1     -10.371   8.332  71.162  1.00  0.00    -0.202 C  
HETATM   40  O   UNL     1     -11.077   9.572  70.916  1.00  0.00    -0.279 OA 
BRANCH  34  41
HETATM   41  N   UNL     1     -12.314   7.746  72.699  1.00  0.00    -0.575 NA 
HETATM   42  C   UNL     1     -13.079   7.305  71.545  1.00  0.00    -0.384 C  
HETATM   43  H   UNL     1     -12.777   8.006  73.570  1.00  0.00     0.000 HD 
ENDBRANCH  34  41
ENDBRANCH  29  30
ENDBRANCH  23  29
ENDBRANCH  14  15
ENDBRANCH   9  14
ENDBRANCH   4   5
ENDBRANCH   2   4
TORSDOF 7
ENDMDL
MODEL       68
REMARK 921   NORMALIZED FREE ENERGY PREDICTED BY IDOCK:   -5.70 KCAL/MOL
REMARK 922        TOTAL FREE ENERGY PREDICTED BY IDOCK:   -9.75 KCAL/MOL
REMARK 923 INTER-LIGAND FREE ENERGY PREDICTED BY IDOCK:   -8.95 KCAL/MOL
REMARK 924 INTRA-LIGAND FREE ENERGY PREDICTED BY IDOCK:   -0.80 KCAL/MOL
REMARK 927      BINDING AFFINITY PREDICTED BY RF-SCORE:    0.00 PKD
ROOT
HETATM    1  C   UNL     1      -9.532  10.384  62.591  1.00  0.00    -0.294 C  
HETATM    2  N   UNL     1      -9.195   8.971  62.497  1.00  0.00    -0.537 NA 
HETATM    3  H   UNL     1      -8.890   8.738  61.552  1.00  0.00     0.000 HD 
ENDROOT
BRANCH   2   4
HETATM    4  C   UNL     1      -8.201   8.528  63.485  1.00  0.00    -0.133 C  
BRANCH   4   5
HETATM    5  C   UNL     1      -8.229   9.265  64.852  1.00  0.00    -0.145 C  
HETATM    6  C   UNL     1      -6.905   9.235  65.594  1.00  0.00    -0.074 C  
HETATM    7  C   UNL     1      -7.042  10.031  66.891  1.00  0.00    -0.090 C  
HETATM    8  C   UNL     1      -8.318   9.669  67.682  1.00  0.00    -0.121 C  
HETATM    9  C   UNL     1      -9.616   9.457  66.779  1.00  0.00    -0.179 C  
HETATM   10  N   UNL     1      -8.451  10.590  68.834  1.00  0.00    -0.143 NA 
HETATM   11  O   UNL     1      -9.231   8.634  65.681  1.00  0.00    -0.200 OA 
HETATM   12  H1  UNL     1      -9.294  10.351  69.356  1.00  0.00     0.000 HD 
HETATM   13  H2  UNL     1      -8.435  11.571  68.552  1.00  0.00     0.000 HD 
BRANCH   9  14
HETATM   14  O   UNL     1     -10.311  10.653  66.355  1.00  0.00    -0.231 OA 
BRANCH  14  15
HETATM   15  C   UNL     1     -10.470  11.773  67.324  1.00  0.00    -0.214 C  
HETATM   16  C   UNL     1     -11.873  11.869  67.983  1.00  0.00    -0.253 C  
HETATM   17  N   UNL     1     -12.060  10.783  68.967  1.00  0.00    -0.701 NA 
HETATM   18  C   UNL     1     -12.079  13.202  68.733  1.00  0.00    -0.226 C  
HETATM   19  H2  UNL     1     -11.315  10.770  69.663  1.00  0.00     0.000 HD 
HETATM   20  H1  UNL     1     -12.981  10.846  69.399  1.00  0.00     0.000 HD 
HETATM   21  C   UNL     1     -11.841  14.431  67.842  1.00  0.00    -0.349 C  
HETATM   22  N   UNL     1     -12.247  15.656  68.538  1.00  0.00    -0.472 NA 
HETATM   23  C   UNL     1     -10.366  14.513  67.403  1.00  0.00    -0.252 C  
HETATM   24  C   UNL     1      -9.958  13.145  66.774  1.00  0.00    -0.250 C  
HETATM   25  O   UNL     1      -8.518  13.097  66.643  1.00  0.00    -0.422 OA 
HETATM   26  H1  UNL     1     -12.089  16.472  67.947  1.00  0.00     0.000 HD 
HETATM   27  H2  UNL     1     -11.786  15.749  69.443  1.00  0.00     0.000 HD 
HETATM   28  H   UNL     1      -8.207  13.930  66.308  1.00  0.00     0.000 HD 
BRANCH  23  29
HETATM   29  O   UNL     1     -10.220  15.502  66.343  1.00  0.00    -0.267 OA 
BRANCH  29  30
HETATM   30  C   UNL     1      -9.062  16.356  66.236  1.00  0.00    -0.327 C  
HETATM   31  O   UNL     1      -7.953  15.998  67.064  1.00  0.00    -0.182 OA 
HETATM   32  C   UNL     1      -6.796  16.805  66.790  1.00  0.00    -0.230 C  
HETATM   33  C   UNL     1      -7.018  18.313  67.080  1.00  0.00    -0.194 C  
HETATM   34  C   UNL     1      -8.208  18.811  66.215  1.00  0.00    -0.252 C  
HETATM   35  O   UNL     1      -7.330  18.475  68.473  1.00  0.00    -0.275 OA 
HETATM   36  C   UNL     1      -5.713  19.071  66.791  1.00  0.00    -0.167 C  
HETATM   37  H   UNL     1     -10.680  19.204  65.512  1.00  0.00     0.000 HD 
HETATM   38  H   UNL     1      -7.465  19.398  68.650  1.00  0.00     0.000 HD 
HETATM   39  C   UNL     1      -9.453  17.874  66.389  1.00  0.00    -0.267 C  
HETATM   40  O   UNL     1     -10.445  18.289  65.419  1.00  0.00    -0.571 OA 
BRANCH  34  41
HETATM   41  N   UNL     1      -8.576  20.259  66.237  1.00  0.00    -0.553 NA 
HETATM   42  C   UNL     1      -9.467  20.715  67.290  1.00  0.00    -0.379 C  
HETATM   43  H   UNL     1      -8.213  20.906  65.537  1.00  0.00     0.000 HD 
ENDBRANCH  34  41
ENDBRANCH  29  30
ENDBRANCH  23  29
ENDBRANCH  14  15
ENDBRANCH   9  14
ENDBRANCH   4   5
ENDBRANCH   2   4
TORSDOF 7
ENDMDL
MODEL       69
REMARK 921   NORMALIZED FREE ENERGY PREDICTED BY IDOCK:   -5.69 KCAL/MOL
REMARK 922        TOTAL FREE ENERGY PREDICTED BY IDOCK:   -9.73 KCAL/MOL
REMARK 923 INTER-LIGAND FREE ENERGY PREDICTED BY IDOCK:   -8.37 KCAL/MOL
REMARK 924 INTRA-LIGAND FREE ENERGY PREDICTED BY IDOCK:   -1.36 KCAL/MOL
REMARK 927      BINDING AFFINITY PREDICTED BY RF-SCORE:    0.00 PKD
ROOT
HETATM    1  C   UNL     1      -5.755  10.915  70.548  1.00  0.00    -0.129 C  
HETATM    2  N   UNL     1      -6.429   9.725  70.051  1.00  0.00    -0.063 NA 
HETATM    3  H   UNL     1      -6.272   8.936  70.679  1.00  0.00     0.000 HD 
ENDROOT
BRANCH   2   4
HETATM    4  C   UNL     1      -7.866   9.912  69.806  1.00  0.00    -0.163 C  
BRANCH   4   5
HETATM    5  C   UNL     1      -8.323   9.794  68.327  1.00  0.00    -0.106 C  
HETATM    6  C   UNL     1      -7.565   8.746  67.531  1.00  0.00    -0.093 C  
HETATM    7  C   UNL     1      -8.136   8.687  66.115  1.00  0.00    -0.108 C  
HETATM    8  C   UNL     1      -8.309  10.085  65.482  1.00  0.00    -0.148 C  
HETATM    9  C   UNL     1      -8.867  11.197  66.480  1.00  0.00    -0.171 C  
HETATM   10  N   UNL     1      -9.007   9.945  64.182  1.00  0.00    -0.223 NA 
HETATM   11  O   UNL     1      -8.128  11.079  67.692  1.00  0.00    -0.113 OA 
HETATM   12  H1  UNL     1      -9.121  10.868  63.765  1.00  0.00     0.000 HD 
HETATM   13  H2  UNL     1      -9.893   9.446  64.269  1.00  0.00     0.000 HD 
BRANCH   9  14
HETATM   14  O   UNL     1     -10.296  11.206  66.704  1.00  0.00    -0.223 OA 
BRANCH  14  15
HETATM   15  C   UNL     1     -11.105  12.324  66.141  1.00  0.00    -0.311 C  
HETATM   16  C   UNL     1     -10.926  12.553  64.616  1.00  0.00    -0.310 C  
HETATM   17  N   UNL     1     -11.589  11.477  63.849  1.00  0.00    -0.427 NA 
HETATM   18  C   UNL     1     -11.539  13.889  64.147  1.00  0.00    -0.323 C  
HETATM   19  H2  UNL     1     -12.571  11.380  64.105  1.00  0.00     0.000 HD 
HETATM   20  H1  UNL     1     -11.472  11.627  62.847  1.00  0.00     0.000 HD 
HETATM   21  C   UNL     1     -10.991  15.099  64.918  1.00  0.00    -0.419 C  
HETATM   22  N   UNL     1     -11.444  16.350  64.301  1.00  0.00    -1.239 NA 
HETATM   23  C   UNL     1     -11.404  15.039  66.401  1.00  0.00    -0.275 C  
HETATM   24  C   UNL     1     -10.999  13.644  66.973  1.00  0.00    -0.289 C  
HETATM   25  O   UNL     1     -11.647  13.453  68.253  1.00  0.00    -0.299 OA 
HETATM   26  H1  UNL     1     -11.080  17.154  64.813  1.00  0.00     0.000 HD 
HETATM   27  H2  UNL     1     -12.460  16.384  64.214  1.00  0.00     0.000 HD 
HETATM   28  H   UNL     1     -11.582  14.255  68.758  1.00  0.00     0.000 HD 
BRANCH  23  29
HETATM   29  O   UNL     1     -10.649  16.022  67.167  1.00  0.00    -0.306 OA 
BRANCH  29  30
HETATM   30  C   UNL     1      -9.298  16.395  66.828  1.00  0.00    -0.245 C  
HETATM   31  O   UNL     1      -8.281  15.881  67.693  1.00  0.00    -0.143 OA 
HETATM   32  C   UNL     1      -6.963  16.175  67.204  1.00  0.00    -0.209 C  
HETATM   33  C   UNL     1      -6.663  17.695  67.122  1.00  0.00    -0.165 C  
HETATM   34  C   UNL     1      -7.715  18.354  66.189  1.00  0.00    -0.218 C  
HETATM   35  O   UNL     1      -6.763  18.258  68.440  1.00  0.00    -0.213 OA 
HETATM   36  C   UNL     1      -5.222  17.890  66.627  1.00  0.00    -0.179 C  
HETATM   37  H   UNL     1      -9.992  19.382  65.468  1.00  0.00     0.000 HD 
HETATM   38  H   UNL     1      -6.579  19.188  68.389  1.00  0.00     0.000 HD 
HETATM   39  C   UNL     1      -9.168  17.950  66.615  1.00  0.00    -0.278 C  
HETATM   40  O   UNL     1     -10.070  18.444  65.596  1.00  0.00    -0.519 OA 
BRANCH  34  41
HETATM   41  N   UNL     1      -7.599  19.809  65.865  1.00  0.00    -0.326 NA 
HETATM   42  C   UNL     1      -7.869  20.762  66.928  1.00  0.00    -0.135 C  
HETATM   43  H   UNL     1      -7.340  20.122  64.930  1.00  0.00     0.000 HD 
ENDBRANCH  34  41
ENDBRANCH  29  30
ENDBRANCH  23  29
ENDBRANCH  14  15
ENDBRANCH   9  14
ENDBRANCH   4   5
ENDBRANCH   2   4
TORSDOF 7
ENDMDL
MODEL       70
REMARK 921   NORMALIZED FREE ENERGY PREDICTED BY IDOCK:   -5.69 KCAL/MOL
REMARK 922        TOTAL FREE ENERGY PREDICTED BY IDOCK:   -9.73 KCAL/MOL
REMARK 923 INTER-LIGAND FREE ENERGY PREDICTED BY IDOCK:   -8.42 KCAL/MOL
REMARK 924 INTRA-LIGAND FREE ENERGY PREDICTED BY IDOCK:   -1.31 KCAL/MOL
REMARK 927      BINDING AFFINITY PREDICTED BY RF-SCORE:    0.00 PKD
ROOT
HETATM    1  C   UNL     1     -12.399  16.255  74.349  1.00  0.00    -0.481 C  
HETATM    2  N   UNL     1     -12.334  15.371  73.195  1.00  0.00    -0.405 NA 
HETATM    3  H   UNL     1     -13.147  14.754  73.170  1.00  0.00     0.000 HD 
ENDROOT
BRANCH   2   4
HETATM    4  C   UNL     1     -12.179  16.074  71.914  1.00  0.00    -0.489 C  
BRANCH   4   5
HETATM    5  C   UNL     1     -11.653  15.219  70.730  1.00  0.00    -0.333 C  
HETATM    6  C   UNL     1     -11.184  16.037  69.540  1.00  0.00    -0.348 C  
HETATM    7  C   UNL     1     -10.644  15.092  68.467  1.00  0.00    -0.237 C  
HETATM    8  C   UNL     1     -11.585  13.899  68.193  1.00  0.00    -0.335 C  
HETATM    9  C   UNL     1     -12.246  13.267  69.500  1.00  0.00    -0.178 C  
HETATM   10  N   UNL     1     -10.917  12.960  67.262  1.00  0.00    -0.255 NA 
HETATM   11  O   UNL     1     -12.723  14.350  70.293  1.00  0.00    -0.348 OA 
HETATM   12  H1  UNL     1     -11.539  12.172  67.081  1.00  0.00     0.000 HD 
HETATM   13  H2  UNL     1     -10.002  12.662  67.601  1.00  0.00     0.000 HD 
BRANCH   9  14
HETATM   14  O   UNL     1     -11.426  12.346  70.258  1.00  0.00    -0.083 OA 
BRANCH  14  15
HETATM   15  C   UNL     1     -11.865  10.929  70.383  1.00  0.00    -0.357 C  
HETATM   16  C   UNL     1     -12.446  10.548  71.772  1.00  0.00    -0.262 C  
HETATM   17  N   UNL     1     -13.785  11.144  71.955  1.00  0.00    -0.230 NA 
HETATM   18  C   UNL     1     -12.600   9.022  71.945  1.00  0.00    -0.452 C  
HETATM   19  H2  UNL     1     -14.419  10.892  71.198  1.00  0.00     0.000 HD 
HETATM   20  H1  UNL     1     -14.166  10.894  72.868  1.00  0.00     0.000 HD 
HETATM   21  C   UNL     1     -11.288   8.260  71.707  1.00  0.00    -0.288 C  
HETATM   22  N   UNL     1     -11.437   6.850  72.084  1.00  0.00    -0.270 NA 
HETATM   23  C   UNL     1     -10.835   8.390  70.240  1.00  0.00    -0.239 C  
HETATM   24  C   UNL     1     -10.804   9.904  69.863  1.00  0.00    -0.278 C  
HETATM   25  O   UNL     1     -10.687  10.029  68.426  1.00  0.00    -0.211 OA 
HETATM   26  H1  UNL     1     -10.566   6.343  71.926  1.00  0.00     0.000 HD 
HETATM   27  H2  UNL     1     -12.223   6.411  71.605  1.00  0.00     0.000 HD 
HETATM   28  H   UNL     1     -10.042   9.407  68.110  1.00  0.00     0.000 HD 
BRANCH  23  29
HETATM   29  O   UNL     1      -9.466   7.913  70.100  1.00  0.00    -0.160 OA 
BRANCH  29  30
HETATM   30  C   UNL     1      -8.905   7.533  68.826  1.00  0.00    -0.131 C  
HETATM   31  O   UNL     1      -8.202   8.564  68.129  1.00  0.00    -0.117 OA 
HETATM   32  C   UNL     1      -7.553   8.067  66.948  1.00  0.00    -0.095 C  
HETATM   33  C   UNL     1      -8.544   7.502  65.896  1.00  0.00    -0.151 C  
HETATM   34  C   UNL     1      -9.360   6.356  66.554  1.00  0.00    -0.155 C  
HETATM   35  O   UNL     1      -9.430   8.555  65.483  1.00  0.00    -0.438 OA 
HETATM   36  C   UNL     1      -7.749   7.037  64.666  1.00  0.00    -0.116 C  
HETATM   37  H   UNL     1     -11.204   5.233  68.002  1.00  0.00     0.000 HD 
HETATM   38  H   UNL     1     -10.036   8.208  64.839  1.00  0.00     0.000 HD 
HETATM   39  C   UNL     1      -9.978   6.825  67.916  1.00  0.00    -0.141 C  
HETATM   40  O   UNL     1     -10.557   5.659  68.551  1.00  0.00    -0.213 OA 
BRANCH  34  41
HETATM   41  N   UNL     1     -10.330   5.577  65.725  1.00  0.00    -0.420 NA 
HETATM   42  C   UNL     1      -9.971   4.217  65.362  1.00  0.00    -0.205 C  
HETATM   43  H   UNL     1     -11.215   5.987  65.425  1.00  0.00     0.000 HD 
ENDBRANCH  34  41
ENDBRANCH  29  30
ENDBRANCH  23  29
ENDBRANCH  14  15
ENDBRANCH   9  14
ENDBRANCH   4   5
ENDBRANCH   2   4
TORSDOF 7
ENDMDL
MODEL       71
REMARK 921   NORMALIZED FREE ENERGY PREDICTED BY IDOCK:   -5.69 KCAL/MOL
REMARK 922        TOTAL FREE ENERGY PREDICTED BY IDOCK:   -9.73 KCAL/MOL
REMARK 923 INTER-LIGAND FREE ENERGY PREDICTED BY IDOCK:   -8.57 KCAL/MOL
REMARK 924 INTRA-LIGAND FREE ENERGY PREDICTED BY IDOCK:   -1.16 KCAL/MOL
REMARK 927      BINDING AFFINITY PREDICTED BY RF-SCORE:    0.00 PKD
ROOT
HETATM    1  C   UNL     1     -13.791   8.675  72.253  1.00  0.00    -0.403 C  
HETATM    2  N   UNL     1     -13.047   7.432  72.118  1.00  0.00    -0.513 NA 
HETATM    3  H   UNL     1     -13.600   6.736  71.618  1.00  0.00     0.000 HD 
ENDROOT
BRANCH   2   4
HETATM    4  C   UNL     1     -11.727   7.593  71.492  1.00  0.00    -0.281 C  
BRANCH   4   5
HETATM    5  C   UNL     1     -10.942   6.281  71.217  1.00  0.00    -0.275 C  
HETATM    6  C   UNL     1     -10.747   5.413  72.447  1.00  0.00    -0.286 C  
HETATM    7  C   UNL     1     -10.011   4.136  72.043  1.00  0.00    -0.250 C  
HETATM    8  C   UNL     1      -8.779   4.411  71.154  1.00  0.00    -0.106 C  
HETATM    9  C   UNL     1      -9.001   5.542  70.051  1.00  0.00    -0.131 C  
HETATM   10  N   UNL     1      -8.223   3.121  70.684  1.00  0.00    -0.055 NA 
HETATM   11  O   UNL     1      -9.640   6.638  70.699  1.00  0.00    -0.169 OA 
HETATM   12  H1  UNL     1      -7.409   3.303  70.097  1.00  0.00     0.000 HD 
HETATM   13  H2  UNL     1      -8.921   2.546  70.212  1.00  0.00     0.000 HD 
BRANCH   9  14
HETATM   14  O   UNL     1      -9.686   5.139  68.842  1.00  0.00    -0.134 OA 
BRANCH  14  15
HETATM   15  C   UNL     1      -9.358   5.831  67.564  1.00  0.00    -0.111 C  
HETATM   16  C   UNL     1      -7.839   5.938  67.254  1.00  0.00    -0.102 C  
HETATM   17  N   UNL     1      -7.296   4.620  66.864  1.00  0.00    -0.080 NA 
HETATM   18  C   UNL     1      -7.544   6.912  66.095  1.00  0.00    -0.092 C  
HETATM   19  H2  UNL     1      -7.814   4.212  66.086  1.00  0.00     0.000 HD 
HETATM   20  H1  UNL     1      -6.299   4.690  66.661  1.00  0.00     0.000 HD 
HETATM   21  C   UNL     1      -8.122   8.315  66.334  1.00  0.00    -0.105 C  
HETATM   22  N   UNL     1      -7.641   9.250  65.311  1.00  0.00    -0.097 NA 
HETATM   23  C   UNL     1      -9.662   8.277  66.361  1.00  0.00    -0.230 C  
HETATM   24  C   UNL     1     -10.114   7.187  67.382  1.00  0.00    -0.202 C  
HETATM   25  O   UNL     1     -11.525   6.924  67.197  1.00  0.00    -0.703 OA 
HETATM   26  H1  UNL     1      -8.025  10.182  65.469  1.00  0.00     0.000 HD 
HETATM   27  H2  UNL     1      -7.838   8.914  64.368  1.00  0.00     0.000 HD 
HETATM   28  H   UNL     1     -11.985   7.748  67.086  1.00  0.00     0.000 HD 
BRANCH  23  29
HETATM   29  O   UNL     1     -10.180   9.542  66.867  1.00  0.00    -0.225 OA 
BRANCH  29  30
HETATM   30  C   UNL     1     -10.874  10.486  66.026  1.00  0.00     0.064 C  
HETATM   31  O   UNL     1     -10.244  10.779  64.776  1.00  0.00    -0.306 OA 
HETATM   32  C   UNL     1     -11.066  11.609  63.941  1.00  0.00    -0.401 C  
HETATM   33  C   UNL     1     -11.358  13.002  64.558  1.00  0.00    -0.339 C  
HETATM   34  C   UNL     1     -12.060  12.797  65.928  1.00  0.00    -0.426 C  
HETATM   35  O   UNL     1     -10.113  13.693  64.749  1.00  0.00    -0.574 OA 
HETATM   36  C   UNL     1     -12.209  13.814  63.569  1.00  0.00    -0.236 C  
HETATM   37  H   UNL     1     -12.288  12.298  68.470  1.00  0.00     0.000 HD 
HETATM   38  H   UNL     1     -10.292  14.546  65.126  1.00  0.00     0.000 HD 
HETATM   39  C   UNL     1     -11.254  11.792  66.821  1.00  0.00    -0.328 C  
HETATM   40  O   UNL     1     -12.060  11.510  67.990  1.00  0.00    -0.617 OA 
BRANCH  34  41
HETATM   41  N   UNL     1     -12.533  13.989  66.696  1.00  0.00    -0.523 NA 
HETATM   42  C   UNL     1     -11.529  14.885  67.243  1.00  0.00    -0.340 C  
HETATM   43  H   UNL     1     -13.528  14.167  66.832  1.00  0.00     0.000 HD 
ENDBRANCH  34  41
ENDBRANCH  29  30
ENDBRANCH  23  29
ENDBRANCH  14  15
ENDBRANCH   9  14
ENDBRANCH   4   5
ENDBRANCH   2   4
TORSDOF 7
ENDMDL
MODEL       72
REMARK 921   NORMALIZED FREE ENERGY PREDICTED BY IDOCK:   -5.69 KCAL/MOL
REMARK 922        TOTAL FREE ENERGY PREDICTED BY IDOCK:   -9.73 KCAL/MOL
REMARK 923 INTER-LIGAND FREE ENERGY PREDICTED BY IDOCK:   -8.13 KCAL/MOL
REMARK 924 INTRA-LIGAND FREE ENERGY PREDICTED BY IDOCK:   -1.60 KCAL/MOL
REMARK 927      BINDING AFFINITY PREDICTED BY RF-SCORE:    0.00 PKD
ROOT
HETATM    1  C   UNL     1     -12.447  14.840  70.589  1.00  0.00    -0.345 C  
HETATM    2  N   UNL     1     -12.660  14.385  69.223  1.00  0.00    -0.522 NA 
HETATM    3  H   UNL     1     -13.009  15.147  68.642  1.00  0.00     0.000 HD 
ENDROOT
BRANCH   2   4
HETATM    4  C   UNL     1     -11.476  13.766  68.610  1.00  0.00    -0.301 C  
BRANCH   4   5
HETATM    5  C   UNL     1     -11.482  13.679  67.060  1.00  0.00    -0.343 C  
HETATM    6  C   UNL     1     -12.636  14.419  66.407  1.00  0.00    -0.058 C  
HETATM    7  C   UNL     1     -12.505  14.304  64.888  1.00  0.00    -0.403 C  
HETATM    8  C   UNL     1     -12.221  12.861  64.421  1.00  0.00    -0.417 C  
HETATM    9  C   UNL     1     -11.185  12.063  65.335  1.00  0.00    -0.322 C  
HETATM   10  N   UNL     1     -11.956  12.868  62.963  1.00  0.00    -0.785 NA 
HETATM   11  O   UNL     1     -11.568  12.283  66.689  1.00  0.00    -0.362 OA 
HETATM   12  H1  UNL     1     -11.768  11.914  62.654  1.00  0.00     0.000 HD 
HETATM   13  H2  UNL     1     -11.208  13.513  62.707  1.00  0.00     0.000 HD 
BRANCH   9  14
HETATM   14  O   UNL     1      -9.782  12.331  65.106  1.00  0.00    -0.203 OA 
BRANCH  14  15
HETATM   15  C   UNL     1      -8.873  11.192  64.800  1.00  0.00     0.046 C  
HETATM   16  C   UNL     1      -9.460  10.136  63.823  1.00  0.00    -0.275 C  
HETATM   17  N   UNL     1      -9.509  10.673  62.448  1.00  0.00    -0.512 NA 
HETATM   18  C   UNL     1      -8.615   8.846  63.777  1.00  0.00    -0.105 C  
HETATM   19  H2  UNL     1      -8.597  11.009  62.138  1.00  0.00     0.000 HD 
HETATM   20  H1  UNL     1      -9.895   9.980  61.807  1.00  0.00     0.000 HD 
HETATM   21  C   UNL     1      -8.416   8.214  65.163  1.00  0.00    -0.116 C  
HETATM   22  N   UNL     1      -7.790   6.892  65.040  1.00  0.00    -0.115 NA 
HETATM   23  C   UNL     1      -7.579   9.134  66.072  1.00  0.00    -0.095 C  
HETATM   24  C   UNL     1      -8.228  10.553  66.073  1.00  0.00    -0.150 C  
HETATM   25  O   UNL     1      -7.300  11.496  66.659  1.00  0.00    -0.231 OA 
HETATM   26  H1  UNL     1      -7.658   6.472  65.960  1.00  0.00     0.000 HD 
HETATM   27  H2  UNL     1      -6.918   6.934  64.513  1.00  0.00     0.000 HD 
HETATM   28  H   UNL     1      -6.908  11.108  67.433  1.00  0.00     0.000 HD 
BRANCH  23  29
HETATM   29  O   UNL     1      -7.643   8.662  67.449  1.00  0.00    -0.092 OA 
BRANCH  29  30
HETATM   30  C   UNL     1      -8.794   8.879  68.289  1.00  0.00    -0.134 C  
HETATM   31  O   UNL     1      -8.737  10.036  69.127  1.00  0.00    -0.144 OA 
HETATM   32  C   UNL     1      -9.976  10.260  69.819  1.00  0.00    -0.181 C  
HETATM   33  C   UNL     1     -10.357   9.107  70.785  1.00  0.00    -0.258 C  
HETATM   34  C   UNL     1     -10.456   7.791  69.965  1.00  0.00    -0.230 C  
HETATM   35  O   UNL     1      -9.330   8.981  71.782  1.00  0.00    -0.303 OA 
HETATM   36  C   UNL     1     -11.671   9.467  71.494  1.00  0.00    -0.472 C  
HETATM   37  H   UNL     1      -9.643   5.661  68.715  1.00  0.00     0.000 HD 
HETATM   38  H   UNL     1      -9.564   8.275  72.373  1.00  0.00     0.000 HD 
HETATM   39  C   UNL     1      -9.170   7.579  69.095  1.00  0.00    -0.144 C  
HETATM   40  O   UNL     1      -9.417   6.445  68.228  1.00  0.00    -0.123 OA 
BRANCH  34  41
HETATM   41  N   UNL     1     -10.899   6.535  70.645  1.00  0.00    -0.249 NA 
HETATM   42  C   UNL     1      -9.916   5.806  71.426  1.00  0.00    -0.185 C  
HETATM   43  H   UNL     1     -11.860   6.202  70.562  1.00  0.00     0.000 HD 
ENDBRANCH  34  41
ENDBRANCH  29  30
ENDBRANCH  23  29
ENDBRANCH  14  15
ENDBRANCH   9  14
ENDBRANCH   4   5
ENDBRANCH   2   4
TORSDOF 7
ENDMDL
MODEL       73
REMARK 921   NORMALIZED FREE ENERGY PREDICTED BY IDOCK:   -5.68 KCAL/MOL
REMARK 922        TOTAL FREE ENERGY PREDICTED BY IDOCK:   -9.72 KCAL/MOL
REMARK 923 INTER-LIGAND FREE ENERGY PREDICTED BY IDOCK:   -8.09 KCAL/MOL
REMARK 924 INTRA-LIGAND FREE ENERGY PREDICTED BY IDOCK:   -1.62 KCAL/MOL
REMARK 927      BINDING AFFINITY PREDICTED BY RF-SCORE:    0.00 PKD
ROOT
HETATM    1  C   UNL     1     -13.138  15.442  71.140  1.00  0.00    -0.498 C  
HETATM    2  N   UNL     1     -12.907  14.984  69.778  1.00  0.00    -0.600 NA 
HETATM    3  H   UNL     1     -13.269  15.661  69.106  1.00  0.00     0.000 HD 
ENDROOT
BRANCH   2   4
HETATM    4  C   UNL     1     -11.500  14.667  69.487  1.00  0.00    -0.297 C  
BRANCH   4   5
HETATM    5  C   UNL     1     -11.224  14.014  68.106  1.00  0.00    -0.275 C  
HETATM    6  C   UNL     1     -12.283  14.313  67.061  1.00  0.00    -0.338 C  
HETATM    7  C   UNL     1     -11.877  13.663  65.739  1.00  0.00    -0.397 C  
HETATM    8  C   UNL     1     -11.428  12.195  65.909  1.00  0.00    -0.363 C  
HETATM    9  C   UNL     1     -10.528  11.924  67.197  1.00  0.00    -0.221 C  
HETATM   10  N   UNL     1     -10.908  11.695  64.615  1.00  0.00    -0.307 NA 
HETATM   11  O   UNL     1     -11.159  12.581  68.293  1.00  0.00    -0.227 OA 
HETATM   12  H1  UNL     1     -10.611  10.726  64.727  1.00  0.00     0.000 HD 
HETATM   13  H2  UNL     1     -10.165  12.287  64.240  1.00  0.00     0.000 HD 
BRANCH   9  14
HETATM   14  O   UNL     1      -9.125  12.259  67.087  1.00  0.00    -0.180 OA 
BRANCH  14  15
HETATM   15  C   UNL     1      -8.112  11.185  67.285  1.00  0.00    -0.137 C  
HETATM   16  C   UNL     1      -8.165  10.039  66.238  1.00  0.00    -0.124 C  
HETATM   17  N   UNL     1      -7.649  10.504  64.934  1.00  0.00    -0.325 NA 
HETATM   18  C   UNL     1      -7.314   8.823  66.656  1.00  0.00    -0.082 C  
HETATM   19  H2  UNL     1      -6.713  10.899  65.015  1.00  0.00     0.000 HD 
HETATM   20  H1  UNL     1      -7.685   9.752  64.246  1.00  0.00     0.000 HD 
HETATM   21  C   UNL     1      -7.694   8.276  68.040  1.00  0.00    -0.107 C  
HETATM   22  N   UNL     1      -7.005   7.006  68.298  1.00  0.00    -0.077 NA 
HETATM   23  C   UNL     1      -7.379   9.304  69.143  1.00  0.00    -0.071 C  
HETATM   24  C   UNL     1      -8.042  10.664  68.758  1.00  0.00    -0.139 C  
HETATM   25  O   UNL     1      -7.507  11.706  69.606  1.00  0.00    -0.346 OA 
HETATM   26  H1  UNL     1      -7.258   6.643  69.217  1.00  0.00     0.000 HD 
HETATM   27  H2  UNL     1      -5.995   7.095  68.190  1.00  0.00     0.000 HD 
HETATM   28  H   UNL     1      -7.464  11.390  70.501  1.00  0.00     0.000 HD 
BRANCH  23  29
HETATM   29  O   UNL     1      -8.001   8.895  70.395  1.00  0.00    -0.090 OA 
BRANCH  29  30
HETATM   30  C   UNL     1      -9.370   8.448  70.470  1.00  0.00    -0.162 C  
HETATM   31  O   UNL     1     -10.301   9.399  70.993  1.00  0.00    -0.286 OA 
HETATM   32  C   UNL     1     -11.656   8.932  70.897  1.00  0.00    -0.283 C  
HETATM   33  C   UNL     1     -11.922   7.644  71.720  1.00  0.00    -0.299 C  
HETATM   34  C   UNL     1     -10.959   6.533  71.219  1.00  0.00    -0.262 C  
HETATM   35  O   UNL     1     -11.665   7.920  73.106  1.00  0.00    -0.630 OA 
HETATM   36  C   UNL     1     -13.402   7.259  71.575  1.00  0.00    -0.435 C  
HETATM   37  H   UNL     1      -8.746   5.191  70.972  1.00  0.00     0.000 HD 
HETATM   38  H   UNL     1     -11.827   7.132  73.610  1.00  0.00     0.000 HD 
HETATM   39  C   UNL     1      -9.480   7.051  71.188  1.00  0.00    -0.165 C  
HETATM   40  O   UNL     1      -8.679   6.033  70.539  1.00  0.00    -0.134 OA 
BRANCH  34  41
HETATM   41  N   UNL     1     -11.069   5.155  71.789  1.00  0.00    -0.018 NA 
HETATM   42  C   UNL     1     -10.546   4.931  73.125  1.00  0.00    -0.220 C  
HETATM   43  H   UNL     1     -11.497   4.398  71.257  1.00  0.00     0.000 HD 
ENDBRANCH  34  41
ENDBRANCH  29  30
ENDBRANCH  23  29
ENDBRANCH  14  15
ENDBRANCH   9  14
ENDBRANCH   4   5
ENDBRANCH   2   4
TORSDOF 7
ENDMDL
MODEL       74
REMARK 921   NORMALIZED FREE ENERGY PREDICTED BY IDOCK:   -5.65 KCAL/MOL
REMARK 922        TOTAL FREE ENERGY PREDICTED BY IDOCK:   -9.68 KCAL/MOL
REMARK 923 INTER-LIGAND FREE ENERGY PREDICTED BY IDOCK:   -8.15 KCAL/MOL
REMARK 924 INTRA-LIGAND FREE ENERGY PREDICTED BY IDOCK:   -1.52 KCAL/MOL
REMARK 927      BINDING AFFINITY PREDICTED BY RF-SCORE:    0.00 PKD
ROOT
HETATM    1  C   UNL     1      -9.543   2.610  74.445  1.00  0.00    -0.090 C  
HETATM    2  N   UNL     1      -9.645   4.045  74.232  1.00  0.00    -0.107 NA 
HETATM    3  H   UNL     1      -9.116   4.551  74.942  1.00  0.00     0.000 HD 
ENDROOT
BRANCH   2   4
HETATM    4  C   UNL     1      -9.246   4.477  72.884  1.00  0.00    -0.123 C  
BRANCH   4   5
HETATM    5  C   UNL     1      -9.866   5.812  72.388  1.00  0.00    -0.163 C  
HETATM    6  C   UNL     1     -10.592   6.592  73.469  1.00  0.00    -0.312 C  
HETATM    7  C   UNL     1     -11.110   7.901  72.876  1.00  0.00    -0.442 C  
HETATM    8  C   UNL     1     -11.833   7.701  71.526  1.00  0.00    -0.295 C  
HETATM    9  C   UNL     1     -11.132   6.650  70.552  1.00  0.00    -0.307 C  
HETATM   10  N   UNL     1     -12.162   9.026  70.952  1.00  0.00    -0.460 NA 
HETATM   11  O   UNL     1     -10.810   5.504  71.336  1.00  0.00    -0.243 OA 
HETATM   12  H1  UNL     1     -12.639   8.893  70.060  1.00  0.00     0.000 HD 
HETATM   13  H2  UNL     1     -11.342   9.627  70.867  1.00  0.00     0.000 HD 
BRANCH   9  14
HETATM   14  O   UNL     1     -10.002   7.132  69.788  1.00  0.00    -0.175 OA 
BRANCH  14  15
HETATM   15  C   UNL     1     -10.129   7.241  68.308  1.00  0.00    -0.170 C  
HETATM   16  C   UNL     1      -9.478   6.077  67.511  1.00  0.00    -0.112 C  
HETATM   17  N   UNL     1     -10.278   4.843  67.648  1.00  0.00    -0.117 NA 
HETATM   18  C   UNL     1      -9.372   6.386  66.003  1.00  0.00    -0.053 C  
HETATM   19  H2  UNL     1     -11.250   4.990  67.377  1.00  0.00     0.000 HD 
HETATM   20  H1  UNL     1      -9.850   4.080  67.125  1.00  0.00     0.000 HD 
HETATM   21  C   UNL     1      -8.622   7.695  65.713  1.00  0.00    -0.139 C  
HETATM   22  N   UNL     1      -8.369   7.835  64.275  1.00  0.00    -0.363 NA 
HETATM   23  C   UNL     1      -9.404   8.907  66.253  1.00  0.00    -0.219 C  
HETATM   24  C   UNL     1      -9.742   8.651  67.755  1.00  0.00    -0.165 C  
HETATM   25  O   UNL     1     -10.727   9.619  68.188  1.00  0.00    -0.241 OA 
HETATM   26  H1  UNL     1      -7.871   8.703  64.082  1.00  0.00     0.000 HD 
HETATM   27  H2  UNL     1      -9.229   7.762  63.730  1.00  0.00     0.000 HD 
HETATM   28  H   UNL     1     -10.492  10.476  67.852  1.00  0.00     0.000 HD 
BRANCH  23  29
HETATM   29  O   UNL     1      -8.558  10.094  66.228  1.00  0.00    -0.128 OA 
BRANCH  29  30
HETATM   30  C   UNL     1      -9.081  11.412  65.966  1.00  0.00    -0.208 C  
HETATM   31  O   UNL     1      -9.579  12.116  67.107  1.00  0.00    -0.189 OA 
HETATM   32  C   UNL     1      -9.943  13.468  66.786  1.00  0.00    -0.269 C  
HETATM   33  C   UNL     1     -11.091  13.564  65.747  1.00  0.00    -0.286 C  
HETATM   34  C   UNL     1     -10.644  12.832  64.451  1.00  0.00    -0.379 C  
HETATM   35  O   UNL     1     -12.259  12.926  66.287  1.00  0.00    -0.454 OA 
HETATM   36  C   UNL     1     -11.422  15.046  65.509  1.00  0.00    -0.265 C  
HETATM   37  H   UNL     1     -10.175  10.840  62.847  1.00  0.00     0.000 HD 
HETATM   38  H   UNL     1     -12.961  12.985  65.650  1.00  0.00     0.000 HD 
HETATM   39  C   UNL     1     -10.117  11.393  64.780  1.00  0.00    -0.277 C  
HETATM   40  O   UNL     1      -9.550  10.852  63.562  1.00  0.00    -0.256 OA 
BRANCH  34  41
HETATM   41  N   UNL     1     -11.536  12.852  63.252  1.00  0.00    -0.802 NA 
HETATM   42  C   UNL     1     -12.631  11.899  63.206  1.00  0.00    -0.344 C  
HETATM   43  H   UNL     1     -11.381  13.515  62.492  1.00  0.00     0.000 HD 
ENDBRANCH  34  41
ENDBRANCH  29  30
ENDBRANCH  23  29
ENDBRANCH  14  15
ENDBRANCH   9  14
ENDBRANCH   4   5
ENDBRANCH   2   4
TORSDOF 7
ENDMDL
MODEL       75
REMARK 921   NORMALIZED FREE ENERGY PREDICTED BY IDOCK:   -5.65 KCAL/MOL
REMARK 922        TOTAL FREE ENERGY PREDICTED BY IDOCK:   -9.67 KCAL/MOL
REMARK 923 INTER-LIGAND FREE ENERGY PREDICTED BY IDOCK:   -8.84 KCAL/MOL
REMARK 924 INTRA-LIGAND FREE ENERGY PREDICTED BY IDOCK:   -0.83 KCAL/MOL
REMARK 927      BINDING AFFINITY PREDICTED BY RF-SCORE:    0.00 PKD
ROOT
HETATM    1  C   UNL     1      -6.298  10.142  70.248  1.00  0.00    -0.117 C  
HETATM    2  N   UNL     1      -7.745  10.297  70.288  1.00  0.00    -0.430 NA 
HETATM    3  H   UNL     1      -8.101  10.567  69.371  1.00  0.00     0.000 HD 
ENDROOT
BRANCH   2   4
HETATM    4  C   UNL     1      -8.457   9.113  70.791  1.00  0.00    -0.212 C  
BRANCH   4   5
HETATM    5  C   UNL     1      -9.442   8.441  69.798  1.00  0.00    -0.162 C  
HETATM    6  C   UNL     1      -9.747   6.989  70.121  1.00  0.00    -0.176 C  
HETATM    7  C   UNL     1     -10.761   6.456  69.110  1.00  0.00    -0.339 C  
HETATM    8  C   UNL     1     -10.392   6.806  67.652  1.00  0.00    -0.203 C  
HETATM    9  C   UNL     1      -9.823   8.282  67.451  1.00  0.00    -0.188 C  
HETATM   10  N   UNL     1     -11.499   6.390  66.759  1.00  0.00    -0.746 NA 
HETATM   11  O   UNL     1      -8.858   8.501  68.476  1.00  0.00    -0.138 OA 
HETATM   12  H1  UNL     1     -11.255   6.621  65.796  1.00  0.00     0.000 HD 
HETATM   13  H2  UNL     1     -12.395   6.791  67.039  1.00  0.00     0.000 HD 
BRANCH   9  14
HETATM   14  O   UNL     1     -10.801   9.347  67.377  1.00  0.00    -0.263 OA 
BRANCH  14  15
HETATM   15  C   UNL     1     -10.642  10.532  68.265  1.00  0.00    -0.206 C  
HETATM   16  C   UNL     1     -11.957  11.035  68.921  1.00  0.00    -0.262 C  
HETATM   17  N   UNL     1     -12.399  10.103  69.979  1.00  0.00    -0.515 NA 
HETATM   18  C   UNL     1     -11.793  12.422  69.576  1.00  0.00    -0.368 C  
HETATM   19  H2  UNL     1     -11.668   9.942  70.672  1.00  0.00     0.000 HD 
HETATM   20  H1  UNL     1     -13.262  10.433  70.408  1.00  0.00     0.000 HD 
HETATM   21  C   UNL     1     -11.263  13.483  68.600  1.00  0.00    -0.278 C  
HETATM   22  N   UNL     1     -11.322  14.817  69.210  1.00  0.00    -0.278 NA 
HETATM   23  C   UNL     1      -9.828  13.149  68.151  1.00  0.00    -0.228 C  
HETATM   24  C   UNL     1      -9.803  11.682  67.619  1.00  0.00    -0.186 C  
HETATM   25  O   UNL     1      -8.428  11.252  67.486  1.00  0.00    -0.127 OA 
HETATM   26  H1  UNL     1     -10.970  15.521  68.562  1.00  0.00     0.000 HD 
HETATM   27  H2  UNL     1     -10.833  14.846  70.104  1.00  0.00     0.000 HD 
HETATM   28  H   UNL     1      -7.919  11.951  67.093  1.00  0.00     0.000 HD 
BRANCH  23  29
HETATM   29  O   UNL     1      -9.452  13.992  67.024  1.00  0.00    -0.231 OA 
BRANCH  29  30
HETATM   30  C   UNL     1      -8.764  15.249  67.193  1.00  0.00    -0.211 C  
HETATM   31  O   UNL     1      -8.375  15.564  68.532  1.00  0.00    -0.148 OA 
HETATM   32  C   UNL     1      -7.572  16.753  68.592  1.00  0.00    -0.222 C  
HETATM   33  C   UNL     1      -8.317  18.023  68.102  1.00  0.00    -0.268 C  
HETATM   34  C   UNL     1      -8.779  17.788  66.637  1.00  0.00    -0.261 C  
HETATM   35  O   UNL     1      -9.462  18.240  68.942  1.00  0.00    -0.296 OA 
HETATM   36  C   UNL     1      -7.382  19.233  68.245  1.00  0.00    -0.329 C  
HETATM   37  H   UNL     1     -10.253  16.907  64.685  1.00  0.00     0.000 HD 
HETATM   38  H   UNL     1      -9.918  19.018  68.642  1.00  0.00     0.000 HD 
HETATM   39  C   UNL     1      -9.550  16.430  66.508  1.00  0.00    -0.270 C  
HETATM   40  O   UNL     1      -9.779  16.195  65.098  1.00  0.00    -0.346 OA 
BRANCH  34  41
HETATM   41  N   UNL     1      -9.448  18.897  65.892  1.00  0.00    -0.423 NA 
HETATM   42  C   UNL     1     -10.747  19.343  66.363  1.00  0.00    -0.412 C  
HETATM   43  H   UNL     1      -9.006  19.328  65.079  1.00  0.00     0.000 HD 
ENDBRANCH  34  41
ENDBRANCH  29  30
ENDBRANCH  23  29
ENDBRANCH  14  15
ENDBRANCH   9  14
ENDBRANCH   4   5
ENDBRANCH   2   4
TORSDOF 7
ENDMDL
MODEL       76
REMARK 921   NORMALIZED FREE ENERGY PREDICTED BY IDOCK:   -5.65 KCAL/MOL
REMARK 922        TOTAL FREE ENERGY PREDICTED BY IDOCK:   -9.67 KCAL/MOL
REMARK 923 INTER-LIGAND FREE ENERGY PREDICTED BY IDOCK:   -8.19 KCAL/MOL
REMARK 924 INTRA-LIGAND FREE ENERGY PREDICTED BY IDOCK:   -1.48 KCAL/MOL
REMARK 927      BINDING AFFINITY PREDICTED BY RF-SCORE:    0.00 PKD
ROOT
HETATM    1  C   UNL     1     -10.794   2.212  73.527  1.00  0.00    -0.173 C  
HETATM    2  N   UNL     1      -9.926   3.288  73.981  1.00  0.00    -0.114 NA 
HETATM    3  H   UNL     1      -9.283   2.952  74.698  1.00  0.00     0.000 HD 
ENDROOT
BRANCH   2   4
HETATM    4  C   UNL     1      -9.189   3.957  72.898  1.00  0.00    -0.107 C  
BRANCH   4   5
HETATM    5  C   UNL     1      -9.694   5.372  72.508  1.00  0.00    -0.152 C  
HETATM    6  C   UNL     1     -10.274   6.160  73.669  1.00  0.00    -0.252 C  
HETATM    7  C   UNL     1     -10.686   7.546  73.174  1.00  0.00    -0.452 C  
HETATM    8  C   UNL     1     -11.498   7.495  71.862  1.00  0.00    -0.270 C  
HETATM    9  C   UNL     1     -10.965   6.435  70.796  1.00  0.00    -0.290 C  
HETATM   10  N   UNL     1     -11.719   8.877  71.375  1.00  0.00    -0.294 NA 
HETATM   11  O   UNL     1     -10.720   5.221  71.500  1.00  0.00    -0.221 OA 
HETATM   12  H1  UNL     1     -12.256   8.843  70.509  1.00  0.00     0.000 HD 
HETATM   13  H2  UNL     1     -10.847   9.396  71.271  1.00  0.00     0.000 HD 
BRANCH   9  14
HETATM   14  O   UNL     1      -9.835   6.843  69.990  1.00  0.00    -0.173 OA 
BRANCH  14  15
HETATM   15  C   UNL     1      -9.989   6.894  68.509  1.00  0.00    -0.148 C  
HETATM   16  C   UNL     1      -9.020   5.971  67.721  1.00  0.00    -0.111 C  
HETATM   17  N   UNL     1      -9.415   4.556  67.872  1.00  0.00    -0.147 NA 
HETATM   18  C   UNL     1      -9.012   6.282  66.210  1.00  0.00    -0.164 C  
HETATM   19  H2  UNL     1     -10.386   4.402  67.603  1.00  0.00     0.000 HD 
HETATM   20  H1  UNL     1      -8.778   3.950  67.355  1.00  0.00     0.000 HD 
HETATM   21  C   UNL     1      -8.687   7.753  65.906  1.00  0.00    -0.149 C  
HETATM   22  N   UNL     1      -8.488   7.948  64.465  1.00  0.00    -0.373 NA 
HETATM   23  C   UNL     1      -9.795   8.682  66.437  1.00  0.00    -0.270 C  
HETATM   24  C   UNL     1     -10.041   8.351  67.942  1.00  0.00    -0.203 C  
HETATM   25  O   UNL     1     -11.270   8.984  68.369  1.00  0.00    -0.450 OA 
HETATM   26  H1  UNL     1      -8.272   8.923  64.263  1.00  0.00     0.000 HD 
HETATM   27  H2  UNL     1      -9.287   7.616  63.924  1.00  0.00     0.000 HD 
HETATM   28  H   UNL     1     -11.302   9.869  68.024  1.00  0.00     0.000 HD 
BRANCH  23  29
HETATM   29  O   UNL     1      -9.342  10.066  66.398  1.00  0.00    -0.157 OA 
BRANCH  29  30
HETATM   30  C   UNL     1     -10.166  11.136  65.890  1.00  0.00    -0.251 C  
HETATM   31  O   UNL     1      -9.739  11.707  64.651  1.00  0.00    -0.239 OA 
HETATM   32  C   UNL     1     -10.688  12.659  64.143  1.00  0.00    -0.406 C  
HETATM   33  C   UNL     1     -10.891  13.880  65.078  1.00  0.00    -0.382 C  
HETATM   34  C   UNL     1     -11.370  13.366  66.463  1.00  0.00    -0.320 C  
HETATM   35  O   UNL     1      -9.637  14.566  65.222  1.00  0.00    -0.512 OA 
HETATM   36  C   UNL     1     -11.892  14.845  64.422  1.00  0.00    -0.372 C  
HETATM   37  H   UNL     1     -11.198  12.340  68.846  1.00  0.00     0.000 HD 
HETATM   38  H   UNL     1      -9.763  15.314  65.794  1.00  0.00     0.000 HD 
HETATM   39  C   UNL     1     -10.428  12.231  66.991  1.00  0.00    -0.216 C  
HETATM   40  O   UNL     1     -11.040  11.680  68.182  1.00  0.00    -0.210 OA 
BRANCH  34  41
HETATM   41  N   UNL     1     -11.728  14.352  67.528  1.00  0.00    -0.372 NA 
HETATM   42  C   UNL     1     -10.646  14.937  68.301  1.00  0.00    -0.240 C  
HETATM   43  H   UNL     1     -12.700  14.606  67.706  1.00  0.00     0.000 HD 
ENDBRANCH  34  41
ENDBRANCH  29  30
ENDBRANCH  23  29
ENDBRANCH  14  15
ENDBRANCH   9  14
ENDBRANCH   4   5
ENDBRANCH   2   4
TORSDOF 7
ENDMDL
MODEL       77
REMARK 921   NORMALIZED FREE ENERGY PREDICTED BY IDOCK:   -5.65 KCAL/MOL
REMARK 922        TOTAL FREE ENERGY PREDICTED BY IDOCK:   -9.67 KCAL/MOL
REMARK 923 INTER-LIGAND FREE ENERGY PREDICTED BY IDOCK:   -8.76 KCAL/MOL
REMARK 924 INTRA-LIGAND FREE ENERGY PREDICTED BY IDOCK:   -0.91 KCAL/MOL
REMARK 927      BINDING AFFINITY PREDICTED BY RF-SCORE:    0.00 PKD
ROOT
HETATM    1  C   UNL     1     -10.457  19.840  66.658  1.00  0.00    -0.497 C  
HETATM    2  N   UNL     1      -9.665  19.877  67.879  1.00  0.00    -0.372 NA 
HETATM    3  H   UNL     1      -9.771  20.777  68.348  1.00  0.00     0.000 HD 
ENDROOT
BRANCH   2   4
HETATM    4  C   UNL     1      -9.949  18.773  68.807  1.00  0.00    -0.391 C  
BRANCH   4   5
HETATM    5  C   UNL     1      -9.490  17.363  68.345  1.00  0.00    -0.293 C  
HETATM    6  C   UNL     1      -8.348  17.386  67.344  1.00  0.00    -0.215 C  
HETATM    7  C   UNL     1      -7.953  15.949  67.007  1.00  0.00    -0.270 C  
HETATM    8  C   UNL     1      -9.170  15.053  66.689  1.00  0.00    -0.276 C  
HETATM    9  C   UNL     1     -10.430  15.292  67.637  1.00  0.00    -0.263 C  
HETATM   10  N   UNL     1      -8.712  13.653  66.528  1.00  0.00    -0.445 NA 
HETATM   11  O   UNL     1     -10.620  16.701  67.732  1.00  0.00    -0.325 OA 
HETATM   12  H1  UNL     1      -9.516  13.062  66.319  1.00  0.00     0.000 HD 
HETATM   13  H2  UNL     1      -8.187  13.321  67.338  1.00  0.00     0.000 HD 
BRANCH   9  14
HETATM   14  O   UNL     1     -10.395  14.651  68.933  1.00  0.00    -0.235 OA 
BRANCH  14  15
HETATM   15  C   UNL     1     -11.408  13.604  69.245  1.00  0.00    -0.269 C  
HETATM   16  C   UNL     1     -12.265  13.885  70.510  1.00  0.00    -0.373 C  
HETATM   17  N   UNL     1     -13.234  14.969  70.250  1.00  0.00    -0.638 NA 
HETATM   18  C   UNL     1     -13.074  12.649  70.956  1.00  0.00    -0.041 C  
HETATM   19  H2  UNL     1     -13.814  14.771  69.435  1.00  0.00     0.000 HD 
HETATM   20  H1  UNL     1     -13.796  15.153  71.080  1.00  0.00     0.000 HD 
HETATM   21  C   UNL     1     -12.193  11.413  71.192  1.00  0.00    -0.224 C  
HETATM   22  N   UNL     1     -12.975  10.335  71.809  1.00  0.00    -0.444 NA 
HETATM   23  C   UNL     1     -11.549  10.938  69.876  1.00  0.00    -0.331 C  
HETATM   24  C   UNL     1     -10.829  12.152  69.210  1.00  0.00    -0.051 C  
HETATM   25  O   UNL     1     -10.490  11.808  67.846  1.00  0.00    -0.188 OA 
HETATM   26  H1  UNL     1     -12.391   9.515  71.966  1.00  0.00     0.000 HD 
HETATM   27  H2  UNL     1     -13.807  10.110  71.263  1.00  0.00     0.000 HD 
HETATM   28  H   UNL     1     -10.138  10.926  67.824  1.00  0.00     0.000 HD 
BRANCH  23  29
HETATM   29  O   UNL     1     -10.507   9.959  70.160  1.00  0.00    -0.251 OA 
BRANCH  29  30
HETATM   30  C   UNL     1     -10.102   8.961  69.201  1.00  0.00    -0.197 C  
HETATM   31  O   UNL     1     -10.545   9.179  67.859  1.00  0.00    -0.240 OA 
HETATM   32  C   UNL     1      -9.979   8.226  66.945  1.00  0.00    -0.273 C  
HETATM   33  C   UNL     1     -10.393   6.762  67.251  1.00  0.00    -0.244 C  
HETATM   34  C   UNL     1      -9.944   6.416  68.697  1.00  0.00    -0.146 C  
HETATM   35  O   UNL     1     -11.821   6.654  67.147  1.00  0.00    -0.430 OA 
HETATM   36  C   UNL     1      -9.765   5.838  66.196  1.00  0.00    -0.105 C  
HETATM   37  H   UNL     1     -10.026   6.341  71.295  1.00  0.00     0.000 HD 
HETATM   38  H   UNL     1     -12.074   5.758  67.334  1.00  0.00     0.000 HD 
HETATM   39  C   UNL     1     -10.436   7.508  69.708  1.00  0.00    -0.230 C  
HETATM   40  O   UNL     1      -9.825   7.218  70.989  1.00  0.00    -0.183 OA 
BRANCH  34  41
HETATM   41  N   UNL     1     -10.144   5.028  69.215  1.00  0.00    -0.212 NA 
HETATM   42  C   UNL     1      -8.979   4.165  69.306  1.00  0.00    -0.109 C  
HETATM   43  H   UNL     1     -11.067   4.698  69.496  1.00  0.00     0.000 HD 
ENDBRANCH  34  41
ENDBRANCH  29  30
ENDBRANCH  23  29
ENDBRANCH  14  15
ENDBRANCH   9  14
ENDBRANCH   4   5
ENDBRANCH   2   4
TORSDOF 7
ENDMDL
MODEL       78
REMARK 921   NORMALIZED FREE ENERGY PREDICTED BY IDOCK:   -5.64 KCAL/MOL
REMARK 922        TOTAL FREE ENERGY PREDICTED BY IDOCK:   -9.66 KCAL/MOL
REMARK 923 INTER-LIGAND FREE ENERGY PREDICTED BY IDOCK:   -9.61 KCAL/MOL
REMARK 924 INTRA-LIGAND FREE ENERGY PREDICTED BY IDOCK:   -0.05 KCAL/MOL
REMARK 927      BINDING AFFINITY PREDICTED BY RF-SCORE:    0.00 PKD
ROOT
HETATM    1  C   UNL     1     -13.995   9.881  71.395  1.00  0.00     0.110 C  
HETATM    2  N   UNL     1     -13.247  10.712  72.327  1.00  0.00    -0.574 NA 
HETATM    3  H   UNL     1     -12.279  10.809  72.021  1.00  0.00     0.000 HD 
ENDROOT
BRANCH   2   4
HETATM    4  C   UNL     1     -13.849  12.032  72.564  1.00  0.00     0.502 C  
BRANCH   4   5
HETATM    5  C   UNL     1     -13.015  13.253  72.090  1.00  0.00    -0.292 C  
HETATM    6  C   UNL     1     -13.133  14.466  72.995  1.00  0.00    -0.581 C  
HETATM    7  C   UNL     1     -12.233  15.578  72.457  1.00  0.00    -0.512 C  
HETATM    8  C   UNL     1     -12.395  15.796  70.937  1.00  0.00    -0.404 C  
HETATM    9  C   UNL     1     -12.533  14.452  70.089  1.00  0.00    -0.339 C  
HETATM   10  N   UNL     1     -11.383  16.775  70.477  1.00  0.00    -0.378 NA 
HETATM   11  O   UNL     1     -13.471  13.623  70.768  1.00  0.00     0.005 OA 
HETATM   12  H1  UNL     1     -11.490  16.918  69.473  1.00  0.00     0.000 HD 
HETATM   13  H2  UNL     1     -10.433  16.499  70.730  1.00  0.00     0.000 HD 
BRANCH   9  14
HETATM   14  O   UNL     1     -11.303  13.755  69.779  1.00  0.00    -0.223 OA 
BRANCH  14  15
HETATM   15  C   UNL     1     -11.268  12.849  68.598  1.00  0.00    -0.281 C  
HETATM   16  C   UNL     1     -10.182  11.741  68.659  1.00  0.00    -0.201 C  
HETATM   17  N   UNL     1     -10.554  10.704  69.643  1.00  0.00    -0.341 NA 
HETATM   18  C   UNL     1      -9.989  11.032  67.303  1.00  0.00    -0.210 C  
HETATM   19  H2  UNL     1     -11.479  10.317  69.455  1.00  0.00     0.000 HD 
HETATM   20  H1  UNL     1      -9.841   9.977  69.684  1.00  0.00     0.000 HD 
HETATM   21  C   UNL     1      -9.667  12.008  66.161  1.00  0.00    -0.238 C  
HETATM   22  N   UNL     1      -9.291  11.274  64.948  1.00  0.00    -0.324 NA 
HETATM   23  C   UNL     1     -10.859  12.945  65.887  1.00  0.00    -0.272 C  
HETATM   24  C   UNL     1     -11.287  13.611  67.232  1.00  0.00    -0.323 C  
HETATM   25  O   UNL     1     -12.577  14.241  67.057  1.00  0.00    -0.553 OA 
HETATM   26  H1  UNL     1      -9.078  11.921  64.189  1.00  0.00     0.000 HD 
HETATM   27  H2  UNL     1     -10.005  10.596  64.678  1.00  0.00     0.000 HD 
HETATM   28  H   UNL     1     -12.588  14.704  66.227  1.00  0.00     0.000 HD 
BRANCH  23  29
HETATM   29  O   UNL     1     -10.443  14.035  65.014  1.00  0.00    -0.373 OA 
BRANCH  29  30
HETATM   30  C   UNL     1      -9.639  15.137  65.481  1.00  0.00    -0.188 C  
HETATM   31  O   UNL     1      -8.828  14.867  66.628  1.00  0.00    -0.260 OA 
HETATM   32  C   UNL     1      -7.954  15.963  66.938  1.00  0.00    -0.252 C  
HETATM   33  C   UNL     1      -8.711  17.267  67.304  1.00  0.00    -0.211 C  
HETATM   34  C   UNL     1      -9.622  17.659  66.109  1.00  0.00    -0.188 C  
HETATM   35  O   UNL     1      -9.516  17.023  68.469  1.00  0.00    -0.252 OA 
HETATM   36  C   UNL     1      -7.684  18.355  67.652  1.00  0.00    -0.236 C  
HETATM   37  H   UNL     1     -11.696  17.614  64.541  1.00  0.00     0.000 HD 
HETATM   38  H   UNL     1      -9.979  17.821  68.692  1.00  0.00     0.000 HD 
HETATM   39  C   UNL     1     -10.502  16.443  65.658  1.00  0.00    -0.347 C  
HETATM   40  O   UNL     1     -11.176  16.827  64.435  1.00  0.00    -1.112 OA 
BRANCH  34  41
HETATM   41  N   UNL     1     -10.400  18.935  66.166  1.00  0.00    -0.445 NA 
HETATM   42  C   UNL     1      -9.677  20.178  65.963  1.00  0.00    -0.321 C  
HETATM   43  H   UNL     1     -11.404  18.932  66.342  1.00  0.00     0.000 HD 
ENDBRANCH  34  41
ENDBRANCH  29  30
ENDBRANCH  23  29
ENDBRANCH  14  15
ENDBRANCH   9  14
ENDBRANCH   4   5
ENDBRANCH   2   4
TORSDOF 7
ENDMDL
MODEL       79
REMARK 921   NORMALIZED FREE ENERGY PREDICTED BY IDOCK:   -5.62 KCAL/MOL
REMARK 922        TOTAL FREE ENERGY PREDICTED BY IDOCK:   -9.63 KCAL/MOL
REMARK 923 INTER-LIGAND FREE ENERGY PREDICTED BY IDOCK:   -8.35 KCAL/MOL
REMARK 924 INTRA-LIGAND FREE ENERGY PREDICTED BY IDOCK:   -1.28 KCAL/MOL
REMARK 927      BINDING AFFINITY PREDICTED BY RF-SCORE:    0.00 PKD
ROOT
HETATM    1  C   UNL     1      -7.845   5.435  72.913  1.00  0.00    -0.098 C  
HETATM    2  N   UNL     1      -7.481   6.745  72.394  1.00  0.00    -0.088 NA 
HETATM    3  H   UNL     1      -6.481   6.911  72.510  1.00  0.00     0.000 HD 
ENDROOT
BRANCH   2   4
HETATM    4  C   UNL     1      -7.884   6.965  70.997  1.00  0.00    -0.097 C  
BRANCH   4   5
HETATM    5  C   UNL     1      -9.026   7.994  70.775  1.00  0.00    -0.144 C  
HETATM    6  C   UNL     1      -9.865   8.258  72.012  1.00  0.00    -0.327 C  
HETATM    7  C   UNL     1     -10.916   9.319  71.684  1.00  0.00    -0.433 C  
HETATM    8  C   UNL     1     -11.656   9.036  70.359  1.00  0.00    -0.117 C  
HETATM    9  C   UNL     1     -10.722   8.502  69.182  1.00  0.00    -0.110 C  
HETATM   10  N   UNL     1     -12.538  10.184  70.043  1.00  0.00    -0.533 NA 
HETATM   11  O   UNL     1      -9.893   7.485  69.735  1.00  0.00    -0.177 OA 
HETATM   12  H1  UNL     1     -13.027   9.998  69.168  1.00  0.00     0.000 HD 
HETATM   13  H2  UNL     1     -12.030  11.069  70.022  1.00  0.00     0.000 HD 
BRANCH   9  14
HETATM   14  O   UNL     1      -9.965   9.498  68.456  1.00  0.00    -0.158 OA 
BRANCH  14  15
HETATM   15  C   UNL     1     -10.307   9.764  67.031  1.00  0.00    -0.239 C  
HETATM   16  C   UNL     1      -9.237   9.298  66.007  1.00  0.00    -0.206 C  
HETATM   17  N   UNL     1      -9.232   7.825  65.895  1.00  0.00    -0.382 NA 
HETATM   18  C   UNL     1      -9.493   9.860  64.593  1.00  0.00    -0.343 C  
HETATM   19  H2  UNL     1     -10.157   7.459  65.669  1.00  0.00     0.000 HD 
HETATM   20  H1  UNL     1      -8.529   7.519  65.223  1.00  0.00     0.000 HD 
HETATM   21  C   UNL     1      -9.597  11.392  64.570  1.00  0.00    -0.192 C  
HETATM   22  N   UNL     1      -9.633  11.884  63.188  1.00  0.00    -0.604 NA 
HETATM   23  C   UNL     1     -10.834  11.871  65.354  1.00  0.00    -0.294 C  
HETATM   24  C   UNL     1     -10.801  11.226  66.775  1.00  0.00    -0.282 C  
HETATM   25  O   UNL     1     -12.090  11.409  67.406  1.00  0.00    -0.533 OA 
HETATM   26  H1  UNL     1      -9.702  12.901  63.173  1.00  0.00     0.000 HD 
HETATM   27  H2  UNL     1     -10.379  11.445  62.649  1.00  0.00     0.000 HD 
HETATM   28  H   UNL     1     -12.390  12.298  67.250  1.00  0.00     0.000 HD 
BRANCH  23  29
HETATM   29  O   UNL     1     -10.761  13.311  65.564  1.00  0.00    -0.280 OA 
BRANCH  29  30
HETATM   30  C   UNL     1     -10.761  13.901  66.880  1.00  0.00    -0.284 C  
HETATM   31  O   UNL     1     -11.983  14.531  67.274  1.00  0.00    -0.405 OA 
HETATM   32  C   UNL     1     -11.948  14.962  68.644  1.00  0.00    -0.241 C  
HETATM   33  C   UNL     1     -10.860  16.031  68.923  1.00  0.00    -0.286 C  
HETATM   34  C   UNL     1      -9.477  15.439  68.536  1.00  0.00    -0.202 C  
HETATM   35  O   UNL     1     -11.133  17.191  68.120  1.00  0.00    -0.315 OA 
HETATM   36  C   UNL     1     -10.938  16.444  70.401  1.00  0.00    -0.218 C  
HETATM   37  H   UNL     1      -7.509  14.715  66.999  1.00  0.00     0.000 HD 
HETATM   38  H   UNL     1     -10.467  17.845  68.292  1.00  0.00     0.000 HD 
HETATM   39  C   UNL     1      -9.514  14.841  67.088  1.00  0.00    -0.227 C  
HETATM   40  O   UNL     1      -8.261  14.148  66.874  1.00  0.00    -0.127 OA 
BRANCH  34  41
HETATM   41  N   UNL     1      -8.239  16.237  68.791  1.00  0.00    -0.215 NA 
HETATM   42  C   UNL     1      -7.174  15.610  69.555  1.00  0.00    -0.198 C  
HETATM   43  H   UNL     1      -8.145  17.191  68.441  1.00  0.00     0.000 HD 
ENDBRANCH  34  41
ENDBRANCH  29  30
ENDBRANCH  23  29
ENDBRANCH  14  15
ENDBRANCH   9  14
ENDBRANCH   4   5
ENDBRANCH   2   4
TORSDOF 7
ENDMDL
MODEL       80
REMARK 921   NORMALIZED FREE ENERGY PREDICTED BY IDOCK:   -5.61 KCAL/MOL
REMARK 922        TOTAL FREE ENERGY PREDICTED BY IDOCK:   -9.62 KCAL/MOL
REMARK 923 INTER-LIGAND FREE ENERGY PREDICTED BY IDOCK:   -8.38 KCAL/MOL
REMARK 924 INTRA-LIGAND FREE ENERGY PREDICTED BY IDOCK:   -1.24 KCAL/MOL
REMARK 927      BINDING AFFINITY PREDICTED BY RF-SCORE:    0.00 PKD
ROOT
HETATM    1  C   UNL     1     -14.117   8.502  71.915  1.00  0.00    -0.447 C  
HETATM    2  N   UNL     1     -13.745   9.893  72.122  1.00  0.00    -0.456 NA 
HETATM    3  H   UNL     1     -13.436  10.043  73.082  1.00  0.00     0.000 HD 
ENDROOT
BRANCH   2   4
HETATM    4  C   UNL     1     -12.737  10.388  71.171  1.00  0.00    -0.415 C  
BRANCH   4   5
HETATM    5  C   UNL     1     -12.484  11.919  71.188  1.00  0.00    -0.261 C  
HETATM    6  C   UNL     1     -13.368  12.679  72.160  1.00  0.00    -0.570 C  
HETATM    7  C   UNL     1     -12.991  14.160  72.124  1.00  0.00    -0.463 C  
HETATM    8  C   UNL     1     -12.867  14.709  70.686  1.00  0.00    -0.342 C  
HETATM    9  C   UNL     1     -12.153  13.718  69.660  1.00  0.00    -0.336 C  
HETATM   10  N   UNL     1     -12.351  16.097  70.741  1.00  0.00    -0.457 NA 
HETATM   11  O   UNL     1     -12.728  12.429  69.856  1.00  0.00     0.154 OA 
HETATM   12  H1  UNL     1     -12.269  16.459  69.791  1.00  0.00     0.000 HD 
HETATM   13  H2  UNL     1     -11.475  16.165  71.259  1.00  0.00     0.000 HD 
BRANCH   9  14
HETATM   14  O   UNL     1     -10.707  13.688  69.691  1.00  0.00     0.047 OA 
BRANCH  14  15
HETATM   15  C   UNL     1      -9.961  13.618  68.404  1.00  0.00    -0.235 C  
HETATM   16  C   UNL     1     -10.822  13.883  67.138  1.00  0.00    -0.284 C  
HETATM   17  N   UNL     1     -11.173  15.315  67.040  1.00  0.00    -0.312 NA 
HETATM   18  C   UNL     1     -10.084  13.506  65.837  1.00  0.00    -0.311 C  
HETATM   19  H2  UNL     1     -10.345  15.911  67.067  1.00  0.00     0.000 HD 
HETATM   20  H1  UNL     1     -11.738  15.489  66.210  1.00  0.00     0.000 HD 
HETATM   21  C   UNL     1      -9.592  12.051  65.831  1.00  0.00    -0.223 C  
HETATM   22  N   UNL     1      -9.086  11.685  64.504  1.00  0.00    -0.397 NA 
HETATM   23  C   UNL     1      -8.512  11.832  66.908  1.00  0.00    -0.174 C  
HETATM   24  C   UNL     1      -9.064  12.344  68.275  1.00  0.00    -0.183 C  
HETATM   25  O   UNL     1      -7.972  12.434  69.221  1.00  0.00    -0.282 OA 
HETATM   26  H1  UNL     1      -8.759  10.719  64.499  1.00  0.00     0.000 HD 
HETATM   27  H2  UNL     1      -8.365  12.331  64.181  1.00  0.00     0.000 HD 
HETATM   28  H   UNL     1      -7.427  11.660  69.143  1.00  0.00     0.000 HD 
BRANCH  23  29
HETATM   29  O   UNL     1      -8.267  10.406  67.082  1.00  0.00    -0.120 OA 
BRANCH  29  30
HETATM   30  C   UNL     1      -9.109   9.571  67.903  1.00  0.00    -0.125 C  
HETATM   31  O   UNL     1      -8.556   9.187  69.164  1.00  0.00    -0.128 OA 
HETATM   32  C   UNL     1      -9.509   8.484  69.977  1.00  0.00    -0.164 C  
HETATM   33  C   UNL     1      -9.985   7.149  69.347  1.00  0.00    -0.164 C  
HETATM   34  C   UNL     1     -10.619   7.456  67.962  1.00  0.00    -0.175 C  
HETATM   35  O   UNL     1      -8.849   6.285  69.180  1.00  0.00    -0.128 OA 
HETATM   36  C   UNL     1     -10.967   6.467  70.312  1.00  0.00    -0.378 C  
HETATM   37  H   UNL     1     -10.715   7.988  65.419  1.00  0.00     0.000 HD 
HETATM   38  H   UNL     1      -9.141   5.468  68.794  1.00  0.00     0.000 HD 
HETATM   39  C   UNL     1      -9.655   8.335  67.093  1.00  0.00    -0.180 C  
HETATM   40  O   UNL     1     -10.386   8.733  65.907  1.00  0.00     0.095 OA 
BRANCH  34  41
HETATM   41  N   UNL     1     -11.242   6.346  67.177  1.00  0.00    -0.690 NA 
HETATM   42  C   UNL     1     -10.360   5.348  66.598  1.00  0.00    -0.275 C  
HETATM   43  H   UNL     1     -12.253   6.292  67.054  1.00  0.00     0.000 HD 
ENDBRANCH  34  41
ENDBRANCH  29  30
ENDBRANCH  23  29
ENDBRANCH  14  15
ENDBRANCH   9  14
ENDBRANCH   4   5
ENDBRANCH   2   4
TORSDOF 7
ENDMDL
MODEL       81
REMARK 921   NORMALIZED FREE ENERGY PREDICTED BY IDOCK:   -5.59 KCAL/MOL
REMARK 922        TOTAL FREE ENERGY PREDICTED BY IDOCK:   -9.59 KCAL/MOL
REMARK 923 INTER-LIGAND FREE ENERGY PREDICTED BY IDOCK:   -8.30 KCAL/MOL
REMARK 924 INTRA-LIGAND FREE ENERGY PREDICTED BY IDOCK:   -1.29 KCAL/MOL
REMARK 927      BINDING AFFINITY PREDICTED BY RF-SCORE:    0.00 PKD
ROOT
HETATM    1  C   UNL     1      -7.982   2.450  70.602  1.00  0.00    -0.042 C  
HETATM    2  N   UNL     1      -9.376   2.733  70.296  1.00  0.00    -0.141 NA 
HETATM    3  H   UNL     1      -9.937   2.731  71.147  1.00  0.00     0.000 HD 
ENDROOT
BRANCH   2   4
HETATM    4  C   UNL     1      -9.580   3.981  69.544  1.00  0.00    -0.195 C  
BRANCH   4   5
HETATM    5  C   UNL     1     -10.106   5.189  70.366  1.00  0.00    -0.262 C  
HETATM    6  C   UNL     1     -10.504   4.838  71.788  1.00  0.00    -0.182 C  
HETATM    7  C   UNL     1     -10.954   6.110  72.507  1.00  0.00    -0.296 C  
HETATM    8  C   UNL     1     -11.942   6.951  71.671  1.00  0.00    -0.339 C  
HETATM    9  C   UNL     1     -11.584   7.041  70.119  1.00  0.00    -0.225 C  
HETATM   10  N   UNL     1     -12.203   8.230  72.371  1.00  0.00    -0.467 NA 
HETATM   11  O   UNL     1     -11.267   5.722  69.686  1.00  0.00    -0.353 OA 
HETATM   12  H1  UNL     1     -12.856   8.786  71.818  1.00  0.00     0.000 HD 
HETATM   13  H2  UNL     1     -11.344   8.739  72.583  1.00  0.00     0.000 HD 
BRANCH   9  14
HETATM   14  O   UNL     1     -10.570   8.004  69.746  1.00  0.00    -0.234 OA 
BRANCH  14  15
HETATM   15  C   UNL     1     -10.729   8.758  68.471  1.00  0.00    -0.060 C  
HETATM   16  C   UNL     1      -9.952   8.166  67.264  1.00  0.00    -0.218 C  
HETATM   17  N   UNL     1     -10.595   6.922  66.792  1.00  0.00    -0.483 NA 
HETATM   18  C   UNL     1      -9.904   9.135  66.064  1.00  0.00    -0.342 C  
HETATM   19  H2  UNL     1     -11.581   7.063  66.575  1.00  0.00     0.000 HD 
HETATM   20  H1  UNL     1     -10.084   6.533  66.000  1.00  0.00     0.000 HD 
HETATM   21  C   UNL     1      -9.322  10.508  66.430  1.00  0.00    -0.168 C  
HETATM   22  N   UNL     1      -9.107  11.314  65.223  1.00  0.00    -0.344 NA 
HETATM   23  C   UNL     1     -10.237  11.246  67.426  1.00  0.00    -0.188 C  
HETATM   24  C   UNL     1     -10.523  10.299  68.633  1.00  0.00    -0.193 C  
HETATM   25  O   UNL     1     -11.612  10.845  69.413  1.00  0.00    -0.264 OA 
HETATM   26  H1  UNL     1      -8.720  12.226  65.466  1.00  0.00     0.000 HD 
HETATM   27  H2  UNL     1      -9.959  11.399  64.668  1.00  0.00     0.000 HD 
HETATM   28  H   UNL     1     -11.487  11.782  69.512  1.00  0.00     0.000 HD 
BRANCH  23  29
HETATM   29  O   UNL     1      -9.542  12.402  67.977  1.00  0.00    -0.198 OA 
BRANCH  29  30
HETATM   30  C   UNL     1      -9.995  13.753  67.761  1.00  0.00    -0.242 C  
HETATM   31  O   UNL     1      -9.021  14.654  67.228  1.00  0.00    -0.184 OA 
HETATM   32  C   UNL     1      -9.590  15.933  66.906  1.00  0.00    -0.229 C  
HETATM   33  C   UNL     1     -10.163  16.677  68.141  1.00  0.00    -0.280 C  
HETATM   34  C   UNL     1     -11.250  15.781  68.795  1.00  0.00    -0.342 C  
HETATM   35  O   UNL     1      -9.098  16.909  69.076  1.00  0.00    -0.254 OA 
HETATM   36  C   UNL     1     -10.708  18.041  67.689  1.00  0.00    -0.360 C  
HETATM   37  H   UNL     1     -12.244  13.867  70.248  1.00  0.00     0.000 HD 
HETATM   38  H   UNL     1      -9.449  17.365  69.832  1.00  0.00     0.000 HD 
HETATM   39  C   UNL     1     -10.702  14.334  69.043  1.00  0.00    -0.245 C  
HETATM   40  O   UNL     1     -11.818  13.517  69.474  1.00  0.00    -0.296 OA 
BRANCH  34  41
HETATM   41  N   UNL     1     -12.028  16.304  69.960  1.00  0.00    -0.295 NA 
HETATM   42  C   UNL     1     -11.437  16.178  71.281  1.00  0.00    -0.375 C  
HETATM   43  H   UNL     1     -12.944  16.735  69.831  1.00  0.00     0.000 HD 
ENDBRANCH  34  41
ENDBRANCH  29  30
ENDBRANCH  23  29
ENDBRANCH  14  15
ENDBRANCH   9  14
ENDBRANCH   4   5
ENDBRANCH   2   4
TORSDOF 7
ENDMDL
MODEL       82
REMARK 921   NORMALIZED FREE ENERGY PREDICTED BY IDOCK:   -5.59 KCAL/MOL
REMARK 922        TOTAL FREE ENERGY PREDICTED BY IDOCK:   -9.59 KCAL/MOL
REMARK 923 INTER-LIGAND FREE ENERGY PREDICTED BY IDOCK:   -8.75 KCAL/MOL
REMARK 924 INTRA-LIGAND FREE ENERGY PREDICTED BY IDOCK:   -0.83 KCAL/MOL
REMARK 927      BINDING AFFINITY PREDICTED BY RF-SCORE:    0.00 PKD
ROOT
HETATM    1  C   UNL     1     -12.280  13.251  70.689  1.00  0.00    -0.338 C  
HETATM    2  N   UNL     1     -11.952  14.398  71.522  1.00  0.00    -0.407 NA 
HETATM    3  H   UNL     1     -11.257  14.143  72.224  1.00  0.00     0.000 HD 
ENDROOT
BRANCH   2   4
HETATM    4  C   UNL     1     -11.514  15.579  70.764  1.00  0.00    -0.367 C  
BRANCH   4   5
HETATM    5  C   UNL     1     -10.862  15.295  69.383  1.00  0.00    -0.262 C  
HETATM    6  C   UNL     1      -9.616  16.118  69.111  1.00  0.00    -0.249 C  
HETATM    7  C   UNL     1      -9.039  15.715  67.754  1.00  0.00    -0.181 C  
HETATM    8  C   UNL     1     -10.112  15.646  66.646  1.00  0.00    -0.273 C  
HETATM    9  C   UNL     1     -11.496  15.000  67.106  1.00  0.00    -0.297 C  
HETATM   10  N   UNL     1      -9.499  15.102  65.412  1.00  0.00    -0.367 NA 
HETATM   11  O   UNL     1     -11.837  15.590  68.357  1.00  0.00    -0.351 OA 
HETATM   12  H1  UNL     1     -10.208  15.057  64.680  1.00  0.00     0.000 HD 
HETATM   13  H2  UNL     1      -9.045  14.202  65.568  1.00  0.00     0.000 HD 
BRANCH   9  14
HETATM   14  O   UNL     1     -11.553  13.555  67.143  1.00  0.00    -0.320 OA 
BRANCH  14  15
HETATM   15  C   UNL     1     -10.593  12.776  66.313  1.00  0.00    -0.257 C  
HETATM   16  C   UNL     1     -11.216  12.098  65.062  1.00  0.00    -0.322 C  
HETATM   17  N   UNL     1     -11.535  13.106  64.030  1.00  0.00    -0.419 NA 
HETATM   18  C   UNL     1     -10.263  11.071  64.415  1.00  0.00    -0.409 C  
HETATM   19  H2  UNL     1     -10.722  13.672  63.788  1.00  0.00     0.000 HD 
HETATM   20  H1  UNL     1     -11.945  12.661  63.209  1.00  0.00     0.000 HD 
HETATM   21  C   UNL     1      -9.786   9.995  65.402  1.00  0.00    -0.314 C  
HETATM   22  N   UNL     1      -9.057   8.936  64.696  1.00  0.00    -0.430 NA 
HETATM   23  C   UNL     1      -8.914  10.615  66.511  1.00  0.00    -0.156 C  
HETATM   24  C   UNL     1      -9.695  11.806  67.149  1.00  0.00    -0.183 C  
HETATM   25  O   UNL     1      -8.786  12.584  67.963  1.00  0.00    -0.174 OA 
HETATM   26  H1  UNL     1      -8.740   8.222  65.351  1.00  0.00     0.000 HD 
HETATM   27  H2  UNL     1      -8.287   9.311  64.142  1.00  0.00     0.000 HD 
HETATM   28  H   UNL     1      -8.240  11.994  68.471  1.00  0.00     0.000 HD 
BRANCH  23  29
HETATM   29  O   UNL     1      -8.713   9.647  67.582  1.00  0.00    -0.125 OA 
BRANCH  29  30
HETATM   30  C   UNL     1      -9.726   9.362  68.567  1.00  0.00    -0.149 C  
HETATM   31  O   UNL     1      -9.536   9.978  69.844  1.00  0.00    -0.226 OA 
HETATM   32  C   UNL     1     -10.657   9.764  70.715  1.00  0.00    -0.301 C  
HETATM   33  C   UNL     1     -10.900   8.267  71.046  1.00  0.00    -0.233 C  
HETATM   34  C   UNL     1     -11.131   7.500  69.715  1.00  0.00    -0.129 C  
HETATM   35  O   UNL     1      -9.739   7.746  71.712  1.00  0.00    -0.158 OA 
HETATM   36  C   UNL     1     -12.092   8.159  72.009  1.00  0.00    -0.388 C  
HETATM   37  H   UNL     1     -10.528   6.285  67.496  1.00  0.00     0.000 HD 
HETATM   38  H   UNL     1      -9.888   6.830  71.914  1.00  0.00     0.000 HD 
HETATM   39  C   UNL     1      -9.989   7.813  68.688  1.00  0.00    -0.182 C  
HETATM   40  O   UNL     1     -10.370   7.219  67.424  1.00  0.00    -0.206 OA 
BRANCH  34  41
HETATM   41  N   UNL     1     -11.478   6.047  69.756  1.00  0.00    -0.305 NA 
HETATM   42  C   UNL     1     -10.405   5.101  70.009  1.00  0.00    -0.276 C  
HETATM   43  H   UNL     1     -12.437   5.730  69.612  1.00  0.00     0.000 HD 
ENDBRANCH  34  41
ENDBRANCH  29  30
ENDBRANCH  23  29
ENDBRANCH  14  15
ENDBRANCH   9  14
ENDBRANCH   4   5
ENDBRANCH   2   4
TORSDOF 7
ENDMDL
MODEL       83
REMARK 921   NORMALIZED FREE ENERGY PREDICTED BY IDOCK:   -5.58 KCAL/MOL
REMARK 922        TOTAL FREE ENERGY PREDICTED BY IDOCK:   -9.57 KCAL/MOL
REMARK 923 INTER-LIGAND FREE ENERGY PREDICTED BY IDOCK:   -8.12 KCAL/MOL
REMARK 924 INTRA-LIGAND FREE ENERGY PREDICTED BY IDOCK:   -1.45 KCAL/MOL
REMARK 927      BINDING AFFINITY PREDICTED BY RF-SCORE:    0.00 PKD
ROOT
HETATM    1  C   UNL     1     -10.329  19.979  65.840  1.00  0.00    -0.424 C  
HETATM    2  N   UNL     1     -10.507  19.091  66.979  1.00  0.00    -0.410 NA 
HETATM    3  H   UNL     1     -10.510  18.117  66.677  1.00  0.00     0.000 HD 
ENDROOT
BRANCH   2   4
HETATM    4  C   UNL     1      -9.526  19.297  68.054  1.00  0.00    -0.335 C  
BRANCH   4   5
HETATM    5  C   UNL     1      -8.535  18.127  68.301  1.00  0.00    -0.284 C  
HETATM    6  C   UNL     1      -7.111  18.575  68.576  1.00  0.00    -0.293 C  
HETATM    7  C   UNL     1      -6.247  17.345  68.853  1.00  0.00    -0.198 C  
HETATM    8  C   UNL     1      -6.459  16.220  67.817  1.00  0.00    -0.141 C  
HETATM    9  C   UNL     1      -7.979  16.000  67.384  1.00  0.00    -0.159 C  
HETATM   10  N   UNL     1      -5.707  15.018  68.246  1.00  0.00    -0.111 NA 
HETATM   11  O   UNL     1      -8.530  17.287  67.123  1.00  0.00    -0.197 OA 
HETATM   12  H1  UNL     1      -5.847  14.276  67.561  1.00  0.00     0.000 HD 
HETATM   13  H2  UNL     1      -5.950  14.725  69.192  1.00  0.00     0.000 HD 
BRANCH   9  14
HETATM   14  O   UNL     1      -8.800  15.220  68.285  1.00  0.00    -0.164 OA 
BRANCH  14  15
HETATM   15  C   UNL     1      -9.457  13.986  67.772  1.00  0.00    -0.209 C  
HETATM   16  C   UNL     1     -11.007  14.056  67.700  1.00  0.00    -0.269 C  
HETATM   17  N   UNL     1     -11.436  14.935  66.593  1.00  0.00    -0.332 NA 
HETATM   18  C   UNL     1     -11.647  12.673  67.456  1.00  0.00    -0.418 C  
HETATM   19  H2  UNL     1     -11.028  14.650  65.702  1.00  0.00     0.000 HD 
HETATM   20  H1  UNL     1     -12.453  14.982  66.546  1.00  0.00     0.000 HD 
HETATM   21  C   UNL     1     -11.225  11.628  68.500  1.00  0.00    -0.256 C  
HETATM   22  N   UNL     1     -12.013  10.401  68.347  1.00  0.00    -0.749 NA 
HETATM   23  C   UNL     1      -9.717  11.327  68.397  1.00  0.00    -0.194 C  
HETATM   24  C   UNL     1      -8.936  12.678  68.452  1.00  0.00    -0.125 C  
HETATM   25  O   UNL     1      -7.566  12.446  68.050  1.00  0.00    -0.107 OA 
HETATM   26  H1  UNL     1     -11.734   9.707  69.039  1.00  0.00     0.000 HD 
HETATM   27  H2  UNL     1     -11.959  10.032  67.397  1.00  0.00     0.000 HD 
HETATM   28  H   UNL     1      -7.249  11.651  68.464  1.00  0.00     0.000 HD 
BRANCH  23  29
HETATM   29  O   UNL     1      -9.284  10.565  69.561  1.00  0.00    -0.158 OA 
BRANCH  29  30
HETATM   30  C   UNL     1      -9.224   9.124  69.564  1.00  0.00    -0.159 C  
HETATM   31  O   UNL     1      -9.597   8.488  68.339  1.00  0.00    -0.144 OA 
HETATM   32  C   UNL     1      -9.370   7.071  68.378  1.00  0.00    -0.130 C  
HETATM   33  C   UNL     1     -10.214   6.344  69.458  1.00  0.00    -0.189 C  
HETATM   34  C   UNL     1      -9.874   6.958  70.844  1.00  0.00    -0.185 C  
HETATM   35  O   UNL     1     -11.607   6.544  69.168  1.00  0.00    -0.629 OA 
HETATM   36  C   UNL     1      -9.922   4.838  69.386  1.00  0.00    -0.269 C  
HETATM   37  H   UNL     1      -9.937   8.659  72.809  1.00  0.00     0.000 HD 
HETATM   38  H   UNL     1     -12.124   6.098  69.829  1.00  0.00     0.000 HD 
HETATM   39  C   UNL     1      -9.986   8.520  70.803  1.00  0.00    -0.191 C  
HETATM   40  O   UNL     1      -9.477   9.023  72.062  1.00  0.00    -0.339 OA 
BRANCH  34  41
HETATM   41  N   UNL     1     -10.488   6.374  72.076  1.00  0.00    -0.205 NA 
HETATM   42  C   UNL     1      -9.628   5.615  72.967  1.00  0.00    -0.150 C  
HETATM   43  H   UNL     1     -11.479   6.504  72.283  1.00  0.00     0.000 HD 
ENDBRANCH  34  41
ENDBRANCH  29  30
ENDBRANCH  23  29
ENDBRANCH  14  15
ENDBRANCH   9  14
ENDBRANCH   4   5
ENDBRANCH   2   4
TORSDOF 7
ENDMDL
MODEL       84
REMARK 921   NORMALIZED FREE ENERGY PREDICTED BY IDOCK:   -5.57 KCAL/MOL
REMARK 922        TOTAL FREE ENERGY PREDICTED BY IDOCK:   -9.56 KCAL/MOL
REMARK 923 INTER-LIGAND FREE ENERGY PREDICTED BY IDOCK:   -7.93 KCAL/MOL
REMARK 924 INTRA-LIGAND FREE ENERGY PREDICTED BY IDOCK:   -1.64 KCAL/MOL
REMARK 927      BINDING AFFINITY PREDICTED BY RF-SCORE:    0.00 PKD
ROOT
HETATM    1  C   UNL     1      -6.605  10.011  64.812  1.00  0.00    -0.127 C  
HETATM    2  N   UNL     1      -7.908   9.719  65.390  1.00  0.00    -0.117 NA 
HETATM    3  H   UNL     1      -8.550  10.497  65.239  1.00  0.00     0.000 HD 
ENDROOT
BRANCH   2   4
HETATM    4  C   UNL     1      -8.501   8.460  64.914  1.00  0.00    -0.122 C  
BRANCH   4   5
HETATM    5  C   UNL     1      -8.695   7.354  65.987  1.00  0.00    -0.153 C  
HETATM    6  C   UNL     1      -8.633   5.942  65.432  1.00  0.00    -0.138 C  
HETATM    7  C   UNL     1      -8.785   4.948  66.583  1.00  0.00    -0.108 C  
HETATM    8  C   UNL     1      -9.955   5.299  67.526  1.00  0.00    -0.171 C  
HETATM    9  C   UNL     1     -10.104   6.856  67.842  1.00  0.00    -0.162 C  
HETATM   10  N   UNL     1      -9.933   4.382  68.689  1.00  0.00    -0.067 NA 
HETATM   11  O   UNL     1      -9.990   7.547  66.601  1.00  0.00    -0.225 OA 
HETATM   12  H1  UNL     1     -10.706   4.615  69.312  1.00  0.00     0.000 HD 
HETATM   13  H2  UNL     1      -9.033   4.387  69.170  1.00  0.00     0.000 HD 
BRANCH   9  14
HETATM   14  O   UNL     1      -9.226   7.396  68.857  1.00  0.00    -0.143 OA 
BRANCH  14  15
HETATM   15  C   UNL     1      -9.687   8.562  69.660  1.00  0.00    -0.179 C  
HETATM   16  C   UNL     1     -10.471   8.196  70.949  1.00  0.00    -0.202 C  
HETATM   17  N   UNL     1      -9.558   7.650  71.974  1.00  0.00    -0.153 NA 
HETATM   18  C   UNL     1     -11.177   9.417  71.574  1.00  0.00    -0.457 C  
HETATM   19  H2  UNL     1      -8.784   8.285  72.170  1.00  0.00     0.000 HD 
HETATM   20  H1  UNL     1     -10.073   7.409  72.821  1.00  0.00     0.000 HD 
HETATM   21  C   UNL     1     -12.110  10.136  70.587  1.00  0.00    -0.319 C  
HETATM   22  N   UNL     1     -12.907  11.153  71.282  1.00  0.00    -0.415 NA 
HETATM   23  C   UNL     1     -11.310  10.762  69.430  1.00  0.00    -0.285 C  
HETATM   24  C   UNL     1     -10.398   9.661  68.804  1.00  0.00    -0.213 C  
HETATM   25  O   UNL     1      -9.426  10.291  67.937  1.00  0.00    -0.141 OA 
HETATM   26  H1  UNL     1     -13.527  11.630  70.627  1.00  0.00     0.000 HD 
HETATM   27  H2  UNL     1     -12.319  11.810  71.794  1.00  0.00     0.000 HD 
HETATM   28  H   UNL     1      -9.858  10.959  67.416  1.00  0.00     0.000 HD 
BRANCH  23  29
HETATM   29  O   UNL     1     -12.217  11.183  68.370  1.00  0.00    -0.610 OA 
BRANCH  29  30
HETATM   30  C   UNL     1     -11.987  12.367  67.580  1.00  0.00    -0.183 C  
HETATM   31  O   UNL     1     -11.454  12.142  66.272  1.00  0.00    -0.347 OA 
HETATM   32  C   UNL     1     -11.393  13.352  65.501  1.00  0.00    -0.293 C  
HETATM   33  C   UNL     1     -10.456  14.425  66.116  1.00  0.00    -0.291 C  
HETATM   34  C   UNL     1     -10.957  14.753  67.549  1.00  0.00    -0.304 C  
HETATM   35  O   UNL     1      -9.123  13.893  66.178  1.00  0.00    -0.485 OA 
HETATM   36  C   UNL     1     -10.438  15.654  65.195  1.00  0.00    -0.417 C  
HETATM   37  H   UNL     1     -11.301  14.461  70.109  1.00  0.00     0.000 HD 
HETATM   38  H   UNL     1      -8.549  14.550  66.554  1.00  0.00     0.000 HD 
HETATM   39  C   UNL     1     -11.159  13.441  68.382  1.00  0.00    -0.273 C  
HETATM   40  O   UNL     1     -11.800  13.813  69.626  1.00  0.00    -0.293 OA 
BRANCH  34  41
HETATM   41  N   UNL     1     -10.279  15.829  68.335  1.00  0.00    -0.220 NA 
HETATM   42  C   UNL     1     -10.859  17.160  68.302  1.00  0.00    -0.314 C  
HETATM   43  H   UNL     1      -9.436  15.634  68.877  1.00  0.00     0.000 HD 
ENDBRANCH  34  41
ENDBRANCH  29  30
ENDBRANCH  23  29
ENDBRANCH  14  15
ENDBRANCH   9  14
ENDBRANCH   4   5
ENDBRANCH   2   4
TORSDOF 7
ENDMDL
MODEL       85
REMARK 921   NORMALIZED FREE ENERGY PREDICTED BY IDOCK:   -5.53 KCAL/MOL
REMARK 922        TOTAL FREE ENERGY PREDICTED BY IDOCK:   -9.51 KCAL/MOL
REMARK 923 INTER-LIGAND FREE ENERGY PREDICTED BY IDOCK:   -8.84 KCAL/MOL
REMARK 924 INTRA-LIGAND FREE ENERGY PREDICTED BY IDOCK:   -0.67 KCAL/MOL
REMARK 927      BINDING AFFINITY PREDICTED BY RF-SCORE:    0.00 PKD
ROOT
HETATM    1  C   UNL     1     -12.284  12.430  70.237  1.00  0.00    -0.267 C  
HETATM    2  N   UNL     1     -11.371  13.181  69.389  1.00  0.00    -0.403 NA 
HETATM    3  H   UNL     1     -10.621  12.579  69.048  1.00  0.00     0.000 HD 
ENDROOT
BRANCH   2   4
HETATM    4  C   UNL     1     -12.029  13.872  68.271  1.00  0.00    -0.357 C  
BRANCH   4   5
HETATM    5  C   UNL     1     -11.545  13.476  66.849  1.00  0.00    -0.363 C  
HETATM    6  C   UNL     1     -12.164  14.302  65.736  1.00  0.00    -0.415 C  
HETATM    7  C   UNL     1     -11.576  13.856  64.398  1.00  0.00    -0.401 C  
HETATM    8  C   UNL     1     -11.565  12.321  64.233  1.00  0.00    -0.371 C  
HETATM    9  C   UNL     1     -11.155  11.518  65.549  1.00  0.00    -0.191 C  
HETATM   10  N   UNL     1     -10.842  11.973  62.987  1.00  0.00    -0.652 NA 
HETATM   11  O   UNL     1     -11.887  12.087  66.631  1.00  0.00    -0.583 OA 
HETATM   12  H1  UNL     1     -10.834  10.959  62.878  1.00  0.00     0.000 HD 
HETATM   13  H2  UNL     1      -9.903  12.373  62.958  1.00  0.00     0.000 HD 
BRANCH   9  14
HETATM   14  O   UNL     1      -9.739  11.420  65.831  1.00  0.00    -0.211 OA 
BRANCH  14  15
HETATM   15  C   UNL     1      -9.266  11.650  67.225  1.00  0.00    -0.170 C  
HETATM   16  C   UNL     1      -7.881  12.343  67.336  1.00  0.00    -0.174 C  
HETATM   17  N   UNL     1      -7.984  13.770  66.967  1.00  0.00    -0.377 NA 
HETATM   18  C   UNL     1      -7.308  12.284  68.767  1.00  0.00    -0.083 C  
HETATM   19  H2  UNL     1      -8.694  14.253  67.516  1.00  0.00     0.000 HD 
HETATM   20  H1  UNL     1      -7.074  14.225  67.039  1.00  0.00     0.000 HD 
HETATM   21  C   UNL     1      -7.214  10.851  69.313  1.00  0.00    -0.128 C  
HETATM   22  N   UNL     1      -6.478  10.832  70.582  1.00  0.00    -0.410 NA 
HETATM   23  C   UNL     1      -8.616  10.235  69.484  1.00  0.00    -0.138 C  
HETATM   24  C   UNL     1      -9.392  10.387  68.138  1.00  0.00    -0.145 C  
HETATM   25  O   UNL     1     -10.792  10.102  68.366  1.00  0.00    -0.219 OA 
HETATM   26  H1  UNL     1      -6.416   9.881  70.945  1.00  0.00     0.000 HD 
HETATM   27  H2  UNL     1      -6.883  11.472  71.265  1.00  0.00     0.000 HD 
HETATM   28  H   UNL     1     -10.868   9.334  68.921  1.00  0.00     0.000 HD 
BRANCH  23  29
HETATM   29  O   UNL     1      -8.502   8.803  69.723  1.00  0.00    -0.121 OA 
BRANCH  29  30
HETATM   30  C   UNL     1      -8.871   8.196  70.978  1.00  0.00    -0.143 C  
HETATM   31  O   UNL     1      -8.238   6.948  71.270  1.00  0.00    -0.112 OA 
HETATM   32  C   UNL     1      -8.546   6.487  72.596  1.00  0.00    -0.124 C  
HETATM   33  C   UNL     1     -10.056   6.209  72.813  1.00  0.00    -0.180 C  
HETATM   34  C   UNL     1     -10.844   7.518  72.530  1.00  0.00    -0.299 C  
HETATM   35  O   UNL     1     -10.475   5.183  71.899  1.00  0.00    -0.211 OA 
HETATM   36  C   UNL     1     -10.264   5.688  74.244  1.00  0.00    -0.293 C  
HETATM   37  H   UNL     1     -12.007   9.377  71.134  1.00  0.00     0.000 HD 
HETATM   38  H   UNL     1     -11.400   5.013  72.033  1.00  0.00     0.000 HD 
HETATM   39  C   UNL     1     -10.436   8.121  71.142  1.00  0.00    -0.199 C  
HETATM   40  O   UNL     1     -11.064   9.422  71.036  1.00  0.00    -0.284 OA 
BRANCH  34  41
HETATM   41  N   UNL     1     -12.321   7.549  72.754  1.00  0.00    -0.467 NA 
HETATM   42  C   UNL     1     -13.179   7.092  71.674  1.00  0.00    -0.346 C  
HETATM   43  H   UNL     1     -12.714   7.879  73.635  1.00  0.00     0.000 HD 
ENDBRANCH  34  41
ENDBRANCH  29  30
ENDBRANCH  23  29
ENDBRANCH  14  15
ENDBRANCH   9  14
ENDBRANCH   4   5
ENDBRANCH   2   4
TORSDOF 7
ENDMDL
MODEL       86
REMARK 921   NORMALIZED FREE ENERGY PREDICTED BY IDOCK:   -5.52 KCAL/MOL
REMARK 922        TOTAL FREE ENERGY PREDICTED BY IDOCK:   -9.49 KCAL/MOL
REMARK 923 INTER-LIGAND FREE ENERGY PREDICTED BY IDOCK:   -8.29 KCAL/MOL
REMARK 924 INTRA-LIGAND FREE ENERGY PREDICTED BY IDOCK:   -1.21 KCAL/MOL
REMARK 927      BINDING AFFINITY PREDICTED BY RF-SCORE:    0.00 PKD
ROOT
HETATM    1  C   UNL     1     -12.303   7.017  71.108  1.00  0.00    -0.378 C  
HETATM    2  N   UNL     1     -12.320   7.463  72.493  1.00  0.00    -0.521 NA 
HETATM    3  H   UNL     1     -12.805   6.786  73.082  1.00  0.00     0.000 HD 
ENDROOT
BRANCH   2   4
HETATM    4  C   UNL     1     -10.988   7.762  73.039  1.00  0.00    -0.381 C  
BRANCH   4   5
HETATM    5  C   UNL     1      -9.822   7.776  72.013  1.00  0.00    -0.174 C  
HETATM    6  C   UNL     1      -8.534   7.169  72.538  1.00  0.00    -0.126 C  
HETATM    7  C   UNL     1      -7.484   7.192  71.428  1.00  0.00    -0.080 C  
HETATM    8  C   UNL     1      -7.397   8.560  70.717  1.00  0.00    -0.066 C  
HETATM    9  C   UNL     1      -8.807   9.253  70.443  1.00  0.00    -0.234 C  
HETATM   10  N   UNL     1      -6.474   8.448  69.563  1.00  0.00    -0.040 NA 
HETATM   11  O   UNL     1      -9.563   9.151  71.646  1.00  0.00    -0.277 OA 
HETATM   12  H1  UNL     1      -6.416   9.352  69.093  1.00  0.00     0.000 HD 
HETATM   13  H2  UNL     1      -6.737   7.696  68.926  1.00  0.00     0.000 HD 
BRANCH   9  14
HETATM   14  O   UNL     1      -9.543   8.786  69.288  1.00  0.00    -0.160 OA 
BRANCH  14  15
HETATM   15  C   UNL     1     -10.055   9.786  68.310  1.00  0.00    -0.163 C  
HETATM   16  C   UNL     1      -9.561   9.582  66.851  1.00  0.00    -0.165 C  
HETATM   17  N   UNL     1     -10.221   8.410  66.240  1.00  0.00    -0.424 NA 
HETATM   18  C   UNL     1      -9.868  10.797  65.952  1.00  0.00    -0.290 C  
HETATM   19  H2  UNL     1     -11.237   8.478  66.289  1.00  0.00     0.000 HD 
HETATM   20  H1  UNL     1      -9.896   8.276  65.282  1.00  0.00     0.000 HD 
HETATM   21  C   UNL     1      -9.301  12.111  66.511  1.00  0.00    -0.228 C  
HETATM   22  N   UNL     1      -9.438  13.190  65.526  1.00  0.00    -0.470 NA 
HETATM   23  C   UNL     1      -9.990  12.487  67.836  1.00  0.00    -0.212 C  
HETATM   24  C   UNL     1      -9.912  11.263  68.801  1.00  0.00    -0.193 C  
HETATM   25  O   UNL     1     -10.809  11.483  69.915  1.00  0.00    -0.453 OA 
HETATM   26  H1  UNL     1      -9.061  14.062  65.897  1.00  0.00     0.000 HD 
HETATM   27  H2  UNL     1     -10.403  13.296  65.213  1.00  0.00     0.000 HD 
HETATM   28  H   UNL     1     -10.722  12.381  70.214  1.00  0.00     0.000 HD 
BRANCH  23  29
HETATM   29  O   UNL     1      -9.254  13.562  68.490  1.00  0.00    -0.180 OA 
BRANCH  29  30
HETATM   30  C   UNL     1      -9.660  14.943  68.402  1.00  0.00    -0.209 C  
HETATM   31  O   UNL     1     -10.674  15.228  67.434  1.00  0.00    -0.280 OA 
HETATM   32  C   UNL     1     -11.124  16.589  67.512  1.00  0.00    -0.078 C  
HETATM   33  C   UNL     1     -10.006  17.623  67.211  1.00  0.00    -0.322 C  
HETATM   34  C   UNL     1      -8.848  17.406  68.224  1.00  0.00    -0.264 C  
HETATM   35  O   UNL     1      -9.527  17.410  65.873  1.00  0.00    -0.512 OA 
HETATM   36  C   UNL     1     -10.605  19.036  67.285  1.00  0.00    -0.554 C  
HETATM   37  H   UNL     1      -6.726  16.322  69.264  1.00  0.00     0.000 HD 
HETATM   38  H   UNL     1      -8.843  18.043  65.689  1.00  0.00     0.000 HD 
HETATM   39  C   UNL     1      -8.417  15.899  68.260  1.00  0.00    -0.170 C  
HETATM   40  O   UNL     1      -7.476  15.745  69.350  1.00  0.00    -0.210 OA 
BRANCH  34  41
HETATM   41  N   UNL     1      -7.677  18.334  68.210  1.00  0.00    -0.282 NA 
HETATM   42  C   UNL     1      -7.571  19.306  69.284  1.00  0.00    -0.192 C  
HETATM   43  H   UNL     1      -6.976  18.286  67.470  1.00  0.00     0.000 HD 
ENDBRANCH  34  41
ENDBRANCH  29  30
ENDBRANCH  23  29
ENDBRANCH  14  15
ENDBRANCH   9  14
ENDBRANCH   4   5
ENDBRANCH   2   4
TORSDOF 7
ENDMDL
MODEL       87
REMARK 921   NORMALIZED FREE ENERGY PREDICTED BY IDOCK:   -5.52 KCAL/MOL
REMARK 922        TOTAL FREE ENERGY PREDICTED BY IDOCK:   -9.49 KCAL/MOL
REMARK 923 INTER-LIGAND FREE ENERGY PREDICTED BY IDOCK:   -8.22 KCAL/MOL
REMARK 924 INTRA-LIGAND FREE ENERGY PREDICTED BY IDOCK:   -1.26 KCAL/MOL
REMARK 927      BINDING AFFINITY PREDICTED BY RF-SCORE:    0.00 PKD
ROOT
HETATM    1  C   UNL     1     -11.386   4.477  73.378  1.00  0.00    -0.286 C  
HETATM    2  N   UNL     1     -11.899   5.781  72.984  1.00  0.00    -0.510 NA 
HETATM    3  H   UNL     1     -11.553   6.506  73.611  1.00  0.00     0.000 HD 
ENDROOT
BRANCH   2   4
HETATM    4  C   UNL     1     -11.620   6.131  71.583  1.00  0.00    -0.257 C  
BRANCH   4   5
HETATM    5  C   UNL     1     -10.379   7.032  71.344  1.00  0.00    -0.197 C  
HETATM    6  C   UNL     1      -9.912   7.778  72.581  1.00  0.00    -0.298 C  
HETATM    7  C   UNL     1      -8.662   8.585  72.234  1.00  0.00    -0.261 C  
HETATM    8  C   UNL     1      -8.813   9.388  70.924  1.00  0.00    -0.103 C  
HETATM    9  C   UNL     1      -9.562   8.606  69.753  1.00  0.00    -0.171 C  
HETATM   10  N   UNL     1      -7.512  10.011  70.585  1.00  0.00    -0.405 NA 
HETATM   11  O   UNL     1     -10.718   8.002  70.326  1.00  0.00    -0.231 OA 
HETATM   12  H1  UNL     1      -7.613  10.542  69.720  1.00  0.00     0.000 HD 
HETATM   13  H2  UNL     1      -6.756   9.328  70.536  1.00  0.00     0.000 HD 
BRANCH   9  14
HETATM   14  O   UNL     1      -8.767   7.666  68.993  1.00  0.00    -0.135 OA 
BRANCH  14  15
HETATM   15  C   UNL     1      -8.583   7.895  67.533  1.00  0.00    -0.122 C  
HETATM   16  C   UNL     1      -7.175   8.410  67.128  1.00  0.00    -0.084 C  
HETATM   17  N   UNL     1      -6.174   7.330  67.246  1.00  0.00    -0.051 NA 
HETATM   18  C   UNL     1      -7.131   8.914  65.670  1.00  0.00    -0.084 C  
HETATM   19  H2  UNL     1      -6.443   6.504  66.711  1.00  0.00     0.000 HD 
HETATM   20  H1  UNL     1      -5.249   7.668  66.980  1.00  0.00     0.000 HD 
HETATM   21  C   UNL     1      -8.180   9.998  65.382  1.00  0.00    -0.149 C  
HETATM   22  N   UNL     1      -7.962  10.585  64.056  1.00  0.00    -0.332 NA 
HETATM   23  C   UNL     1      -9.606   9.428  65.501  1.00  0.00    -0.258 C  
HETATM   24  C   UNL     1      -9.744   8.718  66.884  1.00  0.00    -0.210 C  
HETATM   25  O   UNL     1     -10.951   7.920  66.887  1.00  0.00    -0.407 OA 
HETATM   26  H1  UNL     1      -8.658  11.305  63.864  1.00  0.00     0.000 HD 
HETATM   27  H2  UNL     1      -7.941   9.874  63.325  1.00  0.00     0.000 HD 
HETATM   28  H   UNL     1     -11.656   8.420  66.492  1.00  0.00     0.000 HD 
BRANCH  23  29
HETATM   29  O   UNL     1     -10.576  10.515  65.509  1.00  0.00    -0.187 OA 
BRANCH  29  30
HETATM   30  C   UNL     1     -10.310  11.784  66.142  1.00  0.00    -0.230 C  
HETATM   31  O   UNL     1     -10.844  11.940  67.459  1.00  0.00    -0.219 OA 
HETATM   32  C   UNL     1     -10.412  13.166  68.072  1.00  0.00    -0.239 C  
HETATM   33  C   UNL     1     -10.890  14.432  67.313  1.00  0.00    -0.290 C  
HETATM   34  C   UNL     1     -10.351  14.367  65.858  1.00  0.00    -0.314 C  
HETATM   35  O   UNL     1     -12.326  14.447  67.298  1.00  0.00    -0.617 OA 
HETATM   36  C   UNL     1     -10.406  15.677  68.072  1.00  0.00    -0.246 C  
HETATM   37  H   UNL     1     -10.232  13.657  63.359  1.00  0.00     0.000 HD 
HETATM   38  H   UNL     1     -12.619  15.223  66.834  1.00  0.00     0.000 HD 
HETATM   39  C   UNL     1     -10.693  12.987  65.199  1.00  0.00    -0.306 C  
HETATM   40  O   UNL     1     -10.001  12.931  63.928  1.00  0.00    -0.324 OA 
BRANCH  34  41
HETATM   41  N   UNL     1     -10.595  15.516  64.933  1.00  0.00    -0.530 NA 
HETATM   42  C   UNL     1     -11.875  15.576  64.250  1.00  0.00    -0.173 C  
HETATM   43  H   UNL     1      -9.885  16.234  64.787  1.00  0.00     0.000 HD 
ENDBRANCH  34  41
ENDBRANCH  29  30
ENDBRANCH  23  29
ENDBRANCH  14  15
ENDBRANCH   9  14
ENDBRANCH   4   5
ENDBRANCH   2   4
TORSDOF 7
ENDMDL
MODEL       88
REMARK 921   NORMALIZED FREE ENERGY PREDICTED BY IDOCK:   -5.51 KCAL/MOL
REMARK 922        TOTAL FREE ENERGY PREDICTED BY IDOCK:   -9.47 KCAL/MOL
REMARK 923 INTER-LIGAND FREE ENERGY PREDICTED BY IDOCK:   -9.35 KCAL/MOL
REMARK 924 INTRA-LIGAND FREE ENERGY PREDICTED BY IDOCK:   -0.11 KCAL/MOL
REMARK 927      BINDING AFFINITY PREDICTED BY RF-SCORE:    0.00 PKD
ROOT
HETATM    1  C   UNL     1     -10.001  19.316  67.009  1.00  0.00    -0.357 C  
HETATM    2  N   UNL     1      -8.734  18.606  67.107  1.00  0.00    -0.269 NA 
HETATM    3  H   UNL     1      -7.954  19.262  67.088  1.00  0.00     0.000 HD 
ENDROOT
BRANCH   2   4
HETATM    4  C   UNL     1      -8.637  17.721  68.276  1.00  0.00    -0.277 C  
BRANCH   4   5
HETATM    5  C   UNL     1      -9.881  16.836  68.563  1.00  0.00    -0.257 C  
HETATM    6  C   UNL     1     -10.458  17.020  69.955  1.00  0.00     0.098 C  
HETATM    7  C   UNL     1     -11.701  16.141  70.098  1.00  0.00    -0.193 C  
HETATM    8  C   UNL     1     -11.473  14.698  69.599  1.00  0.00    -0.289 C  
HETATM    9  C   UNL     1     -10.618  14.591  68.257  1.00  0.00    -0.241 C  
HETATM   10  N   UNL     1     -12.761  13.966  69.629  1.00  0.00    -0.280 NA 
HETATM   11  O   UNL     1      -9.492  15.452  68.409  1.00  0.00    -0.193 OA 
HETATM   12  H1  UNL     1     -12.610  13.013  69.299  1.00  0.00     0.000 HD 
HETATM   13  H2  UNL     1     -13.493  14.447  69.106  1.00  0.00     0.000 HD 
BRANCH   9  14
HETATM   14  O   UNL     1     -11.328  14.825  67.018  1.00  0.00    -0.338 OA 
BRANCH  14  15
HETATM   15  C   UNL     1     -10.844  14.162  65.775  1.00  0.00    -0.297 C  
HETATM   16  C   UNL     1     -11.939  13.911  64.703  1.00  0.00    -0.419 C  
HETATM   17  N   UNL     1     -12.336  15.181  64.060  1.00  0.00    -0.981 NA 
HETATM   18  C   UNL     1     -11.459  12.965  63.583  1.00  0.00    -0.506 C  
HETATM   19  H2  UNL     1     -11.533  15.676  63.672  1.00  0.00     0.000 HD 
HETATM   20  H1  UNL     1     -13.055  15.016  63.356  1.00  0.00     0.000 HD 
HETATM   21  C   UNL     1     -10.942  11.621  64.119  1.00  0.00    -0.376 C  
HETATM   22  N   UNL     1     -10.695  10.688  63.014  1.00  0.00    -0.470 NA 
HETATM   23  C   UNL     1      -9.670  11.819  64.965  1.00  0.00    -0.187 C  
HETATM   24  C   UNL     1      -9.959  12.902  66.050  1.00  0.00    -0.272 C  
HETATM   25  O   UNL     1      -8.708  13.321  66.643  1.00  0.00    -0.411 OA 
HETATM   26  H1  UNL     1     -10.352   9.796  63.369  1.00  0.00     0.000 HD 
HETATM   27  H2  UNL     1     -10.065  11.086  62.317  1.00  0.00     0.000 HD 
HETATM   28  H   UNL     1      -8.170  12.555  66.810  1.00  0.00     0.000 HD 
BRANCH  23  29
HETATM   29  O   UNL     1      -9.363  10.594  65.692  1.00  0.00    -0.182 OA 
BRANCH  29  30
HETATM   30  C   UNL     1     -10.005  10.251  66.937  1.00  0.00    -0.208 C  
HETATM   31  O   UNL     1     -10.023  11.283  67.926  1.00  0.00    -0.169 OA 
HETATM   32  C   UNL     1     -10.804  10.914  69.074  1.00  0.00    -0.230 C  
HETATM   33  C   UNL     1     -10.246   9.676  69.823  1.00  0.00    -0.237 C  
HETATM   34  C   UNL     1     -10.194   8.482  68.832  1.00  0.00    -0.207 C  
HETATM   35  O   UNL     1      -8.921   9.977  70.290  1.00  0.00    -0.354 OA 
HETATM   36  C   UNL     1     -11.132   9.396  71.047  1.00  0.00    -0.414 C  
HETATM   37  H   UNL     1      -9.286   6.974  66.917  1.00  0.00     0.000 HD 
HETATM   38  H   UNL     1      -8.580   9.218  70.749  1.00  0.00     0.000 HD 
HETATM   39  C   UNL     1      -9.458   8.889  67.509  1.00  0.00    -0.141 C  
HETATM   40  O   UNL     1      -9.616   7.796  66.572  1.00  0.00    -0.202 OA 
BRANCH  34  41
HETATM   41  N   UNL     1      -9.775   7.135  69.326  1.00  0.00    -0.159 NA 
HETATM   42  C   UNL     1     -10.811   6.237  69.805  1.00  0.00    -0.336 C  
HETATM   43  H   UNL     1      -8.794   6.856  69.326  1.00  0.00     0.000 HD 
ENDBRANCH  34  41
ENDBRANCH  29  30
ENDBRANCH  23  29
ENDBRANCH  14  15
ENDBRANCH   9  14
ENDBRANCH   4   5
ENDBRANCH   2   4
TORSDOF 7
ENDMDL
MODEL       89
REMARK 921   NORMALIZED FREE ENERGY PREDICTED BY IDOCK:   -5.49 KCAL/MOL
REMARK 922        TOTAL FREE ENERGY PREDICTED BY IDOCK:   -9.45 KCAL/MOL
REMARK 923 INTER-LIGAND FREE ENERGY PREDICTED BY IDOCK:   -9.04 KCAL/MOL
REMARK 924 INTRA-LIGAND FREE ENERGY PREDICTED BY IDOCK:   -0.41 KCAL/MOL
REMARK 927      BINDING AFFINITY PREDICTED BY RF-SCORE:    0.00 PKD
ROOT
HETATM    1  C   UNL     1     -10.505   6.900  73.531  1.00  0.00    -0.352 C  
HETATM    2  N   UNL     1     -11.633   6.104  73.069  1.00  0.00    -0.483 NA 
HETATM    3  H   UNL     1     -12.292   5.942  73.830  1.00  0.00     0.000 HD 
ENDROOT
BRANCH   2   4
HETATM    4  C   UNL     1     -12.322   6.671  71.900  1.00  0.00    -0.318 C  
BRANCH   4   5
HETATM    5  C   UNL     1     -12.012   8.160  71.586  1.00  0.00    -0.300 C  
HETATM    6  C   UNL     1     -13.175   9.099  71.852  1.00  0.00    -0.479 C  
HETATM    7  C   UNL     1     -12.735  10.532  71.557  1.00  0.00    -0.558 C  
HETATM    8  C   UNL     1     -11.998  10.665  70.206  1.00  0.00    -0.339 C  
HETATM    9  C   UNL     1     -10.982   9.477  69.890  1.00  0.00    -0.238 C  
HETATM   10  N   UNL     1     -11.475  12.044  70.074  1.00  0.00    -0.522 NA 
HETATM   11  O   UNL     1     -11.657   8.258  70.187  1.00  0.00    -0.086 OA 
HETATM   12  H1  UNL     1     -10.988  12.131  69.182  1.00  0.00     0.000 HD 
HETATM   13  H2  UNL     1     -10.888  12.315  70.863  1.00  0.00     0.000 HD 
BRANCH   9  14
HETATM   14  O   UNL     1      -9.681   9.556  70.518  1.00  0.00    -0.250 OA 
BRANCH  14  15
HETATM   15  C   UNL     1      -8.465   9.346  69.684  1.00  0.00    -0.164 C  
HETATM   16  C   UNL     1      -7.280  10.295  70.011  1.00  0.00    -0.158 C  
HETATM   17  N   UNL     1      -6.655   9.921  71.297  1.00  0.00    -0.326 NA 
HETATM   18  C   UNL     1      -6.174  10.245  68.937  1.00  0.00    -0.047 C  
HETATM   19  H2  UNL     1      -6.371   8.942  71.309  1.00  0.00     0.000 HD 
HETATM   20  H1  UNL     1      -5.878  10.544  71.511  1.00  0.00     0.000 HD 
HETATM   21  C   UNL     1      -6.700  10.543  67.525  1.00  0.00    -0.070 C  
HETATM   22  N   UNL     1      -5.587  10.687  66.581  1.00  0.00    -0.057 NA 
HETATM   23  C   UNL     1      -7.675   9.446  67.059  1.00  0.00    -0.091 C  
HETATM   24  C   UNL     1      -8.772   9.258  68.153  1.00  0.00    -0.125 C  
HETATM   25  O   UNL     1      -9.503   8.039  67.884  1.00  0.00    -0.143 OA 
HETATM   26  H1  UNL     1      -5.936  10.885  65.643  1.00  0.00     0.000 HD 
HETATM   27  H2  UNL     1      -4.973   9.872  66.592  1.00  0.00     0.000 HD 
HETATM   28  H   UNL     1      -9.690   7.986  66.954  1.00  0.00     0.000 HD 
BRANCH  23  29
HETATM   29  O   UNL     1      -8.376   9.882  65.858  1.00  0.00    -0.119 OA 
BRANCH  29  30
HETATM   30  C   UNL     1      -8.983  11.186  65.747  1.00  0.00    -0.196 C  
HETATM   31  O   UNL     1      -9.498  11.733  66.964  1.00  0.00    -0.180 OA 
HETATM   32  C   UNL     1      -9.949  13.086  66.796  1.00  0.00    -0.245 C  
HETATM   33  C   UNL     1     -11.122  13.222  65.790  1.00  0.00    -0.279 C  
HETATM   34  C   UNL     1     -10.661  12.660  64.417  1.00  0.00    -0.364 C  
HETATM   35  O   UNL     1     -12.238  12.459  66.276  1.00  0.00    -0.620 OA 
HETATM   36  C   UNL     1     -11.546  14.697  65.718  1.00  0.00    -0.328 C  
HETATM   37  H   UNL     1     -10.108  10.884  62.601  1.00  0.00     0.000 HD 
HETATM   38  H   UNL     1     -12.956  12.542  65.660  1.00  0.00     0.000 HD 
HETATM   39  C   UNL     1     -10.041  11.230  64.581  1.00  0.00    -0.290 C  
HETATM   40  O   UNL     1      -9.469  10.858  63.304  1.00  0.00    -0.256 OA 
BRANCH  34  41
HETATM   41  N   UNL     1     -11.578  12.753  63.241  1.00  0.00    -0.791 NA 
HETATM   42  C   UNL     1     -12.773  11.928  63.247  1.00  0.00    -0.271 C  
HETATM   43  H   UNL     1     -11.371  13.376  62.459  1.00  0.00     0.000 HD 
ENDBRANCH  34  41
ENDBRANCH  29  30
ENDBRANCH  23  29
ENDBRANCH  14  15
ENDBRANCH   9  14
ENDBRANCH   4   5
ENDBRANCH   2   4
TORSDOF 7
ENDMDL
MODEL       90
REMARK 921   NORMALIZED FREE ENERGY PREDICTED BY IDOCK:   -5.49 KCAL/MOL
REMARK 922        TOTAL FREE ENERGY PREDICTED BY IDOCK:   -9.45 KCAL/MOL
REMARK 923 INTER-LIGAND FREE ENERGY PREDICTED BY IDOCK:   -7.88 KCAL/MOL
REMARK 924 INTRA-LIGAND FREE ENERGY PREDICTED BY IDOCK:   -1.57 KCAL/MOL
REMARK 927      BINDING AFFINITY PREDICTED BY RF-SCORE:    0.00 PKD
ROOT
HETATM    1  C   UNL     1     -10.545  19.344  67.048  1.00  0.00    -0.478 C  
HETATM    2  N   UNL     1     -10.032  20.469  66.279  1.00  0.00    -0.574 NA 
HETATM    3  H   UNL     1     -10.464  21.340  66.587  1.00  0.00     0.000 HD 
ENDROOT
BRANCH   2   4
HETATM    4  C   UNL     1      -8.567  20.583  66.298  1.00  0.00     0.124 C  
BRANCH   4   5
HETATM    5  C   UNL     1      -7.794  19.325  66.778  1.00  0.00    -0.262 C  
HETATM    6  C   UNL     1      -6.385  19.616  67.263  1.00  0.00    -0.206 C  
HETATM    7  C   UNL     1      -5.749  18.316  67.755  1.00  0.00    -0.158 C  
HETATM    8  C   UNL     1      -5.942  17.146  66.767  1.00  0.00    -0.200 C  
HETATM    9  C   UNL     1      -7.388  17.078  66.098  1.00  0.00    -0.190 C  
HETATM   10  N   UNL     1      -5.435  15.900  67.388  1.00  0.00    -0.307 NA 
HETATM   11  O   UNL     1      -7.713  18.398  65.671  1.00  0.00    -0.518 OA 
HETATM   12  H1  UNL     1      -5.563  15.127  66.735  1.00  0.00     0.000 HD 
HETATM   13  H2  UNL     1      -5.864  15.716  68.295  1.00  0.00     0.000 HD 
BRANCH   9  14
HETATM   14  O   UNL     1      -8.439  16.480  66.891  1.00  0.00    -0.179 OA 
BRANCH  14  15
HETATM   15  C   UNL     1      -9.132  15.269  66.370  1.00  0.00    -0.312 C  
HETATM   16  C   UNL     1     -10.629  15.479  66.011  1.00  0.00    -0.325 C  
HETATM   17  N   UNL     1     -10.759  16.279  64.776  1.00  0.00    -0.778 NA 
HETATM   18  C   UNL     1     -11.368  14.146  65.769  1.00  0.00    -0.317 C  
HETATM   19  H2  UNL     1     -10.239  15.868  64.001  1.00  0.00     0.000 HD 
HETATM   20  H1  UNL     1     -11.742  16.417  64.541  1.00  0.00     0.000 HD 
HETATM   21  C   UNL     1     -11.251  13.176  66.955  1.00  0.00    -0.294 C  
HETATM   22  N   UNL     1     -12.134  12.021  66.763  1.00  0.00    -0.542 NA 
HETATM   23  C   UNL     1      -9.792  12.724  67.154  1.00  0.00    -0.216 C  
HETATM   24  C   UNL     1      -8.887  13.992  67.239  1.00  0.00    -0.218 C  
HETATM   25  O   UNL     1      -7.502  13.592  67.114  1.00  0.00    -0.357 OA 
HETATM   26  H1  UNL     1     -12.058  11.377  67.549  1.00  0.00     0.000 HD 
HETATM   27  H2  UNL     1     -11.959  11.554  65.872  1.00  0.00     0.000 HD 
HETATM   28  H   UNL     1      -7.352  12.816  67.642  1.00  0.00     0.000 HD 
BRANCH  23  29
HETATM   29  O   UNL     1      -9.654  12.045  68.436  1.00  0.00    -0.204 OA 
BRANCH  29  30
HETATM   30  C   UNL     1      -9.307  10.649  68.539  1.00  0.00    -0.170 C  
HETATM   31  O   UNL     1     -10.336   9.793  69.040  1.00  0.00    -0.190 OA 
HETATM   32  C   UNL     1      -9.963   8.407  68.973  1.00  0.00    -0.190 C  
HETATM   33  C   UNL     1      -8.724   8.064  69.841  1.00  0.00    -0.139 C  
HETATM   34  C   UNL     1      -7.532   8.940  69.367  1.00  0.00    -0.077 C  
HETATM   35  O   UNL     1      -9.025   8.356  71.215  1.00  0.00    -0.148 OA 
HETATM   36  C   UNL     1      -8.438   6.558  69.724  1.00  0.00    -0.131 C  
HETATM   37  H   UNL     1      -6.032  11.052  69.142  1.00  0.00     0.000 HD 
HETATM   38  H   UNL     1      -8.266   8.145  71.745  1.00  0.00     0.000 HD 
HETATM   39  C   UNL     1      -7.944  10.451  69.304  1.00  0.00    -0.157 C  
HETATM   40  O   UNL     1      -6.853  11.171  68.680  1.00  0.00    -0.061 OA 
BRANCH  34  41
HETATM   41  N   UNL     1      -6.184   8.742  69.983  1.00  0.00    -0.036 NA 
HETATM   42  C   UNL     1      -5.996   9.179  71.355  1.00  0.00    -0.069 C  
HETATM   43  H   UNL     1      -5.422   8.314  69.456  1.00  0.00     0.000 HD 
ENDBRANCH  34  41
ENDBRANCH  29  30
ENDBRANCH  23  29
ENDBRANCH  14  15
ENDBRANCH   9  14
ENDBRANCH   4   5
ENDBRANCH   2   4
TORSDOF 7
ENDMDL
MODEL       91
REMARK 921   NORMALIZED FREE ENERGY PREDICTED BY IDOCK:   -5.48 KCAL/MOL
REMARK 922        TOTAL FREE ENERGY PREDICTED BY IDOCK:   -9.43 KCAL/MOL
REMARK 923 INTER-LIGAND FREE ENERGY PREDICTED BY IDOCK:   -8.34 KCAL/MOL
REMARK 924 INTRA-LIGAND FREE ENERGY PREDICTED BY IDOCK:   -1.09 KCAL/MOL
REMARK 927      BINDING AFFINITY PREDICTED BY RF-SCORE:    0.00 PKD
ROOT
HETATM    1  C   UNL     1      -8.830  19.279  68.320  1.00  0.00    -0.337 C  
HETATM    2  N   UNL     1      -8.376  18.233  67.416  1.00  0.00    -0.242 NA 
HETATM    3  H   UNL     1      -7.419  18.412  67.113  1.00  0.00     0.000 HD 
ENDROOT
BRANCH   2   4
HETATM    4  C   UNL     1      -8.498  16.875  67.967  1.00  0.00    -0.213 C  
BRANCH   4   5
HETATM    5  C   UNL     1      -9.355  15.881  67.136  1.00  0.00    -0.212 C  
HETATM    6  C   UNL     1     -10.647  16.476  66.608  1.00  0.00    -0.216 C  
HETATM    7  C   UNL     1     -11.373  15.424  65.769  1.00  0.00    -0.115 C  
HETATM    8  C   UNL     1     -11.447  14.050  66.468  1.00  0.00    -0.357 C  
HETATM    9  C   UNL     1     -10.113  13.625  67.231  1.00  0.00    -0.239 C  
HETATM   10  N   UNL     1     -12.022  13.059  65.528  1.00  0.00    -0.398 NA 
HETATM   11  O   UNL     1      -9.683  14.756  67.983  1.00  0.00    -0.207 OA 
HETATM   12  H1  UNL     1     -12.071  12.151  65.990  1.00  0.00     0.000 HD 
HETATM   13  H2  UNL     1     -11.512  13.019  64.646  1.00  0.00     0.000 HD 
BRANCH   9  14
HETATM   14  O   UNL     1      -9.053  13.067  66.418  1.00  0.00    -0.179 OA 
BRANCH  14  15
HETATM   15  C   UNL     1      -8.830  11.595  66.438  1.00  0.00    -0.182 C  
HETATM   16  C   UNL     1      -9.353  10.841  65.184  1.00  0.00    -0.217 C  
HETATM   17  N   UNL     1      -8.490  11.115  64.017  1.00  0.00    -0.351 NA 
HETATM   18  C   UNL     1      -9.372   9.312  65.385  1.00  0.00    -0.292 C  
HETATM   19  H2  UNL     1      -7.512  10.899  64.209  1.00  0.00     0.000 HD 
HETATM   20  H1  UNL     1      -8.834  10.621  63.194  1.00  0.00     0.000 HD 
HETATM   21  C   UNL     1     -10.179   8.883  66.620  1.00  0.00    -0.268 C  
HETATM   22  N   UNL     1     -10.340   7.425  66.649  1.00  0.00    -0.488 NA 
HETATM   23  C   UNL     1      -9.512   9.386  67.914  1.00  0.00    -0.132 C  
HETATM   24  C   UNL     1      -9.264  10.921  67.780  1.00  0.00    -0.153 C  
HETATM   25  O   UNL     1      -8.372  11.348  68.837  1.00  0.00    -0.289 OA 
HETATM   26  H1  UNL     1     -10.875   7.140  67.468  1.00  0.00     0.000 HD 
HETATM   27  H2  UNL     1      -9.442   6.944  66.597  1.00  0.00     0.000 HD 
HETATM   28  H   UNL     1      -8.635  10.938  69.653  1.00  0.00     0.000 HD 
BRANCH  23  29
HETATM   29  O   UNL     1     -10.425   9.223  69.038  1.00  0.00    -0.210 OA 
BRANCH  29  30
HETATM   30  C   UNL     1     -10.343   8.106  69.947  1.00  0.00    -0.214 C  
HETATM   31  O   UNL     1     -11.367   7.119  69.806  1.00  0.00    -0.215 OA 
HETATM   32  C   UNL     1     -11.130   5.975  70.642  1.00  0.00    -0.301 C  
HETATM   33  C   UNL     1     -11.131   6.313  72.156  1.00  0.00    -0.269 C  
HETATM   34  C   UNL     1     -10.035   7.381  72.424  1.00  0.00    -0.180 C  
HETATM   35  O   UNL     1     -12.419   6.840  72.512  1.00  0.00    -0.499 OA 
HETATM   36  C   UNL     1     -10.907   5.018  72.953  1.00  0.00    -0.322 C  
HETATM   37  H   UNL     1      -8.935   9.734  72.520  1.00  0.00     0.000 HD 
HETATM   38  H   UNL     1     -12.420   7.046  73.439  1.00  0.00     0.000 HD 
HETATM   39  C   UNL     1     -10.185   8.590  71.438  1.00  0.00    -0.235 C  
HETATM   40  O   UNL     1      -9.029   9.443  71.621  1.00  0.00    -0.251 OA 
BRANCH  34  41
HETATM   41  N   UNL     1      -9.765   7.819  73.828  1.00  0.00    -0.342 NA 
HETATM   42  C   UNL     1      -8.458   7.526  74.389  1.00  0.00    -0.213 C  
HETATM   43  H   UNL     1     -10.475   8.309  74.372  1.00  0.00     0.000 HD 
ENDBRANCH  34  41
ENDBRANCH  29  30
ENDBRANCH  23  29
ENDBRANCH  14  15
ENDBRANCH   9  14
ENDBRANCH   4   5
ENDBRANCH   2   4
TORSDOF 7
ENDMDL
MODEL       92
REMARK 921   NORMALIZED FREE ENERGY PREDICTED BY IDOCK:   -5.48 KCAL/MOL
REMARK 922        TOTAL FREE ENERGY PREDICTED BY IDOCK:   -9.43 KCAL/MOL
REMARK 923 INTER-LIGAND FREE ENERGY PREDICTED BY IDOCK:   -7.95 KCAL/MOL
REMARK 924 INTRA-LIGAND FREE ENERGY PREDICTED BY IDOCK:   -1.48 KCAL/MOL
REMARK 927      BINDING AFFINITY PREDICTED BY RF-SCORE:    0.00 PKD
ROOT
HETATM    1  C   UNL     1     -10.364  20.091  68.344  1.00  0.00    -0.330 C  
HETATM    2  N   UNL     1     -10.882  19.423  67.159  1.00  0.00    -0.488 NA 
HETATM    3  H   UNL     1     -11.555  20.018  66.677  1.00  0.00     0.000 HD 
ENDROOT
BRANCH   2   4
HETATM    4  C   UNL     1      -9.838  18.964  66.230  1.00  0.00    -0.365 C  
BRANCH   4   5
HETATM    5  C   UNL     1      -8.788  17.984  66.820  1.00  0.00    -0.263 C  
HETATM    6  C   UNL     1      -7.399  18.581  66.959  1.00  0.00    -0.224 C  
HETATM    7  C   UNL     1      -6.473  17.544  67.594  1.00  0.00    -0.163 C  
HETATM    8  C   UNL     1      -6.595  16.152  66.937  1.00  0.00    -0.017 C  
HETATM    9  C   UNL     1      -8.088  15.719  66.580  1.00  0.00    -0.196 C  
HETATM   10  N   UNL     1      -5.786  15.180  67.708  1.00  0.00    -0.256 NA 
HETATM   11  O   UNL     1      -8.706  16.835  65.945  1.00  0.00    -0.504 OA 
HETATM   12  H1  UNL     1      -5.866  14.261  67.275  1.00  0.00     0.000 HD 
HETATM   13  H2  UNL     1      -6.035  15.165  68.698  1.00  0.00     0.000 HD 
BRANCH   9  14
HETATM   14  O   UNL     1      -8.885  15.191  67.666  1.00  0.00    -0.166 OA 
BRANCH  14  15
HETATM   15  C   UNL     1      -9.854  14.096  67.381  1.00  0.00    -0.239 C  
HETATM   16  C   UNL     1     -11.227  14.241  68.093  1.00  0.00    -0.275 C  
HETATM   17  N   UNL     1     -12.022  15.321  67.472  1.00  0.00    -0.280 NA 
HETATM   18  C   UNL     1     -12.069  12.951  68.010  1.00  0.00    -0.202 C  
HETATM   19  H2  UNL     1     -12.129  15.183  66.467  1.00  0.00     0.000 HD 
HETATM   20  H1  UNL     1     -12.923  15.415  67.939  1.00  0.00     0.000 HD 
HETATM   21  C   UNL     1     -11.330  11.720  68.557  1.00  0.00    -0.273 C  
HETATM   22  N   UNL     1     -12.240  10.573  68.647  1.00  0.00    -0.762 NA 
HETATM   23  C   UNL     1     -10.106  11.382  67.685  1.00  0.00    -0.180 C  
HETATM   24  C   UNL     1      -9.236  12.668  67.531  1.00  0.00    -0.190 C  
HETATM   25  O   UNL     1      -8.265  12.457  66.479  1.00  0.00    -0.394 OA 
HETATM   26  H1  UNL     1     -11.750   9.756  69.010  1.00  0.00     0.000 HD 
HETATM   27  H2  UNL     1     -12.693  10.377  67.754  1.00  0.00     0.000 HD 
HETATM   28  H   UNL     1      -7.889  11.589  66.570  1.00  0.00     0.000 HD 
BRANCH  23  29
HETATM   29  O   UNL     1      -9.266  10.407  68.368  1.00  0.00    -0.137 OA 
BRANCH  29  30
HETATM   30  C   UNL     1      -8.682   9.277  67.688  1.00  0.00    -0.116 C  
HETATM   31  O   UNL     1      -7.709   9.593  66.689  1.00  0.00    -0.097 OA 
HETATM   32  C   UNL     1      -7.074   8.416  66.166  1.00  0.00    -0.076 C  
HETATM   33  C   UNL     1      -8.058   7.454  65.450  1.00  0.00    -0.133 C  
HETATM   34  C   UNL     1      -9.162   7.036  66.460  1.00  0.00    -0.164 C  
HETATM   35  O   UNL     1      -8.653   8.144  64.339  1.00  0.00    -0.386 OA 
HETATM   36  C   UNL     1      -7.269   6.255  64.901  1.00  0.00    -0.067 C  
HETATM   37  H   UNL     1     -11.335   7.231  67.875  1.00  0.00     0.000 HD 
HETATM   38  H   UNL     1      -9.256   7.555  63.901  1.00  0.00     0.000 HD 
HETATM   39  C   UNL     1      -9.791   8.296  67.148  1.00  0.00    -0.217 C  
HETATM   40  O   UNL     1     -10.666   7.822  68.200  1.00  0.00    -0.158 OA 
BRANCH  34  41
HETATM   41  N   UNL     1     -10.194   6.036  66.048  1.00  0.00    -0.401 NA 
HETATM   42  C   UNL     1     -10.099   4.697  66.602  1.00  0.00    -0.234 C  
HETATM   43  H   UNL     1     -10.941   6.287  65.400  1.00  0.00     0.000 HD 
ENDBRANCH  34  41
ENDBRANCH  29  30
ENDBRANCH  23  29
ENDBRANCH  14  15
ENDBRANCH   9  14
ENDBRANCH   4   5
ENDBRANCH   2   4
TORSDOF 7
ENDMDL
MODEL       93
REMARK 921   NORMALIZED FREE ENERGY PREDICTED BY IDOCK:   -5.47 KCAL/MOL
REMARK 922        TOTAL FREE ENERGY PREDICTED BY IDOCK:   -9.42 KCAL/MOL
REMARK 923 INTER-LIGAND FREE ENERGY PREDICTED BY IDOCK:   -8.09 KCAL/MOL
REMARK 924 INTRA-LIGAND FREE ENERGY PREDICTED BY IDOCK:   -1.33 KCAL/MOL
REMARK 927      BINDING AFFINITY PREDICTED BY RF-SCORE:    0.00 PKD
ROOT
HETATM    1  C   UNL     1     -13.214  10.286  71.842  1.00  0.00    -0.445 C  
HETATM    2  N   UNL     1     -12.931   9.177  70.945  1.00  0.00    -0.521 NA 
HETATM    3  H   UNL     1     -12.014   9.291  70.512  1.00  0.00     0.000 HD 
ENDROOT
BRANCH   2   4
HETATM    4  C   UNL     1     -13.043   7.855  71.578  1.00  0.00    -0.311 C  
BRANCH   4   5
HETATM    5  C   UNL     1     -11.812   6.921  71.423  1.00  0.00    -0.330 C  
HETATM    6  C   UNL     1     -11.702   5.863  72.506  1.00  0.00    -0.288 C  
HETATM    7  C   UNL     1     -10.488   4.980  72.218  1.00  0.00    -0.275 C  
HETATM    8  C   UNL     1      -9.222   5.797  71.880  1.00  0.00    -0.144 C  
HETATM    9  C   UNL     1      -9.483   7.060  70.941  1.00  0.00    -0.160 C  
HETATM   10  N   UNL     1      -8.144   4.869  71.465  1.00  0.00    -0.109 NA 
HETATM   11  O   UNL     1     -10.620   7.741  71.463  1.00  0.00    -0.211 OA 
HETATM   12  H1  UNL     1      -7.308   5.408  71.241  1.00  0.00     0.000 HD 
HETATM   13  H2  UNL     1      -8.429   4.260  70.698  1.00  0.00     0.000 HD 
BRANCH   9  14
HETATM   14  O   UNL     1      -9.599   6.798  69.523  1.00  0.00    -0.148 OA 
BRANCH  14  15
HETATM   15  C   UNL     1      -9.014   7.773  68.561  1.00  0.00    -0.133 C  
HETATM   16  C   UNL     1      -7.502   8.063  68.767  1.00  0.00    -0.091 C  
HETATM   17  N   UNL     1      -6.689   6.908  68.334  1.00  0.00    -0.065 NA 
HETATM   18  C   UNL     1      -7.023   9.285  67.957  1.00  0.00    -0.076 C  
HETATM   19  H2  UNL     1      -6.895   6.638  67.373  1.00  0.00     0.000 HD 
HETATM   20  H1  UNL     1      -5.696   7.098  68.470  1.00  0.00     0.000 HD 
HETATM   21  C   UNL     1      -7.837  10.554  68.253  1.00  0.00    -0.111 C  
HETATM   22  N   UNL     1      -7.216  11.723  67.621  1.00  0.00    -0.102 NA 
HETATM   23  C   UNL     1      -9.297  10.390  67.789  1.00  0.00    -0.145 C  
HETATM   24  C   UNL     1      -9.868   9.073  68.401  1.00  0.00    -0.166 C  
HETATM   25  O   UNL     1     -11.112   8.746  67.738  1.00  0.00    -0.485 OA 
HETATM   26  H1  UNL     1      -7.756  12.565  67.817  1.00  0.00     0.000 HD 
HETATM   27  H2  UNL     1      -7.081  11.584  66.619  1.00  0.00     0.000 HD 
HETATM   28  H   UNL     1     -11.631   9.536  67.640  1.00  0.00     0.000 HD 
BRANCH  23  29
HETATM   29  O   UNL     1     -10.112  11.471  68.328  1.00  0.00    -0.186 OA 
BRANCH  29  30
HETATM   30  C   UNL     1     -10.755  12.450  67.486  1.00  0.00    -0.228 C  
HETATM   31  O   UNL     1     -11.559  11.922  66.428  1.00  0.00    -0.451 OA 
HETATM   32  C   UNL     1     -12.277  12.953  65.733  1.00  0.00    -0.439 C  
HETATM   33  C   UNL     1     -11.349  13.980  65.031  1.00  0.00    -0.342 C  
HETATM   34  C   UNL     1     -10.430  14.627  66.104  1.00  0.00    -0.302 C  
HETATM   35  O   UNL     1     -10.547  13.290  64.059  1.00  0.00    -0.511 OA 
HETATM   36  C   UNL     1     -12.217  15.009  64.292  1.00  0.00    -0.312 C  
HETATM   37  H   UNL     1      -8.426  14.851  67.746  1.00  0.00     0.000 HD 
HETATM   38  H   UNL     1      -9.979  13.919  63.630  1.00  0.00     0.000 HD 
HETATM   39  C   UNL     1      -9.727  13.527  66.971  1.00  0.00    -0.251 C  
HETATM   40  O   UNL     1      -9.046  14.202  68.056  1.00  0.00    -0.177 OA 
BRANCH  34  41
HETATM   41  N   UNL     1      -9.495  15.723  65.705  1.00  0.00    -0.330 NA 
HETATM   42  C   UNL     1      -9.906  17.092  65.965  1.00  0.00    -0.241 C  
HETATM   43  H   UNL     1      -8.598  15.516  65.266  1.00  0.00     0.000 HD 
ENDBRANCH  34  41
ENDBRANCH  29  30
ENDBRANCH  23  29
ENDBRANCH  14  15
ENDBRANCH   9  14
ENDBRANCH   4   5
ENDBRANCH   2   4
TORSDOF 7
ENDMDL
MODEL       94
REMARK 921   NORMALIZED FREE ENERGY PREDICTED BY IDOCK:   -5.47 KCAL/MOL
REMARK 922        TOTAL FREE ENERGY PREDICTED BY IDOCK:   -9.41 KCAL/MOL
REMARK 923 INTER-LIGAND FREE ENERGY PREDICTED BY IDOCK:   -8.31 KCAL/MOL
REMARK 924 INTRA-LIGAND FREE ENERGY PREDICTED BY IDOCK:   -1.10 KCAL/MOL
REMARK 927      BINDING AFFINITY PREDICTED BY RF-SCORE:    0.00 PKD
ROOT
HETATM    1  C   UNL     1     -12.190  12.364  70.218  1.00  0.00    -0.267 C  
HETATM    2  N   UNL     1     -12.468  13.356  71.246  1.00  0.00    -0.324 NA 
HETATM    3  H   UNL     1     -12.015  13.100  72.123  1.00  0.00     0.000 HD 
ENDROOT
BRANCH   2   4
HETATM    4  C   UNL     1     -12.108  14.729  70.861  1.00  0.00    -0.324 C  
BRANCH   4   5
HETATM    5  C   UNL     1     -11.248  14.870  69.576  1.00  0.00    -0.277 C  
HETATM    6  C   UNL     1     -10.129  15.889  69.693  1.00  0.00    -0.271 C  
HETATM    7  C   UNL     1      -9.326  15.899  68.393  1.00  0.00    -0.201 C  
HETATM    8  C   UNL     1     -10.224  15.958  67.138  1.00  0.00    -0.278 C  
HETATM    9  C   UNL     1     -11.530  15.047  67.217  1.00  0.00    -0.304 C  
HETATM   10  N   UNL     1      -9.378  15.808  65.930  1.00  0.00    -0.338 NA 
HETATM   11  O   UNL     1     -12.120  15.272  68.494  1.00  0.00    -0.250 OA 
HETATM   12  H1  UNL     1      -9.971  15.847  65.101  1.00  0.00     0.000 HD 
HETATM   13  H2  UNL     1      -8.807  14.964  65.959  1.00  0.00     0.000 HD 
BRANCH   9  14
HETATM   14  O   UNL     1     -11.355  13.640  66.930  1.00  0.00    -0.307 OA 
BRANCH  14  15
HETATM   15  C   UNL     1     -10.790  13.240  65.611  1.00  0.00    -0.279 C  
HETATM   16  C   UNL     1     -11.842  12.779  64.566  1.00  0.00    -0.379 C  
HETATM   17  N   UNL     1     -12.615  13.933  64.063  1.00  0.00    -0.685 NA 
HETATM   18  C   UNL     1     -11.194  12.098  63.342  1.00  0.00    -0.494 C  
HETATM   19  H2  UNL     1     -12.007  14.663  63.692  1.00  0.00     0.000 HD 
HETATM   20  H1  UNL     1     -13.306  13.630  63.377  1.00  0.00     0.000 HD 
HETATM   21  C   UNL     1     -10.293  10.914  63.726  1.00  0.00    -0.317 C  
HETATM   22  N   UNL     1      -9.872  10.180  62.528  1.00  0.00    -0.653 NA 
HETATM   23  C   UNL     1      -9.072  11.392  64.533  1.00  0.00     0.091 C  
HETATM   24  C   UNL     1      -9.576  12.261  65.728  1.00  0.00    -0.176 C  
HETATM   25  O   UNL     1      -8.452  12.965  66.306  1.00  0.00    -0.371 OA 
HETATM   26  H1  UNL     1      -9.274   9.394  62.782  1.00  0.00     0.000 HD 
HETATM   27  H2  UNL     1      -9.424  10.792  61.846  1.00  0.00     0.000 HD 
HETATM   28  H   UNL     1      -7.714  12.371  66.377  1.00  0.00     0.000 HD 
BRANCH  23  29
HETATM   29  O   UNL     1      -8.392  10.249  65.127  1.00  0.00    -0.151 OA 
BRANCH  29  30
HETATM   30  C   UNL     1      -9.105   9.112  65.654  1.00  0.00    -0.219 C  
HETATM   31  O   UNL     1      -9.487   9.206  67.029  1.00  0.00    -0.142 OA 
HETATM   32  C   UNL     1     -10.317   8.105  67.433  1.00  0.00    -0.281 C  
HETATM   33  C   UNL     1      -9.605   6.731  67.328  1.00  0.00    -0.137 C  
HETATM   34  C   UNL     1      -9.154   6.521  65.856  1.00  0.00    -0.039 C  
HETATM   35  O   UNL     1      -8.457   6.737  68.191  1.00  0.00    -0.120 OA 
HETATM   36  C   UNL     1     -10.566   5.636  67.818  1.00  0.00    -0.274 C  
HETATM   37  H   UNL     1      -7.681   6.764  63.728  1.00  0.00     0.000 HD 
HETATM   38  H   UNL     1      -8.022   5.895  68.126  1.00  0.00     0.000 HD 
HETATM   39  C   UNL     1      -8.353   7.765  65.338  1.00  0.00    -0.136 C  
HETATM   40  O   UNL     1      -8.134   7.577  63.919  1.00  0.00    -0.116 OA 
BRANCH  34  41
HETATM   41  N   UNL     1      -8.517   5.227  65.461  1.00  0.00    -0.135 NA 
HETATM   42  C   UNL     1      -9.284   4.325  64.619  1.00  0.00    -0.156 C  
HETATM   43  H   UNL     1      -7.576   4.987  65.772  1.00  0.00     0.000 HD 
ENDBRANCH  34  41
ENDBRANCH  29  30
ENDBRANCH  23  29
ENDBRANCH  14  15
ENDBRANCH   9  14
ENDBRANCH   4   5
ENDBRANCH   2   4
TORSDOF 7
ENDMDL
MODEL       95
REMARK 921   NORMALIZED FREE ENERGY PREDICTED BY IDOCK:   -5.45 KCAL/MOL
REMARK 922        TOTAL FREE ENERGY PREDICTED BY IDOCK:   -9.39 KCAL/MOL
REMARK 923 INTER-LIGAND FREE ENERGY PREDICTED BY IDOCK:   -8.20 KCAL/MOL
REMARK 924 INTRA-LIGAND FREE ENERGY PREDICTED BY IDOCK:   -1.19 KCAL/MOL
REMARK 927      BINDING AFFINITY PREDICTED BY RF-SCORE:    0.00 PKD
ROOT
HETATM    1  C   UNL     1      -7.567   2.292  70.740  1.00  0.00    -0.032 C  
HETATM    2  N   UNL     1      -7.713   2.330  69.293  1.00  0.00    -0.043 NA 
HETATM    3  H   UNL     1      -7.187   1.571  68.860  1.00  0.00     0.000 HD 
ENDROOT
BRANCH   2   4
HETATM    4  C   UNL     1      -9.110   2.319  68.835  1.00  0.00    -0.135 C  
BRANCH   4   5
HETATM    5  C   UNL     1      -9.631   3.645  68.217  1.00  0.00    -0.099 C  
HETATM    6  C   UNL     1      -9.510   3.708  66.705  1.00  0.00    -0.197 C  
HETATM    7  C   UNL     1     -10.099   5.029  66.212  1.00  0.00    -0.275 C  
HETATM    8  C   UNL     1      -9.602   6.244  67.025  1.00  0.00    -0.140 C  
HETATM    9  C   UNL     1      -9.509   5.993  68.597  1.00  0.00    -0.124 C  
HETATM   10  N   UNL     1     -10.337   7.454  66.585  1.00  0.00    -0.488 NA 
HETATM   11  O   UNL     1      -8.867   4.735  68.782  1.00  0.00    -0.095 OA 
HETATM   12  H1  UNL     1     -10.009   8.256  67.122  1.00  0.00     0.000 HD 
HETATM   13  H2  UNL     1     -11.348   7.336  66.643  1.00  0.00     0.000 HD 
BRANCH   9  14
HETATM   14  O   UNL     1     -10.744   6.098  69.343  1.00  0.00    -0.248 OA 
BRANCH  14  15
HETATM   15  C   UNL     1     -10.890   7.192  70.343  1.00  0.00    -0.246 C  
HETATM   16  C   UNL     1     -11.939   6.920  71.456  1.00  0.00    -0.344 C  
HETATM   17  N   UNL     1     -11.438   5.905  72.405  1.00  0.00    -0.305 NA 
HETATM   18  C   UNL     1     -12.266   8.186  72.275  1.00  0.00    -0.397 C  
HETATM   19  H2  UNL     1     -10.532   6.164  72.794  1.00  0.00     0.000 HD 
HETATM   20  H1  UNL     1     -12.127   5.727  73.135  1.00  0.00     0.000 HD 
HETATM   21  C   UNL     1     -12.732   9.359  71.400  1.00  0.00    -0.345 C  
HETATM   22  N   UNL     1     -13.225  10.460  72.235  1.00  0.00    -0.569 NA 
HETATM   23  C   UNL     1     -11.598   9.839  70.474  1.00  0.00    -0.292 C  
HETATM   24  C   UNL     1     -11.039   8.607  69.696  1.00  0.00    -0.013 C  
HETATM   25  O   UNL     1      -9.790   8.976  69.065  1.00  0.00    -0.168 OA 
HETATM   26  H1  UNL     1     -13.534  11.239  71.655  1.00  0.00     0.000 HD 
HETATM   27  H2  UNL     1     -12.531  10.753  72.924  1.00  0.00     0.000 HD 
HETATM   28  H   UNL     1      -9.880   9.836  68.672  1.00  0.00     0.000 HD 
BRANCH  23  29
HETATM   29  O   UNL     1     -12.132  10.744  69.464  1.00  0.00    -0.312 OA 
BRANCH  29  30
HETATM   30  C   UNL     1     -11.404  11.898  68.998  1.00  0.00    -0.279 C  
HETATM   31  O   UNL     1     -11.883  13.161  69.467  1.00  0.00    -0.299 OA 
HETATM   32  C   UNL     1     -11.019  14.241  69.078  1.00  0.00    -0.260 C  
HETATM   33  C   UNL     1     -10.915  14.420  67.540  1.00  0.00    -0.293 C  
HETATM   34  C   UNL     1     -10.388  13.094  66.925  1.00  0.00    -0.247 C  
HETATM   35  O   UNL     1     -12.222  14.711  67.019  1.00  0.00    -0.493 OA 
HETATM   36  C   UNL     1     -10.003  15.619  67.241  1.00  0.00    -0.236 C  
HETATM   37  H   UNL     1     -10.463  10.655  66.027  1.00  0.00     0.000 HD 
HETATM   38  H   UNL     1     -12.157  14.820  66.078  1.00  0.00     0.000 HD 
HETATM   39  C   UNL     1     -11.230  11.873  67.432  1.00  0.00    -0.305 C  
HETATM   40  O   UNL     1     -10.568  10.670  66.971  1.00  0.00    -0.241 OA 
BRANCH  34  41
HETATM   41  N   UNL     1     -10.110  13.025  65.458  1.00  0.00    -0.349 NA 
HETATM   42  C   UNL     1     -11.242  12.872  64.561  1.00  0.00    -0.336 C  
HETATM   43  H   UNL     1      -9.157  13.084  65.099  1.00  0.00     0.000 HD 
ENDBRANCH  34  41
ENDBRANCH  29  30
ENDBRANCH  23  29
ENDBRANCH  14  15
ENDBRANCH   9  14
ENDBRANCH   4   5
ENDBRANCH   2   4
TORSDOF 7
ENDMDL
MODEL       96
REMARK 921   NORMALIZED FREE ENERGY PREDICTED BY IDOCK:   -5.43 KCAL/MOL
REMARK 922        TOTAL FREE ENERGY PREDICTED BY IDOCK:   -9.37 KCAL/MOL
REMARK 923 INTER-LIGAND FREE ENERGY PREDICTED BY IDOCK:   -7.80 KCAL/MOL
REMARK 924 INTRA-LIGAND FREE ENERGY PREDICTED BY IDOCK:   -1.57 KCAL/MOL
REMARK 927      BINDING AFFINITY PREDICTED BY RF-SCORE:    0.00 PKD
ROOT
HETATM    1  C   UNL     1      -7.527   7.062  68.738  1.00  0.00    -0.099 C  
HETATM    2  N   UNL     1      -8.387   7.326  67.594  1.00  0.00    -0.117 NA 
HETATM    3  H   UNL     1      -8.859   8.224  67.701  1.00  0.00     0.000 HD 
ENDROOT
BRANCH   2   4
HETATM    4  C   UNL     1      -7.694   7.257  66.299  1.00  0.00    -0.097 C  
BRANCH   4   5
HETATM    5  C   UNL     1      -8.143   8.294  65.234  1.00  0.00    -0.142 C  
HETATM    6  C   UNL     1      -7.269   8.317  63.993  1.00  0.00    -0.090 C  
HETATM    7  C   UNL     1      -7.837   9.334  63.003  1.00  0.00    -0.134 C  
HETATM    8  C   UNL     1      -8.182  10.685  63.665  1.00  0.00    -0.006 C  
HETATM    9  C   UNL     1      -8.863  10.561  65.102  1.00  0.00    -0.190 C  
HETATM   10  N   UNL     1      -8.866  11.549  62.675  1.00  0.00    -0.605 NA 
HETATM   11  O   UNL     1      -8.107   9.606  65.842  1.00  0.00    -0.110 OA 
HETATM   12  H1  UNL     1      -9.093  12.442  63.113  1.00  0.00     0.000 HD 
HETATM   13  H2  UNL     1      -9.684  11.098  62.266  1.00  0.00     0.000 HD 
BRANCH   9  14
HETATM   14  O   UNL     1     -10.282  10.278  65.122  1.00  0.00    -0.314 OA 
BRANCH  14  15
HETATM   15  C   UNL     1     -11.098  10.775  66.265  1.00  0.00     0.097 C  
HETATM   16  C   UNL     1     -11.195  12.322  66.370  1.00  0.00    -0.324 C  
HETATM   17  N   UNL     1     -12.067  12.860  65.307  1.00  0.00    -0.425 NA 
HETATM   18  C   UNL     1     -11.786  12.782  67.719  1.00  0.00    -0.387 C  
HETATM   19  H2  UNL     1     -12.988  12.422  65.313  1.00  0.00     0.000 HD 
HETATM   20  H1  UNL     1     -12.131  13.876  65.376  1.00  0.00     0.000 HD 
HETATM   21  C   UNL     1     -11.015  12.228  68.928  1.00  0.00    -0.219 C  
HETATM   22  N   UNL     1     -11.485  12.856  70.168  1.00  0.00    -0.519 NA 
HETATM   23  C   UNL     1     -11.145  10.695  69.006  1.00  0.00    -0.254 C  
HETATM   24  C   UNL     1     -10.741  10.091  67.625  1.00  0.00    -0.284 C  
HETATM   25  O   UNL     1     -11.147   8.703  67.580  1.00  0.00    -0.474 OA 
HETATM   26  H1  UNL     1     -10.974  12.489  70.970  1.00  0.00     0.000 HD 
HETATM   27  H2  UNL     1     -12.493  12.758  70.284  1.00  0.00     0.000 HD 
HETATM   28  H   UNL     1     -10.930   8.288  68.407  1.00  0.00     0.000 HD 
BRANCH  23  29
HETATM   29  O   UNL     1     -10.189  10.166  69.971  1.00  0.00    -0.254 OA 
BRANCH  29  30
HETATM   30  C   UNL     1     -10.261   8.815  70.470  1.00  0.00    -0.202 C  
HETATM   31  O   UNL     1     -11.563   8.224  70.466  1.00  0.00    -0.241 OA 
HETATM   32  C   UNL     1     -11.525   6.837  70.837  1.00  0.00    -0.334 C  
HETATM   33  C   UNL     1     -11.004   6.603  72.280  1.00  0.00    -0.246 C  
HETATM   34  C   UNL     1      -9.576   7.205  72.392  1.00  0.00    -0.146 C  
HETATM   35  O   UNL     1     -11.884   7.267  73.202  1.00  0.00    -0.510 OA 
HETATM   36  C   UNL     1     -11.041   5.098  72.583  1.00  0.00    -0.298 C  
HETATM   37  H   UNL     1      -7.742   9.026  72.676  1.00  0.00     0.000 HD 
HETATM   38  H   UNL     1     -11.565   7.123  74.085  1.00  0.00     0.000 HD 
HETATM   39  C   UNL     1      -9.553   8.683  71.871  1.00  0.00    -0.307 C  
HETATM   40  O   UNL     1      -8.169   9.105  71.831  1.00  0.00    -0.336 OA 
BRANCH  34  41
HETATM   41  N   UNL     1      -8.806   7.035  73.662  1.00  0.00    -0.140 NA 
HETATM   42  C   UNL     1      -7.723   6.068  73.674  1.00  0.00    -0.096 C  
HETATM   43  H   UNL     1      -9.034   7.582  74.493  1.00  0.00     0.000 HD 
ENDBRANCH  34  41
ENDBRANCH  29  30
ENDBRANCH  23  29
ENDBRANCH  14  15
ENDBRANCH   9  14
ENDBRANCH   4   5
ENDBRANCH   2   4
TORSDOF 7
ENDMDL
MODEL       97
REMARK 921   NORMALIZED FREE ENERGY PREDICTED BY IDOCK:   -5.43 KCAL/MOL
REMARK 922        TOTAL FREE ENERGY PREDICTED BY IDOCK:   -9.36 KCAL/MOL
REMARK 923 INTER-LIGAND FREE ENERGY PREDICTED BY IDOCK:   -7.11 KCAL/MOL
REMARK 924 INTRA-LIGAND FREE ENERGY PREDICTED BY IDOCK:   -2.25 KCAL/MOL
REMARK 927      BINDING AFFINITY PREDICTED BY RF-SCORE:    0.00 PKD
ROOT
HETATM    1  C   UNL     1      -6.297  12.749  69.536  1.00  0.00    -0.108 C  
HETATM    2  N   UNL     1      -7.707  12.837  69.191  1.00  0.00    -0.315 NA 
HETATM    3  H   UNL     1      -8.285  12.481  69.952  1.00  0.00     0.000 HD 
ENDROOT
BRANCH   2   4
HETATM    4  C   UNL     1      -8.142  14.186  68.799  1.00  0.00    -0.088 C  
BRANCH   4   5
HETATM    5  C   UNL     1      -9.336  14.254  67.809  1.00  0.00    -0.198 C  
HETATM    6  C   UNL     1     -10.426  15.224  68.225  1.00  0.00    -0.244 C  
HETATM    7  C   UNL     1     -11.515  15.240  67.153  1.00  0.00    -0.202 C  
HETATM    8  C   UNL     1     -11.943  13.823  66.714  1.00  0.00    -0.426 C  
HETATM    9  C   UNL     1     -10.738  12.788  66.559  1.00  0.00    -0.258 C  
HETATM   10  N   UNL     1     -12.880  13.932  65.572  1.00  0.00    -0.669 NA 
HETATM   11  O   UNL     1      -9.914  12.931  67.712  1.00  0.00    -0.218 OA 
HETATM   12  H1  UNL     1     -13.162  12.995  65.282  1.00  0.00     0.000 HD 
HETATM   13  H2  UNL     1     -12.491  14.475  64.801  1.00  0.00     0.000 HD 
BRANCH   9  14
HETATM   14  O   UNL     1      -9.982  12.857  65.328  1.00  0.00    -0.258 OA 
BRANCH  14  15
HETATM   15  C   UNL     1      -9.196  11.667  64.899  1.00  0.00     0.080 C  
HETATM   16  C   UNL     1     -10.017  10.581  64.150  1.00  0.00    -0.318 C  
HETATM   17  N   UNL     1     -10.363  11.039  62.789  1.00  0.00    -0.771 NA 
HETATM   18  C   UNL     1      -9.238   9.257  63.999  1.00  0.00     0.104 C  
HETATM   19  H2  UNL     1      -9.537  11.320  62.262  1.00  0.00     0.000 HD 
HETATM   20  H1  UNL     1     -10.902  10.327  62.298  1.00  0.00     0.000 HD 
HETATM   21  C   UNL     1      -8.746   8.698  65.343  1.00  0.00    -0.174 C  
HETATM   22  N   UNL     1      -8.199   7.348  65.169  1.00  0.00    -0.182 NA 
HETATM   23  C   UNL     1      -7.702   9.635  65.978  1.00  0.00    -0.102 C  
HETATM   24  C   UNL     1      -8.297  11.077  66.034  1.00  0.00    -0.147 C  
HETATM   25  O   UNL     1      -7.235  12.014  66.334  1.00  0.00    -0.365 OA 
HETATM   26  H1  UNL     1      -7.873   6.977  66.060  1.00  0.00     0.000 HD 
HETATM   27  H2  UNL     1      -7.468   7.325  64.458  1.00  0.00     0.000 HD 
HETATM   28  H   UNL     1      -6.688  11.656  67.023  1.00  0.00     0.000 HD 
BRANCH  23  29
HETATM   29  O   UNL     1      -7.463   9.246  67.362  1.00  0.00    -0.087 OA 
BRANCH  29  30
HETATM   30  C   UNL     1      -8.533   9.084  68.316  1.00  0.00    -0.129 C  
HETATM   31  O   UNL     1      -8.724  10.176  69.219  1.00  0.00    -0.156 OA 
HETATM   32  C   UNL     1      -9.894  10.001  70.033  1.00  0.00    -0.197 C  
HETATM   33  C   UNL     1      -9.821   8.753  70.953  1.00  0.00    -0.222 C  
HETATM   34  C   UNL     1      -9.622   7.496  70.062  1.00  0.00    -0.164 C  
HETATM   35  O   UNL     1      -8.702   8.899  71.842  1.00  0.00    -0.343 OA 
HETATM   36  C   UNL     1     -11.100   8.685  71.800  1.00  0.00    -0.396 C  
HETATM   37  H   UNL     1      -8.365   5.746  68.606  1.00  0.00     0.000 HD 
HETATM   38  H   UNL     1      -8.658   8.135  72.405  1.00  0.00     0.000 HD 
HETATM   39  C   UNL     1      -8.429   7.703  69.067  1.00  0.00    -0.132 C  
HETATM   40  O   UNL     1      -8.428   6.579  68.154  1.00  0.00    -0.116 OA 
BRANCH  34  41
HETATM   41  N   UNL     1      -9.608   6.142  70.695  1.00  0.00    -0.171 NA 
HETATM   42  C   UNL     1     -10.785   5.307  70.535  1.00  0.00    -0.138 C  
HETATM   43  H   UNL     1      -8.797   5.816  71.222  1.00  0.00     0.000 HD 
ENDBRANCH  34  41
ENDBRANCH  29  30
ENDBRANCH  23  29
ENDBRANCH  14  15
ENDBRANCH   9  14
ENDBRANCH   4   5
ENDBRANCH   2   4
TORSDOF 7
ENDMDL
MODEL       98
REMARK 921   NORMALIZED FREE ENERGY PREDICTED BY IDOCK:   -5.43 KCAL/MOL
REMARK 922        TOTAL FREE ENERGY PREDICTED BY IDOCK:   -9.36 KCAL/MOL
REMARK 923 INTER-LIGAND FREE ENERGY PREDICTED BY IDOCK:   -7.95 KCAL/MOL
REMARK 924 INTRA-LIGAND FREE ENERGY PREDICTED BY IDOCK:   -1.41 KCAL/MOL
REMARK 927      BINDING AFFINITY PREDICTED BY RF-SCORE:    0.00 PKD
ROOT
HETATM    1  C   UNL     1      -7.460   3.573  66.272  1.00  0.00    -0.077 C  
HETATM    2  N   UNL     1      -7.901   4.459  67.338  1.00  0.00    -0.095 NA 
HETATM    3  H   UNL     1      -8.864   4.251  67.601  1.00  0.00     0.000 HD 
ENDROOT
BRANCH   2   4
HETATM    4  C   UNL     1      -7.028   4.448  68.521  1.00  0.00    -0.052 C  
BRANCH   4   5
HETATM    5  C   UNL     1      -7.750   4.464  69.896  1.00  0.00    -0.053 C  
HETATM    6  C   UNL     1      -7.887   3.094  70.535  1.00  0.00    -0.045 C  
HETATM    7  C   UNL     1      -8.562   3.246  71.898  1.00  0.00    -0.104 C  
HETATM    8  C   UNL     1      -9.816   4.145  71.847  1.00  0.00    -0.181 C  
HETATM    9  C   UNL     1      -9.664   5.438  70.926  1.00  0.00    -0.180 C  
HETATM   10  N   UNL     1     -10.313   4.362  73.226  1.00  0.00    -0.161 NA 
HETATM   11  O   UNL     1      -9.074   5.012  69.702  1.00  0.00    -0.103 OA 
HETATM   12  H1  UNL     1     -11.141   4.956  73.192  1.00  0.00     0.000 HD 
HETATM   13  H2  UNL     1      -9.592   4.737  73.844  1.00  0.00     0.000 HD 
BRANCH   9  14
HETATM   14  O   UNL     1      -8.974   6.568  71.509  1.00  0.00    -0.140 OA 
BRANCH  14  15
HETATM   15  C   UNL     1      -9.691   7.869  71.623  1.00  0.00    -0.163 C  
HETATM   16  C   UNL     1     -11.081   7.787  72.311  1.00  0.00    -0.301 C  
HETATM   17  N   UNL     1     -10.928   7.563  73.764  1.00  0.00    -0.498 NA 
HETATM   18  C   UNL     1     -11.900   9.082  72.135  1.00  0.00    -0.384 C  
HETATM   19  H2  UNL     1     -10.332   8.270  74.195  1.00  0.00     0.000 HD 
HETATM   20  H1  UNL     1     -11.840   7.509  74.216  1.00  0.00     0.000 HD 
HETATM   21  C   UNL     1     -12.076   9.480  70.661  1.00  0.00    -0.162 C  
HETATM   22  N   UNL     1     -13.028  10.590  70.539  1.00  0.00    -0.441 NA 
HETATM   23  C   UNL     1     -10.722   9.847  70.026  1.00  0.00    -0.292 C  
HETATM   24  C   UNL     1      -9.719   8.680  70.286  1.00  0.00    -0.174 C  
HETATM   25  O   UNL     1      -8.379   9.131  69.976  1.00  0.00    -0.120 OA 
HETATM   26  H1  UNL     1     -13.145  10.855  69.561  1.00  0.00     0.000 HD 
HETATM   27  H2  UNL     1     -12.758  11.386  71.118  1.00  0.00     0.000 HD 
HETATM   28  H   UNL     1      -8.396   9.624  69.164  1.00  0.00     0.000 HD 
BRANCH  23  29
HETATM   29  O   UNL     1     -10.862   9.941  68.579  1.00  0.00    -0.229 OA 
BRANCH  29  30
HETATM   30  C   UNL     1     -10.859  11.204  67.881  1.00  0.00    -0.235 C  
HETATM   31  O   UNL     1     -12.071  11.959  67.967  1.00  0.00    -0.541 OA 
HETATM   32  C   UNL     1     -11.936  13.260  67.374  1.00  0.00    -0.335 C  
HETATM   33  C   UNL     1     -11.622  13.212  65.855  1.00  0.00    -0.354 C  
HETATM   34  C   UNL     1     -10.304  12.414  65.649  1.00  0.00    -0.258 C  
HETATM   35  O   UNL     1     -12.702  12.547  65.180  1.00  0.00    -0.659 OA 
HETATM   36  C   UNL     1     -11.536  14.650  65.321  1.00  0.00    -0.354 C  
HETATM   37  H   UNL     1      -8.751  10.342  65.418  1.00  0.00     0.000 HD 
HETATM   38  H   UNL     1     -12.509  12.518  64.251  1.00  0.00     0.000 HD 
HETATM   39  C   UNL     1     -10.366  11.037  66.395  1.00  0.00    -0.250 C  
HETATM   40  O   UNL     1      -9.048  10.443  66.315  1.00  0.00    -0.153 OA 
BRANCH  34  41
HETATM   41  N   UNL     1      -9.726  12.294  64.276  1.00  0.00    -0.527 NA 
HETATM   42  C   UNL     1     -10.424  11.455  63.318  1.00  0.00    -0.334 C  
HETATM   43  H   UNL     1      -8.869  12.786  64.021  1.00  0.00     0.000 HD 
ENDBRANCH  34  41
ENDBRANCH  29  30
ENDBRANCH  23  29
ENDBRANCH  14  15
ENDBRANCH   9  14
ENDBRANCH   4   5
ENDBRANCH   2   4
TORSDOF 7
ENDMDL
MODEL       99
REMARK 921   NORMALIZED FREE ENERGY PREDICTED BY IDOCK:   -5.42 KCAL/MOL
REMARK 922        TOTAL FREE ENERGY PREDICTED BY IDOCK:   -9.35 KCAL/MOL
REMARK 923 INTER-LIGAND FREE ENERGY PREDICTED BY IDOCK:   -8.14 KCAL/MOL
REMARK 924 INTRA-LIGAND FREE ENERGY PREDICTED BY IDOCK:   -1.20 KCAL/MOL
REMARK 927      BINDING AFFINITY PREDICTED BY RF-SCORE:    0.00 PKD
ROOT
HETATM    1  C   UNL     1     -14.159   8.635  72.171  1.00  0.00    -0.441 C  
HETATM    2  N   UNL     1     -13.443   9.892  72.333  1.00  0.00    -0.625 NA 
HETATM    3  H   UNL     1     -12.903   9.888  73.198  1.00  0.00     0.000 HD 
ENDROOT
BRANCH   2   4
HETATM    4  C   UNL     1     -12.587  10.240  71.190  1.00  0.00    -0.400 C  
BRANCH   4   5
HETATM    5  C   UNL     1     -12.335  11.757  70.969  1.00  0.00    -0.282 C  
HETATM    6  C   UNL     1     -13.097  12.653  71.929  1.00  0.00    -0.470 C  
HETATM    7  C   UNL     1     -12.730  14.110  71.648  1.00  0.00    -0.430 C  
HETATM    8  C   UNL     1     -12.780  14.459  70.145  1.00  0.00    -0.207 C  
HETATM    9  C   UNL     1     -12.193  13.329  69.184  1.00  0.00    -0.124 C  
HETATM   10  N   UNL     1     -12.263  15.834  69.950  1.00  0.00    -0.401 NA 
HETATM   11  O   UNL     1     -12.738  12.087  69.619  1.00  0.00     0.194 OA 
HETATM   12  H1  UNL     1     -12.296  16.065  68.957  1.00  0.00     0.000 HD 
HETATM   13  H2  UNL     1     -11.331  15.958  70.346  1.00  0.00     0.000 HD 
BRANCH   9  14
HETATM   14  O   UNL     1     -10.753  13.282  69.046  1.00  0.00    -0.214 OA 
BRANCH  14  15
HETATM   15  C   UNL     1     -10.165  12.525  67.906  1.00  0.00    -0.219 C  
HETATM   16  C   UNL     1     -11.195  12.020  66.859  1.00  0.00    -0.320 C  
HETATM   17  N   UNL     1     -11.710  13.145  66.053  1.00  0.00    -0.360 NA 
HETATM   18  C   UNL     1     -10.582  11.000  65.877  1.00  0.00    -0.270 C  
HETATM   19  H2  UNL     1     -10.956  13.675  65.616  1.00  0.00     0.000 HD 
HETATM   20  H1  UNL     1     -12.387  12.813  65.366  1.00  0.00     0.000 HD 
HETATM   21  C   UNL     1      -9.937   9.801  66.589  1.00  0.00    -0.229 C  
HETATM   22  N   UNL     1      -9.557   8.770  65.616  1.00  0.00    -0.458 NA 
HETATM   23  C   UNL     1      -8.719  10.245  67.420  1.00  0.00    -0.128 C  
HETATM   24  C   UNL     1      -9.155  11.418  68.353  1.00  0.00    -0.179 C  
HETATM   25  O   UNL     1      -7.974  12.046  68.905  1.00  0.00    -0.316 OA 
HETATM   26  H1  UNL     1      -9.129   7.974  66.088  1.00  0.00     0.000 HD 
HETATM   27  H2  UNL     1      -8.956   9.145  64.883  1.00  0.00     0.000 HD 
HETATM   28  H   UNL     1      -7.361  11.373  69.176  1.00  0.00     0.000 HD 
BRANCH  23  29
HETATM   29  O   UNL     1      -8.299   9.164  68.302  1.00  0.00    -0.118 OA 
BRANCH  29  30
HETATM   30  C   UNL     1      -9.082   8.746  69.439  1.00  0.00    -0.145 C  
HETATM   31  O   UNL     1      -8.600   9.178  70.714  1.00  0.00    -0.190 OA 
HETATM   32  C   UNL     1      -9.511   8.847  71.773  1.00  0.00    -0.264 C  
HETATM   33  C   UNL     1      -9.723   7.319  71.944  1.00  0.00    -0.155 C  
HETATM   34  C   UNL     1     -10.262   6.745  70.605  1.00  0.00    -0.195 C  
HETATM   35  O   UNL     1      -8.462   6.709  72.261  1.00  0.00    -0.112 OA 
HETATM   36  C   UNL     1     -10.680   7.080  73.122  1.00  0.00    -0.359 C  
HETATM   37  H   UNL     1     -10.196   5.849  68.165  1.00  0.00     0.000 HD 
HETATM   38  H   UNL     1      -8.593   5.774  72.365  1.00  0.00     0.000 HD 
HETATM   39  C   UNL     1      -9.362   7.196  69.404  1.00  0.00    -0.147 C  
HETATM   40  O   UNL     1     -10.028   6.784  68.186  1.00  0.00    -0.141 OA 
BRANCH  34  41
HETATM   41  N   UNL     1     -10.638   5.300  70.525  1.00  0.00    -0.242 NA 
HETATM   42  C   UNL     1      -9.569   4.329  70.374  1.00  0.00    -0.195 C  
HETATM   43  H   UNL     1     -11.614   5.007  70.574  1.00  0.00     0.000 HD 
ENDBRANCH  34  41
ENDBRANCH  29  30
ENDBRANCH  23  29
ENDBRANCH  14  15
ENDBRANCH   9  14
ENDBRANCH   4   5
ENDBRANCH   2   4
TORSDOF 7
ENDMDL
MODEL      100
REMARK 921   NORMALIZED FREE ENERGY PREDICTED BY IDOCK:   -5.42 KCAL/MOL
REMARK 922        TOTAL FREE ENERGY PREDICTED BY IDOCK:   -9.34 KCAL/MOL
REMARK 923 INTER-LIGAND FREE ENERGY PREDICTED BY IDOCK:   -7.97 KCAL/MOL
REMARK 924 INTRA-LIGAND FREE ENERGY PREDICTED BY IDOCK:   -1.37 KCAL/MOL
REMARK 927      BINDING AFFINITY PREDICTED BY RF-SCORE:    0.00 PKD
ROOT
HETATM    1  C   UNL     1     -12.722   8.584  71.618  1.00  0.00    -0.332 C  
HETATM    2  N   UNL     1     -11.585   9.444  71.327  1.00  0.00    -0.333 NA 
HETATM    3  H   UNL     1     -10.714   8.993  71.606  1.00  0.00     0.000 HD 
ENDROOT
BRANCH   2   4
HETATM    4  C   UNL     1     -11.515   9.884  69.926  1.00  0.00    -0.179 C  
BRANCH   4   5
HETATM    5  C   UNL     1     -11.506  11.420  69.697  1.00  0.00    -0.309 C  
HETATM    6  C   UNL     1     -12.314  12.199  70.720  1.00  0.00    -0.391 C  
HETATM    7  C   UNL     1     -12.187  13.693  70.422  1.00  0.00    -0.434 C  
HETATM    8  C   UNL     1     -12.406  14.024  68.930  1.00  0.00    -0.071 C  
HETATM    9  C   UNL     1     -11.736  12.988  67.918  1.00  0.00    -0.357 C  
HETATM   10  N   UNL     1     -12.113  15.459  68.705  1.00  0.00    -0.587 NA 
HETATM   11  O   UNL     1     -12.058  11.681  68.386  1.00  0.00    -0.522 OA 
HETATM   12  H1  UNL     1     -12.257  15.678  67.720  1.00  0.00     0.000 HD 
HETATM   13  H2  UNL     1     -11.182  15.721  69.028  1.00  0.00     0.000 HD 
BRANCH   9  14
HETATM   14  O   UNL     1     -10.321  13.153  67.668  1.00  0.00    -0.218 OA 
BRANCH  14  15
HETATM   15  C   UNL     1      -9.778  12.776  66.333  1.00  0.00    -0.261 C  
HETATM   16  C   UNL     1     -10.619  13.273  65.125  1.00  0.00    -0.330 C  
HETATM   17  N   UNL     1     -10.465  14.733  64.952  1.00  0.00    -0.484 NA 
HETATM   18  C   UNL     1     -10.190  12.611  63.800  1.00  0.00    -0.281 C  
HETATM   19  H2  UNL     1      -9.486  15.003  64.868  1.00  0.00     0.000 HD 
HETATM   20  H1  UNL     1     -11.018  15.059  64.159  1.00  0.00     0.000 HD 
HETATM   21  C   UNL     1     -10.230  11.076  63.860  1.00  0.00    -0.364 C  
HETATM   22  N   UNL     1     -10.017  10.504  62.526  1.00  0.00    -0.755 NA 
HETATM   23  C   UNL     1      -9.188  10.539  64.859  1.00  0.00    -0.215 C  
HETATM   24  C   UNL     1      -9.390  11.265  66.226  1.00  0.00    -0.207 C  
HETATM   25  O   UNL     1      -8.244  11.008  67.071  1.00  0.00    -0.129 OA 
HETATM   26  H1  UNL     1     -10.043   9.485  62.566  1.00  0.00     0.000 HD 
HETATM   27  H2  UNL     1      -9.155  10.844  62.101  1.00  0.00     0.000 HD 
HETATM   28  H   UNL     1      -8.008  10.089  67.006  1.00  0.00     0.000 HD 
BRANCH  23  29
HETATM   29  O   UNL     1      -9.431   9.125  65.116  1.00  0.00    -0.191 OA 
BRANCH  29  30
HETATM   30  C   UNL     1      -8.361   8.163  65.219  1.00  0.00    -0.152 C  
HETATM   31  O   UNL     1      -8.152   7.347  64.063  1.00  0.00    -0.118 OA 
HETATM   32  C   UNL     1      -6.983   6.523  64.192  1.00  0.00    -0.047 C  
HETATM   33  C   UNL     1      -7.073   5.510  65.364  1.00  0.00    -0.066 C  
HETATM   34  C   UNL     1      -7.291   6.300  66.683  1.00  0.00    -0.078 C  
HETATM   35  O   UNL     1      -8.187   4.633  65.133  1.00  0.00    -0.111 OA 
HETATM   36  C   UNL     1      -5.792   4.660  65.384  1.00  0.00    -0.022 C  
HETATM   37  H   UNL     1      -8.576   7.615  68.522  1.00  0.00     0.000 HD 
HETATM   38  H   UNL     1      -8.241   4.013  65.850  1.00  0.00     0.000 HD 
HETATM   39  C   UNL     1      -8.483   7.307  66.536  1.00  0.00    -0.125 C  
HETATM   40  O   UNL     1      -8.503   8.130  67.727  1.00  0.00    -0.129 OA 
BRANCH  34  41
HETATM   41  N   UNL     1      -7.324   5.564  67.983  1.00  0.00    -0.072 NA 
HETATM   42  C   UNL     1      -8.590   4.992  68.406  1.00  0.00    -0.097 C  
HETATM   43  H   UNL     1      -6.484   5.466  68.554  1.00  0.00     0.000 HD 
ENDBRANCH  34  41
ENDBRANCH  29  30
ENDBRANCH  23  29
ENDBRANCH  14  15
ENDBRANCH   9  14
ENDBRANCH   4   5
ENDBRANCH   2   4
TORSDOF 7
ENDMDL
MODEL      101
REMARK 921   NORMALIZED FREE ENERGY PREDICTED BY IDOCK:   -5.41 KCAL/MOL
REMARK 922        TOTAL FREE ENERGY PREDICTED BY IDOCK:   -9.34 KCAL/MOL
REMARK 923 INTER-LIGAND FREE ENERGY PREDICTED BY IDOCK:   -8.00 KCAL/MOL
REMARK 924 INTRA-LIGAND FREE ENERGY PREDICTED BY IDOCK:   -1.34 KCAL/MOL
REMARK 927      BINDING AFFINITY PREDICTED BY RF-SCORE:    0.00 PKD
ROOT
HETATM    1  C   UNL     1     -11.275   2.922  73.580  1.00  0.00    -0.198 C  
HETATM    2  N   UNL     1     -10.523   4.029  74.151  1.00  0.00    -0.197 NA 
HETATM    3  H   UNL     1     -10.933   4.321  75.038  1.00  0.00     0.000 HD 
ENDROOT
BRANCH   2   4
HETATM    4  C   UNL     1      -9.087   3.754  74.310  1.00  0.00    -0.085 C  
BRANCH   4   5
HETATM    5  C   UNL     1      -8.132   4.613  73.438  1.00  0.00    -0.099 C  
HETATM    6  C   UNL     1      -6.720   4.062  73.348  1.00  0.00    -0.048 C  
HETATM    7  C   UNL     1      -5.893   4.960  72.428  1.00  0.00    -0.016 C  
HETATM    8  C   UNL     1      -6.060   6.460  72.749  1.00  0.00    -0.050 C  
HETATM    9  C   UNL     1      -7.554   6.899  73.096  1.00  0.00    -0.084 C  
HETATM   10  N   UNL     1      -5.354   7.258  71.719  1.00  0.00    -0.035 NA 
HETATM   11  O   UNL     1      -8.069   5.938  74.014  1.00  0.00    -0.105 OA 
HETATM   12  H1  UNL     1      -5.464   8.249  71.932  1.00  0.00     0.000 HD 
HETATM   13  H2  UNL     1      -5.658   7.028  70.773  1.00  0.00     0.000 HD 
BRANCH   9  14
HETATM   14  O   UNL     1      -8.440   7.120  71.974  1.00  0.00    -0.108 OA 
BRANCH  14  15
HETATM   15  C   UNL     1      -9.550   8.102  72.117  1.00  0.00    -0.242 C  
HETATM   16  C   UNL     1     -10.878   7.508  72.662  1.00  0.00    -0.315 C  
HETATM   17  N   UNL     1     -10.756   7.197  74.101  1.00  0.00    -0.541 NA 
HETATM   18  C   UNL     1     -12.064   8.482  72.507  1.00  0.00    -0.395 C  
HETATM   19  H2  UNL     1     -10.455   8.009  74.640  1.00  0.00     0.000 HD 
HETATM   20  H1  UNL     1     -11.627   6.807  74.458  1.00  0.00     0.000 HD 
HETATM   21  C   UNL     1     -12.264   8.952  71.058  1.00  0.00    -0.203 C  
HETATM   22  N   UNL     1     -13.517   9.704  70.930  1.00  0.00    -0.582 NA 
HETATM   23  C   UNL     1     -11.067   9.798  70.585  1.00  0.00    -0.332 C  
HETATM   24  C   UNL     1      -9.756   8.994  70.850  1.00  0.00    -0.264 C  
HETATM   25  O   UNL     1      -8.622   9.881  70.704  1.00  0.00    -0.368 OA 
HETATM   26  H1  UNL     1     -13.650  10.016  69.968  1.00  0.00     0.000 HD 
HETATM   27  H2  UNL     1     -13.563  10.481  71.590  1.00  0.00     0.000 HD 
HETATM   28  H   UNL     1      -8.746  10.424  69.934  1.00  0.00     0.000 HD 
BRANCH  23  29
HETATM   29  O   UNL     1     -11.135   9.991  69.142  1.00  0.00    -0.225 OA 
BRANCH  29  30
HETATM   30  C   UNL     1     -10.949  11.280  68.523  1.00  0.00    -0.220 C  
HETATM   31  O   UNL     1     -12.018  12.212  68.705  1.00  0.00    -0.306 OA 
HETATM   32  C   UNL     1     -11.692  13.511  68.187  1.00  0.00    -0.361 C  
HETATM   33  C   UNL     1     -11.438  13.516  66.657  1.00  0.00    -0.339 C  
HETATM   34  C   UNL     1     -10.275  12.533  66.348  1.00  0.00    -0.244 C  
HETATM   35  O   UNL     1     -12.632  13.079  65.988  1.00  0.00    -0.453 OA 
HETATM   36  C   UNL     1     -11.136  14.954  66.208  1.00  0.00    -0.340 C  
HETATM   37  H   UNL     1      -9.087  10.259  65.926  1.00  0.00     0.000 HD 
HETATM   38  H   UNL     1     -12.476  13.083  65.052  1.00  0.00     0.000 HD 
HETATM   39  C   UNL     1     -10.537  11.137  67.010  1.00  0.00    -0.252 C  
HETATM   40  O   UNL     1      -9.336  10.345  66.839  1.00  0.00    -0.159 OA 
BRANCH  34  41
HETATM   41  N   UNL     1      -9.767  12.414  64.947  1.00  0.00    -0.467 NA 
HETATM   42  C   UNL     1     -10.548  11.629  64.008  1.00  0.00    -0.373 C  
HETATM   43  H   UNL     1      -8.900  12.870  64.661  1.00  0.00     0.000 HD 
ENDBRANCH  34  41
ENDBRANCH  29  30
ENDBRANCH  23  29
ENDBRANCH  14  15
ENDBRANCH   9  14
ENDBRANCH   4   5
ENDBRANCH   2   4
TORSDOF 7
ENDMDL
MODEL      102
REMARK 921   NORMALIZED FREE ENERGY PREDICTED BY IDOCK:   -5.39 KCAL/MOL
REMARK 922        TOTAL FREE ENERGY PREDICTED BY IDOCK:   -9.31 KCAL/MOL
REMARK 923 INTER-LIGAND FREE ENERGY PREDICTED BY IDOCK:   -7.65 KCAL/MOL
REMARK 924 INTRA-LIGAND FREE ENERGY PREDICTED BY IDOCK:   -1.65 KCAL/MOL
REMARK 927      BINDING AFFINITY PREDICTED BY RF-SCORE:    0.00 PKD
ROOT
HETATM    1  C   UNL     1     -12.007  13.962  63.914  1.00  0.00    -0.334 C  
HETATM    2  N   UNL     1     -10.949  13.291  64.653  1.00  0.00    -0.349 NA 
HETATM    3  H   UNL     1     -10.609  12.480  64.135  1.00  0.00     0.000 HD 
ENDROOT
BRANCH   2   4
HETATM    4  C   UNL     1      -9.832  14.171  65.026  1.00  0.00    -0.029 C  
BRANCH   4   5
HETATM    5  C   UNL     1     -10.116  15.177  66.175  1.00  0.00    -0.295 C  
HETATM    6  C   UNL     1      -9.305  16.457  66.086  1.00  0.00    -0.360 C  
HETATM    7  C   UNL     1      -9.707  17.383  67.234  1.00  0.00    -0.267 C  
HETATM    8  C   UNL     1      -9.760  16.657  68.596  1.00  0.00    -0.248 C  
HETATM    9  C   UNL     1     -10.394  15.195  68.541  1.00  0.00    -0.230 C  
HETATM   10  N   UNL     1     -10.305  17.583  69.616  1.00  0.00    -0.164 NA 
HETATM   11  O   UNL     1      -9.806  14.526  67.429  1.00  0.00    -0.223 OA 
HETATM   12  H1  UNL     1     -10.339  17.104  70.516  1.00  0.00     0.000 HD 
HETATM   13  H2  UNL     1     -11.210  17.968  69.347  1.00  0.00     0.000 HD 
BRANCH   9  14
HETATM   14  O   UNL     1     -11.838  15.117  68.532  1.00  0.00    -0.329 OA 
BRANCH  14  15
HETATM   15  C   UNL     1     -12.499  13.939  69.160  1.00  0.00     0.071 C  
HETATM   16  C   UNL     1     -12.805  14.096  70.674  1.00  0.00    -0.290 C  
HETATM   17  N   UNL     1     -13.926  15.035  70.882  1.00  0.00    -0.673 NA 
HETATM   18  C   UNL     1     -13.204  12.759  71.334  1.00  0.00    -0.240 C  
HETATM   19  H2  UNL     1     -14.755  14.760  70.355  1.00  0.00     0.000 HD 
HETATM   20  H1  UNL     1     -14.127  15.138  71.877  1.00  0.00     0.000 HD 
HETATM   21  C   UNL     1     -12.153  11.657  71.130  1.00  0.00     0.012 C  
HETATM   22  N   UNL     1     -12.478  10.480  71.944  1.00  0.00    -0.258 NA 
HETATM   23  C   UNL     1     -12.035  11.279  69.641  1.00  0.00    -0.353 C  
HETATM   24  C   UNL     1     -11.804  12.582  68.815  1.00  0.00    -0.303 C  
HETATM   25  O   UNL     1     -11.999  12.291  67.411  1.00  0.00    -0.530 OA 
HETATM   26  H1  UNL     1     -11.781   9.749  71.809  1.00  0.00     0.000 HD 
HETATM   27  H2  UNL     1     -13.423  10.142  71.760  1.00  0.00     0.000 HD 
HETATM   28  H   UNL     1     -11.577  11.466  67.201  1.00  0.00     0.000 HD 
BRANCH  23  29
HETATM   29  O   UNL     1     -10.853  10.454  69.432  1.00  0.00    -0.215 OA 
BRANCH  29  30
HETATM   30  C   UNL     1     -10.910   9.172  68.772  1.00  0.00    -0.060 C  
HETATM   31  O   UNL     1     -10.898   8.033  69.636  1.00  0.00    -0.240 OA 
HETATM   32  C   UNL     1     -11.105   6.809  68.914  1.00  0.00    -0.181 C  
HETATM   33  C   UNL     1      -9.990   6.513  67.876  1.00  0.00    -0.131 C  
HETATM   34  C   UNL     1      -9.924   7.697  66.873  1.00  0.00    -0.255 C  
HETATM   35  O   UNL     1      -8.736   6.392  68.567  1.00  0.00    -0.121 OA 
HETATM   36  C   UNL     1     -10.292   5.170  67.193  1.00  0.00    -0.246 C  
HETATM   37  H   UNL     1      -9.309  10.052  65.959  1.00  0.00     0.000 HD 
HETATM   38  H   UNL     1      -8.054   6.211  67.931  1.00  0.00     0.000 HD 
HETATM   39  C   UNL     1      -9.828   9.065  67.632  1.00  0.00    -0.173 C  
HETATM   40  O   UNL     1      -9.961  10.117  66.646  1.00  0.00    -0.197 OA 
BRANCH  34  41
HETATM   41  N   UNL     1      -8.987   7.623  65.710  1.00  0.00    -0.354 NA 
HETATM   42  C   UNL     1      -7.562   7.610  65.990  1.00  0.00    -0.088 C  
HETATM   43  H   UNL     1      -9.338   7.582  64.753  1.00  0.00     0.000 HD 
ENDBRANCH  34  41
ENDBRANCH  29  30
ENDBRANCH  23  29
ENDBRANCH  14  15
ENDBRANCH   9  14
ENDBRANCH   4   5
ENDBRANCH   2   4
TORSDOF 7
ENDMDL
MODEL      103
REMARK 921   NORMALIZED FREE ENERGY PREDICTED BY IDOCK:   -5.39 KCAL/MOL
REMARK 922        TOTAL FREE ENERGY PREDICTED BY IDOCK:   -9.31 KCAL/MOL
REMARK 923 INTER-LIGAND FREE ENERGY PREDICTED BY IDOCK:   -8.49 KCAL/MOL
REMARK 924 INTRA-LIGAND FREE ENERGY PREDICTED BY IDOCK:   -0.81 KCAL/MOL
REMARK 927      BINDING AFFINITY PREDICTED BY RF-SCORE:    0.00 PKD
ROOT
HETATM    1  C   UNL     1     -10.140   7.371  71.336  1.00  0.00    -0.186 C  
HETATM    2  N   UNL     1     -10.326   8.333  70.260  1.00  0.00    -0.204 NA 
HETATM    3  H   UNL     1      -9.552   8.996  70.235  1.00  0.00     0.000 HD 
ENDROOT
BRANCH   2   4
HETATM    4  C   UNL     1     -10.524   7.718  68.939  1.00  0.00    -0.194 C  
BRANCH   4   5
HETATM    5  C   UNL     1     -10.103   8.581  67.719  1.00  0.00    -0.211 C  
HETATM    6  C   UNL     1      -9.522   7.779  66.569  1.00  0.00    -0.262 C  
HETATM    7  C   UNL     1      -9.195   8.727  65.416  1.00  0.00    -0.155 C  
HETATM    8  C   UNL     1      -8.427   9.984  65.875  1.00  0.00    -0.133 C  
HETATM    9  C   UNL     1      -8.944  10.609  67.248  1.00  0.00    -0.136 C  
HETATM   10  N   UNL     1      -8.290  10.914  64.729  1.00  0.00    -0.375 NA 
HETATM   11  O   UNL     1      -9.105   9.530  68.164  1.00  0.00    -0.127 OA 
HETATM   12  H1  UNL     1      -7.782  11.745  65.033  1.00  0.00     0.000 HD 
HETATM   13  H2  UNL     1      -9.189  11.142  64.305  1.00  0.00     0.000 HD 
BRANCH   9  14
HETATM   14  O   UNL     1     -10.120  11.450  67.173  1.00  0.00    -0.193 OA 
BRANCH  14  15
HETATM   15  C   UNL     1     -10.308  12.515  68.197  1.00  0.00    -0.232 C  
HETATM   16  C   UNL     1     -11.593  12.371  69.057  1.00  0.00    -0.311 C  
HETATM   17  N   UNL     1     -11.454  11.255  70.015  1.00  0.00    -0.416 NA 
HETATM   18  C   UNL     1     -11.894  13.641  69.880  1.00  0.00    -0.389 C  
HETATM   19  H2  UNL     1     -10.620  11.354  70.594  1.00  0.00     0.000 HD 
HETATM   20  H1  UNL     1     -12.298  11.160  70.579  1.00  0.00     0.000 HD 
HETATM   21  C   UNL     1     -11.993  14.905  69.011  1.00  0.00    -0.272 C  
HETATM   22  N   UNL     1     -12.481  16.037  69.805  1.00  0.00    -0.498 NA 
HETATM   23  C   UNL     1     -10.634  15.234  68.365  1.00  0.00    -0.246 C  
HETATM   24  C   UNL     1     -10.111  13.959  67.631  1.00  0.00    -0.241 C  
HETATM   25  O   UNL     1      -8.718  14.150  67.289  1.00  0.00    -0.196 OA 
HETATM   26  H1  UNL     1     -12.546  16.876  69.229  1.00  0.00     0.000 HD 
HETATM   27  H2  UNL     1     -11.910  16.192  70.636  1.00  0.00     0.000 HD 
HETATM   28  H   UNL     1      -8.598  15.028  66.945  1.00  0.00     0.000 HD 
BRANCH  23  29
HETATM   29  O   UNL     1     -10.808  16.248  67.333  1.00  0.00    -0.313 OA 
BRANCH  29  30
HETATM   30  C   UNL     1     -10.071  17.488  67.334  1.00  0.00    -0.325 C  
HETATM   31  O   UNL     1     -10.075  18.210  66.100  1.00  0.00    -0.423 OA 
HETATM   32  C   UNL     1      -9.447  19.495  66.227  1.00  0.00    -0.384 C  
HETATM   33  C   UNL     1      -7.947  19.408  66.613  1.00  0.00    -0.286 C  
HETATM   34  C   UNL     1      -7.828  18.643  67.960  1.00  0.00    -0.271 C  
HETATM   35  O   UNL     1      -7.245  18.692  65.585  1.00  0.00    -0.458 OA 
HETATM   36  C   UNL     1      -7.370  20.831  66.684  1.00  0.00    -0.203 C  
HETATM   37  H   UNL     1      -7.737  16.611  69.579  1.00  0.00     0.000 HD 
HETATM   38  H   UNL     1      -6.327  18.639  65.821  1.00  0.00     0.000 HD 
HETATM   39  C   UNL     1      -8.614  17.289  67.901  1.00  0.00    -0.223 C  
HETATM   40  O   UNL     1      -8.615  16.731  69.237  1.00  0.00    -0.142 OA 
BRANCH  34  41
HETATM   41  N   UNL     1      -6.488  18.497  68.605  1.00  0.00    -0.223 NA 
HETATM   42  C   UNL     1      -6.238  19.246  69.825  1.00  0.00    -0.265 C  
HETATM   43  H   UNL     1      -5.772  17.891  68.203  1.00  0.00     0.000 HD 
ENDBRANCH  34  41
ENDBRANCH  29  30
ENDBRANCH  23  29
ENDBRANCH  14  15
ENDBRANCH   9  14
ENDBRANCH   4   5
ENDBRANCH   2   4
TORSDOF 7
ENDMDL
MODEL      104
REMARK 921   NORMALIZED FREE ENERGY PREDICTED BY IDOCK:   -5.37 KCAL/MOL
REMARK 922        TOTAL FREE ENERGY PREDICTED BY IDOCK:   -9.27 KCAL/MOL
REMARK 923 INTER-LIGAND FREE ENERGY PREDICTED BY IDOCK:   -7.71 KCAL/MOL
REMARK 924 INTRA-LIGAND FREE ENERGY PREDICTED BY IDOCK:   -1.57 KCAL/MOL
REMARK 927      BINDING AFFINITY PREDICTED BY RF-SCORE:    0.00 PKD
ROOT
HETATM    1  C   UNL     1     -13.544   9.812  72.242  1.00  0.00    -0.308 C  
HETATM    2  N   UNL     1     -13.036   8.551  72.761  1.00  0.00    -0.640 NA 
HETATM    3  H   UNL     1     -13.552   7.766  72.363  1.00  0.00     0.000 HD 
ENDROOT
BRANCH   2   4
HETATM    4  C   UNL     1     -11.590   8.369  72.572  1.00  0.00    -0.356 C  
BRANCH   4   5
HETATM    5  C   UNL     1     -11.159   7.060  71.856  1.00  0.00    -0.242 C  
HETATM    6  C   UNL     1     -10.865   5.909  72.801  1.00  0.00    -0.289 C  
HETATM    7  C   UNL     1     -10.505   4.670  71.982  1.00  0.00    -0.198 C  
HETATM    8  C   UNL     1      -9.475   4.968  70.871  1.00  0.00    -0.162 C  
HETATM    9  C   UNL     1      -9.713   6.345  70.102  1.00  0.00    -0.166 C  
HETATM   10  N   UNL     1      -9.302   3.758  70.034  1.00  0.00    -0.162 NA 
HETATM   11  O   UNL     1      -9.963   7.339  71.092  1.00  0.00    -0.186 OA 
HETATM   12  H1  UNL     1      -8.622   3.955  69.300  1.00  0.00     0.000 HD 
HETATM   13  H2  UNL     1     -10.187   3.414  69.661  1.00  0.00     0.000 HD 
BRANCH   9  14
HETATM   14  O   UNL     1     -10.719   6.338  69.061  1.00  0.00    -0.235 OA 
BRANCH  14  15
HETATM   15  C   UNL     1     -10.595   7.305  67.935  1.00  0.00    -0.202 C  
HETATM   16  C   UNL     1      -9.672   6.839  66.776  1.00  0.00    -0.171 C  
HETATM   17  N   UNL     1     -10.322   5.768  65.993  1.00  0.00    -0.437 NA 
HETATM   18  C   UNL     1      -9.341   7.983  65.794  1.00  0.00    -0.010 C  
HETATM   19  H2  UNL     1     -11.242   6.051  65.655  1.00  0.00     0.000 HD 
HETATM   20  H1  UNL     1      -9.716   5.463  65.233  1.00  0.00     0.000 HD 
HETATM   21  C   UNL     1      -8.721   9.205  66.490  1.00  0.00    -0.128 C  
HETATM   22  N   UNL     1      -8.238  10.171  65.497  1.00  0.00    -0.149 NA 
HETATM   23  C   UNL     1      -9.732   9.863  67.447  1.00  0.00    -0.162 C  
HETATM   24  C   UNL     1     -10.296   8.766  68.404  1.00  0.00    -0.204 C  
HETATM   25  O   UNL     1     -11.456   9.292  69.092  1.00  0.00    -0.425 OA 
HETATM   26  H1  UNL     1      -7.827  10.982  65.958  1.00  0.00     0.000 HD 
HETATM   27  H2  UNL     1      -8.971  10.439  64.841  1.00  0.00     0.000 HD 
HETATM   28  H   UNL     1     -11.274  10.180  69.377  1.00  0.00     0.000 HD 
BRANCH  23  29
HETATM   29  O   UNL     1      -9.051  10.829  68.300  1.00  0.00    -0.145 OA 
BRANCH  29  30
HETATM   30  C   UNL     1      -9.555  12.163  68.514  1.00  0.00    -0.133 C  
HETATM   31  O   UNL     1     -10.865  12.244  69.081  1.00  0.00    -0.194 OA 
HETATM   32  C   UNL     1     -11.231  13.596  69.397  1.00  0.00    -0.196 C  
HETATM   33  C   UNL     1     -11.295  14.521  68.153  1.00  0.00    -0.298 C  
HETATM   34  C   UNL     1      -9.904  14.514  67.462  1.00  0.00    -0.222 C  
HETATM   35  O   UNL     1     -12.288  14.012  67.249  1.00  0.00    -0.533 OA 
HETATM   36  C   UNL     1     -11.729  15.925  68.601  1.00  0.00    -0.328 C  
HETATM   37  H   UNL     1      -7.958  13.652  65.967  1.00  0.00     0.000 HD 
HETATM   38  H   UNL     1     -12.327  14.579  66.488  1.00  0.00     0.000 HD 
HETATM   39  C   UNL     1      -9.412  13.045  67.218  1.00  0.00    -0.224 C  
HETATM   40  O   UNL     1      -8.044  13.120  66.749  1.00  0.00     0.008 OA 
BRANCH  34  41
HETATM   41  N   UNL     1      -9.666  15.398  66.280  1.00  0.00    -0.276 NA 
HETATM   42  C   UNL     1     -10.175  14.960  64.993  1.00  0.00    -0.330 C  
HETATM   43  H   UNL     1      -9.163  16.281  66.376  1.00  0.00     0.000 HD 
ENDBRANCH  34  41
ENDBRANCH  29  30
ENDBRANCH  23  29
ENDBRANCH  14  15
ENDBRANCH   9  14
ENDBRANCH   4   5
ENDBRANCH   2   4
TORSDOF 7
ENDMDL
MODEL      105
REMARK 921   NORMALIZED FREE ENERGY PREDICTED BY IDOCK:   -5.35 KCAL/MOL
REMARK 922        TOTAL FREE ENERGY PREDICTED BY IDOCK:   -9.24 KCAL/MOL
REMARK 923 INTER-LIGAND FREE ENERGY PREDICTED BY IDOCK:   -8.16 KCAL/MOL
REMARK 924 INTRA-LIGAND FREE ENERGY PREDICTED BY IDOCK:   -1.09 KCAL/MOL
REMARK 927      BINDING AFFINITY PREDICTED BY RF-SCORE:    0.00 PKD
ROOT
HETATM    1  C   UNL     1      -8.113  10.029  64.943  1.00  0.00    -0.154 C  
HETATM    2  N   UNL     1      -8.749   9.023  65.779  1.00  0.00    -0.158 NA 
HETATM    3  H   UNL     1      -9.752   8.989  65.600  1.00  0.00     0.000 HD 
ENDROOT
BRANCH   2   4
HETATM    4  C   UNL     1      -8.156   7.683  65.653  1.00  0.00    -0.127 C  
BRANCH   4   5
HETATM    5  C   UNL     1      -8.400   6.719  66.846  1.00  0.00    -0.114 C  
HETATM    6  C   UNL     1      -8.274   5.250  66.484  1.00  0.00    -0.108 C  
HETATM    7  C   UNL     1      -8.483   4.407  67.742  1.00  0.00    -0.101 C  
HETATM    8  C   UNL     1      -9.721   4.844  68.555  1.00  0.00    -0.155 C  
HETATM    9  C   UNL     1      -9.921   6.423  68.656  1.00  0.00    -0.146 C  
HETATM   10  N   UNL     1      -9.758   4.084  69.826  1.00  0.00    -0.209 NA 
HETATM   11  O   UNL     1      -9.737   6.952  67.346  1.00  0.00    -0.130 OA 
HETATM   12  H1  UNL     1     -10.576   4.373  70.363  1.00  0.00     0.000 HD 
HETATM   13  H2  UNL     1      -8.893   4.176  70.359  1.00  0.00     0.000 HD 
BRANCH   9  14
HETATM   14  O   UNL     1      -9.123   7.113  69.647  1.00  0.00    -0.141 OA 
BRANCH  14  15
HETATM   15  C   UNL     1      -9.816   7.892  70.711  1.00  0.00    -0.180 C  
HETATM   16  C   UNL     1     -10.850   7.083  71.540  1.00  0.00    -0.230 C  
HETATM   17  N   UNL     1     -10.164   6.144  72.452  1.00  0.00    -0.186 NA 
HETATM   18  C   UNL     1     -11.743   7.991  72.411  1.00  0.00    -0.444 C  
HETATM   19  H2  UNL     1      -9.490   6.621  73.050  1.00  0.00     0.000 HD 
HETATM   20  H1  UNL     1     -10.844   5.613  72.996  1.00  0.00     0.000 HD 
HETATM   21  C   UNL     1     -12.467   9.073  71.596  1.00  0.00    -0.351 C  
HETATM   22  N   UNL     1     -13.454   9.770  72.429  1.00  0.00    -0.629 NA 
HETATM   23  C   UNL     1     -11.460  10.069  70.990  1.00  0.00    -0.383 C  
HETATM   24  C   UNL     1     -10.373   9.264  70.211  1.00  0.00    -0.229 C  
HETATM   25  O   UNL     1      -9.266  10.144  69.904  1.00  0.00    -0.345 OA 
HETATM   26  H1  UNL     1     -13.934  10.489  71.888  1.00  0.00     0.000 HD 
HETATM   27  H2  UNL     1     -13.032  10.151  73.276  1.00  0.00     0.000 HD 
HETATM   28  H   UNL     1      -9.605  10.978  69.600  1.00  0.00     0.000 HD 
BRANCH  23  29
HETATM   29  O   UNL     1     -12.126  10.906  70.000  1.00  0.00    -0.303 OA 
BRANCH  29  30
HETATM   30  C   UNL     1     -11.467  12.014  69.354  1.00  0.00    -0.296 C  
HETATM   31  O   UNL     1     -11.786  13.309  69.870  1.00  0.00    -0.297 OA 
HETATM   32  C   UNL     1     -10.981  14.338  69.275  1.00  0.00    -0.241 C  
HETATM   33  C   UNL     1     -11.194  14.475  67.744  1.00  0.00    -0.298 C  
HETATM   34  C   UNL     1     -10.861  13.112  67.077  1.00  0.00    -0.264 C  
HETATM   35  O   UNL     1     -12.568  14.813  67.496  1.00  0.00    -0.365 OA 
HETATM   36  C   UNL     1     -10.317  15.623  67.222  1.00  0.00    -0.277 C  
HETATM   37  H   UNL     1     -11.219  10.658  66.295  1.00  0.00     0.000 HD 
HETATM   38  H   UNL     1     -12.698  14.897  66.559  1.00  0.00     0.000 HD 
HETATM   39  C   UNL     1     -11.626  11.943  67.788  1.00  0.00    -0.323 C  
HETATM   40  O   UNL     1     -11.123  10.701  67.239  1.00  0.00    -0.302 OA 
BRANCH  34  41
HETATM   41  N   UNL     1     -10.899  12.995  65.587  1.00  0.00    -0.271 NA 
HETATM   42  C   UNL     1     -12.044  13.557  64.893  1.00  0.00    -0.397 C  
HETATM   43  H   UNL     1     -10.145  12.537  65.075  1.00  0.00     0.000 HD 
ENDBRANCH  34  41
ENDBRANCH  29  30
ENDBRANCH  23  29
ENDBRANCH  14  15
ENDBRANCH   9  14
ENDBRANCH   4   5
ENDBRANCH   2   4
TORSDOF 7
ENDMDL
MODEL      106
REMARK 921   NORMALIZED FREE ENERGY PREDICTED BY IDOCK:   -5.34 KCAL/MOL
REMARK 922        TOTAL FREE ENERGY PREDICTED BY IDOCK:   -9.24 KCAL/MOL
REMARK 923 INTER-LIGAND FREE ENERGY PREDICTED BY IDOCK:   -8.27 KCAL/MOL
REMARK 924 INTRA-LIGAND FREE ENERGY PREDICTED BY IDOCK:   -0.97 KCAL/MOL
REMARK 927      BINDING AFFINITY PREDICTED BY RF-SCORE:    0.00 PKD
ROOT
HETATM    1  C   UNL     1      -6.527  10.813  70.174  1.00  0.00    -0.155 C  
HETATM    2  N   UNL     1      -6.921   9.425  69.986  1.00  0.00    -0.061 NA 
HETATM    3  H   UNL     1      -6.204   8.915  69.470  1.00  0.00     0.000 HD 
ENDROOT
BRANCH   2   4
HETATM    4  C   UNL     1      -7.255   8.726  71.235  1.00  0.00    -0.095 C  
BRANCH   4   5
HETATM    5  C   UNL     1      -8.030   7.389  71.079  1.00  0.00    -0.097 C  
HETATM    6  C   UNL     1      -7.353   6.205  71.744  1.00  0.00    -0.093 C  
HETATM    7  C   UNL     1      -8.230   4.966  71.567  1.00  0.00    -0.113 C  
HETATM    8  C   UNL     1      -8.728   4.788  70.117  1.00  0.00    -0.093 C  
HETATM    9  C   UNL     1      -9.172   6.143  69.401  1.00  0.00    -0.133 C  
HETATM   10  N   UNL     1      -9.690   3.662  70.069  1.00  0.00    -0.168 NA 
HETATM   11  O   UNL     1      -8.158   7.107  69.666  1.00  0.00    -0.125 OA 
HETATM   12  H1  UNL     1     -10.018   3.545  69.111  1.00  0.00     0.000 HD 
HETATM   13  H2  UNL     1     -10.457   3.779  70.731  1.00  0.00     0.000 HD 
BRANCH   9  14
HETATM   14  O   UNL     1     -10.497   6.634  69.713  1.00  0.00    -0.191 OA 
BRANCH  14  15
HETATM   15  C   UNL     1     -10.638   7.988  70.316  1.00  0.00    -0.231 C  
HETATM   16  C   UNL     1     -11.661   8.079  71.481  1.00  0.00    -0.284 C  
HETATM   17  N   UNL     1     -11.128   7.422  72.692  1.00  0.00    -0.306 NA 
HETATM   18  C   UNL     1     -11.989   9.537  71.862  1.00  0.00    -0.381 C  
HETATM   19  H2  UNL     1     -10.218   7.798  72.957  1.00  0.00     0.000 HD 
HETATM   20  H1  UNL     1     -11.800   7.481  73.456  1.00  0.00     0.000 HD 
HETATM   21  C   UNL     1     -12.489  10.367  70.670  1.00  0.00    -0.348 C  
HETATM   22  N   UNL     1     -12.980  11.673  71.122  1.00  0.00    -0.285 NA 
HETATM   23  C   UNL     1     -11.380  10.534  69.613  1.00  0.00    -0.281 C  
HETATM   24  C   UNL     1     -10.820   9.123  69.255  1.00  0.00    -0.132 C  
HETATM   25  O   UNL     1      -9.588   9.280  68.511  1.00  0.00    -0.145 OA 
HETATM   26  H1  UNL     1     -13.312  12.224  70.331  1.00  0.00     0.000 HD 
HETATM   27  H2  UNL     1     -12.277  12.175  71.665  1.00  0.00     0.000 HD 
HETATM   28  H   UNL     1      -9.698   9.969  67.866  1.00  0.00     0.000 HD 
BRANCH  23  29
HETATM   29  O   UNL     1     -11.946  11.067  68.381  1.00  0.00    -0.565 OA 
BRANCH  29  30
HETATM   30  C   UNL     1     -11.441  12.262  67.750  1.00  0.00    -0.329 C  
HETATM   31  O   UNL     1     -12.306  13.399  67.801  1.00  0.00    -0.219 OA 
HETATM   32  C   UNL     1     -11.672  14.580  67.285  1.00  0.00    -0.406 C  
HETATM   33  C   UNL     1     -11.284  14.462  65.787  1.00  0.00    -0.326 C  
HETATM   34  C   UNL     1     -10.327  13.250  65.620  1.00  0.00    -0.287 C  
HETATM   35  O   UNL     1     -12.477  14.248  65.016  1.00  0.00    -0.458 OA 
HETATM   36  C   UNL     1     -10.652  15.787  65.333  1.00  0.00    -0.441 C  
HETATM   37  H   UNL     1      -9.603  10.765  65.377  1.00  0.00     0.000 HD 
HETATM   38  H   UNL     1     -12.239  14.176  64.099  1.00  0.00     0.000 HD 
HETATM   39  C   UNL     1     -10.931  11.968  66.289  1.00  0.00    -0.299 C  
HETATM   40  O   UNL     1      -9.910  10.942  66.258  1.00  0.00    -0.202 OA 
BRANCH  34  41
HETATM   41  N   UNL     1      -9.729  12.966  64.280  1.00  0.00    -0.587 NA 
HETATM   42  C   UNL     1     -10.418  12.023  63.417  1.00  0.00    -0.433 C  
HETATM   43  H   UNL     1      -8.866  13.421  63.981  1.00  0.00     0.000 HD 
ENDBRANCH  34  41
ENDBRANCH  29  30
ENDBRANCH  23  29
ENDBRANCH  14  15
ENDBRANCH   9  14
ENDBRANCH   4   5
ENDBRANCH   2   4
TORSDOF 7
ENDMDL
MODEL      107
REMARK 921   NORMALIZED FREE ENERGY PREDICTED BY IDOCK:   -5.34 KCAL/MOL
REMARK 922        TOTAL FREE ENERGY PREDICTED BY IDOCK:   -9.23 KCAL/MOL
REMARK 923 INTER-LIGAND FREE ENERGY PREDICTED BY IDOCK:   -7.27 KCAL/MOL
REMARK 924 INTRA-LIGAND FREE ENERGY PREDICTED BY IDOCK:   -1.96 KCAL/MOL
REMARK 927      BINDING AFFINITY PREDICTED BY RF-SCORE:    0.00 PKD
ROOT
HETATM    1  C   UNL     1      -7.389   2.545  69.984  1.00  0.00    -0.043 C  
HETATM    2  N   UNL     1      -8.673   3.178  69.723  1.00  0.00    -0.066 NA 
HETATM    3  H   UNL     1      -8.611   4.185  69.867  1.00  0.00     0.000 HD 
ENDROOT
BRANCH   2   4
HETATM    4  C   UNL     1      -9.225   2.878  68.393  1.00  0.00    -0.189 C  
BRANCH   4   5
HETATM    5  C   UNL     1      -9.231   4.055  67.380  1.00  0.00    -0.165 C  
HETATM    6  C   UNL     1      -8.742   3.676  65.994  1.00  0.00    -0.120 C  
HETATM    7  C   UNL     1      -8.843   4.896  65.079  1.00  0.00    -0.154 C  
HETATM    8  C   UNL     1      -8.262   6.174  65.722  1.00  0.00    -0.138 C  
HETATM    9  C   UNL     1      -8.611   6.352  67.268  1.00  0.00    -0.110 C  
HETATM   10  N   UNL     1      -8.540   7.330  64.838  1.00  0.00    -0.355 NA 
HETATM   11  O   UNL     1      -8.372   5.097  67.898  1.00  0.00    -0.098 OA 
HETATM   12  H1  UNL     1      -8.157   8.174  65.263  1.00  0.00     0.000 HD 
HETATM   13  H2  UNL     1      -9.533   7.422  64.620  1.00  0.00     0.000 HD 
BRANCH   9  14
HETATM   14  O   UNL     1      -9.921   6.885  67.578  1.00  0.00    -0.133 OA 
BRANCH  14  15
HETATM   15  C   UNL     1     -10.086   7.726  68.796  1.00  0.00    -0.196 C  
HETATM   16  C   UNL     1     -10.758   7.006  69.997  1.00  0.00    -0.242 C  
HETATM   17  N   UNL     1      -9.829   6.031  70.603  1.00  0.00    -0.177 NA 
HETATM   18  C   UNL     1     -11.175   7.989  71.111  1.00  0.00    -0.287 C  
HETATM   19  H2  UNL     1      -8.944   6.464  70.868  1.00  0.00     0.000 HD 
HETATM   20  H1  UNL     1     -10.270   5.558  71.391  1.00  0.00     0.000 HD 
HETATM   21  C   UNL     1     -12.092   9.112  70.602  1.00  0.00    -0.068 C  
HETATM   22  N   UNL     1     -12.623   9.891  71.726  1.00  0.00    -0.403 NA 
HETATM   23  C   UNL     1     -11.345  10.023  69.609  1.00  0.00    -0.202 C  
HETATM   24  C   UNL     1     -10.707   9.130  68.500  1.00  0.00    -0.116 C  
HETATM   25  O   UNL     1      -9.758   9.921  67.746  1.00  0.00    -0.146 OA 
HETATM   26  H1  UNL     1     -13.231  10.636  71.389  1.00  0.00     0.000 HD 
HETATM   27  H2  UNL     1     -11.878  10.250  72.324  1.00  0.00     0.000 HD 
HETATM   28  H   UNL     1     -10.135  10.774  67.566  1.00  0.00     0.000 HD 
BRANCH  23  29
HETATM   29  O   UNL     1     -12.293  10.895  68.927  1.00  0.00    -0.486 OA 
BRANCH  29  30
HETATM   30  C   UNL     1     -12.087  12.317  68.804  1.00  0.00    -0.112 C  
HETATM   31  O   UNL     1     -11.210  12.725  67.751  1.00  0.00    -0.247 OA 
HETATM   32  C   UNL     1     -11.175  14.153  67.604  1.00  0.00    -0.297 C  
HETATM   33  C   UNL     1     -10.631  14.885  68.859  1.00  0.00    -0.247 C  
HETATM   34  C   UNL     1     -11.528  14.516  70.073  1.00  0.00    -0.258 C  
HETATM   35  O   UNL     1      -9.284  14.450  69.102  1.00  0.00    -0.382 OA 
HETATM   36  C   UNL     1     -10.602  16.396  68.579  1.00  0.00    -0.304 C  
HETATM   37  H   UNL     1     -12.450  13.096  72.047  1.00  0.00     0.000 HD 
HETATM   38  H   UNL     1      -8.951  14.898  69.870  1.00  0.00     0.000 HD 
HETATM   39  C   UNL     1     -11.696  12.961  70.187  1.00  0.00    -0.159 C  
HETATM   40  O   UNL     1     -12.686  12.708  71.213  1.00  0.00    -0.364 OA 
BRANCH  34  41
HETATM   41  N   UNL     1     -11.275  15.161  71.397  1.00  0.00    -0.533 NA 
HETATM   42  C   UNL     1     -12.346  15.946  71.984  1.00  0.00    -0.475 C  
HETATM   43  H   UNL     1     -10.378  15.053  71.872  1.00  0.00     0.000 HD 
ENDBRANCH  34  41
ENDBRANCH  29  30
ENDBRANCH  23  29
ENDBRANCH  14  15
ENDBRANCH   9  14
ENDBRANCH   4   5
ENDBRANCH   2   4
TORSDOF 7
ENDMDL
MODEL      108
REMARK 921   NORMALIZED FREE ENERGY PREDICTED BY IDOCK:   -5.34 KCAL/MOL
REMARK 922        TOTAL FREE ENERGY PREDICTED BY IDOCK:   -9.23 KCAL/MOL
REMARK 923 INTER-LIGAND FREE ENERGY PREDICTED BY IDOCK:   -8.21 KCAL/MOL
REMARK 924 INTRA-LIGAND FREE ENERGY PREDICTED BY IDOCK:   -1.02 KCAL/MOL
REMARK 927      BINDING AFFINITY PREDICTED BY RF-SCORE:    0.00 PKD
ROOT
HETATM    1  C   UNL     1      -5.687  10.081  70.800  1.00  0.00    -0.084 C  
HETATM    2  N   UNL     1      -7.107   9.835  71.007  1.00  0.00    -0.335 NA 
HETATM    3  H   UNL     1      -7.664  10.377  70.347  1.00  0.00     0.000 HD 
ENDROOT
BRANCH   2   4
HETATM    4  C   UNL     1      -7.479   8.414  70.955  1.00  0.00    -0.075 C  
BRANCH   4   5
HETATM    5  C   UNL     1      -8.077   7.918  69.611  1.00  0.00    -0.117 C  
HETATM    6  C   UNL     1      -7.142   7.026  68.813  1.00  0.00    -0.089 C  
HETATM    7  C   UNL     1      -7.857   6.563  67.544  1.00  0.00    -0.113 C  
HETATM    8  C   UNL     1      -8.558   7.719  66.798  1.00  0.00    -0.132 C  
HETATM    9  C   UNL     1      -9.298   8.765  67.748  1.00  0.00    -0.141 C  
HETATM   10  N   UNL     1      -9.349   7.162  65.677  1.00  0.00    -0.362 NA 
HETATM   11  O   UNL     1      -8.397   9.078  68.807  1.00  0.00    -0.119 OA 
HETATM   12  H1  UNL     1      -9.812   7.925  65.184  1.00  0.00     0.000 HD 
HETATM   13  H2  UNL     1     -10.006   6.443  65.983  1.00  0.00     0.000 HD 
BRANCH   9  14
HETATM   14  O   UNL     1     -10.608   8.385  68.232  1.00  0.00    -0.192 OA 
BRANCH  14  15
HETATM   15  C   UNL     1     -10.896   8.495  69.689  1.00  0.00    -0.151 C  
HETATM   16  C   UNL     1     -11.759   7.342  70.270  1.00  0.00    -0.072 C  
HETATM   17  N   UNL     1     -10.969   6.097  70.359  1.00  0.00    -0.312 NA 
HETATM   18  C   UNL     1     -12.277   7.655  71.689  1.00  0.00    -0.346 C  
HETATM   19  H2  UNL     1     -10.109   6.231  70.891  1.00  0.00     0.000 HD 
HETATM   20  H1  UNL     1     -11.536   5.340  70.740  1.00  0.00     0.000 HD 
HETATM   21  C   UNL     1     -13.061   8.974  71.761  1.00  0.00    -0.381 C  
HETATM   22  N   UNL     1     -13.703   9.120  73.072  1.00  0.00    -1.009 NA 
HETATM   23  C   UNL     1     -12.144  10.175  71.463  1.00  0.00    -0.351 C  
HETATM   24  C   UNL     1     -11.404   9.912  70.114  1.00  0.00    -0.275 C  
HETATM   25  O   UNL     1     -10.324  10.865  69.975  1.00  0.00    -0.423 OA 
HETATM   26  H1  UNL     1     -14.223   9.995  73.120  1.00  0.00     0.000 HD 
HETATM   27  H2  UNL     1     -13.030   9.036  73.834  1.00  0.00     0.000 HD 
HETATM   28  H   UNL     1     -10.632  11.726  70.234  1.00  0.00     0.000 HD 
BRANCH  23  29
HETATM   29  O   UNL     1     -12.947  11.372  71.253  1.00  0.00    -0.385 OA 
BRANCH  29  30
HETATM   30  C   UNL     1     -12.591  12.652  71.815  1.00  0.00    -0.016 C  
HETATM   31  O   UNL     1     -13.299  13.024  73.000  1.00  0.00    -0.307 OA 
HETATM   32  C   UNL     1     -12.785  14.236  73.575  1.00  0.00     0.183 C  
HETATM   33  C   UNL     1     -12.927  15.467  72.642  1.00  0.00    -0.422 C  
HETATM   34  C   UNL     1     -12.176  15.169  71.315  1.00  0.00    -0.333 C  
HETATM   35  O   UNL     1     -14.321  15.684  72.372  1.00  0.00    -0.546 OA 
HETATM   36  C   UNL     1     -12.382  16.706  73.368  1.00  0.00    -0.323 C  
HETATM   37  H   UNL     1     -11.767  14.181  68.945  1.00  0.00     0.000 HD 
HETATM   38  H   UNL     1     -14.408  16.437  71.800  1.00  0.00     0.000 HD 
HETATM   39  C   UNL     1     -12.620  13.787  70.723  1.00  0.00    -0.340 C  
HETATM   40  O   UNL     1     -11.749  13.496  69.603  1.00  0.00    -0.291 OA 
BRANCH  34  41
HETATM   41  N   UNL     1     -12.082  16.233  70.270  1.00  0.00    -0.304 NA 
HETATM   42  C   UNL     1     -10.773  16.801  69.998  1.00  0.00    -0.049 C  
HETATM   43  H   UNL     1     -12.909  16.549  69.764  1.00  0.00     0.000 HD 
ENDBRANCH  34  41
ENDBRANCH  29  30
ENDBRANCH  23  29
ENDBRANCH  14  15
ENDBRANCH   9  14
ENDBRANCH   4   5
ENDBRANCH   2   4
TORSDOF 7
ENDMDL
MODEL      109
REMARK 921   NORMALIZED FREE ENERGY PREDICTED BY IDOCK:   -5.33 KCAL/MOL
REMARK 922        TOTAL FREE ENERGY PREDICTED BY IDOCK:   -9.22 KCAL/MOL
REMARK 923 INTER-LIGAND FREE ENERGY PREDICTED BY IDOCK:   -7.77 KCAL/MOL
REMARK 924 INTRA-LIGAND FREE ENERGY PREDICTED BY IDOCK:   -1.45 KCAL/MOL
REMARK 927      BINDING AFFINITY PREDICTED BY RF-SCORE:    0.00 PKD
ROOT
HETATM    1  C   UNL     1     -13.276   9.144  72.262  1.00  0.00    -0.461 C  
HETATM    2  N   UNL     1     -12.691  10.371  71.741  1.00  0.00    -0.435 NA 
HETATM    3  H   UNL     1     -12.358  10.233  70.788  1.00  0.00     0.000 HD 
ENDROOT
BRANCH   2   4
HETATM    4  C   UNL     1     -13.588  11.535  71.812  1.00  0.00     0.094 C  
BRANCH   4   5
HETATM    5  C   UNL     1     -12.912  12.923  71.645  1.00  0.00    -0.313 C  
HETATM    6  C   UNL     1     -13.468  13.992  72.567  1.00  0.00    -0.661 C  
HETATM    7  C   UNL     1     -12.694  15.292  72.347  1.00  0.00    -0.449 C  
HETATM    8  C   UNL     1     -12.530  15.644  70.853  1.00  0.00    -0.445 C  
HETATM    9  C   UNL     1     -12.205  14.397  69.913  1.00  0.00    -0.340 C  
HETATM   10  N   UNL     1     -11.641  16.823  70.728  1.00  0.00    -0.314 NA 
HETATM   11  O   UNL     1     -13.103  13.353  70.278  1.00  0.00     0.129 OA 
HETATM   12  H1  UNL     1     -11.533  17.055  69.741  1.00  0.00     0.000 HD 
HETATM   13  H2  UNL     1     -10.744  16.684  71.194  1.00  0.00     0.000 HD 
BRANCH   9  14
HETATM   14  O   UNL     1     -10.828  13.954  69.879  1.00  0.00     0.045 OA 
BRANCH  14  15
HETATM   15  C   UNL     1     -10.221  13.591  68.568  1.00  0.00    -0.229 C  
HETATM   16  C   UNL     1     -10.713  14.442  67.366  1.00  0.00    -0.280 C  
HETATM   17  N   UNL     1     -10.146  15.805  67.429  1.00  0.00    -0.242 NA 
HETATM   18  C   UNL     1     -10.293  13.839  66.009  1.00  0.00    -0.311 C  
HETATM   19  H2  UNL     1      -9.128  15.790  67.492  1.00  0.00     0.000 HD 
HETATM   20  H1  UNL     1     -10.469  16.364  66.640  1.00  0.00     0.000 HD 
HETATM   21  C   UNL     1     -10.755  12.384  65.836  1.00  0.00    -0.266 C  
HETATM   22  N   UNL     1     -10.515  11.929  64.462  1.00  0.00    -0.279 NA 
HETATM   23  C   UNL     1     -10.053  11.460  66.849  1.00  0.00    -0.214 C  
HETATM   24  C   UNL     1     -10.246  12.055  68.279  1.00  0.00    -0.206 C  
HETATM   25  O   UNL     1      -9.347  11.384  69.194  1.00  0.00    -0.408 OA 
HETATM   26  H1  UNL     1     -10.822  10.963  64.346  1.00  0.00     0.000 HD 
HETATM   27  H2  UNL     1      -9.541  12.053  64.186  1.00  0.00     0.000 HD 
HETATM   28  H   UNL     1      -9.362  10.450  69.018  1.00  0.00     0.000 HD 
BRANCH  23  29
HETATM   29  O   UNL     1     -10.704  10.156  66.865  1.00  0.00    -0.226 OA 
BRANCH  29  30
HETATM   30  C   UNL     1      -9.967   8.925  67.012  1.00  0.00    -0.233 C  
HETATM   31  O   UNL     1      -9.656   8.243  65.794  1.00  0.00    -0.080 OA 
HETATM   32  C   UNL     1      -8.799   7.112  66.016  1.00  0.00    -0.131 C  
HETATM   33  C   UNL     1      -9.444   6.021  66.911  1.00  0.00    -0.134 C  
HETATM   34  C   UNL     1      -9.816   6.660  68.277  1.00  0.00    -0.137 C  
HETATM   35  O   UNL     1     -10.632   5.535  66.264  1.00  0.00    -0.411 OA 
HETATM   36  C   UNL     1      -8.461   4.848  67.050  1.00  0.00    -0.105 C  
HETATM   37  H   UNL     1     -11.195   8.030  70.003  1.00  0.00     0.000 HD 
HETATM   38  H   UNL     1     -11.026   4.867  66.812  1.00  0.00     0.000 HD 
HETATM   39  C   UNL     1     -10.644   7.974  68.069  1.00  0.00    -0.128 C  
HETATM   40  O   UNL     1     -10.787   8.604  69.365  1.00  0.00    -0.197 OA 
BRANCH  34  41
HETATM   41  N   UNL     1     -10.376   5.798  69.363  1.00  0.00    -0.235 NA 
HETATM   42  C   UNL     1      -9.464   5.322  70.388  1.00  0.00    -0.166 C  
HETATM   43  H   UNL     1     -11.366   5.553  69.382  1.00  0.00     0.000 HD 
ENDBRANCH  34  41
ENDBRANCH  29  30
ENDBRANCH  23  29
ENDBRANCH  14  15
ENDBRANCH   9  14
ENDBRANCH   4   5
ENDBRANCH   2   4
TORSDOF 7
ENDMDL
MODEL      110
REMARK 921   NORMALIZED FREE ENERGY PREDICTED BY IDOCK:   -5.31 KCAL/MOL
REMARK 922        TOTAL FREE ENERGY PREDICTED BY IDOCK:   -9.20 KCAL/MOL
REMARK 923 INTER-LIGAND FREE ENERGY PREDICTED BY IDOCK:   -8.18 KCAL/MOL
REMARK 924 INTRA-LIGAND FREE ENERGY PREDICTED BY IDOCK:   -1.02 KCAL/MOL
REMARK 927      BINDING AFFINITY PREDICTED BY RF-SCORE:    0.00 PKD
ROOT
HETATM    1  C   UNL     1     -10.001   4.340  64.929  1.00  0.00    -0.168 C  
HETATM    2  N   UNL     1      -8.997   4.657  65.934  1.00  0.00    -0.123 NA 
HETATM    3  H   UNL     1      -8.063   4.441  65.587  1.00  0.00     0.000 HD 
ENDROOT
BRANCH   2   4
HETATM    4  C   UNL     1      -9.061   6.043  66.422  1.00  0.00    -0.150 C  
BRANCH   4   5
HETATM    5  C   UNL     1      -9.560   6.226  67.881  1.00  0.00    -0.118 C  
HETATM    6  C   UNL     1      -9.995   4.934  68.548  1.00  0.00    -0.185 C  
HETATM    7  C   UNL     1     -10.413   5.233  69.988  1.00  0.00    -0.351 C  
HETATM    8  C   UNL     1     -11.357   6.450  70.094  1.00  0.00    -0.420 C  
HETATM    9  C   UNL     1     -10.967   7.672  69.146  1.00  0.00     0.021 C  
HETATM   10  N   UNL     1     -11.585   6.762  71.525  1.00  0.00    -0.283 NA 
HETATM   11  O   UNL     1     -10.688   7.130  67.859  1.00  0.00    -0.216 OA 
HETATM   12  H1  UNL     1     -12.208   7.566  71.595  1.00  0.00     0.000 HD 
HETATM   13  H2  UNL     1     -10.713   6.901  72.036  1.00  0.00     0.000 HD 
BRANCH   9  14
HETATM   14  O   UNL     1      -9.914   8.545  69.618  1.00  0.00    -0.185 OA 
BRANCH  14  15
HETATM   15  C   UNL     1     -10.242   9.964  69.931  1.00  0.00    -0.257 C  
HETATM   16  C   UNL     1     -11.694  10.201  70.430  1.00  0.00    -0.308 C  
HETATM   17  N   UNL     1     -11.860   9.692  71.807  1.00  0.00    -0.375 NA 
HETATM   18  C   UNL     1     -12.072  11.697  70.449  1.00  0.00    -0.462 C  
HETATM   19  H2  UNL     1     -11.171  10.092  72.444  1.00  0.00     0.000 HD 
HETATM   20  H1  UNL     1     -12.813   9.848  72.134  1.00  0.00     0.000 HD 
HETATM   21  C   UNL     1     -11.875  12.379  69.087  1.00  0.00    -0.300 C  
HETATM   22  N   UNL     1     -12.438  13.733  69.104  1.00  0.00    -0.318 NA 
HETATM   23  C   UNL     1     -10.385  12.410  68.698  1.00  0.00    -0.182 C  
HETATM   24  C   UNL     1      -9.812  10.962  68.808  1.00  0.00    -0.196 C  
HETATM   25  O   UNL     1      -8.368  11.021  68.751  1.00  0.00    -0.143 OA 
HETATM   26  H1  UNL     1     -12.308  14.187  68.200  1.00  0.00     0.000 HD 
HETATM   27  H2  UNL     1     -12.057  14.293  69.867  1.00  0.00     0.000 HD 
HETATM   28  H   UNL     1      -8.106  11.628  68.068  1.00  0.00     0.000 HD 
BRANCH  23  29
HETATM   29  O   UNL     1     -10.245  12.793  67.299  1.00  0.00    -0.229 OA 
BRANCH  29  30
HETATM   30  C   UNL     1      -9.424  13.902  66.878  1.00  0.00    -0.258 C  
HETATM   31  O   UNL     1      -8.273  14.160  67.687  1.00  0.00    -0.158 OA 
HETATM   32  C   UNL     1      -7.436  15.179  67.119  1.00  0.00    -0.141 C  
HETATM   33  C   UNL     1      -8.138  16.557  67.005  1.00  0.00    -0.201 C  
HETATM   34  C   UNL     1      -9.410  16.390  66.128  1.00  0.00    -0.325 C  
HETATM   35  O   UNL     1      -8.511  16.997  68.320  1.00  0.00    -0.217 OA 
HETATM   36  C   UNL     1      -7.144  17.574  66.424  1.00  0.00    -0.321 C  
HETATM   37  H   UNL     1     -11.863  15.770  65.531  1.00  0.00     0.000 HD 
HETATM   38  H   UNL     1      -8.941  17.841  68.250  1.00  0.00     0.000 HD 
HETATM   39  C   UNL     1     -10.288  15.198  66.642  1.00  0.00    -0.274 C  
HETATM   40  O   UNL     1     -11.343  14.988  65.673  1.00  0.00    -0.345 OA 
BRANCH  34  41
HETATM   41  N   UNL     1     -10.228  17.594  65.784  1.00  0.00    -0.597 NA 
HETATM   42  C   UNL     1     -10.534  18.531  66.849  1.00  0.00    -0.396 C  
HETATM   43  H   UNL     1     -10.559  17.751  64.832  1.00  0.00     0.000 HD 
ENDBRANCH  34  41
ENDBRANCH  29  30
ENDBRANCH  23  29
ENDBRANCH  14  15
ENDBRANCH   9  14
ENDBRANCH   4   5
ENDBRANCH   2   4
TORSDOF 7
ENDMDL
MODEL      111
REMARK 921   NORMALIZED FREE ENERGY PREDICTED BY IDOCK:   -5.28 KCAL/MOL
REMARK 922        TOTAL FREE ENERGY PREDICTED BY IDOCK:   -9.15 KCAL/MOL
REMARK 923 INTER-LIGAND FREE ENERGY PREDICTED BY IDOCK:   -8.05 KCAL/MOL
REMARK 924 INTRA-LIGAND FREE ENERGY PREDICTED BY IDOCK:   -1.10 KCAL/MOL
REMARK 927      BINDING AFFINITY PREDICTED BY RF-SCORE:    0.00 PKD
ROOT
HETATM    1  C   UNL     1     -10.409   7.168  68.804  1.00  0.00    -0.192 C  
HETATM    2  N   UNL     1      -9.077   7.094  69.386  1.00  0.00    -0.146 NA 
HETATM    3  H   UNL     1      -8.672   6.169  69.238  1.00  0.00     0.000 HD 
ENDROOT
BRANCH   2   4
HETATM    4  C   UNL     1      -8.161   8.142  68.913  1.00  0.00    -0.124 C  
BRANCH   4   5
HETATM    5  C   UNL     1      -8.565   8.849  67.590  1.00  0.00    -0.124 C  
HETATM    6  C   UNL     1      -8.131   8.107  66.339  1.00  0.00    -0.106 C  
HETATM    7  C   UNL     1      -8.627   8.869  65.111  1.00  0.00    -0.208 C  
HETATM    8  C   UNL     1      -8.333  10.383  65.188  1.00  0.00    -0.165 C  
HETATM    9  C   UNL     1      -8.566  11.028  66.628  1.00  0.00    -0.157 C  
HETATM   10  N   UNL     1      -8.980  11.061  64.041  1.00  0.00    -0.361 NA 
HETATM   11  O   UNL     1      -7.955  10.160  67.578  1.00  0.00    -0.106 OA 
HETATM   12  H1  UNL     1      -8.786  12.060  64.092  1.00  0.00     0.000 HD 
HETATM   13  H2  UNL     1      -9.979  10.862  63.985  1.00  0.00     0.000 HD 
BRANCH   9  14
HETATM   14  O   UNL     1      -9.932  11.354  66.976  1.00  0.00    -0.196 OA 
BRANCH  14  15
HETATM   15  C   UNL     1     -10.356  12.782  66.961  1.00  0.00    -0.234 C  
HETATM   16  C   UNL     1     -11.270  13.176  65.769  1.00  0.00    -0.286 C  
HETATM   17  N   UNL     1     -12.624  12.611  65.944  1.00  0.00    -0.427 NA 
HETATM   18  C   UNL     1     -11.430  14.704  65.632  1.00  0.00    -0.340 C  
HETATM   19  H2  UNL     1     -13.033  12.878  66.840  1.00  0.00     0.000 HD 
HETATM   20  H1  UNL     1     -13.224  12.870  65.162  1.00  0.00     0.000 HD 
HETATM   21  C   UNL     1     -10.084  15.437  65.515  1.00  0.00    -0.373 C  
HETATM   22  N   UNL     1     -10.295  16.850  65.182  1.00  0.00    -0.592 NA 
HETATM   23  C   UNL     1      -9.268  15.296  66.814  1.00  0.00    -0.250 C  
HETATM   24  C   UNL     1      -9.174  13.782  67.180  1.00  0.00    -0.243 C  
HETATM   25  O   UNL     1      -8.688  13.654  68.537  1.00  0.00    -0.243 OA 
HETATM   26  H1  UNL     1      -9.403  17.336  65.104  1.00  0.00     0.000 HD 
HETATM   27  H2  UNL     1     -10.920  17.307  65.847  1.00  0.00     0.000 HD 
HETATM   28  H   UNL     1      -7.970  14.262  68.670  1.00  0.00     0.000 HD 
BRANCH  23  29
HETATM   29  O   UNL     1      -7.899  15.742  66.590  1.00  0.00    -0.234 OA 
BRANCH  29  30
HETATM   30  C   UNL     1      -7.299  16.812  67.348  1.00  0.00    -0.160 C  
HETATM   31  O   UNL     1      -7.562  16.795  68.753  1.00  0.00    -0.217 OA 
HETATM   32  C   UNL     1      -6.813  17.803  69.452  1.00  0.00    -0.128 C  
HETATM   33  C   UNL     1      -7.171  19.247  69.014  1.00  0.00    -0.353 C  
HETATM   34  C   UNL     1      -6.910  19.378  67.488  1.00  0.00    -0.204 C  
HETATM   35  O   UNL     1      -8.561  19.483  69.290  1.00  0.00    -0.221 OA 
HETATM   36  C   UNL     1      -6.343  20.238  69.846  1.00  0.00    -0.318 C  
HETATM   37  H   UNL     1      -7.353  19.144  64.936  1.00  0.00     0.000 HD 
HETATM   38  H   UNL     1      -8.780  20.367  69.022  1.00  0.00     0.000 HD 
HETATM   39  C   UNL     1      -7.608  18.215  66.702  1.00  0.00    -0.231 C  
HETATM   40  O   UNL     1      -7.167  18.298  65.326  1.00  0.00    -0.494 OA 
BRANCH  34  41
HETATM   41  N   UNL     1      -7.091  20.705  66.823  1.00  0.00    -0.362 NA 
HETATM   42  C   UNL     1      -5.907  21.376  66.316  1.00  0.00    -0.259 C  
HETATM   43  H   UNL     1      -8.017  21.125  66.729  1.00  0.00     0.000 HD 
ENDBRANCH  34  41
ENDBRANCH  29  30
ENDBRANCH  23  29
ENDBRANCH  14  15
ENDBRANCH   9  14
ENDBRANCH   4   5
ENDBRANCH   2   4
TORSDOF 7
ENDMDL
MODEL      112
REMARK 921   NORMALIZED FREE ENERGY PREDICTED BY IDOCK:   -5.27 KCAL/MOL
REMARK 922        TOTAL FREE ENERGY PREDICTED BY IDOCK:   -9.14 KCAL/MOL
REMARK 923 INTER-LIGAND FREE ENERGY PREDICTED BY IDOCK:   -8.37 KCAL/MOL
REMARK 924 INTRA-LIGAND FREE ENERGY PREDICTED BY IDOCK:   -0.77 KCAL/MOL
REMARK 927      BINDING AFFINITY PREDICTED BY RF-SCORE:    0.00 PKD
ROOT
HETATM    1  C   UNL     1     -11.481   8.977  71.702  1.00  0.00    -0.361 C  
HETATM    2  N   UNL     1     -11.049  10.169  70.987  1.00  0.00    -0.321 NA 
HETATM    3  H   UNL     1     -10.194   9.982  70.464  1.00  0.00     0.000 HD 
ENDROOT
BRANCH   2   4
HETATM    4  C   UNL     1     -12.079  10.741  70.107  1.00  0.00    -0.346 C  
BRANCH   4   5
HETATM    5  C   UNL     1     -11.720  12.092  69.431  1.00  0.00    -0.340 C  
HETATM    6  C   UNL     1     -12.371  13.298  70.083  1.00  0.00    -0.306 C  
HETATM    7  C   UNL     1     -11.904  14.564  69.366  1.00  0.00    -0.367 C  
HETATM    8  C   UNL     1     -11.986  14.446  67.829  1.00  0.00    -0.333 C  
HETATM    9  C   UNL     1     -11.527  13.032  67.251  1.00  0.00    -0.332 C  
HETATM   10  N   UNL     1     -11.372  15.647  67.217  1.00  0.00    -0.196 NA 
HETATM   11  O   UNL     1     -12.149  12.031  68.051  1.00  0.00    -0.514 OA 
HETATM   12  H1  UNL     1     -11.426  15.569  66.202  1.00  0.00     0.000 HD 
HETATM   13  H2  UNL     1     -10.419  15.806  67.544  1.00  0.00     0.000 HD 
BRANCH   9  14
HETATM   14  O   UNL     1     -10.102  12.822  67.113  1.00  0.00    -0.230 OA 
BRANCH  14  15
HETATM   15  C   UNL     1      -9.568  12.343  65.808  1.00  0.00    -0.156 C  
HETATM   16  C   UNL     1     -10.608  12.302  64.656  1.00  0.00    -0.303 C  
HETATM   17  N   UNL     1     -10.934  13.670  64.201  1.00  0.00    -0.572 NA 
HETATM   18  C   UNL     1     -10.092  11.526  63.426  1.00  0.00    -0.454 C  
HETATM   19  H2  UNL     1     -10.098  14.191  63.938  1.00  0.00     0.000 HD 
HETATM   20  H1  UNL     1     -11.617  13.642  63.445  1.00  0.00     0.000 HD 
HETATM   21  C   UNL     1      -9.643  10.097  63.769  1.00  0.00    -0.223 C  
HETATM   22  N   UNL     1      -9.360   9.340  62.545  1.00  0.00    -0.569 NA 
HETATM   23  C   UNL     1      -8.415  10.115  64.699  1.00  0.00    -0.173 C  
HETATM   24  C   UNL     1      -8.734  11.026  65.925  1.00  0.00    -0.178 C  
HETATM   25  O   UNL     1      -7.506  11.302  66.639  1.00  0.00    -0.142 OA 
HETATM   26  H1  UNL     1      -9.062   8.391  62.772  1.00  0.00     0.000 HD 
HETATM   27  H2  UNL     1      -8.682   9.818  61.952  1.00  0.00     0.000 HD 
HETATM   28  H   UNL     1      -6.999  10.501  66.711  1.00  0.00     0.000 HD 
BRANCH  23  29
HETATM   29  O   UNL     1      -8.182   8.782  65.238  1.00  0.00    -0.127 OA 
BRANCH  29  30
HETATM   30  C   UNL     1      -9.090   8.152  66.165  1.00  0.00    -0.183 C  
HETATM   31  O   UNL     1      -9.155   8.745  67.464  1.00  0.00    -0.133 OA 
HETATM   32  C   UNL     1     -10.184   8.154  68.273  1.00  0.00    -0.206 C  
HETATM   33  C   UNL     1      -9.954   6.645  68.553  1.00  0.00    -0.150 C  
HETATM   34  C   UNL     1      -9.878   5.898  67.192  1.00  0.00    -0.143 C  
HETATM   35  O   UNL     1      -8.714   6.490  69.261  1.00  0.00    -0.129 OA 
HETATM   36  C   UNL     1     -11.088   6.128  69.452  1.00  0.00    -0.479 C  
HETATM   37  H   UNL     1      -8.835   5.025  64.976  1.00  0.00     0.000 HD 
HETATM   38  H   UNL     1      -8.574   5.566  69.433  1.00  0.00     0.000 HD 
HETATM   39  C   UNL     1      -8.854   6.596  66.232  1.00  0.00    -0.147 C  
HETATM   40  O   UNL     1      -8.978   5.963  64.935  1.00  0.00     0.030 OA 
BRANCH  34  41
HETATM   41  N   UNL     1      -9.748   4.409  67.179  1.00  0.00    -0.197 NA 
HETATM   42  C   UNL     1      -8.510   3.832  67.671  1.00  0.00    -0.095 C  
HETATM   43  H   UNL     1     -10.506   3.818  66.835  1.00  0.00     0.000 HD 
ENDBRANCH  34  41
ENDBRANCH  29  30
ENDBRANCH  23  29
ENDBRANCH  14  15
ENDBRANCH   9  14
ENDBRANCH   4   5
ENDBRANCH   2   4
TORSDOF 7
ENDMDL
MODEL      113
REMARK 921   NORMALIZED FREE ENERGY PREDICTED BY IDOCK:   -5.26 KCAL/MOL
REMARK 922        TOTAL FREE ENERGY PREDICTED BY IDOCK:   -9.13 KCAL/MOL
REMARK 923 INTER-LIGAND FREE ENERGY PREDICTED BY IDOCK:   -8.69 KCAL/MOL
REMARK 924 INTRA-LIGAND FREE ENERGY PREDICTED BY IDOCK:   -0.44 KCAL/MOL
REMARK 927      BINDING AFFINITY PREDICTED BY RF-SCORE:    0.00 PKD
ROOT
HETATM    1  C   UNL     1     -13.166  11.372  71.771  1.00  0.00    -0.367 C  
HETATM    2  N   UNL     1     -13.771  12.371  72.639  1.00  0.00    -0.564 NA 
HETATM    3  H   UNL     1     -13.446  12.255  73.599  1.00  0.00     0.000 HD 
ENDROOT
BRANCH   2   4
HETATM    4  C   UNL     1     -13.568  13.755  72.187  1.00  0.00    -0.519 C  
BRANCH   4   5
HETATM    5  C   UNL     1     -12.371  13.985  71.225  1.00  0.00    -0.355 C  
HETATM    6  C   UNL     1     -11.554  15.224  71.545  1.00  0.00    -0.456 C  
HETATM    7  C   UNL     1     -10.383  15.315  70.568  1.00  0.00    -0.008 C  
HETATM    8  C   UNL     1     -10.810  15.095  69.101  1.00  0.00    -0.251 C  
HETATM    9  C   UNL     1     -11.885  13.935  68.893  1.00  0.00    -0.358 C  
HETATM   10  N   UNL     1      -9.601  15.044  68.247  1.00  0.00    -0.206 NA 
HETATM   11  O   UNL     1     -12.894  14.118  69.883  1.00  0.00    -0.171 OA 
HETATM   12  H1  UNL     1      -9.884  14.899  67.278  1.00  0.00     0.000 HD 
HETATM   13  H2  UNL     1      -8.930  14.344  68.564  1.00  0.00     0.000 HD 
BRANCH   9  14
HETATM   14  O   UNL     1     -11.377  12.580  68.867  1.00  0.00    -0.258 OA 
BRANCH  14  15
HETATM   15  C   UNL     1     -10.605  12.125  67.677  1.00  0.00    -0.210 C  
HETATM   16  C   UNL     1     -11.471  11.560  66.518  1.00  0.00    -0.102 C  
HETATM   17  N   UNL     1     -12.192  12.651  65.830  1.00  0.00    -0.597 NA 
HETATM   18  C   UNL     1     -10.623  10.834  65.453  1.00  0.00    -0.224 C  
HETATM   19  H2  UNL     1     -11.558  13.381  65.508  1.00  0.00     0.000 HD 
HETATM   20  H1  UNL     1     -12.761  12.280  65.069  1.00  0.00     0.000 HD 
HETATM   21  C   UNL     1      -9.756   9.712  66.044  1.00  0.00    -0.264 C  
HETATM   22  N   UNL     1      -9.134   8.925  64.974  1.00  0.00    -0.419 NA 
HETATM   23  C   UNL     1      -8.687  10.287  66.993  1.00  0.00    -0.129 C  
HETATM   24  C   UNL     1      -9.394  11.204  68.039  1.00  0.00    -0.166 C  
HETATM   25  O   UNL     1      -8.394  11.986  68.733  1.00  0.00    -0.323 OA 
HETATM   26  H1  UNL     1      -8.558   8.180  65.366  1.00  0.00     0.000 HD 
HETATM   27  H2  UNL     1      -8.606   9.513  64.329  1.00  0.00     0.000 HD 
HETATM   28  H   UNL     1      -7.657  11.427  68.953  1.00  0.00     0.000 HD 
BRANCH  23  29
HETATM   29  O   UNL     1      -8.071   9.209  67.756  1.00  0.00    -0.104 OA 
BRANCH  29  30
HETATM   30  C   UNL     1      -8.829   8.352  68.635  1.00  0.00    -0.136 C  
HETATM   31  O   UNL     1     -10.059   7.854  68.102  1.00  0.00    -0.178 OA 
HETATM   32  C   UNL     1     -10.675   6.897  68.978  1.00  0.00    -0.230 C  
HETATM   33  C   UNL     1     -11.068   7.491  70.357  1.00  0.00    -0.261 C  
HETATM   34  C   UNL     1      -9.788   8.056  71.032  1.00  0.00    -0.174 C  
HETATM   35  O   UNL     1     -12.016   8.551  70.151  1.00  0.00    -0.426 OA 
HETATM   36  C   UNL     1     -11.749   6.396  71.193  1.00  0.00    -0.359 C  
HETATM   37  H   UNL     1      -7.868   9.735  71.536  1.00  0.00     0.000 HD 
HETATM   38  H   UNL     1     -12.256   8.914  70.995  1.00  0.00     0.000 HD 
HETATM   39  C   UNL     1      -9.017   9.007  70.054  1.00  0.00    -0.175 C  
HETATM   40  O   UNL     1      -7.754   9.339  70.680  1.00  0.00    -0.126 OA 
BRANCH  34  41
HETATM   41  N   UNL     1      -9.873   8.609  72.418  1.00  0.00    -0.284 NA 
HETATM   42  C   UNL     1      -9.429   7.764  73.513  1.00  0.00    -0.284 C  
HETATM   43  H   UNL     1     -10.231   9.549  72.589  1.00  0.00     0.000 HD 
ENDBRANCH  34  41
ENDBRANCH  29  30
ENDBRANCH  23  29
ENDBRANCH  14  15
ENDBRANCH   9  14
ENDBRANCH   4   5
ENDBRANCH   2   4
TORSDOF 7
ENDMDL
MODEL      114
REMARK 921   NORMALIZED FREE ENERGY PREDICTED BY IDOCK:   -5.26 KCAL/MOL
REMARK 922        TOTAL FREE ENERGY PREDICTED BY IDOCK:   -9.12 KCAL/MOL
REMARK 923 INTER-LIGAND FREE ENERGY PREDICTED BY IDOCK:   -9.77 KCAL/MOL
REMARK 924 INTRA-LIGAND FREE ENERGY PREDICTED BY IDOCK:    0.65 KCAL/MOL
REMARK 927      BINDING AFFINITY PREDICTED BY RF-SCORE:    0.00 PKD
ROOT
HETATM    1  C   UNL     1      -9.499   5.409  66.070  1.00  0.00    -0.146 C  
HETATM    2  N   UNL     1     -10.332   5.308  67.259  1.00  0.00    -0.210 NA 
HETATM    3  H   UNL     1      -9.815   4.872  68.023  1.00  0.00     0.000 HD 
ENDROOT
BRANCH   2   4
HETATM    4  C   UNL     1     -10.911   6.588  67.691  1.00  0.00    -0.337 C  
BRANCH   4   5
HETATM    5  C   UNL     1      -9.896   7.722  68.001  1.00  0.00    -0.163 C  
HETATM    6  C   UNL     1      -8.936   7.396  69.130  1.00  0.00    -0.135 C  
HETATM    7  C   UNL     1      -7.960   8.559  69.305  1.00  0.00    -0.111 C  
HETATM    8  C   UNL     1      -8.665   9.932  69.335  1.00  0.00    -0.179 C  
HETATM    9  C   UNL     1      -9.851  10.087  68.279  1.00  0.00    -0.146 C  
HETATM   10  N   UNL     1      -7.641  11.002  69.349  1.00  0.00    -0.320 NA 
HETATM   11  O   UNL     1     -10.643   8.906  68.364  1.00  0.00    -0.206 OA 
HETATM   12  H1  UNL     1      -8.107  11.909  69.369  1.00  0.00     0.000 HD 
HETATM   13  H2  UNL     1      -6.983  10.921  68.574  1.00  0.00     0.000 HD 
BRANCH   9  14
HETATM   14  O   UNL     1      -9.469  10.400  66.919  1.00  0.00    -0.163 OA 
BRANCH  14  15
HETATM   15  C   UNL     1     -10.512  10.884  65.972  1.00  0.00    -0.225 C  
HETATM   16  C   UNL     1     -10.018  11.098  64.515  1.00  0.00    -0.296 C  
HETATM   17  N   UNL     1      -9.790   9.800  63.849  1.00  0.00    -0.425 NA 
HETATM   18  C   UNL     1     -11.039  11.876  63.659  1.00  0.00    -0.517 C  
HETATM   19  H2  UNL     1     -10.618   9.205  63.884  1.00  0.00     0.000 HD 
HETATM   20  H1  UNL     1      -9.466   9.941  62.892  1.00  0.00     0.000 HD 
HETATM   21  C   UNL     1     -11.429  13.228  64.277  1.00  0.00    -0.396 C  
HETATM   22  N   UNL     1     -12.232  14.012  63.332  1.00  0.00    -1.112 NA 
HETATM   23  C   UNL     1     -12.184  13.027  65.604  1.00  0.00    -0.466 C  
HETATM   24  C   UNL     1     -11.334  12.095  66.523  1.00  0.00    -0.350 C  
HETATM   25  O   UNL     1     -12.153  11.649  67.630  1.00  0.00    -0.615 OA 
HETATM   26  H1  UNL     1     -12.491  14.909  63.742  1.00  0.00     0.000 HD 
HETATM   27  H2  UNL     1     -13.049  13.493  63.008  1.00  0.00     0.000 HD 
HETATM   28  H   UNL     1     -12.653  12.385  67.964  1.00  0.00     0.000 HD 
BRANCH  23  29
HETATM   29  O   UNL     1     -12.291  14.298  66.310  1.00  0.00    -0.443 OA 
BRANCH  29  30
HETATM   30  C   UNL     1     -11.137  15.094  66.649  1.00  0.00    -0.308 C  
HETATM   31  O   UNL     1     -10.238  15.369  65.571  1.00  0.00    -0.331 OA 
HETATM   32  C   UNL     1      -9.201  16.284  65.957  1.00  0.00    -0.316 C  
HETATM   33  C   UNL     1      -8.288  15.736  67.085  1.00  0.00    -0.202 C  
HETATM   34  C   UNL     1      -9.172  15.412  68.321  1.00  0.00    -0.188 C  
HETATM   35  O   UNL     1      -7.646  14.538  66.620  1.00  0.00    -0.213 OA 
HETATM   36  C   UNL     1      -7.198  16.775  67.390  1.00  0.00    -0.187 C  
HETATM   37  H   UNL     1     -10.812  14.070  69.827  1.00  0.00     0.000 HD 
HETATM   38  H   UNL     1      -7.087  14.203  67.311  1.00  0.00     0.000 HD 
HETATM   39  C   UNL     1     -10.392  14.517  67.912  1.00  0.00    -0.231 C  
HETATM   40  O   UNL     1     -11.261  14.418  69.066  1.00  0.00    -0.240 OA 
BRANCH  34  41
HETATM   41  N   UNL     1      -8.524  14.950  69.586  1.00  0.00    -0.443 NA 
HETATM   42  C   UNL     1      -7.141  15.328  69.816  1.00  0.00    -0.154 C  
HETATM   43  H   UNL     1      -9.037  14.387  70.265  1.00  0.00     0.000 HD 
ENDBRANCH  34  41
ENDBRANCH  29  30
ENDBRANCH  23  29
ENDBRANCH  14  15
ENDBRANCH   9  14
ENDBRANCH   4   5
ENDBRANCH   2   4
TORSDOF 7
ENDMDL
MODEL      115
REMARK 921   NORMALIZED FREE ENERGY PREDICTED BY IDOCK:   -5.25 KCAL/MOL
REMARK 922        TOTAL FREE ENERGY PREDICTED BY IDOCK:   -9.11 KCAL/MOL
REMARK 923 INTER-LIGAND FREE ENERGY PREDICTED BY IDOCK:   -8.20 KCAL/MOL
REMARK 924 INTRA-LIGAND FREE ENERGY PREDICTED BY IDOCK:   -0.91 KCAL/MOL
REMARK 927      BINDING AFFINITY PREDICTED BY RF-SCORE:    0.00 PKD
ROOT
HETATM    1  C   UNL     1     -10.279   7.348  68.121  1.00  0.00    -0.187 C  
HETATM    2  N   UNL     1     -10.771   8.220  69.177  1.00  0.00    -0.381 NA 
HETATM    3  H   UNL     1     -10.163   8.171  69.994  1.00  0.00     0.000 HD 
ENDROOT
BRANCH   2   4
HETATM    4  C   UNL     1     -10.960   9.616  68.756  1.00  0.00    -0.117 C  
BRANCH   4   5
HETATM    5  C   UNL     1     -11.504  10.584  69.842  1.00  0.00    -0.310 C  
HETATM    6  C   UNL     1     -12.521   9.953  70.774  1.00  0.00    -0.344 C  
HETATM    7  C   UNL     1     -12.941  10.981  71.824  1.00  0.00    -0.544 C  
HETATM    8  C   UNL     1     -13.284  12.356  71.210  1.00  0.00     0.008 C  
HETATM    9  C   UNL     1     -12.303  12.819  70.041  1.00  0.00    -0.112 C  
HETATM   10  N   UNL     1     -13.526  13.327  72.302  1.00  0.00    -0.561 NA 
HETATM   11  O   UNL     1     -12.130  11.703  69.173  1.00  0.00    -0.317 OA 
HETATM   12  H1  UNL     1     -13.753  14.235  71.896  1.00  0.00     0.000 HD 
HETATM   13  H2  UNL     1     -12.745  13.379  72.956  1.00  0.00     0.000 HD 
BRANCH   9  14
HETATM   14  O   UNL     1     -11.043  13.403  70.448  1.00  0.00     0.380 OA 
BRANCH  14  15
HETATM   15  C   UNL     1     -10.698  14.772  69.975  1.00  0.00    -0.074 C  
HETATM   16  C   UNL     1     -11.920  15.679  69.662  1.00  0.00    -0.349 C  
HETATM   17  N   UNL     1     -12.582  16.106  70.912  1.00  0.00    -0.489 NA 
HETATM   18  C   UNL     1     -11.520  16.959  68.899  1.00  0.00     0.270 C  
HETATM   19  H2  UNL     1     -11.928  16.558  71.552  1.00  0.00     0.000 HD 
HETATM   20  H1  UNL     1     -13.384  16.702  70.707  1.00  0.00     0.000 HD 
HETATM   21  C   UNL     1     -10.750  16.665  67.603  1.00  0.00    -0.306 C  
HETATM   22  N   UNL     1     -10.577  17.892  66.818  1.00  0.00    -0.296 NA 
HETATM   23  C   UNL     1      -9.388  16.014  67.909  1.00  0.00    -0.208 C  
HETATM   24  C   UNL     1      -9.624  14.783  68.839  1.00  0.00    -0.210 C  
HETATM   25  O   UNL     1      -8.354  14.352  69.382  1.00  0.00    -0.366 OA 
HETATM   26  H1  UNL     1     -10.066  17.697  65.957  1.00  0.00     0.000 HD 
HETATM   27  H2  UNL     1     -10.134  18.631  67.363  1.00  0.00     0.000 HD 
HETATM   28  H   UNL     1      -7.701  14.358  68.691  1.00  0.00     0.000 HD 
BRANCH  23  29
HETATM   29  O   UNL     1      -8.804  15.485  66.683  1.00  0.00    -0.242 OA 
BRANCH  29  30
HETATM   30  C   UNL     1      -9.540  14.636  65.779  1.00  0.00    -0.231 C  
HETATM   31  O   UNL     1     -10.803  15.147  65.343  1.00  0.00    -0.334 OA 
HETATM   32  C   UNL     1     -11.400  14.314  64.337  1.00  0.00    -0.273 C  
HETATM   33  C   UNL     1     -11.721  12.881  64.838  1.00  0.00    -0.348 C  
HETATM   34  C   UNL     1     -10.401  12.225  65.330  1.00  0.00    -0.269 C  
HETATM   35  O   UNL     1     -12.654  12.969  65.926  1.00  0.00    -0.480 OA 
HETATM   36  C   UNL     1     -12.387  12.094  63.699  1.00  0.00    -0.673 C  
HETATM   37  H   UNL     1      -8.426  11.691  66.935  1.00  0.00     0.000 HD 
HETATM   38  H   UNL     1     -12.850  12.092  66.232  1.00  0.00     0.000 HD 
HETATM   39  C   UNL     1      -9.654  13.167  66.335  1.00  0.00    -0.255 C  
HETATM   40  O   UNL     1      -8.358  12.576  66.599  1.00  0.00    -0.096 OA 
BRANCH  34  41
HETATM   41  N   UNL     1     -10.414  10.801  65.785  1.00  0.00    -0.222 NA 
HETATM   42  C   UNL     1      -9.628   9.842  65.029  1.00  0.00    -0.264 C  
HETATM   43  H   UNL     1     -10.957  10.513  66.599  1.00  0.00     0.000 HD 
ENDBRANCH  34  41
ENDBRANCH  29  30
ENDBRANCH  23  29
ENDBRANCH  14  15
ENDBRANCH   9  14
ENDBRANCH   4   5
ENDBRANCH   2   4
TORSDOF 7
ENDMDL
MODEL      116
REMARK 921   NORMALIZED FREE ENERGY PREDICTED BY IDOCK:   -5.25 KCAL/MOL
REMARK 922        TOTAL FREE ENERGY PREDICTED BY IDOCK:   -9.10 KCAL/MOL
REMARK 923 INTER-LIGAND FREE ENERGY PREDICTED BY IDOCK:   -8.38 KCAL/MOL
REMARK 924 INTRA-LIGAND FREE ENERGY PREDICTED BY IDOCK:   -0.72 KCAL/MOL
REMARK 927      BINDING AFFINITY PREDICTED BY RF-SCORE:    0.00 PKD
ROOT
HETATM    1  C   UNL     1      -7.838   7.512  71.221  1.00  0.00    -0.094 C  
HETATM    2  N   UNL     1      -8.509   7.627  69.935  1.00  0.00    -0.135 NA 
HETATM    3  H   UNL     1      -9.521   7.593  70.054  1.00  0.00     0.000 HD 
ENDROOT
BRANCH   2   4
HETATM    4  C   UNL     1      -8.119   8.816  69.163  1.00  0.00    -0.118 C  
BRANCH   4   5
HETATM    5  C   UNL     1      -8.492   8.800  67.656  1.00  0.00    -0.125 C  
HETATM    6  C   UNL     1      -8.103   7.519  66.941  1.00  0.00    -0.116 C  
HETATM    7  C   UNL     1      -8.565   7.601  65.486  1.00  0.00    -0.112 C  
HETATM    8  C   UNL     1      -8.193   8.940  64.816  1.00  0.00    -0.163 C  
HETATM    9  C   UNL     1      -8.384  10.221  65.747  1.00  0.00    -0.152 C  
HETATM   10  N   UNL     1      -8.810   8.996  63.470  1.00  0.00    -0.429 NA 
HETATM   11  O   UNL     1      -7.815   9.905  67.014  1.00  0.00    -0.101 OA 
HETATM   12  H1  UNL     1      -8.563   9.881  63.027  1.00  0.00     0.000 HD 
HETATM   13  H2  UNL     1      -9.818   8.844  63.498  1.00  0.00     0.000 HD 
BRANCH   9  14
HETATM   14  O   UNL     1      -9.730  10.741  65.861  1.00  0.00    -0.204 OA 
BRANCH  14  15
HETATM   15  C   UNL     1     -10.037  11.708  66.952  1.00  0.00    -0.211 C  
HETATM   16  C   UNL     1     -11.503  11.666  67.464  1.00  0.00    -0.289 C  
HETATM   17  N   UNL     1     -11.738  10.446  68.263  1.00  0.00    -0.741 NA 
HETATM   18  C   UNL     1     -11.844  12.871  68.364  1.00  0.00    -0.357 C  
HETATM   19  H2  UNL     1     -11.068  10.357  69.027  1.00  0.00     0.000 HD 
HETATM   20  H1  UNL     1     -12.700  10.418  68.599  1.00  0.00     0.000 HD 
HETATM   21  C   UNL     1     -11.573  14.221  67.681  1.00  0.00    -0.368 C  
HETATM   22  N   UNL     1     -12.104  15.323  68.492  1.00  0.00    -0.572 NA 
HETATM   23  C   UNL     1     -10.068  14.411  67.418  1.00  0.00    -0.243 C  
HETATM   24  C   UNL     1      -9.536  13.158  66.653  1.00  0.00    -0.260 C  
HETATM   25  O   UNL     1      -8.089  13.174  66.671  1.00  0.00    -0.397 OA 
HETATM   26  H1  UNL     1     -11.925  16.218  68.039  1.00  0.00     0.000 HD 
HETATM   27  H2  UNL     1     -11.742  15.300  69.445  1.00  0.00     0.000 HD 
HETATM   28  H   UNL     1      -7.784  14.056  66.490  1.00  0.00     0.000 HD 
BRANCH  23  29
HETATM   29  O   UNL     1      -9.860  15.544  66.526  1.00  0.00    -0.242 OA 
BRANCH  29  30
HETATM   30  C   UNL     1      -9.658  16.886  67.014  1.00  0.00    -0.248 C  
HETATM   31  O   UNL     1     -10.782  17.762  66.895  1.00  0.00    -0.284 OA 
HETATM   32  C   UNL     1     -10.548  19.026  67.534  1.00  0.00    -0.461 C  
HETATM   33  C   UNL     1      -9.375  19.824  66.905  1.00  0.00    -0.366 C  
HETATM   34  C   UNL     1      -8.088  18.958  66.992  1.00  0.00    -0.261 C  
HETATM   35  O   UNL     1      -9.685  20.094  65.528  1.00  0.00    -0.450 OA 
HETATM   36  C   UNL     1      -9.239  21.167  67.637  1.00  0.00     0.029 C  
HETATM   37  H   UNL     1      -6.377  17.109  66.348  1.00  0.00     0.000 HD 
HETATM   38  H   UNL     1      -8.967  20.582  65.143  1.00  0.00     0.000 HD 
HETATM   39  C   UNL     1      -8.345  17.521  66.420  1.00  0.00    -0.262 C  
HETATM   40  O   UNL     1      -7.169  16.726  66.707  1.00  0.00    -0.187 OA 
BRANCH  34  41
HETATM   41  N   UNL     1      -6.785  19.530  66.534  1.00  0.00    -0.187 NA 
HETATM   42  C   UNL     1      -6.535  19.583  65.104  1.00  0.00    -0.277 C  
HETATM   43  H   UNL     1      -6.096  19.873  67.203  1.00  0.00     0.000 HD 
ENDBRANCH  34  41
ENDBRANCH  29  30
ENDBRANCH  23  29
ENDBRANCH  14  15
ENDBRANCH   9  14
ENDBRANCH   4   5
ENDBRANCH   2   4
TORSDOF 7
ENDMDL
MODEL      117
REMARK 921   NORMALIZED FREE ENERGY PREDICTED BY IDOCK:   -5.22 KCAL/MOL
REMARK 922        TOTAL FREE ENERGY PREDICTED BY IDOCK:   -9.07 KCAL/MOL
REMARK 923 INTER-LIGAND FREE ENERGY PREDICTED BY IDOCK:   -7.77 KCAL/MOL
REMARK 924 INTRA-LIGAND FREE ENERGY PREDICTED BY IDOCK:   -1.30 KCAL/MOL
REMARK 927      BINDING AFFINITY PREDICTED BY RF-SCORE:    0.00 PKD
ROOT
HETATM    1  C   UNL     1      -9.792   2.456  74.080  1.00  0.00    -0.099 C  
HETATM    2  N   UNL     1      -9.910   2.700  72.651  1.00  0.00    -0.125 NA 
HETATM    3  H   UNL     1     -10.891   2.751  72.376  1.00  0.00     0.000 HD 
ENDROOT
BRANCH   2   4
HETATM    4  C   UNL     1      -9.181   3.890  72.187  1.00  0.00    -0.119 C  
BRANCH   4   5
HETATM    5  C   UNL     1     -10.043   5.154  71.925  1.00  0.00    -0.197 C  
HETATM    6  C   UNL     1     -11.340   5.189  72.714  1.00  0.00    -0.311 C  
HETATM    7  C   UNL     1     -12.072   6.496  72.413  1.00  0.00    -0.151 C  
HETATM    8  C   UNL     1     -12.140   6.809  70.903  1.00  0.00    -0.367 C  
HETATM    9  C   UNL     1     -10.800   6.486  70.100  1.00  0.00    -0.282 C  
HETATM   10  N   UNL     1     -12.722   8.158  70.713  1.00  0.00    -0.465 NA 
HETATM   11  O   UNL     1     -10.365   5.194  70.516  1.00  0.00    -0.256 OA 
HETATM   12  H1  UNL     1     -12.767   8.364  69.715  1.00  0.00     0.000 HD 
HETATM   13  H2  UNL     1     -12.218   8.875  71.235  1.00  0.00     0.000 HD 
BRANCH   9  14
HETATM   14  O   UNL     1      -9.746   7.475  70.178  1.00  0.00    -0.172 OA 
BRANCH  14  15
HETATM   15  C   UNL     1      -9.227   8.073  68.917  1.00  0.00    -0.147 C  
HETATM   16  C   UNL     1      -7.692   7.944  68.719  1.00  0.00    -0.112 C  
HETATM   17  N   UNL     1      -7.327   6.549  68.394  1.00  0.00    -0.085 NA 
HETATM   18  C   UNL     1      -7.172   8.829  67.568  1.00  0.00    -0.080 C  
HETATM   19  H2  UNL     1      -7.844   6.200  67.586  1.00  0.00     0.000 HD 
HETATM   20  H1  UNL     1      -6.320   6.464  68.264  1.00  0.00     0.000 HD 
HETATM   21  C   UNL     1      -7.548  10.309  67.738  1.00  0.00    -0.089 C  
HETATM   22  N   UNL     1      -6.861  11.133  66.737  1.00  0.00    -0.125 NA 
HETATM   23  C   UNL     1      -9.074  10.502  67.651  1.00  0.00    -0.142 C  
HETATM   24  C   UNL     1      -9.756   9.521  68.655  1.00  0.00    -0.155 C  
HETATM   25  O   UNL     1     -11.174   9.465  68.370  1.00  0.00    -0.482 OA 
HETATM   26  H1  UNL     1      -7.110  12.115  66.850  1.00  0.00     0.000 HD 
HETATM   27  H2  UNL     1      -7.038  10.803  65.788  1.00  0.00     0.000 HD 
HETATM   28  H   UNL     1     -11.496  10.345  68.210  1.00  0.00     0.000 HD 
BRANCH  23  29
HETATM   29  O   UNL     1      -9.431  11.843  68.095  1.00  0.00    -0.184 OA 
BRANCH  29  30
HETATM   30  C   UNL     1     -10.288  12.711  67.325  1.00  0.00    -0.224 C  
HETATM   31  O   UNL     1     -11.041  12.074  66.290  1.00  0.00    -0.289 OA 
HETATM   32  C   UNL     1     -11.974  12.974  65.672  1.00  0.00    -0.429 C  
HETATM   33  C   UNL     1     -11.292  14.175  64.965  1.00  0.00    -0.350 C  
HETATM   34  C   UNL     1     -10.447  14.950  66.014  1.00  0.00    -0.316 C  
HETATM   35  O   UNL     1     -10.434  13.674  63.927  1.00  0.00    -0.535 OA 
HETATM   36  C   UNL     1     -12.375  15.047  64.311  1.00  0.00    -0.247 C  
HETATM   37  H   UNL     1      -8.428  15.492  67.559  1.00  0.00     0.000 HD 
HETATM   38  H   UNL     1     -10.017  14.409  63.494  1.00  0.00     0.000 HD 
HETATM   39  C   UNL     1      -9.507  13.973  66.801  1.00  0.00    -0.282 C  
HETATM   40  O   UNL     1      -8.900  14.731  67.875  1.00  0.00    -0.160 OA 
BRANCH  34  41
HETATM   41  N   UNL     1      -9.753  16.210  65.611  1.00  0.00    -0.468 NA 
HETATM   42  C   UNL     1     -10.220  17.456  66.194  1.00  0.00    -0.328 C  
HETATM   43  H   UNL     1      -8.977  16.196  64.949  1.00  0.00     0.000 HD 
ENDBRANCH  34  41
ENDBRANCH  29  30
ENDBRANCH  23  29
ENDBRANCH  14  15
ENDBRANCH   9  14
ENDBRANCH   4   5
ENDBRANCH   2   4
TORSDOF 7
ENDMDL
MODEL      118
REMARK 921   NORMALIZED FREE ENERGY PREDICTED BY IDOCK:   -5.22 KCAL/MOL
REMARK 922        TOTAL FREE ENERGY PREDICTED BY IDOCK:   -9.07 KCAL/MOL
REMARK 923 INTER-LIGAND FREE ENERGY PREDICTED BY IDOCK:   -9.20 KCAL/MOL
REMARK 924 INTRA-LIGAND FREE ENERGY PREDICTED BY IDOCK:    0.13 KCAL/MOL
REMARK 927      BINDING AFFINITY PREDICTED BY RF-SCORE:    0.00 PKD
ROOT
HETATM    1  C   UNL     1      -9.948  20.091  66.264  1.00  0.00    -0.481 C  
HETATM    2  N   UNL     1     -10.594  18.798  66.102  1.00  0.00    -0.425 NA 
HETATM    3  H   UNL     1     -10.997  18.714  65.168  1.00  0.00     0.000 HD 
ENDROOT
BRANCH   2   4
HETATM    4  C   UNL     1      -9.718  17.654  66.392  1.00  0.00    -0.294 C  
BRANCH   4   5
HETATM    5  C   UNL     1     -10.382  16.461  67.132  1.00  0.00    -0.290 C  
HETATM    6  C   UNL     1     -11.028  16.839  68.452  1.00  0.00    -0.325 C  
HETATM    7  C   UNL     1     -11.689  15.601  69.056  1.00  0.00    -0.408 C  
HETATM    8  C   UNL     1     -10.767  14.362  69.036  1.00  0.00    -0.250 C  
HETATM    9  C   UNL     1      -9.918  14.193  67.696  1.00  0.00    -0.233 C  
HETATM   10  N   UNL     1     -11.535  13.180  69.492  1.00  0.00    -0.408 NA 
HETATM   11  O   UNL     1      -9.362  15.469  67.391  1.00  0.00    -0.203 OA 
HETATM   12  H1  UNL     1     -10.926  12.362  69.479  1.00  0.00     0.000 HD 
HETATM   13  H2  UNL     1     -12.388  13.038  68.951  1.00  0.00     0.000 HD 
BRANCH   9  14
HETATM   14  O   UNL     1     -10.605  13.605  66.566  1.00  0.00    -0.278 OA 
BRANCH  14  15
HETATM   15  C   UNL     1      -9.919  12.539  65.784  1.00  0.00    -0.259 C  
HETATM   16  C   UNL     1     -10.871  11.532  65.082  1.00  0.00    -0.265 C  
HETATM   17  N   UNL     1     -11.541  12.169  63.929  1.00  0.00    -0.411 NA 
HETATM   18  C   UNL     1     -10.124  10.294  64.547  1.00  0.00    -0.286 C  
HETATM   19  H2  UNL     1     -10.869  12.572  63.276  1.00  0.00     0.000 HD 
HETATM   20  H1  UNL     1     -12.166  11.508  63.469  1.00  0.00     0.000 HD 
HETATM   21  C   UNL     1      -9.315   9.569  65.634  1.00  0.00    -0.241 C  
HETATM   22  N   UNL     1      -8.797   8.294  65.125  1.00  0.00    -0.391 NA 
HETATM   23  C   UNL     1      -8.169  10.459  66.151  1.00  0.00    -0.144 C  
HETATM   24  C   UNL     1      -8.763  11.840  66.571  1.00  0.00    -0.173 C  
HETATM   25  O   UNL     1      -7.680  12.781  66.761  1.00  0.00    -0.390 OA 
HETATM   26  H1  UNL     1      -8.260   7.813  65.847  1.00  0.00     0.000 HD 
HETATM   27  H2  UNL     1      -8.256   8.419  64.270  1.00  0.00     0.000 HD 
HETATM   28  H   UNL     1      -6.977  12.355  67.239  1.00  0.00     0.000 HD 
BRANCH  23  29
HETATM   29  O   UNL     1      -7.600   9.881  67.362  1.00  0.00    -0.091 OA 
BRANCH  29  30
HETATM   30  C   UNL     1      -8.355   9.019  68.236  1.00  0.00    -0.121 C  
HETATM   31  O   UNL     1      -8.480   7.661  67.807  1.00  0.00    -0.121 OA 
HETATM   32  C   UNL     1      -9.116   6.840  68.800  1.00  0.00    -0.132 C  
HETATM   33  C   UNL     1     -10.571   7.275  69.115  1.00  0.00    -0.208 C  
HETATM   34  C   UNL     1     -10.549   8.749  69.605  1.00  0.00    -0.219 C  
HETATM   35  O   UNL     1     -11.354   7.175  67.914  1.00  0.00    -0.500 OA 
HETATM   36  C   UNL     1     -11.163   6.312  70.154  1.00  0.00    -0.470 C  
HETATM   37  H   UNL     1     -10.452  11.343  69.444  1.00  0.00     0.000 HD 
HETATM   38  H   UNL     1     -12.245   7.441  68.108  1.00  0.00     0.000 HD 
HETATM   39  C   UNL     1      -9.748   9.655  68.607  1.00  0.00    -0.155 C  
HETATM   40  O   UNL     1      -9.612  10.959  69.221  1.00  0.00    -0.158 OA 
BRANCH  34  41
HETATM   41  N   UNL     1     -11.820   9.390  70.062  1.00  0.00    -0.459 NA 
HETATM   42  C   UNL     1     -11.945   9.716  71.472  1.00  0.00    -0.406 C  
HETATM   43  H   UNL     1     -12.574   9.592  69.405  1.00  0.00     0.000 HD 
ENDBRANCH  34  41
ENDBRANCH  29  30
ENDBRANCH  23  29
ENDBRANCH  14  15
ENDBRANCH   9  14
ENDBRANCH   4   5
ENDBRANCH   2   4
TORSDOF 7
ENDMDL
MODEL      119
REMARK 921   NORMALIZED FREE ENERGY PREDICTED BY IDOCK:   -5.19 KCAL/MOL
REMARK 922        TOTAL FREE ENERGY PREDICTED BY IDOCK:   -9.02 KCAL/MOL
REMARK 923 INTER-LIGAND FREE ENERGY PREDICTED BY IDOCK:   -7.69 KCAL/MOL
REMARK 924 INTRA-LIGAND FREE ENERGY PREDICTED BY IDOCK:   -1.34 KCAL/MOL
REMARK 927      BINDING AFFINITY PREDICTED BY RF-SCORE:    0.00 PKD
ROOT
HETATM    1  C   UNL     1      -6.635  20.552  64.985  1.00  0.00    -0.270 C  
HETATM    2  N   UNL     1      -6.662  21.176  66.299  1.00  0.00    -0.513 NA 
HETATM    3  H   UNL     1      -6.762  22.187  66.214  1.00  0.00     0.000 HD 
ENDROOT
BRANCH   2   4
HETATM    4  C   UNL     1      -7.689  20.628  67.197  1.00  0.00    -0.296 C  
BRANCH   4   5
HETATM    5  C   UNL     1      -7.210  19.528  68.184  1.00  0.00    -0.295 C  
HETATM    6  C   UNL     1      -6.193  20.014  69.200  1.00  0.00    -0.355 C  
HETATM    7  C   UNL     1      -5.840  18.863  70.142  1.00  0.00    -0.242 C  
HETATM    8  C   UNL     1      -5.534  17.550  69.390  1.00  0.00    -0.198 C  
HETATM    9  C   UNL     1      -6.502  17.254  68.157  1.00  0.00    -0.162 C  
HETATM   10  N   UNL     1      -5.357  16.458  70.375  1.00  0.00    -0.185 NA 
HETATM   11  O   UNL     1      -6.610  18.463  67.411  1.00  0.00    -0.189 OA 
HETATM   12  H1  UNL     1      -5.155  15.590  69.879  1.00  0.00     0.000 HD 
HETATM   13  H2  UNL     1      -6.156  16.368  71.003  1.00  0.00     0.000 HD 
BRANCH   9  14
HETATM   14  O   UNL     1      -7.793  16.682  68.472  1.00  0.00    -0.195 OA 
BRANCH  14  15
HETATM   15  C   UNL     1      -8.487  15.862  67.440  1.00  0.00    -0.175 C  
HETATM   16  C   UNL     1      -9.762  16.516  66.840  1.00  0.00    -0.251 C  
HETATM   17  N   UNL     1      -9.400  17.630  65.940  1.00  0.00    -0.524 NA 
HETATM   18  C   UNL     1     -10.600  15.518  66.014  1.00  0.00    -0.333 C  
HETATM   19  H2  UNL     1      -8.749  17.333  65.213  1.00  0.00     0.000 HD 
HETATM   20  H1  UNL     1     -10.237  18.058  65.546  1.00  0.00     0.000 HD 
HETATM   21  C   UNL     1     -10.988  14.262  66.810  1.00  0.00    -0.304 C  
HETATM   22  N   UNL     1     -11.948  13.450  66.054  1.00  0.00    -0.392 NA 
HETATM   23  C   UNL     1      -9.740  13.436  67.176  1.00  0.00    -0.237 C  
HETATM   24  C   UNL     1      -8.709  14.377  67.874  1.00  0.00    -0.168 C  
HETATM   25  O   UNL     1      -7.429  13.705  67.943  1.00  0.00    -0.124 OA 
HETATM   26  H1  UNL     1     -12.206  12.617  66.582  1.00  0.00     0.000 HD 
HETATM   27  H2  UNL     1     -11.598  13.217  65.125  1.00  0.00     0.000 HD 
HETATM   28  H   UNL     1      -7.564  12.802  68.207  1.00  0.00     0.000 HD 
BRANCH  23  29
HETATM   29  O   UNL     1     -10.089  12.421  68.160  1.00  0.00    -0.211 OA 
BRANCH  29  30
HETATM   30  C   UNL     1      -9.839  11.016  67.946  1.00  0.00    -0.171 C  
HETATM   31  O   UNL     1     -10.972  10.243  67.539  1.00  0.00    -0.297 OA 
HETATM   32  C   UNL     1     -10.609   8.894  67.206  1.00  0.00    -0.234 C  
HETATM   33  C   UNL     1     -10.017   8.104  68.403  1.00  0.00    -0.190 C  
HETATM   34  C   UNL     1      -8.763   8.861  68.920  1.00  0.00    -0.136 C  
HETATM   35  O   UNL     1     -11.004   8.034  69.445  1.00  0.00    -0.408 OA 
HETATM   36  C   UNL     1      -9.702   6.672  67.945  1.00  0.00    -0.130 C  
HETATM   37  H   UNL     1      -7.387  10.654  70.206  1.00  0.00     0.000 HD 
HETATM   38  H   UNL     1     -10.642   7.551  70.177  1.00  0.00     0.000 HD 
HETATM   39  C   UNL     1      -9.089  10.373  69.172  1.00  0.00    -0.187 C  
HETATM   40  O   UNL     1      -7.839  11.042  69.466  1.00  0.00    -0.057 OA 
BRANCH  34  41
HETATM   41  N   UNL     1      -7.946   8.262  70.020  1.00  0.00    -0.101 NA 
HETATM   42  C   UNL     1      -8.456   8.367  71.376  1.00  0.00    -0.155 C  
HETATM   43  H   UNL     1      -7.060   7.795  69.824  1.00  0.00     0.000 HD 
ENDBRANCH  34  41
ENDBRANCH  29  30
ENDBRANCH  23  29
ENDBRANCH  14  15
ENDBRANCH   9  14
ENDBRANCH   4   5
ENDBRANCH   2   4
TORSDOF 7
ENDMDL
MODEL      120
REMARK 921   NORMALIZED FREE ENERGY PREDICTED BY IDOCK:   -5.16 KCAL/MOL
REMARK 922        TOTAL FREE ENERGY PREDICTED BY IDOCK:   -8.98 KCAL/MOL
REMARK 923 INTER-LIGAND FREE ENERGY PREDICTED BY IDOCK:   -7.89 KCAL/MOL
REMARK 924 INTRA-LIGAND FREE ENERGY PREDICTED BY IDOCK:   -1.08 KCAL/MOL
REMARK 927      BINDING AFFINITY PREDICTED BY RF-SCORE:    0.00 PKD
ROOT
HETATM    1  C   UNL     1     -12.267  15.118  64.256  1.00  0.00    -0.240 C  
HETATM    2  N   UNL     1     -11.321  16.200  64.027  1.00  0.00    -1.347 NA 
HETATM    3  H   UNL     1     -11.552  16.702  63.170  1.00  0.00     0.000 HD 
ENDROOT
BRANCH   2   4
HETATM    4  C   UNL     1     -11.200  17.133  65.157  1.00  0.00     0.341 C  
BRANCH   4   5
HETATM    5  C   UNL     1      -9.964  16.929  66.075  1.00  0.00    -0.293 C  
HETATM    6  C   UNL     1      -8.951  18.057  66.003  1.00  0.00     0.001 C  
HETATM    7  C   UNL     1      -7.814  17.769  66.983  1.00  0.00    -0.234 C  
HETATM    8  C   UNL     1      -7.287  16.322  66.876  1.00  0.00    -0.231 C  
HETATM    9  C   UNL     1      -8.422  15.218  66.684  1.00  0.00    -0.229 C  
HETATM   10  N   UNL     1      -6.302  16.084  67.958  1.00  0.00    -0.121 NA 
HETATM   11  O   UNL     1      -9.309  15.701  65.680  1.00  0.00    -0.301 OA 
HETATM   12  H1  UNL     1      -5.954  15.128  67.888  1.00  0.00     0.000 HD 
HETATM   13  H2  UNL     1      -6.683  16.292  68.882  1.00  0.00     0.000 HD 
BRANCH   9  14
HETATM   14  O   UNL     1      -9.119  14.794  67.879  1.00  0.00    -0.177 OA 
BRANCH  14  15
HETATM   15  C   UNL     1     -10.155  13.729  67.767  1.00  0.00    -0.245 C  
HETATM   16  C   UNL     1     -11.441  13.983  68.600  1.00  0.00    -0.302 C  
HETATM   17  N   UNL     1     -12.252  15.056  67.989  1.00  0.00    -0.498 NA 
HETATM   18  C   UNL     1     -12.338  12.731  68.690  1.00  0.00     0.227 C  
HETATM   19  H2  UNL     1     -12.466  14.859  67.011  1.00  0.00     0.000 HD 
HETATM   20  H1  UNL     1     -13.096  15.223  68.536  1.00  0.00     0.000 HD 
HETATM   21  C   UNL     1     -11.597  11.505  69.244  1.00  0.00    -0.322 C  
HETATM   22  N   UNL     1     -12.538  10.409  69.503  1.00  0.00    -0.637 NA 
HETATM   23  C   UNL     1     -10.483  11.054  68.280  1.00  0.00    -0.186 C  
HETATM   24  C   UNL     1      -9.582  12.286  67.953  1.00  0.00    -0.203 C  
HETATM   25  O   UNL     1      -8.733  11.963  66.827  1.00  0.00    -0.186 OA 
HETATM   26  H1  UNL     1     -12.046   9.595  69.870  1.00  0.00     0.000 HD 
HETATM   27  H2  UNL     1     -13.087  10.178  68.675  1.00  0.00     0.000 HD 
HETATM   28  H   UNL     1      -8.385  11.086  66.939  1.00  0.00     0.000 HD 
BRANCH  23  29
HETATM   29  O   UNL     1      -9.616  10.087  68.942  1.00  0.00    -0.165 OA 
BRANCH  29  30
HETATM   30  C   UNL     1      -9.456   8.737  68.462  1.00  0.00    -0.145 C  
HETATM   31  O   UNL     1      -9.703   8.544  67.067  1.00  0.00    -0.170 OA 
HETATM   32  C   UNL     1      -9.380   7.211  66.643  1.00  0.00    -0.166 C  
HETATM   33  C   UNL     1     -10.239   6.121  67.337  1.00  0.00    -0.184 C  
HETATM   34  C   UNL     1     -10.034   6.236  68.873  1.00  0.00    -0.153 C  
HETATM   35  O   UNL     1     -11.621   6.347  67.014  1.00  0.00    -0.696 OA 
HETATM   36  C   UNL     1      -9.837   4.745  66.784  1.00  0.00    -0.227 C  
HETATM   37  H   UNL     1     -10.343   7.156  71.285  1.00  0.00     0.000 HD 
HETATM   38  H   UNL     1     -12.146   5.680  67.439  1.00  0.00     0.000 HD 
HETATM   39  C   UNL     1     -10.253   7.712  69.354  1.00  0.00    -0.206 C  
HETATM   40  O   UNL     1      -9.862   7.774  70.747  1.00  0.00    -0.180 OA 
BRANCH  34  41
HETATM   41  N   UNL     1     -10.684   5.239  69.777  1.00  0.00    -0.222 NA 
HETATM   42  C   UNL     1      -9.835   4.247  70.412  1.00  0.00    -0.198 C  
HETATM   43  H   UNL     1     -11.691   5.256  69.942  1.00  0.00     0.000 HD 
ENDBRANCH  34  41
ENDBRANCH  29  30
ENDBRANCH  23  29
ENDBRANCH  14  15
ENDBRANCH   9  14
ENDBRANCH   4   5
ENDBRANCH   2   4
TORSDOF 7
ENDMDL
MODEL      121
REMARK 921   NORMALIZED FREE ENERGY PREDICTED BY IDOCK:   -5.12 KCAL/MOL
REMARK 922        TOTAL FREE ENERGY PREDICTED BY IDOCK:   -8.93 KCAL/MOL
REMARK 923 INTER-LIGAND FREE ENERGY PREDICTED BY IDOCK:   -8.46 KCAL/MOL
REMARK 924 INTRA-LIGAND FREE ENERGY PREDICTED BY IDOCK:   -0.47 KCAL/MOL
REMARK 927      BINDING AFFINITY PREDICTED BY RF-SCORE:    0.00 PKD
ROOT
HETATM    1  C   UNL     1      -8.428   8.812  63.240  1.00  0.00    -0.119 C  
HETATM    2  N   UNL     1      -9.500   9.672  62.761  1.00  0.00    -0.560 NA 
HETATM    3  H   UNL     1     -10.400   9.358  63.124  1.00  0.00     0.000 HD 
ENDROOT
BRANCH   2   4
HETATM    4  C   UNL     1      -9.294  11.099  63.053  1.00  0.00    -0.350 C  
BRANCH   4   5
HETATM    5  C   UNL     1     -10.378  11.773  63.937  1.00  0.00    -0.385 C  
HETATM    6  C   UNL     1     -11.775  11.719  63.346  1.00  0.00    -0.423 C  
HETATM    7  C   UNL     1     -12.755  12.365  64.325  1.00  0.00    -0.437 C  
HETATM    8  C   UNL     1     -12.255  13.722  64.864  1.00  0.00    -0.415 C  
HETATM    9  C   UNL     1     -10.698  13.761  65.210  1.00  0.00    -0.339 C  
HETATM   10  N   UNL     1     -13.184  14.199  65.914  1.00  0.00    -0.552 NA 
HETATM   11  O   UNL     1     -10.011  13.161  64.116  1.00  0.00    -0.288 OA 
HETATM   12  H1  UNL     1     -12.853  15.095  66.270  1.00  0.00     0.000 HD 
HETATM   13  H2  UNL     1     -13.316  13.512  66.657  1.00  0.00     0.000 HD 
BRANCH   9  14
HETATM   14  O   UNL     1     -10.306  13.199  66.484  1.00  0.00    -0.273 OA 
BRANCH  14  15
HETATM   15  C   UNL     1     -11.361  12.892  67.490  1.00  0.00    -0.308 C  
HETATM   16  C   UNL     1     -11.406  13.863  68.702  1.00  0.00    -0.278 C  
HETATM   17  N   UNL     1     -11.953  15.174  68.295  1.00  0.00    -0.541 NA 
HETATM   18  C   UNL     1     -12.298  13.334  69.844  1.00  0.00    -0.228 C  
HETATM   19  H2  UNL     1     -12.865  15.083  67.849  1.00  0.00     0.000 HD 
HETATM   20  H1  UNL     1     -11.982  15.811  69.090  1.00  0.00     0.000 HD 
HETATM   21  C   UNL     1     -11.887  11.932  70.320  1.00  0.00    -0.281 C  
HETATM   22  N   UNL     1     -12.625  11.564  71.534  1.00  0.00    -0.303 NA 
HETATM   23  C   UNL     1     -12.106  10.888  69.209  1.00  0.00    -0.261 C  
HETATM   24  C   UNL     1     -11.395  11.387  67.912  1.00  0.00    -0.303 C  
HETATM   25  O   UNL     1     -11.843  10.588  66.792  1.00  0.00     0.310 OA 
HETATM   26  H1  UNL     1     -12.353  10.634  71.850  1.00  0.00     0.000 HD 
HETATM   27  H2  UNL     1     -13.634  11.640  71.401  1.00  0.00     0.000 HD 
HETATM   28  H   UNL     1     -11.864   9.673  67.049  1.00  0.00     0.000 HD 
BRANCH  23  29
HETATM   29  O   UNL     1     -11.454   9.636  69.569  1.00  0.00    -0.108 OA 
BRANCH  29  30
HETATM   30  C   UNL     1     -10.211   9.593  70.300  1.00  0.00    -0.277 C  
HETATM   31  O   UNL     1      -9.031   9.458  69.503  1.00  0.00    -0.143 OA 
HETATM   32  C   UNL     1      -7.835   9.571  70.291  1.00  0.00    -0.168 C  
HETATM   33  C   UNL     1      -7.700   8.460  71.365  1.00  0.00    -0.099 C  
HETATM   34  C   UNL     1      -8.939   8.526  72.300  1.00  0.00    -0.229 C  
HETATM   35  O   UNL     1      -7.657   7.184  70.707  1.00  0.00    -0.086 OA 
HETATM   36  C   UNL     1      -6.376   8.656  72.118  1.00  0.00    -0.073 C  
HETATM   37  H   UNL     1     -11.388   8.147  73.089  1.00  0.00     0.000 HD 
HETATM   38  H   UNL     1      -7.574   6.504  71.365  1.00  0.00     0.000 HD 
HETATM   39  C   UNL     1     -10.266   8.535  71.465  1.00  0.00    -0.250 C  
HETATM   40  O   UNL     1     -11.354   8.786  72.386  1.00  0.00    -0.338 OA 
BRANCH  34  41
HETATM   41  N   UNL     1      -9.016   7.614  73.482  1.00  0.00    -0.215 NA 
HETATM   42  C   UNL     1      -9.525   6.271  73.270  1.00  0.00    -0.138 C  
HETATM   43  H   UNL     1      -8.720   7.926  74.408  1.00  0.00     0.000 HD 
ENDBRANCH  34  41
ENDBRANCH  29  30
ENDBRANCH  23  29
ENDBRANCH  14  15
ENDBRANCH   9  14
ENDBRANCH   4   5
ENDBRANCH   2   4
TORSDOF 7
ENDMDL
MODEL      122
REMARK 921   NORMALIZED FREE ENERGY PREDICTED BY IDOCK:   -5.11 KCAL/MOL
REMARK 922        TOTAL FREE ENERGY PREDICTED BY IDOCK:   -8.92 KCAL/MOL
REMARK 923 INTER-LIGAND FREE ENERGY PREDICTED BY IDOCK:   -7.84 KCAL/MOL
REMARK 924 INTRA-LIGAND FREE ENERGY PREDICTED BY IDOCK:   -1.08 KCAL/MOL
REMARK 927      BINDING AFFINITY PREDICTED BY RF-SCORE:    0.00 PKD
ROOT
HETATM    1  C   UNL     1      -6.650  14.640  69.884  1.00  0.00    -0.167 C  
HETATM    2  N   UNL     1      -8.013  14.402  69.434  1.00  0.00    -0.359 NA 
HETATM    3  H   UNL     1      -8.649  14.348  70.230  1.00  0.00     0.000 HD 
ENDROOT
BRANCH   2   4
HETATM    4  C   UNL     1      -8.495  15.383  68.451  1.00  0.00    -0.160 C  
BRANCH   4   5
HETATM    5  C   UNL     1      -9.549  14.863  67.435  1.00  0.00    -0.206 C  
HETATM    6  C   UNL     1     -10.552  15.915  66.998  1.00  0.00    -0.306 C  
HETATM    7  C   UNL     1     -11.498  15.302  65.966  1.00  0.00    -0.085 C  
HETATM    8  C   UNL     1     -12.043  13.924  66.400  1.00  0.00    -0.455 C  
HETATM    9  C   UNL     1     -10.966  12.978  67.099  1.00  0.00    -0.269 C  
HETATM   10  N   UNL     1     -12.820  13.337  65.283  1.00  0.00    -0.658 NA 
HETATM   11  O   UNL     1     -10.270  13.773  68.055  1.00  0.00    -0.235 OA 
HETATM   12  H1  UNL     1     -13.180  12.427  65.569  1.00  0.00     0.000 HD 
HETATM   13  H2  UNL     1     -12.281  13.286  64.419  1.00  0.00     0.000 HD 
BRANCH   9  14
HETATM   14  O   UNL     1     -10.069  12.260  66.220  1.00  0.00    -0.224 OA 
BRANCH  14  15
HETATM   15  C   UNL     1      -9.511  10.955  66.671  1.00  0.00    -0.179 C  
HETATM   16  C   UNL     1     -10.061   9.715  65.915  1.00  0.00    -0.234 C  
HETATM   17  N   UNL     1      -9.511   9.657  64.545  1.00  0.00    -0.432 NA 
HETATM   18  C   UNL     1      -9.689   8.390  66.611  1.00  0.00    -0.320 C  
HETATM   19  H2  UNL     1      -8.491   9.678  64.545  1.00  0.00     0.000 HD 
HETATM   20  H1  UNL     1      -9.873   8.843  64.049  1.00  0.00     0.000 HD 
HETATM   21  C   UNL     1     -10.138   8.341  68.080  1.00  0.00    -0.198 C  
HETATM   22  N   UNL     1      -9.948   6.995  68.631  1.00  0.00    -0.152 NA 
HETATM   23  C   UNL     1      -9.384   9.389  68.920  1.00  0.00    -0.154 C  
HETATM   24  C   UNL     1      -9.527  10.779  68.225  1.00  0.00    -0.164 C  
HETATM   25  O   UNL     1      -8.583  11.702  68.818  1.00  0.00    -0.306 OA 
HETATM   26  H1  UNL     1     -10.246   6.962  69.605  1.00  0.00     0.000 HD 
HETATM   27  H2  UNL     1      -8.987   6.671  68.517  1.00  0.00     0.000 HD 
HETATM   28  H   UNL     1      -8.592  11.595  69.762  1.00  0.00     0.000 HD 
BRANCH  23  29
HETATM   29  O   UNL     1     -10.016   9.526  70.226  1.00  0.00    -0.225 OA 
BRANCH  29  30
HETATM   30  C   UNL     1      -9.501   8.878  71.407  1.00  0.00    -0.274 C  
HETATM   31  O   UNL     1      -8.180   8.343  71.291  1.00  0.00    -0.109 OA 
HETATM   32  C   UNL     1      -7.689   7.848  72.546  1.00  0.00    -0.111 C  
HETATM   33  C   UNL     1      -8.528   6.673  73.114  1.00  0.00    -0.116 C  
HETATM   34  C   UNL     1      -9.994   7.156  73.290  1.00  0.00    -0.254 C  
HETATM   35  O   UNL     1      -8.486   5.581  72.181  1.00  0.00    -0.124 OA 
HETATM   36  C   UNL     1      -7.894   6.202  74.432  1.00  0.00    -0.095 C  
HETATM   37  H   UNL     1     -12.429   7.770  72.614  1.00  0.00     0.000 HD 
HETATM   38  H   UNL     1      -8.999   4.862  72.529  1.00  0.00     0.000 HD 
HETATM   39  C   UNL     1     -10.523   7.821  71.973  1.00  0.00    -0.224 C  
HETATM   40  O   UNL     1     -11.813   8.407  72.273  1.00  0.00    -0.348 OA 
BRANCH  34  41
HETATM   41  N   UNL     1     -11.000   6.238  73.909  1.00  0.00    -0.371 NA 
HETATM   42  C   UNL     1     -11.382   5.052  73.164  1.00  0.00    -0.321 C  
HETATM   43  H   UNL     1     -11.403   6.439  74.824  1.00  0.00     0.000 HD 
ENDBRANCH  34  41
ENDBRANCH  29  30
ENDBRANCH  23  29
ENDBRANCH  14  15
ENDBRANCH   9  14
ENDBRANCH   4   5
ENDBRANCH   2   4
TORSDOF 7
ENDMDL
MODEL      123
REMARK 921   NORMALIZED FREE ENERGY PREDICTED BY IDOCK:   -5.11 KCAL/MOL
REMARK 922        TOTAL FREE ENERGY PREDICTED BY IDOCK:   -8.91 KCAL/MOL
REMARK 923 INTER-LIGAND FREE ENERGY PREDICTED BY IDOCK:   -6.68 KCAL/MOL
REMARK 924 INTRA-LIGAND FREE ENERGY PREDICTED BY IDOCK:   -2.23 KCAL/MOL
REMARK 927      BINDING AFFINITY PREDICTED BY RF-SCORE:    0.00 PKD
ROOT
HETATM    1  C   UNL     1      -8.344   9.471  65.100  1.00  0.00    -0.142 C  
HETATM    2  N   UNL     1      -9.565   9.701  65.857  1.00  0.00    -0.236 NA 
HETATM    3  H   UNL     1      -9.348   9.904  66.833  1.00  0.00     0.000 HD 
ENDROOT
BRANCH   2   4
HETATM    4  C   UNL     1     -10.429  10.747  65.290  1.00  0.00    -0.212 C  
BRANCH   4   5
HETATM    5  C   UNL     1     -11.161  11.652  66.318  1.00  0.00    -0.271 C  
HETATM    6  C   UNL     1     -11.385  13.074  65.835  1.00  0.00    -0.344 C  
HETATM    7  C   UNL     1     -12.155  13.848  66.905  1.00  0.00    -0.467 C  
HETATM    8  C   UNL     1     -11.571  13.652  68.320  1.00  0.00    -0.339 C  
HETATM    9  C   UNL     1     -11.112  12.160  68.645  1.00  0.00    -0.251 C  
HETATM   10  N   UNL     1     -12.463  14.305  69.307  1.00  0.00    -0.528 NA 
HETATM   11  O   UNL     1     -10.363  11.700  67.523  1.00  0.00    -0.192 OA 
HETATM   12  H1  UNL     1     -12.077  14.176  70.242  1.00  0.00     0.000 HD 
HETATM   13  H2  UNL     1     -13.426  13.976  69.236  1.00  0.00     0.000 HD 
BRANCH   9  14
HETATM   14  O   UNL     1     -12.153  11.233  69.031  1.00  0.00    -0.394 OA 
BRANCH  14  15
HETATM   15  C   UNL     1     -11.791  10.048  69.857  1.00  0.00    -0.074 C  
HETATM   16  C   UNL     1     -11.621  10.339  71.373  1.00  0.00    -0.145 C  
HETATM   17  N   UNL     1     -12.934  10.576  72.007  1.00  0.00    -0.445 NA 
HETATM   18  C   UNL     1     -10.959   9.165  72.125  1.00  0.00    -0.119 C  
HETATM   19  H2  UNL     1     -13.581   9.806  71.839  1.00  0.00     0.000 HD 
HETATM   20  H1  UNL     1     -12.822  10.768  73.002  1.00  0.00     0.000 HD 
HETATM   21  C   UNL     1      -9.607   8.756  71.522  1.00  0.00    -0.284 C  
HETATM   22  N   UNL     1      -8.929   7.786  72.389  1.00  0.00    -0.138 NA 
HETATM   23  C   UNL     1      -9.788   8.189  70.101  1.00  0.00    -0.184 C  
HETATM   24  C   UNL     1     -10.611   9.214  69.259  1.00  0.00    -0.216 C  
HETATM   25  O   UNL     1     -11.052   8.574  68.039  1.00  0.00    -0.463 OA 
HETATM   26  H1  UNL     1      -8.032   7.515  71.989  1.00  0.00     0.000 HD 
HETATM   27  H2  UNL     1      -9.518   6.976  72.583  1.00  0.00     0.000 HD 
HETATM   28  H   UNL     1     -10.335   8.067  67.675  1.00  0.00     0.000 HD 
BRANCH  23  29
HETATM   29  O   UNL     1      -8.492   8.078  69.443  1.00  0.00    -0.129 OA 
BRANCH  29  30
HETATM   30  C   UNL     1      -8.136   6.947  68.623  1.00  0.00    -0.121 C  
HETATM   31  O   UNL     1      -8.648   6.967  67.288  1.00  0.00    -0.120 OA 
HETATM   32  C   UNL     1      -8.129   5.886  66.497  1.00  0.00    -0.102 C  
HETATM   33  C   UNL     1      -8.524   4.486  67.037  1.00  0.00    -0.104 C  
HETATM   34  C   UNL     1      -8.000   4.354  68.494  1.00  0.00    -0.078 C  
HETATM   35  O   UNL     1      -9.956   4.372  67.025  1.00  0.00    -0.206 OA 
HETATM   36  C   UNL     1      -7.950   3.413  66.100  1.00  0.00    -0.092 C  
HETATM   37  H   UNL     1      -7.947   4.665  71.075  1.00  0.00     0.000 HD 
HETATM   38  H   UNL     1     -10.197   3.515  67.355  1.00  0.00     0.000 HD 
HETATM   39  C   UNL     1      -8.441   5.587  69.356  1.00  0.00    -0.105 C  
HETATM   40  O   UNL     1      -7.763   5.485  70.633  1.00  0.00    -0.086 OA 
BRANCH  34  41
HETATM   41  N   UNL     1      -8.170   3.059  69.221  1.00  0.00    -0.058 NA 
HETATM   42  C   UNL     1      -6.992   2.234  69.419  1.00  0.00    -0.033 C  
HETATM   43  H   UNL     1      -9.084   2.766  69.567  1.00  0.00     0.000 HD 
ENDBRANCH  34  41
ENDBRANCH  29  30
ENDBRANCH  23  29
ENDBRANCH  14  15
ENDBRANCH   9  14
ENDBRANCH   4   5
ENDBRANCH   2   4
TORSDOF 7
ENDMDL
MODEL      124
REMARK 921   NORMALIZED FREE ENERGY PREDICTED BY IDOCK:   -5.10 KCAL/MOL
REMARK 922        TOTAL FREE ENERGY PREDICTED BY IDOCK:   -8.89 KCAL/MOL
REMARK 923 INTER-LIGAND FREE ENERGY PREDICTED BY IDOCK:   -8.69 KCAL/MOL
REMARK 924 INTRA-LIGAND FREE ENERGY PREDICTED BY IDOCK:   -0.20 KCAL/MOL
REMARK 927      BINDING AFFINITY PREDICTED BY RF-SCORE:    0.00 PKD
ROOT
HETATM    1  C   UNL     1      -7.562   7.134  62.332  1.00  0.00    -0.105 C  
HETATM    2  N   UNL     1      -8.786   7.916  62.406  1.00  0.00    -0.390 NA 
HETATM    3  H   UNL     1      -9.375   7.588  63.172  1.00  0.00     0.000 HD 
ENDROOT
BRANCH   2   4
HETATM    4  C   UNL     1      -8.562   9.366  62.511  1.00  0.00    -0.215 C  
BRANCH   4   5
HETATM    5  C   UNL     1      -8.415   9.927  63.951  1.00  0.00    -0.181 C  
HETATM    6  C   UNL     1      -6.981   9.986  64.445  1.00  0.00    -0.129 C  
HETATM    7  C   UNL     1      -6.961  10.600  65.845  1.00  0.00    -0.116 C  
HETATM    8  C   UNL     1      -8.021   9.983  66.783  1.00  0.00    -0.114 C  
HETATM    9  C   UNL     1      -9.433   9.707  66.094  1.00  0.00    -0.217 C  
HETATM   10  N   UNL     1      -8.037  10.737  68.058  1.00  0.00    -0.111 NA 
HETATM   11  O   UNL     1      -9.171   9.077  64.843  1.00  0.00    -0.151 OA 
HETATM   12  H1  UNL     1      -8.736  10.329  68.677  1.00  0.00     0.000 HD 
HETATM   13  H2  UNL     1      -8.180  11.737  67.916  1.00  0.00     0.000 HD 
BRANCH   9  14
HETATM   14  O   UNL     1     -10.321  10.842  65.965  1.00  0.00    -0.243 OA 
BRANCH  14  15
HETATM   15  C   UNL     1     -10.454  11.785  67.110  1.00  0.00    -0.220 C  
HETATM   16  C   UNL     1     -11.731  11.587  67.971  1.00  0.00    -0.273 C  
HETATM   17  N   UNL     1     -11.622  10.361  68.788  1.00  0.00    -0.497 NA 
HETATM   18  C   UNL     1     -11.972  12.761  68.943  1.00  0.00    -0.286 C  
HETATM   19  H2  UNL     1     -10.777  10.360  69.359  1.00  0.00     0.000 HD 
HETATM   20  H1  UNL     1     -12.461  10.231  69.352  1.00  0.00     0.000 HD 
HETATM   21  C   UNL     1     -12.033  14.121  68.232  1.00  0.00    -0.332 C  
HETATM   22  N   UNL     1     -12.466  15.169  69.163  1.00  0.00    -0.596 NA 
HETATM   23  C   UNL     1     -10.672  14.475  67.604  1.00  0.00    -0.254 C  
HETATM   24  C   UNL     1     -10.209  13.278  66.715  1.00  0.00    -0.254 C  
HETATM   25  O   UNL     1      -8.815  13.457  66.373  1.00  0.00    -0.447 OA 
HETATM   26  H1  UNL     1     -12.507  16.072  68.692  1.00  0.00     0.000 HD 
HETATM   27  H2  UNL     1     -11.878  15.202  69.996  1.00  0.00     0.000 HD 
HETATM   28  H   UNL     1      -8.666  14.364  66.133  1.00  0.00     0.000 HD 
BRANCH  23  29
HETATM   29  O   UNL     1     -10.821  15.610  66.703  1.00  0.00    -0.313 OA 
BRANCH  29  30
HETATM   30  C   UNL     1     -10.134  16.861  66.913  1.00  0.00    -0.289 C  
HETATM   31  O   UNL     1     -10.187  17.785  65.823  1.00  0.00    -0.566 OA 
HETATM   32  C   UNL     1      -9.608  19.054  66.166  1.00  0.00    -0.259 C  
HETATM   33  C   UNL     1      -8.100  18.965  66.519  1.00  0.00    -0.287 C  
HETATM   34  C   UNL     1      -7.930  17.984  67.711  1.00  0.00    -0.235 C  
HETATM   35  O   UNL     1      -7.386  18.467  65.376  1.00  0.00    -0.521 OA 
HETATM   36  C   UNL     1      -7.579  20.376  66.830  1.00  0.00    -0.345 C  
HETATM   37  H   UNL     1      -7.732  15.707  68.952  1.00  0.00     0.000 HD 
HETATM   38  H   UNL     1      -6.463  18.413  65.592  1.00  0.00     0.000 HD 
HETATM   39  C   UNL     1      -8.662  16.628  67.424  1.00  0.00    -0.190 C  
HETATM   40  O   UNL     1      -8.620  15.847  68.643  1.00  0.00    -0.176 OA 
BRANCH  34  41
HETATM   41  N   UNL     1      -6.575  17.784  68.310  1.00  0.00    -0.191 NA 
HETATM   42  C   UNL     1      -6.310  18.391  69.603  1.00  0.00    -0.188 C  
HETATM   43  H   UNL     1      -5.860  17.240  67.827  1.00  0.00     0.000 HD 
ENDBRANCH  34  41
ENDBRANCH  29  30
ENDBRANCH  23  29
ENDBRANCH  14  15
ENDBRANCH   9  14
ENDBRANCH   4   5
ENDBRANCH   2   4
TORSDOF 7
ENDMDL
MODEL      125
REMARK 921   NORMALIZED FREE ENERGY PREDICTED BY IDOCK:   -5.09 KCAL/MOL
REMARK 922        TOTAL FREE ENERGY PREDICTED BY IDOCK:   -8.89 KCAL/MOL
REMARK 923 INTER-LIGAND FREE ENERGY PREDICTED BY IDOCK:   -7.90 KCAL/MOL
REMARK 924 INTRA-LIGAND FREE ENERGY PREDICTED BY IDOCK:   -0.99 KCAL/MOL
REMARK 927      BINDING AFFINITY PREDICTED BY RF-SCORE:    0.00 PKD
ROOT
HETATM    1  C   UNL     1      -9.901   3.816  64.931  1.00  0.00    -0.183 C  
HETATM    2  N   UNL     1      -9.256   4.225  66.170  1.00  0.00    -0.136 NA 
HETATM    3  H   UNL     1      -8.245   4.111  66.102  1.00  0.00     0.000 HD 
ENDROOT
BRANCH   2   4
HETATM    4  C   UNL     1      -9.596   5.591  66.595  1.00  0.00    -0.151 C  
BRANCH   4   5
HETATM    5  C   UNL     1      -9.721   5.813  68.127  1.00  0.00    -0.125 C  
HETATM    6  C   UNL     1      -9.807   4.528  68.930  1.00  0.00    -0.190 C  
HETATM    7  C   UNL     1      -9.874   4.873  70.417  1.00  0.00    -0.302 C  
HETATM    8  C   UNL     1     -10.899   5.985  70.727  1.00  0.00    -0.292 C  
HETATM    9  C   UNL     1     -10.920   7.178  69.668  1.00  0.00    -0.212 C  
HETATM   10  N   UNL     1     -10.788   6.362  72.155  1.00  0.00    -0.227 NA 
HETATM   11  O   UNL     1     -10.918   6.586  68.372  1.00  0.00    -0.277 OA 
HETATM   12  H1  UNL     1     -11.465   7.097  72.360  1.00  0.00     0.000 HD 
HETATM   13  H2  UNL     1      -9.837   6.629  72.413  1.00  0.00     0.000 HD 
BRANCH   9  14
HETATM   14  O   UNL     1      -9.895   8.189  69.815  1.00  0.00    -0.182 OA 
BRANCH  14  15
HETATM   15  C   UNL     1     -10.288   9.549  70.276  1.00  0.00    -0.269 C  
HETATM   16  C   UNL     1     -11.805   9.727  70.560  1.00  0.00    -0.240 C  
HETATM   17  N   UNL     1     -12.186   9.023  71.802  1.00  0.00    -0.339 NA 
HETATM   18  C   UNL     1     -12.200  11.208  70.738  1.00  0.00    -0.484 C  
HETATM   19  H2  UNL     1     -11.615   9.317  72.595  1.00  0.00     0.000 HD 
HETATM   20  H1  UNL     1     -13.182   9.139  71.988  1.00  0.00     0.000 HD 
HETATM   21  C   UNL     1     -11.792  12.081  69.541  1.00  0.00    -0.326 C  
HETATM   22  N   UNL     1     -12.368  13.424  69.666  1.00  0.00    -0.199 NA 
HETATM   23  C   UNL     1     -10.259  12.152  69.410  1.00  0.00     0.492 C  
HETATM   24  C   UNL     1      -9.694  10.697  69.397  1.00  0.00    -0.116 C  
HETATM   25  O   UNL     1      -8.260  10.747  69.586  1.00  0.00    -0.380 OA 
HETATM   26  H1  UNL     1     -12.098  14.004  68.872  1.00  0.00     0.000 HD 
HETATM   27  H2  UNL     1     -12.123  13.861  70.555  1.00  0.00     0.000 HD 
HETATM   28  H   UNL     1      -7.899  11.445  69.051  1.00  0.00     0.000 HD 
BRANCH  23  29
HETATM   29  O   UNL     1      -9.898  12.735  68.124  1.00  0.00    -0.216 OA 
BRANCH  29  30
HETATM   30  C   UNL     1     -10.633  12.456  66.915  1.00  0.00    -0.229 C  
HETATM   31  O   UNL     1     -10.057  11.466  66.058  1.00  0.00    -0.218 OA 
HETATM   32  C   UNL     1     -10.920  11.143  64.956  1.00  0.00    -0.104 C  
HETATM   33  C   UNL     1     -11.193  12.347  64.017  1.00  0.00    -0.396 C  
HETATM   34  C   UNL     1     -11.835  13.488  64.854  1.00  0.00    -0.374 C  
HETATM   35  O   UNL     1      -9.945  12.795  63.464  1.00  0.00    -0.673 OA 
HETATM   36  C   UNL     1     -12.090  11.881  62.860  1.00  0.00     0.185 C  
HETATM   37  H   UNL     1     -11.953  15.510  66.485  1.00  0.00     0.000 HD 
HETATM   38  H   UNL     1     -10.114  13.533  62.889  1.00  0.00     0.000 HD 
HETATM   39  C   UNL     1     -10.986  13.780  66.139  1.00  0.00    -0.292 C  
HETATM   40  O   UNL     1     -11.740  14.711  66.953  1.00  0.00    -0.375 OA 
BRANCH  34  41
HETATM   41  N   UNL     1     -12.282  14.739  64.169  1.00  0.00    -0.874 NA 
HETATM   42  C   UNL     1     -11.412  15.899  64.242  1.00  0.00    -0.191 C  
HETATM   43  H   UNL     1     -13.170  14.776  63.666  1.00  0.00     0.000 HD 
ENDBRANCH  34  41
ENDBRANCH  29  30
ENDBRANCH  23  29
ENDBRANCH  14  15
ENDBRANCH   9  14
ENDBRANCH   4   5
ENDBRANCH   2   4
TORSDOF 7
ENDMDL
MODEL      126
REMARK 921   NORMALIZED FREE ENERGY PREDICTED BY IDOCK:   -5.09 KCAL/MOL
REMARK 922        TOTAL FREE ENERGY PREDICTED BY IDOCK:   -8.88 KCAL/MOL
REMARK 923 INTER-LIGAND FREE ENERGY PREDICTED BY IDOCK:   -7.95 KCAL/MOL
REMARK 924 INTRA-LIGAND FREE ENERGY PREDICTED BY IDOCK:   -0.92 KCAL/MOL
REMARK 927      BINDING AFFINITY PREDICTED BY RF-SCORE:    0.00 PKD
ROOT
HETATM    1  C   UNL     1     -14.382   8.027  71.859  1.00  0.00    -0.457 C  
HETATM    2  N   UNL     1     -13.804   9.308  72.237  1.00  0.00    -0.512 NA 
HETATM    3  H   UNL     1     -13.273   9.220  73.104  1.00  0.00     0.000 HD 
ENDROOT
BRANCH   2   4
HETATM    4  C   UNL     1     -12.979   9.922  71.186  1.00  0.00    -0.369 C  
BRANCH   4   5
HETATM    5  C   UNL     1     -11.590   9.272  70.947  1.00  0.00    -0.301 C  
HETATM    6  C   UNL     1     -10.815   8.991  72.221  1.00  0.00    -0.089 C  
HETATM    7  C   UNL     1      -9.495   8.309  71.862  1.00  0.00    -0.287 C  
HETATM    8  C   UNL     1      -8.751   9.016  70.709  1.00  0.00    -0.224 C  
HETATM    9  C   UNL     1      -9.695   9.519  69.525  1.00  0.00    -0.190 C  
HETATM   10  N   UNL     1      -7.572   8.206  70.324  1.00  0.00    -0.078 NA 
HETATM   11  O   UNL     1     -10.809  10.171  70.126  1.00  0.00    -0.273 OA 
HETATM   12  H1  UNL     1      -7.081   8.674  69.563  1.00  0.00     0.000 HD 
HETATM   13  H2  UNL     1      -7.820   7.244  70.093  1.00  0.00     0.000 HD 
BRANCH   9  14
HETATM   14  O   UNL     1     -10.096   8.525  68.552  1.00  0.00    -0.183 OA 
BRANCH  14  15
HETATM   15  C   UNL     1     -10.178   8.915  67.117  1.00  0.00    -0.269 C  
HETATM   16  C   UNL     1      -8.999   8.414  66.238  1.00  0.00    -0.174 C  
HETATM   17  N   UNL     1      -9.104   6.957  66.012  1.00  0.00    -0.312 NA 
HETATM   18  C   UNL     1      -8.973   9.088  64.851  1.00  0.00    -0.170 C  
HETATM   19  H2  UNL     1     -10.008   6.699  65.617  1.00  0.00     0.000 HD 
HETATM   20  H1  UNL     1      -8.330   6.628  65.436  1.00  0.00     0.000 HD 
HETATM   21  C   UNL     1      -8.940  10.622  64.934  1.00  0.00    -0.199 C  
HETATM   22  N   UNL     1      -8.708  11.204  63.608  1.00  0.00    -0.394 NA 
HETATM   23  C   UNL     1     -10.242  11.167  65.552  1.00  0.00    -0.263 C  
HETATM   24  C   UNL     1     -10.495  10.431  66.905  1.00  0.00    -0.240 C  
HETATM   25  O   UNL     1     -11.849  10.699  67.340  1.00  0.00    -0.450 OA 
HETATM   26  H1  UNL     1      -8.686  12.222  63.663  1.00  0.00     0.000 HD 
HETATM   27  H2  UNL     1      -9.392  10.876  62.926  1.00  0.00     0.000 HD 
HETATM   28  H   UNL     1     -12.042  11.620  67.211  1.00  0.00     0.000 HD 
BRANCH  23  29
HETATM   29  O   UNL     1     -10.080  12.576  65.885  1.00  0.00    -0.247 OA 
BRANCH  29  30
HETATM   30  C   UNL     1     -10.620  13.153  67.092  1.00  0.00    -0.257 C  
HETATM   31  O   UNL     1     -11.950  13.667  66.989  1.00  0.00    -0.388 OA 
HETATM   32  C   UNL     1     -12.464  14.086  68.263  1.00  0.00     0.265 C  
HETATM   33  C   UNL     1     -11.655  15.247  68.899  1.00  0.00    -0.347 C  
HETATM   34  C   UNL     1     -10.181  14.786  69.066  1.00  0.00    -0.237 C  
HETATM   35  O   UNL     1     -11.711  16.384  68.022  1.00  0.00    -0.074 OA 
HETATM   36  C   UNL     1     -12.311  15.638  70.232  1.00  0.00    -0.402 C  
HETATM   37  H   UNL     1      -7.728  14.256  68.386  1.00  0.00     0.000 HD 
HETATM   38  H   UNL     1     -11.215  17.095  68.412  1.00  0.00     0.000 HD 
HETATM   39  C   UNL     1      -9.626  14.200  67.723  1.00  0.00    -0.219 C  
HETATM   40  O   UNL     1      -8.327  13.625  68.006  1.00  0.00    -0.148 OA 
BRANCH  34  41
HETATM   41  N   UNL     1      -9.201  15.691  69.742  1.00  0.00    -0.231 NA 
HETATM   42  C   UNL     1      -8.459  16.625  68.913  1.00  0.00    -0.233 C  
HETATM   43  H   UNL     1      -9.058  15.653  70.751  1.00  0.00     0.000 HD 
ENDBRANCH  34  41
ENDBRANCH  29  30
ENDBRANCH  23  29
ENDBRANCH  14  15
ENDBRANCH   9  14
ENDBRANCH   4   5
ENDBRANCH   2   4
TORSDOF 7
ENDMDL
MODEL      127
REMARK 921   NORMALIZED FREE ENERGY PREDICTED BY IDOCK:   -5.08 KCAL/MOL
REMARK 922        TOTAL FREE ENERGY PREDICTED BY IDOCK:   -8.87 KCAL/MOL
REMARK 923 INTER-LIGAND FREE ENERGY PREDICTED BY IDOCK:   -7.44 KCAL/MOL
REMARK 924 INTRA-LIGAND FREE ENERGY PREDICTED BY IDOCK:   -1.43 KCAL/MOL
REMARK 927      BINDING AFFINITY PREDICTED BY RF-SCORE:    0.00 PKD
ROOT
HETATM    1  C   UNL     1     -10.992  11.703  63.435  1.00  0.00    -0.362 C  
HETATM    2  N   UNL     1     -11.826  12.800  62.966  1.00  0.00    -0.784 NA 
HETATM    3  H   UNL     1     -12.708  12.447  62.597  1.00  0.00     0.000 HD 
ENDROOT
BRANCH   2   4
HETATM    4  C   UNL     1     -12.067  13.838  63.979  1.00  0.00    -0.403 C  
BRANCH   4   5
HETATM    5  C   UNL     1     -11.491  13.554  65.393  1.00  0.00    -0.302 C  
HETATM    6  C   UNL     1     -12.389  14.015  66.527  1.00  0.00    -0.442 C  
HETATM    7  C   UNL     1     -11.742  13.637  67.859  1.00  0.00    -0.395 C  
HETATM    8  C   UNL     1     -10.247  14.015  67.926  1.00  0.00    -0.240 C  
HETATM    9  C   UNL     1      -9.435  13.738  66.581  1.00  0.00    -0.279 C  
HETATM   10  N   UNL     1      -9.667  13.477  69.179  1.00  0.00    -0.332 NA 
HETATM   11  O   UNL     1     -10.223  14.240  65.506  1.00  0.00    -0.322 OA 
HETATM   12  H1  UNL     1      -8.679  13.727  69.223  1.00  0.00     0.000 HD 
HETATM   13  H2  UNL     1      -9.817  12.472  69.276  1.00  0.00     0.000 HD 
BRANCH   9  14
HETATM   14  O   UNL     1      -9.000  12.376  66.358  1.00  0.00    -0.192 OA 
BRANCH  14  15
HETATM   15  C   UNL     1      -8.171  11.706  67.399  1.00  0.00    -0.153 C  
HETATM   16  C   UNL     1      -6.647  11.685  67.101  1.00  0.00    -0.134 C  
HETATM   17  N   UNL     1      -6.065  13.032  67.279  1.00  0.00    -0.430 NA 
HETATM   18  C   UNL     1      -5.879  10.731  68.040  1.00  0.00    -0.042 C  
HETATM   19  H2  UNL     1      -6.265  13.412  68.203  1.00  0.00     0.000 HD 
HETATM   20  H1  UNL     1      -5.065  13.018  67.083  1.00  0.00     0.000 HD 
HETATM   21  C   UNL     1      -6.431   9.298  68.014  1.00  0.00    -0.059 C  
HETATM   22  N   UNL     1      -5.546   8.393  68.757  1.00  0.00    -0.035 NA 
HETATM   23  C   UNL     1      -7.863   9.250  68.580  1.00  0.00    -0.089 C  
HETATM   24  C   UNL     1      -8.728  10.311  67.831  1.00  0.00    -0.122 C  
HETATM   25  O   UNL     1      -9.971  10.496  68.548  1.00  0.00    -0.158 OA 
HETATM   26  H1  UNL     1      -5.911   7.442  68.740  1.00  0.00     0.000 HD 
HETATM   27  H2  UNL     1      -5.383   8.720  69.709  1.00  0.00     0.000 HD 
HETATM   28  H   UNL     1     -10.310   9.648  68.811  1.00  0.00     0.000 HD 
BRANCH  23  29
HETATM   29  O   UNL     1      -8.468   7.957  68.287  1.00  0.00    -0.123 OA 
BRANCH  29  30
HETATM   30  C   UNL     1      -9.187   7.196  69.279  1.00  0.00    -0.140 C  
HETATM   31  O   UNL     1     -10.510   7.654  69.569  1.00  0.00    -0.220 OA 
HETATM   32  C   UNL     1     -11.205   6.760  70.453  1.00  0.00    -0.328 C  
HETATM   33  C   UNL     1     -10.533   6.628  71.845  1.00  0.00    -0.201 C  
HETATM   34  C   UNL     1      -9.079   6.122  71.644  1.00  0.00    -0.145 C  
HETATM   35  O   UNL     1     -10.515   7.920  72.474  1.00  0.00    -0.249 OA 
HETATM   36  C   UNL     1     -11.377   5.684  72.716  1.00  0.00    -0.350 C  
HETATM   37  H   UNL     1      -6.538   6.238  71.102  1.00  0.00     0.000 HD 
HETATM   38  H   UNL     1     -10.103   7.838  73.327  1.00  0.00     0.000 HD 
HETATM   39  C   UNL     1      -8.327   6.999  70.584  1.00  0.00    -0.127 C  
HETATM   40  O   UNL     1      -7.057   6.356  70.315  1.00  0.00    -0.073 OA 
BRANCH  34  41
HETATM   41  N   UNL     1      -8.233   5.822  72.840  1.00  0.00    -0.118 NA 
HETATM   42  C   UNL     1      -7.679   4.485  72.960  1.00  0.00    -0.087 C  
HETATM   43  H   UNL     1      -8.052   6.534  73.548  1.00  0.00     0.000 HD 
ENDBRANCH  34  41
ENDBRANCH  29  30
ENDBRANCH  23  29
ENDBRANCH  14  15
ENDBRANCH   9  14
ENDBRANCH   4   5
ENDBRANCH   2   4
TORSDOF 7
ENDMDL
MODEL      128
REMARK 921   NORMALIZED FREE ENERGY PREDICTED BY IDOCK:   -5.07 KCAL/MOL
REMARK 922        TOTAL FREE ENERGY PREDICTED BY IDOCK:   -8.86 KCAL/MOL
REMARK 923 INTER-LIGAND FREE ENERGY PREDICTED BY IDOCK:   -8.18 KCAL/MOL
REMARK 924 INTRA-LIGAND FREE ENERGY PREDICTED BY IDOCK:   -0.68 KCAL/MOL
REMARK 927      BINDING AFFINITY PREDICTED BY RF-SCORE:    0.00 PKD
ROOT
HETATM    1  C   UNL     1      -9.864  20.523  66.937  1.00  0.00    -0.366 C  
HETATM    2  N   UNL     1     -10.871  19.472  66.939  1.00  0.00    -0.464 NA 
HETATM    3  H   UNL     1     -11.751  19.819  66.558  1.00  0.00     0.000 HD 
ENDROOT
BRANCH   2   4
HETATM    4  C   UNL     1     -10.453  18.246  66.243  1.00  0.00    -0.376 C  
BRANCH   4   5
HETATM    5  C   UNL     1      -9.996  17.073  67.152  1.00  0.00    -0.281 C  
HETATM    6  C   UNL     1      -8.569  17.202  67.652  1.00  0.00    -0.214 C  
HETATM    7  C   UNL     1      -8.255  16.022  68.572  1.00  0.00    -0.181 C  
HETATM    8  C   UNL     1      -8.687  14.667  67.973  1.00  0.00    -0.167 C  
HETATM    9  C   UNL     1     -10.096  14.694  67.227  1.00  0.00    -0.236 C  
HETATM   10  N   UNL     1      -8.490  13.605  68.987  1.00  0.00    -0.340 NA 
HETATM   11  O   UNL     1     -10.104  15.847  66.391  1.00  0.00    -0.263 OA 
HETATM   12  H1  UNL     1      -8.775  12.709  68.592  1.00  0.00     0.000 HD 
HETATM   13  H2  UNL     1      -8.968  13.811  69.864  1.00  0.00     0.000 HD 
BRANCH   9  14
HETATM   14  O   UNL     1     -11.273  14.611  68.065  1.00  0.00    -0.270 OA 
BRANCH  14  15
HETATM   15  C   UNL     1     -11.788  13.267  68.449  1.00  0.00    -0.360 C  
HETATM   16  C   UNL     1     -11.800  12.988  69.977  1.00  0.00    -0.285 C  
HETATM   17  N   UNL     1     -12.870  13.763  70.638  1.00  0.00    -0.243 NA 
HETATM   18  C   UNL     1     -12.050  11.501  70.300  1.00  0.00    -0.444 C  
HETATM   19  H2  UNL     1     -13.781  13.589  70.215  1.00  0.00     0.000 HD 
HETATM   20  H1  UNL     1     -12.877  13.580  71.641  1.00  0.00     0.000 HD 
HETATM   21  C   UNL     1     -11.047  10.564  69.611  1.00  0.00    -0.283 C  
HETATM   22  N   UNL     1     -11.197   9.192  70.110  1.00  0.00    -0.348 NA 
HETATM   23  C   UNL     1     -11.213  10.611  68.080  1.00  0.00    -0.302 C  
HETATM   24  C   UNL     1     -11.157  12.101  67.621  1.00  0.00    -0.268 C  
HETATM   25  O   UNL     1     -11.616  12.189  66.251  1.00  0.00    -0.369 OA 
HETATM   26  H1  UNL     1     -10.531   8.570  69.653  1.00  0.00     0.000 HD 
HETATM   27  H2  UNL     1     -12.156   8.857  70.015  1.00  0.00     0.000 HD 
HETATM   28  H   UNL     1     -11.233  11.481  65.747  1.00  0.00     0.000 HD 
BRANCH  23  29
HETATM   29  O   UNL     1     -10.083   9.950  67.438  1.00  0.00    -0.182 OA 
BRANCH  29  30
HETATM   30  C   UNL     1     -10.165   8.606  66.922  1.00  0.00    -0.296 C  
HETATM   31  O   UNL     1     -10.740   7.640  67.804  1.00  0.00    -0.214 OA 
HETATM   32  C   UNL     1     -10.919   6.366  67.164  1.00  0.00    -0.399 C  
HETATM   33  C   UNL     1      -9.586   5.718  66.706  1.00  0.00    -0.147 C  
HETATM   34  C   UNL     1      -8.877   6.692  65.724  1.00  0.00    -0.077 C  
HETATM   35  O   UNL     1      -8.756   5.502  67.858  1.00  0.00    -0.108 OA 
HETATM   36  C   UNL     1      -9.890   4.352  66.072  1.00  0.00    -0.241 C  
HETATM   37  H   UNL     1      -7.450   8.725  64.954  1.00  0.00     0.000 HD 
HETATM   38  H   UNL     1      -7.940   5.105  67.577  1.00  0.00     0.000 HD 
HETATM   39  C   UNL     1      -8.780   8.130  66.341  1.00  0.00    -0.149 C  
HETATM   40  O   UNL     1      -8.285   9.012  65.304  1.00  0.00    -0.122 OA 
BRANCH  34  41
HETATM   41  N   UNL     1      -7.606   6.269  65.061  1.00  0.00    -0.084 NA 
HETATM   42  C   UNL     1      -7.662   5.912  63.654  1.00  0.00    -0.099 C  
HETATM   43  H   UNL     1      -6.728   6.233  65.579  1.00  0.00     0.000 HD 
ENDBRANCH  34  41
ENDBRANCH  29  30
ENDBRANCH  23  29
ENDBRANCH  14  15
ENDBRANCH   9  14
ENDBRANCH   4   5
ENDBRANCH   2   4
TORSDOF 7
ENDMDL
MODEL      129
REMARK 921   NORMALIZED FREE ENERGY PREDICTED BY IDOCK:   -5.03 KCAL/MOL
REMARK 922        TOTAL FREE ENERGY PREDICTED BY IDOCK:   -8.80 KCAL/MOL
REMARK 923 INTER-LIGAND FREE ENERGY PREDICTED BY IDOCK:   -7.93 KCAL/MOL
REMARK 924 INTRA-LIGAND FREE ENERGY PREDICTED BY IDOCK:   -0.86 KCAL/MOL
REMARK 927      BINDING AFFINITY PREDICTED BY RF-SCORE:    0.00 PKD
ROOT
HETATM    1  C   UNL     1      -6.681  11.481  69.718  1.00  0.00    -0.047 C  
HETATM    2  N   UNL     1      -6.358  10.067  69.835  1.00  0.00    -0.056 NA 
HETATM    3  H   UNL     1      -5.401   9.944  70.166  1.00  0.00     0.000 HD 
ENDROOT
BRANCH   2   4
HETATM    4  C   UNL     1      -7.298   9.309  70.674  1.00  0.00    -0.123 C  
BRANCH   4   5
HETATM    5  C   UNL     1      -7.932   8.053  70.018  1.00  0.00    -0.106 C  
HETATM    6  C   UNL     1      -7.061   6.812  70.097  1.00  0.00    -0.071 C  
HETATM    7  C   UNL     1      -7.810   5.637  69.467  1.00  0.00    -0.092 C  
HETATM    8  C   UNL     1      -8.436   5.991  68.101  1.00  0.00    -0.115 C  
HETATM    9  C   UNL     1      -9.101   7.439  68.035  1.00  0.00    -0.130 C  
HETATM   10  N   UNL     1      -9.266   4.854  67.640  1.00  0.00    -0.119 NA 
HETATM   11  O   UNL     1      -8.178   8.350  68.624  1.00  0.00    -0.120 OA 
HETATM   12  H1  UNL     1      -9.680   5.088  66.737  1.00  0.00     0.000 HD 
HETATM   13  H2  UNL     1      -9.968   4.581  68.328  1.00  0.00     0.000 HD 
BRANCH   9  14
HETATM   14  O   UNL     1     -10.431   7.565  68.589  1.00  0.00    -0.199 OA 
BRANCH  14  15
HETATM   15  C   UNL     1     -10.654   8.516  69.714  1.00  0.00    -0.224 C  
HETATM   16  C   UNL     1     -11.534   7.963  70.869  1.00  0.00    -0.281 C  
HETATM   17  N   UNL     1     -10.787   6.960  71.655  1.00  0.00    -0.223 NA 
HETATM   18  C   UNL     1     -11.980   9.068  71.848  1.00  0.00    -0.445 C  
HETATM   19  H2  UNL     1      -9.901   7.331  71.999  1.00  0.00     0.000 HD 
HETATM   20  H1  UNL     1     -11.365   6.597  72.413  1.00  0.00     0.000 HD 
HETATM   21  C   UNL     1     -12.712  10.224  71.149  1.00  0.00    -0.403 C  
HETATM   22  N   UNL     1     -13.292  11.138  72.139  1.00  0.00    -0.577 NA 
HETATM   23  C   UNL     1     -11.764  10.978  70.196  1.00  0.00    -0.356 C  
HETATM   24  C   UNL     1     -11.091   9.941  69.243  1.00  0.00    -0.181 C  
HETATM   25  O   UNL     1      -9.984  10.577  68.561  1.00  0.00    -0.158 OA 
HETATM   26  H1  UNL     1     -13.777  11.906  71.675  1.00  0.00     0.000 HD 
HETATM   27  H2  UNL     1     -12.591  11.477  72.799  1.00  0.00     0.000 HD 
HETATM   28  H   UNL     1     -10.250  11.443  68.275  1.00  0.00     0.000 HD 
BRANCH  23  29
HETATM   29  O   UNL     1     -12.531  11.873  69.339  1.00  0.00    -0.062 OA 
BRANCH  29  30
HETATM   30  C   UNL     1     -12.154  13.247  69.121  1.00  0.00    -0.238 C  
HETATM   31  O   UNL     1     -10.929  13.445  68.410  1.00  0.00    -0.247 OA 
HETATM   32  C   UNL     1     -10.702  14.831  68.107  1.00  0.00    -0.247 C  
HETATM   33  C   UNL     1     -10.558  15.719  69.371  1.00  0.00    -0.255 C  
HETATM   34  C   UNL     1     -11.853  15.584  70.218  1.00  0.00    -0.357 C  
HETATM   35  O   UNL     1      -9.430  15.260  70.133  1.00  0.00    -0.421 OA 
HETATM   36  C   UNL     1     -10.282  17.165  68.932  1.00  0.00    -0.332 C  
HETATM   37  H   UNL     1     -13.541  14.532  71.893  1.00  0.00     0.000 HD 
HETATM   38  H   UNL     1      -9.342  15.805  70.906  1.00  0.00     0.000 HD 
HETATM   39  C   UNL     1     -12.205  14.076  70.459  1.00  0.00    -0.365 C  
HETATM   40  O   UNL     1     -13.510  14.032  71.085  1.00  0.00    -0.288 OA 
BRANCH  34  41
HETATM   41  N   UNL     1     -12.012  16.412  71.453  1.00  0.00    -0.617 NA 
HETATM   42  C   UNL     1     -11.818  15.759  72.735  1.00  0.00    -0.478 C  
HETATM   43  H   UNL     1     -12.249  17.403  71.396  1.00  0.00     0.000 HD 
ENDBRANCH  34  41
ENDBRANCH  29  30
ENDBRANCH  23  29
ENDBRANCH  14  15
ENDBRANCH   9  14
ENDBRANCH   4   5
ENDBRANCH   2   4
TORSDOF 7
ENDMDL
MODEL      130
REMARK 921   NORMALIZED FREE ENERGY PREDICTED BY IDOCK:   -5.03 KCAL/MOL
REMARK 922        TOTAL FREE ENERGY PREDICTED BY IDOCK:   -8.80 KCAL/MOL
REMARK 923 INTER-LIGAND FREE ENERGY PREDICTED BY IDOCK:   -7.40 KCAL/MOL
REMARK 924 INTRA-LIGAND FREE ENERGY PREDICTED BY IDOCK:   -1.40 KCAL/MOL
REMARK 927      BINDING AFFINITY PREDICTED BY RF-SCORE:    0.00 PKD
ROOT
HETATM    1  C   UNL     1     -11.269   7.972  72.871  1.00  0.00    -0.322 C  
HETATM    2  N   UNL     1     -10.083   7.613  73.634  1.00  0.00    -0.344 NA 
HETATM    3  H   UNL     1     -10.000   8.201  74.464  1.00  0.00     0.000 HD 
ENDROOT
BRANCH   2   4
HETATM    4  C   UNL     1     -10.017   6.191  73.999  1.00  0.00    -0.246 C  
BRANCH   4   5
HETATM    5  C   UNL     1      -9.926   5.190  72.815  1.00  0.00    -0.161 C  
HETATM    6  C   UNL     1      -9.315   3.852  73.186  1.00  0.00    -0.127 C  
HETATM    7  C   UNL     1      -9.327   2.941  71.958  1.00  0.00    -0.182 C  
HETATM    8  C   UNL     1      -8.801   3.644  70.688  1.00  0.00    -0.080 C  
HETATM    9  C   UNL     1      -9.289   5.153  70.519  1.00  0.00    -0.158 C  
HETATM   10  N   UNL     1      -8.993   2.747  69.524  1.00  0.00    -0.095 NA 
HETATM   11  O   UNL     1      -9.113   5.792  71.780  1.00  0.00    -0.142 OA 
HETATM   12  H1  UNL     1      -8.646   3.211  68.685  1.00  0.00     0.000 HD 
HETATM   13  H2  UNL     1      -9.961   2.440  69.425  1.00  0.00     0.000 HD 
BRANCH   9  14
HETATM   14  O   UNL     1     -10.618   5.346  69.982  1.00  0.00    -0.305 OA 
BRANCH  14  15
HETATM   15  C   UNL     1     -10.774   6.082  68.697  1.00  0.00    -0.297 C  
HETATM   16  C   UNL     1      -9.947   5.509  67.514  1.00  0.00    -0.160 C  
HETATM   17  N   UNL     1     -10.533   4.238  67.040  1.00  0.00    -0.030 NA 
HETATM   18  C   UNL     1      -9.907   6.468  66.307  1.00  0.00    -0.032 C  
HETATM   19  H2  UNL     1     -11.518   4.341  66.798  1.00  0.00     0.000 HD 
HETATM   20  H1  UNL     1      -9.990   3.861  66.264  1.00  0.00     0.000 HD 
HETATM   21  C   UNL     1      -9.384   7.866  66.673  1.00  0.00    -0.193 C  
HETATM   22  N   UNL     1      -9.170   8.668  65.463  1.00  0.00    -0.404 NA 
HETATM   23  C   UNL     1     -10.350   8.578  67.639  1.00  0.00    -0.253 C  
HETATM   24  C   UNL     1     -10.629   7.632  68.849  1.00  0.00    -0.159 C  
HETATM   25  O   UNL     1     -11.756   8.144  69.598  1.00  0.00    -0.224 OA 
HETATM   26  H1  UNL     1      -8.823   9.595  65.706  1.00  0.00     0.000 HD 
HETATM   27  H2  UNL     1     -10.011   8.716  64.887  1.00  0.00     0.000 HD 
HETATM   28  H   UNL     1     -11.667   9.086  69.690  1.00  0.00     0.000 HD 
BRANCH  23  29
HETATM   29  O   UNL     1      -9.710   9.763  68.195  1.00  0.00    -0.142 OA 
BRANCH  29  30
HETATM   30  C   UNL     1     -10.044  11.098  67.761  1.00  0.00    -0.178 C  
HETATM   31  O   UNL     1      -8.932  11.940  67.445  1.00  0.00    -0.163 OA 
HETATM   32  C   UNL     1      -9.350  13.194  66.884  1.00  0.00    -0.246 C  
HETATM   33  C   UNL     1     -10.209  14.044  67.856  1.00  0.00    -0.240 C  
HETATM   34  C   UNL     1     -11.462  13.218  68.258  1.00  0.00    -0.316 C  
HETATM   35  O   UNL     1      -9.429  14.341  69.025  1.00  0.00    -0.372 OA 
HETATM   36  C   UNL     1     -10.567  15.372  67.171  1.00  0.00    -0.305 C  
HETATM   37  H   UNL     1     -12.874  11.442  69.529  1.00  0.00     0.000 HD 
HETATM   38  H   UNL     1      -9.955  14.862  69.620  1.00  0.00     0.000 HD 
HETATM   39  C   UNL     1     -11.050  11.790  68.756  1.00  0.00    -0.241 C  
HETATM   40  O   UNL     1     -12.267  11.025  68.929  1.00  0.00    -0.519 OA 
BRANCH  34  41
HETATM   41  N   UNL     1     -12.507  13.844  69.125  1.00  0.00    -0.388 NA 
HETATM   42  C   UNL     1     -12.255  13.906  70.553  1.00  0.00    -0.373 C  
HETATM   43  H   UNL     1     -13.369  14.216  68.725  1.00  0.00     0.000 HD 
ENDBRANCH  34  41
ENDBRANCH  29  30
ENDBRANCH  23  29
ENDBRANCH  14  15
ENDBRANCH   9  14
ENDBRANCH   4   5
ENDBRANCH   2   4
TORSDOF 7
ENDMDL
MODEL      131
REMARK 921   NORMALIZED FREE ENERGY PREDICTED BY IDOCK:   -5.02 KCAL/MOL
REMARK 922        TOTAL FREE ENERGY PREDICTED BY IDOCK:   -8.79 KCAL/MOL
REMARK 923 INTER-LIGAND FREE ENERGY PREDICTED BY IDOCK:   -8.26 KCAL/MOL
REMARK 924 INTRA-LIGAND FREE ENERGY PREDICTED BY IDOCK:   -0.53 KCAL/MOL
REMARK 927      BINDING AFFINITY PREDICTED BY RF-SCORE:    0.00 PKD
ROOT
HETATM    1  C   UNL     1     -10.283   6.065  72.561  1.00  0.00    -0.186 C  
HETATM    2  N   UNL     1     -11.704   5.988  72.866  1.00  0.00    -0.515 NA 
HETATM    3  H   UNL     1     -11.887   6.335  73.808  1.00  0.00     0.000 HD 
ENDROOT
BRANCH   2   4
HETATM    4  C   UNL     1     -12.561   6.673  71.887  1.00  0.00    -0.256 C  
BRANCH   4   5
HETATM    5  C   UNL     1     -12.320   8.198  71.724  1.00  0.00    -0.321 C  
HETATM    6  C   UNL     1     -13.517   9.053  72.100  1.00  0.00    -0.514 C  
HETATM    7  C   UNL     1     -13.143  10.527  71.948  1.00  0.00    -0.567 C  
HETATM    8  C   UNL     1     -12.436  10.829  70.610  1.00  0.00    -0.370 C  
HETATM    9  C   UNL     1     -11.375   9.726  70.160  1.00  0.00    -0.251 C  
HETATM   10  N   UNL     1     -11.974  12.237  70.613  1.00  0.00    -0.503 NA 
HETATM   11  O   UNL     1     -11.993   8.455  70.339  1.00  0.00    -0.030 OA 
HETATM   12  H1  UNL     1     -11.507  12.436  69.729  1.00  0.00     0.000 HD 
HETATM   13  H2  UNL     1     -11.386  12.451  71.419  1.00  0.00     0.000 HD 
BRANCH   9  14
HETATM   14  O   UNL     1     -10.069   9.797  70.777  1.00  0.00    -0.261 OA 
BRANCH  14  15
HETATM   15  C   UNL     1      -8.866   9.503  69.950  1.00  0.00    -0.211 C  
HETATM   16  C   UNL     1      -7.511   9.664  70.692  1.00  0.00    -0.085 C  
HETATM   17  N   UNL     1      -7.312   8.563  71.656  1.00  0.00    -0.094 NA 
HETATM   18  C   UNL     1      -6.307   9.645  69.726  1.00  0.00    -0.047 C  
HETATM   19  H2  UNL     1      -7.393   7.649  71.210  1.00  0.00     0.000 HD 
HETATM   20  H1  UNL     1      -6.423   8.669  72.143  1.00  0.00     0.000 HD 
HETATM   21  C   UNL     1      -6.417  10.701  68.615  1.00  0.00    -0.051 C  
HETATM   22  N   UNL     1      -5.165  10.780  67.856  1.00  0.00    -0.037 NA 
HETATM   23  C   UNL     1      -7.605  10.395  67.683  1.00  0.00    -0.089 C  
HETATM   24  C   UNL     1      -8.886  10.208  68.555  1.00  0.00    -0.127 C  
HETATM   25  O   UNL     1      -9.929   9.623  67.741  1.00  0.00    -0.156 OA 
HETATM   26  H1  UNL     1      -5.237  11.480  67.118  1.00  0.00     0.000 HD 
HETATM   27  H2  UNL     1      -4.886   9.870  67.489  1.00  0.00     0.000 HD 
HETATM   28  H   UNL     1      -9.941  10.052  66.893  1.00  0.00     0.000 HD 
BRANCH  23  29
HETATM   29  O   UNL     1      -7.867  11.541  66.822  1.00  0.00    -0.155 OA 
BRANCH  29  30
HETATM   30  C   UNL     1      -9.195  12.064  66.614  1.00  0.00    -0.211 C  
HETATM   31  O   UNL     1      -9.757  11.825  65.321  1.00  0.00    -0.237 OA 
HETATM   32  C   UNL     1     -11.128  12.246  65.246  1.00  0.00    -0.316 C  
HETATM   33  C   UNL     1     -11.315  13.770  65.468  1.00  0.00    -0.307 C  
HETATM   34  C   UNL     1     -10.742  14.139  66.863  1.00  0.00    -0.286 C  
HETATM   35  O   UNL     1     -10.596  14.478  64.445  1.00  0.00    -0.583 OA 
HETATM   36  C   UNL     1     -12.807  14.113  65.328  1.00  0.00    -0.370 C  
HETATM   37  H   UNL     1      -8.952  14.712  68.660  1.00  0.00     0.000 HD 
HETATM   38  H   UNL     1     -10.711  15.411  64.581  1.00  0.00     0.000 HD 
HETATM   39  C   UNL     1      -9.287  13.580  67.031  1.00  0.00    -0.247 C  
HETATM   40  O   UNL     1      -8.897  13.797  68.409  1.00  0.00    -0.181 OA 
BRANCH  34  41
HETATM   41  N   UNL     1     -10.876  15.540  67.366  1.00  0.00    -0.309 NA 
HETATM   42  C   UNL     1     -11.642  15.753  68.582  1.00  0.00    -0.386 C  
HETATM   43  H   UNL     1     -10.444  16.321  66.871  1.00  0.00     0.000 HD 
ENDBRANCH  34  41
ENDBRANCH  29  30
ENDBRANCH  23  29
ENDBRANCH  14  15
ENDBRANCH   9  14
ENDBRANCH   4   5
ENDBRANCH   2   4
TORSDOF 7
ENDMDL
MODEL      132
REMARK 921   NORMALIZED FREE ENERGY PREDICTED BY IDOCK:   -5.01 KCAL/MOL
REMARK 922        TOTAL FREE ENERGY PREDICTED BY IDOCK:   -8.78 KCAL/MOL
REMARK 923 INTER-LIGAND FREE ENERGY PREDICTED BY IDOCK:   -7.44 KCAL/MOL
REMARK 924 INTRA-LIGAND FREE ENERGY PREDICTED BY IDOCK:   -1.33 KCAL/MOL
REMARK 927      BINDING AFFINITY PREDICTED BY RF-SCORE:    0.00 PKD
ROOT
HETATM    1  C   UNL     1     -11.661  10.325  70.395  1.00  0.00    -0.328 C  
HETATM    2  N   UNL     1     -12.326   9.074  70.723  1.00  0.00    -0.490 NA 
HETATM    3  H   UNL     1     -13.212   8.997  70.224  1.00  0.00     0.000 HD 
ENDROOT
BRANCH   2   4
HETATM    4  C   UNL     1     -11.498   7.881  70.492  1.00  0.00    -0.195 C  
BRANCH   4   5
HETATM    5  C   UNL     1     -10.941   7.710  69.053  1.00  0.00     0.060 C  
HETATM    6  C   UNL     1     -11.054   6.295  68.514  1.00  0.00    -0.397 C  
HETATM    7  C   UNL     1     -10.524   6.265  67.081  1.00  0.00    -0.327 C  
HETATM    8  C   UNL     1      -9.166   6.985  66.930  1.00  0.00    -0.150 C  
HETATM    9  C   UNL     1      -9.046   8.344  67.756  1.00  0.00    -0.135 C  
HETATM   10  N   UNL     1      -8.806   7.043  65.495  1.00  0.00    -0.359 NA 
HETATM   11  O   UNL     1      -9.543   8.083  69.065  1.00  0.00    -0.154 OA 
HETATM   12  H1  UNL     1      -7.909   7.519  65.395  1.00  0.00     0.000 HD 
HETATM   13  H2  UNL     1      -9.537   7.472  64.927  1.00  0.00     0.000 HD 
BRANCH   9  14
HETATM   14  O   UNL     1      -9.647   9.518  67.161  1.00  0.00    -0.150 OA 
BRANCH  14  15
HETATM   15  C   UNL     1      -8.763  10.629  66.710  1.00  0.00    -0.130 C  
HETATM   16  C   UNL     1      -7.247  10.289  66.697  1.00  0.00    -0.109 C  
HETATM   17  N   UNL     1      -6.931   9.373  65.582  1.00  0.00    -0.085 NA 
HETATM   18  C   UNL     1      -6.366  11.543  66.518  1.00  0.00    -0.054 C  
HETATM   19  H2  UNL     1      -7.243   9.745  64.685  1.00  0.00     0.000 HD 
HETATM   20  H1  UNL     1      -5.936   9.150  65.573  1.00  0.00     0.000 HD 
HETATM   21  C   UNL     1      -6.645  12.623  67.575  1.00  0.00    -0.156 C  
HETATM   22  N   UNL     1      -5.648  13.696  67.489  1.00  0.00    -0.353 NA 
HETATM   23  C   UNL     1      -8.071  13.186  67.423  1.00  0.00    -0.179 C  
HETATM   24  C   UNL     1      -9.077  11.992  67.408  1.00  0.00    -0.178 C  
HETATM   25  O   UNL     1     -10.367  12.469  66.960  1.00  0.00    -0.223 OA 
HETATM   26  H1  UNL     1      -5.833  14.412  68.191  1.00  0.00     0.000 HD 
HETATM   27  H2  UNL     1      -5.596  14.089  66.550  1.00  0.00     0.000 HD 
HETATM   28  H   UNL     1     -10.558  13.298  67.384  1.00  0.00     0.000 HD 
BRANCH  23  29
HETATM   29  O   UNL     1      -8.415  13.986  68.591  1.00  0.00    -0.160 OA 
BRANCH  29  30
HETATM   30  C   UNL     1      -9.043  15.280  68.484  1.00  0.00    -0.192 C  
HETATM   31  O   UNL     1     -10.223  15.329  67.679  1.00  0.00    -0.238 OA 
HETATM   32  C   UNL     1     -10.865  16.612  67.744  1.00  0.00    -0.292 C  
HETATM   33  C   UNL     1      -9.984  17.768  67.200  1.00  0.00    -0.322 C  
HETATM   34  C   UNL     1      -8.666  17.810  68.022  1.00  0.00    -0.251 C  
HETATM   35  O   UNL     1      -9.686  17.511  65.819  1.00  0.00    -0.534 OA 
HETATM   36  C   UNL     1     -10.779  19.080  67.283  1.00  0.00    -0.556 C  
HETATM   37  H   UNL     1      -6.266  17.142  68.768  1.00  0.00     0.000 HD 
HETATM   38  H   UNL     1      -9.146  18.219  65.486  1.00  0.00     0.000 HD 
HETATM   39  C   UNL     1      -8.002  16.392  68.081  1.00  0.00    -0.160 C  
HETATM   40  O   UNL     1      -6.894  16.472  69.011  1.00  0.00    -0.177 OA 
BRANCH  34  41
HETATM   41  N   UNL     1      -7.672  18.895  67.759  1.00  0.00    -0.239 NA 
HETATM   42  C   UNL     1      -7.048  18.938  66.448  1.00  0.00    -0.231 C  
HETATM   43  H   UNL     1      -7.440  19.582  68.477  1.00  0.00     0.000 HD 
ENDBRANCH  34  41
ENDBRANCH  29  30
ENDBRANCH  23  29
ENDBRANCH  14  15
ENDBRANCH   9  14
ENDBRANCH   4   5
ENDBRANCH   2   4
TORSDOF 7
ENDMDL
MODEL      133
REMARK 921   NORMALIZED FREE ENERGY PREDICTED BY IDOCK:   -5.01 KCAL/MOL
REMARK 922        TOTAL FREE ENERGY PREDICTED BY IDOCK:   -8.77 KCAL/MOL
REMARK 923 INTER-LIGAND FREE ENERGY PREDICTED BY IDOCK:   -8.30 KCAL/MOL
REMARK 924 INTRA-LIGAND FREE ENERGY PREDICTED BY IDOCK:   -0.48 KCAL/MOL
REMARK 927      BINDING AFFINITY PREDICTED BY RF-SCORE:    0.00 PKD
ROOT
HETATM    1  C   UNL     1      -6.948   6.611  63.295  1.00  0.00    -0.052 C  
HETATM    2  N   UNL     1      -8.232   7.189  63.662  1.00  0.00    -0.344 NA 
HETATM    3  H   UNL     1      -8.600   6.741  64.501  1.00  0.00     0.000 HD 
ENDROOT
BRANCH   2   4
HETATM    4  C   UNL     1      -8.203   8.650  63.826  1.00  0.00    -0.145 C  
BRANCH   4   5
HETATM    5  C   UNL     1      -8.221   9.168  65.290  1.00  0.00    -0.134 C  
HETATM    6  C   UNL     1      -6.875   9.092  65.986  1.00  0.00    -0.084 C  
HETATM    7  C   UNL     1      -7.008   9.675  67.393  1.00  0.00    -0.084 C  
HETATM    8  C   UNL     1      -8.240   9.133  68.149  1.00  0.00    -0.116 C  
HETATM    9  C   UNL     1      -9.555   8.995  67.256  1.00  0.00    -0.159 C  
HETATM   10  N   UNL     1      -8.379   9.861  69.432  1.00  0.00    -0.141 NA 
HETATM   11  O   UNL     1      -9.168   8.369  66.037  1.00  0.00    -0.196 OA 
HETATM   12  H1  UNL     1      -9.193   9.504  69.932  1.00  0.00     0.000 HD 
HETATM   13  H2  UNL     1      -8.417  10.873  69.303  1.00  0.00     0.000 HD 
BRANCH   9  14
HETATM   14  O   UNL     1     -10.317  10.205  67.038  1.00  0.00    -0.221 OA 
BRANCH  14  15
HETATM   15  C   UNL     1     -10.436  11.191  68.148  1.00  0.00    -0.189 C  
HETATM   16  C   UNL     1     -11.765  11.111  68.949  1.00  0.00    -0.337 C  
HETATM   17  N   UNL     1     -11.783   9.906  69.805  1.00  0.00    -0.450 NA 
HETATM   18  C   UNL     1     -11.966  12.329  69.875  1.00  0.00    -0.377 C  
HETATM   19  H2  UNL     1     -10.969   9.864  70.417  1.00  0.00     0.000 HD 
HETATM   20  H1  UNL     1     -12.655   9.854  70.330  1.00  0.00     0.000 HD 
HETATM   21  C   UNL     1     -11.895  13.667  69.124  1.00  0.00    -0.348 C  
HETATM   22  N   UNL     1     -12.295  14.772  70.002  1.00  0.00    -0.427 NA 
HETATM   23  C   UNL     1     -10.483  13.903  68.555  1.00  0.00    -0.250 C  
HETATM   24  C   UNL     1     -10.066  12.650  67.724  1.00  0.00    -0.220 C  
HETATM   25  O   UNL     1      -8.648  12.718  67.447  1.00  0.00    -0.174 OA 
HETATM   26  H1  UNL     1     -12.248  15.660  69.504  1.00  0.00     0.000 HD 
HETATM   27  H2  UNL     1     -11.746  14.790  70.862  1.00  0.00     0.000 HD 
HETATM   28  H   UNL     1      -8.422  13.605  67.189  1.00  0.00     0.000 HD 
BRANCH  23  29
HETATM   29  O   UNL     1     -10.507  15.018  67.616  1.00  0.00    -0.242 OA 
BRANCH  29  30
HETATM   30  C   UNL     1      -9.547  16.093  67.667  1.00  0.00    -0.222 C  
HETATM   31  O   UNL     1      -9.124  16.481  68.976  1.00  0.00    -0.256 OA 
HETATM   32  C   UNL     1      -8.065  17.451  68.933  1.00  0.00    -0.183 C  
HETATM   33  C   UNL     1      -8.481  18.783  68.255  1.00  0.00    -0.327 C  
HETATM   34  C   UNL     1      -8.953  18.473  66.808  1.00  0.00    -0.293 C  
HETATM   35  O   UNL     1      -9.560  19.365  69.003  1.00  0.00    -0.401 OA 
HETATM   36  C   UNL     1      -7.291  19.754  68.298  1.00  0.00    -0.349 C  
HETATM   37  H   UNL     1     -10.551  17.710  64.904  1.00  0.00     0.000 HD 
HETATM   38  H   UNL     1      -9.814  20.181  68.588  1.00  0.00     0.000 HD 
HETATM   39  C   UNL     1     -10.019  17.324  66.805  1.00  0.00    -0.301 C  
HETATM   40  O   UNL     1     -10.266  16.967  65.423  1.00  0.00    -0.605 OA 
BRANCH  34  41
HETATM   41  N   UNL     1      -9.327  19.601  65.900  1.00  0.00    -0.397 NA 
HETATM   42  C   UNL     1     -10.712  20.036  65.896  1.00  0.00    -0.274 C  
HETATM   43  H   UNL     1      -8.631  20.050  65.304  1.00  0.00     0.000 HD 
ENDBRANCH  34  41
ENDBRANCH  29  30
ENDBRANCH  23  29
ENDBRANCH  14  15
ENDBRANCH   9  14
ENDBRANCH   4   5
ENDBRANCH   2   4
TORSDOF 7
ENDMDL
MODEL      134
REMARK 921   NORMALIZED FREE ENERGY PREDICTED BY IDOCK:   -5.01 KCAL/MOL
REMARK 922        TOTAL FREE ENERGY PREDICTED BY IDOCK:   -8.77 KCAL/MOL
REMARK 923 INTER-LIGAND FREE ENERGY PREDICTED BY IDOCK:   -7.53 KCAL/MOL
REMARK 924 INTRA-LIGAND FREE ENERGY PREDICTED BY IDOCK:   -1.23 KCAL/MOL
REMARK 927      BINDING AFFINITY PREDICTED BY RF-SCORE:    0.00 PKD
ROOT
HETATM    1  C   UNL     1     -12.077   6.713  70.621  1.00  0.00    -0.281 C  
HETATM    2  N   UNL     1     -12.331   7.543  71.789  1.00  0.00    -0.315 NA 
HETATM    3  H   UNL     1     -12.574   6.964  72.594  1.00  0.00     0.000 HD 
ENDROOT
BRANCH   2   4
HETATM    4  C   UNL     1     -11.227   8.455  72.122  1.00  0.00    -0.361 C  
BRANCH   4   5
HETATM    5  C   UNL     1      -9.878   7.781  72.493  1.00  0.00    -0.212 C  
HETATM    6  C   UNL     1      -9.920   6.994  73.791  1.00  0.00    -0.367 C  
HETATM    7  C   UNL     1      -8.558   6.339  74.020  1.00  0.00    -0.124 C  
HETATM    8  C   UNL     1      -7.382   7.317  73.810  1.00  0.00    -0.090 C  
HETATM    9  C   UNL     1      -7.554   8.297  72.564  1.00  0.00    -0.115 C  
HETATM   10  N   UNL     1      -6.108   6.567  73.899  1.00  0.00    -0.063 NA 
HETATM   11  O   UNL     1      -8.878   8.818  72.621  1.00  0.00    -0.394 OA 
HETATM   12  H1  UNL     1      -5.331   7.213  73.760  1.00  0.00     0.000 HD 
HETATM   13  H2  UNL     1      -6.076   5.778  73.253  1.00  0.00     0.000 HD 
BRANCH   9  14
HETATM   14  O   UNL     1      -7.230   7.751  71.263  1.00  0.00    -0.059 OA 
BRANCH  14  15
HETATM   15  C   UNL     1      -8.292   7.702  70.220  1.00  0.00    -0.132 C  
HETATM   16  C   UNL     1      -8.348   6.378  69.409  1.00  0.00    -0.122 C  
HETATM   17  N   UNL     1      -8.892   5.284  70.240  1.00  0.00    -0.123 NA 
HETATM   18  C   UNL     1      -9.247   6.492  68.161  1.00  0.00    -0.112 C  
HETATM   19  H2  UNL     1      -9.801   5.524  70.635  1.00  0.00     0.000 HD 
HETATM   20  H1  UNL     1      -8.927   4.415  69.708  1.00  0.00     0.000 HD 
HETATM   21  C   UNL     1      -8.839   7.648  67.235  1.00  0.00    -0.120 C  
HETATM   22  N   UNL     1      -9.586   7.585  65.974  1.00  0.00    -0.427 NA 
HETATM   23  C   UNL     1      -9.049   9.007  67.929  1.00  0.00    -0.135 C  
HETATM   24  C   UNL     1      -8.329   8.975  69.313  1.00  0.00    -0.122 C  
HETATM   25  O   UNL     1      -8.768  10.107  70.099  1.00  0.00    -0.360 OA 
HETATM   26  H1  UNL     1      -9.316   8.352  65.359  1.00  0.00     0.000 HD 
HETATM   27  H2  UNL     1     -10.594   7.562  66.131  1.00  0.00     0.000 HD 
HETATM   28  H   UNL     1      -8.790  10.881  69.548  1.00  0.00     0.000 HD 
BRANCH  23  29
HETATM   29  O   UNL     1      -8.399  10.061  67.161  1.00  0.00    -0.121 OA 
BRANCH  29  30
HETATM   30  C   UNL     1      -9.038  11.324  66.883  1.00  0.00    -0.167 C  
HETATM   31  O   UNL     1      -9.170  12.208  67.999  1.00  0.00    -0.181 OA 
HETATM   32  C   UNL     1      -9.680  13.493  67.609  1.00  0.00    -0.229 C  
HETATM   33  C   UNL     1     -11.107  13.428  67.003  1.00  0.00    -0.292 C  
HETATM   34  C   UNL     1     -11.073  12.491  65.764  1.00  0.00    -0.308 C  
HETATM   35  O   UNL     1     -12.005  12.895  67.989  1.00  0.00    -0.346 OA 
HETATM   36  C   UNL     1     -11.565  14.854  66.658  1.00  0.00    -0.265 C  
HETATM   37  H   UNL     1     -11.060  10.262  64.426  1.00  0.00     0.000 HD 
HETATM   38  H   UNL     1     -12.878  12.856  67.617  1.00  0.00     0.000 HD 
HETATM   39  C   UNL     1     -10.402  11.121  66.121  1.00  0.00    -0.250 C  
HETATM   40  O   UNL     1     -10.238  10.384  64.885  1.00  0.00    -0.338 OA 
BRANCH  34  41
HETATM   41  N   UNL     1     -12.307  12.324  64.936  1.00  0.00    -0.477 NA 
HETATM   42  C   UNL     1     -12.256  12.753  63.550  1.00  0.00    -0.525 C  
HETATM   43  H   UNL     1     -13.156  11.921  65.333  1.00  0.00     0.000 HD 
ENDBRANCH  34  41
ENDBRANCH  29  30
ENDBRANCH  23  29
ENDBRANCH  14  15
ENDBRANCH   9  14
ENDBRANCH   4   5
ENDBRANCH   2   4
TORSDOF 7
ENDMDL
MODEL      135
REMARK 921   NORMALIZED FREE ENERGY PREDICTED BY IDOCK:   -5.00 KCAL/MOL
REMARK 922        TOTAL FREE ENERGY PREDICTED BY IDOCK:   -8.76 KCAL/MOL
REMARK 923 INTER-LIGAND FREE ENERGY PREDICTED BY IDOCK:   -8.58 KCAL/MOL
REMARK 924 INTRA-LIGAND FREE ENERGY PREDICTED BY IDOCK:   -0.19 KCAL/MOL
REMARK 927      BINDING AFFINITY PREDICTED BY RF-SCORE:    0.00 PKD
ROOT
HETATM    1  C   UNL     1     -12.060  12.311  70.664  1.00  0.00    -0.237 C  
HETATM    2  N   UNL     1     -12.702  13.402  71.382  1.00  0.00    -0.347 NA 
HETATM    3  H   UNL     1     -12.346  13.461  72.336  1.00  0.00     0.000 HD 
ENDROOT
BRANCH   2   4
HETATM    4  C   UNL     1     -12.595  14.704  70.708  1.00  0.00    -0.350 C  
BRANCH   4   5
HETATM    5  C   UNL     1     -11.513  14.805  69.598  1.00  0.00    -0.292 C  
HETATM    6  C   UNL     1     -10.540  15.954  69.792  1.00  0.00    -0.322 C  
HETATM    7  C   UNL     1      -9.499  15.919  68.673  1.00  0.00    -0.214 C  
HETATM    8  C   UNL     1     -10.130  15.739  67.276  1.00  0.00    -0.247 C  
HETATM    9  C   UNL     1     -11.335  14.695  67.225  1.00  0.00    -0.353 C  
HETATM   10  N   UNL     1      -9.051  15.560  66.276  1.00  0.00    -0.313 NA 
HETATM   11  O   UNL     1     -12.186  14.986  68.331  1.00  0.00    -0.166 OA 
HETATM   12  H1  UNL     1      -9.468  15.441  65.353  1.00  0.00     0.000 HD 
HETATM   13  H2  UNL     1      -8.420  14.796  66.519  1.00  0.00     0.000 HD 
BRANCH   9  14
HETATM   14  O   UNL     1     -10.976  13.296  67.158  1.00  0.00    -0.265 OA 
BRANCH  14  15
HETATM   15  C   UNL     1     -10.396  12.762  65.894  1.00  0.00    -0.283 C  
HETATM   16  C   UNL     1     -11.431  12.147  64.912  1.00  0.00    -0.325 C  
HETATM   17  N   UNL     1     -12.240  13.208  64.279  1.00  0.00    -0.494 NA 
HETATM   18  C   UNL     1     -10.759  11.349  63.776  1.00  0.00    -0.470 C  
HETATM   19  H2  UNL     1     -11.657  13.909  63.823  1.00  0.00     0.000 HD 
HETATM   20  H1  UNL     1     -12.920  12.804  63.635  1.00  0.00     0.000 HD 
HETATM   21  C   UNL     1      -9.820  10.249  64.294  1.00  0.00    -0.288 C  
HETATM   22  N   UNL     1      -9.372   9.393  63.190  1.00  0.00    -0.490 NA 
HETATM   23  C   UNL     1      -8.616  10.859  65.037  1.00  0.00    -0.053 C  
HETATM   24  C   UNL     1      -9.150  11.845  66.122  1.00  0.00    -0.161 C  
HETATM   25  O   UNL     1      -8.051  12.649  66.611  1.00  0.00    -0.405 OA 
HETATM   26  H1  UNL     1      -8.749   8.663  63.533  1.00  0.00     0.000 HD 
HETATM   27  H2  UNL     1      -8.944   9.935  62.439  1.00  0.00     0.000 HD 
HETATM   28  H   UNL     1      -7.294  12.091  66.750  1.00  0.00     0.000 HD 
BRANCH  23  29
HETATM   29  O   UNL     1      -7.899   9.816  65.759  1.00  0.00    -0.104 OA 
BRANCH  29  30
HETATM   30  C   UNL     1      -8.578   8.784  66.504  1.00  0.00    -0.118 C  
HETATM   31  O   UNL     1      -9.996   8.729  66.330  1.00  0.00    -0.267 OA 
HETATM   32  C   UNL     1     -10.574   7.589  66.985  1.00  0.00    -0.339 C  
HETATM   33  C   UNL     1     -10.377   7.601  68.524  1.00  0.00    -0.198 C  
HETATM   34  C   UNL     1      -8.854   7.649  68.826  1.00  0.00    -0.131 C  
HETATM   35  O   UNL     1     -11.015   8.769  69.063  1.00  0.00    -0.426 OA 
HETATM   36  C   UNL     1     -11.062   6.362  69.122  1.00  0.00    -0.428 C  
HETATM   37  H   UNL     1      -6.486   8.682  69.125  1.00  0.00     0.000 HD 
HETATM   38  H   UNL     1     -10.895   8.776  70.005  1.00  0.00     0.000 HD 
HETATM   39  C   UNL     1      -8.165   8.806  68.023  1.00  0.00    -0.118 C  
HETATM   40  O   UNL     1      -6.735   8.668  68.208  1.00  0.00    -0.063 OA 
BRANCH  34  41
HETATM   41  N   UNL     1      -8.383   7.579  70.243  1.00  0.00    -0.131 NA 
HETATM   42  C   UNL     1      -9.083   8.384  71.229  1.00  0.00    -0.178 C  
HETATM   43  H   UNL     1      -7.597   6.986  70.508  1.00  0.00     0.000 HD 
ENDBRANCH  34  41
ENDBRANCH  29  30
ENDBRANCH  23  29
ENDBRANCH  14  15
ENDBRANCH   9  14
ENDBRANCH   4   5
ENDBRANCH   2   4
TORSDOF 7
ENDMDL
MODEL      136
REMARK 921   NORMALIZED FREE ENERGY PREDICTED BY IDOCK:   -5.00 KCAL/MOL
REMARK 922        TOTAL FREE ENERGY PREDICTED BY IDOCK:   -8.76 KCAL/MOL
REMARK 923 INTER-LIGAND FREE ENERGY PREDICTED BY IDOCK:   -8.10 KCAL/MOL
REMARK 924 INTRA-LIGAND FREE ENERGY PREDICTED BY IDOCK:   -0.66 KCAL/MOL
REMARK 927      BINDING AFFINITY PREDICTED BY RF-SCORE:    0.00 PKD
ROOT
HETATM    1  C   UNL     1     -12.157  11.022  71.044  1.00  0.00    -0.301 C  
HETATM    2  N   UNL     1     -11.392  11.811  70.089  1.00  0.00    -0.497 NA 
HETATM    3  H   UNL     1     -10.981  11.209  69.375  1.00  0.00     0.000 HD 
ENDROOT
BRANCH   2   4
HETATM    4  C   UNL     1     -12.158  12.901  69.469  1.00  0.00    -0.214 C  
BRANCH   4   5
HETATM    5  C   UNL     1     -11.731  13.297  68.029  1.00  0.00    -0.359 C  
HETATM    6  C   UNL     1     -11.751  14.792  67.770  1.00  0.00    -0.368 C  
HETATM    7  C   UNL     1     -11.265  15.058  66.346  1.00  0.00    -0.310 C  
HETATM    8  C   UNL     1     -11.938  14.139  65.304  1.00  0.00    -0.381 C  
HETATM    9  C   UNL     1     -12.117  12.626  65.776  1.00  0.00    -0.423 C  
HETATM   10  N   UNL     1     -11.300  14.355  63.984  1.00  0.00    -0.560 NA 
HETATM   11  O   UNL     1     -12.640  12.660  67.101  1.00  0.00    -0.020 OA 
HETATM   12  H1  UNL     1     -11.745  13.747  63.296  1.00  0.00     0.000 HD 
HETATM   13  H2  UNL     1     -10.289  14.228  64.016  1.00  0.00     0.000 HD 
BRANCH   9  14
HETATM   14  O   UNL     1     -10.954  11.772  65.663  1.00  0.00    -0.293 OA 
BRANCH  14  15
HETATM   15  C   UNL     1     -10.109  11.545  66.868  1.00  0.00    -0.212 C  
HETATM   16  C   UNL     1      -8.639  12.028  66.732  1.00  0.00    -0.177 C  
HETATM   17  N   UNL     1      -8.572  13.504  66.768  1.00  0.00    -0.432 NA 
HETATM   18  C   UNL     1      -7.742  11.505  67.873  1.00  0.00    -0.120 C  
HETATM   19  H2  UNL     1      -9.020  13.883  67.602  1.00  0.00     0.000 HD 
HETATM   20  H1  UNL     1      -7.608  13.820  66.678  1.00  0.00     0.000 HD 
HETATM   21  C   UNL     1      -7.773   9.974  68.002  1.00  0.00    -0.089 C  
HETATM   22  N   UNL     1      -6.754   9.518  68.954  1.00  0.00    -0.050 NA 
HETATM   23  C   UNL     1      -9.173   9.487  68.422  1.00  0.00    -0.130 C  
HETATM   24  C   UNL     1     -10.225  10.095  67.442  1.00  0.00    -0.218 C  
HETATM   25  O   UNL     1     -11.548   9.907  67.995  1.00  0.00    -0.602 OA 
HETATM   26  H1  UNL     1      -6.775   8.502  69.040  1.00  0.00     0.000 HD 
HETATM   27  H2  UNL     1      -6.850   9.977  69.860  1.00  0.00     0.000 HD 
HETATM   28  H   UNL     1     -11.619   9.026  68.344  1.00  0.00     0.000 HD 
BRANCH  23  29
HETATM   29  O   UNL     1      -9.263   8.042  68.262  1.00  0.00    -0.135 OA 
BRANCH  29  30
HETATM   30  C   UNL     1      -9.790   7.180  69.292  1.00  0.00    -0.161 C  
HETATM   31  O   UNL     1     -11.161   7.396  69.636  1.00  0.00    -0.210 OA 
HETATM   32  C   UNL     1     -11.645   6.407  70.558  1.00  0.00    -0.358 C  
HETATM   33  C   UNL     1     -10.903   6.422  71.920  1.00  0.00    -0.240 C  
HETATM   34  C   UNL     1      -9.390   6.183  71.659  1.00  0.00    -0.148 C  
HETATM   35  O   UNL     1     -11.091   7.706  72.536  1.00  0.00    -0.281 OA 
HETATM   36  C   UNL     1     -11.524   5.356  72.835  1.00  0.00    -0.340 C  
HETATM   37  H   UNL     1      -6.937   6.746  71.004  1.00  0.00     0.000 HD 
HETATM   38  H   UNL     1     -10.637   7.714  73.370  1.00  0.00     0.000 HD 
HETATM   39  C   UNL     1      -8.854   7.163  70.559  1.00  0.00    -0.154 C  
HETATM   40  O   UNL     1      -7.501   6.756  70.240  1.00  0.00    -0.085 OA 
BRANCH  34  41
HETATM   41  N   UNL     1      -8.455   6.061  72.819  1.00  0.00    -0.122 NA 
HETATM   42  C   UNL     1      -7.927   7.286  73.395  1.00  0.00    -0.105 C  
HETATM   43  H   UNL     1      -8.197   5.148  73.193  1.00  0.00     0.000 HD 
ENDBRANCH  34  41
ENDBRANCH  29  30
ENDBRANCH  23  29
ENDBRANCH  14  15
ENDBRANCH   9  14
ENDBRANCH   4   5
ENDBRANCH   2   4
TORSDOF 7
ENDMDL
MODEL      137
REMARK 921   NORMALIZED FREE ENERGY PREDICTED BY IDOCK:   -5.00 KCAL/MOL
REMARK 922        TOTAL FREE ENERGY PREDICTED BY IDOCK:   -8.76 KCAL/MOL
REMARK 923 INTER-LIGAND FREE ENERGY PREDICTED BY IDOCK:   -7.41 KCAL/MOL
REMARK 924 INTRA-LIGAND FREE ENERGY PREDICTED BY IDOCK:   -1.35 KCAL/MOL
REMARK 927      BINDING AFFINITY PREDICTED BY RF-SCORE:    0.00 PKD
ROOT
HETATM    1  C   UNL     1      -9.418   4.767  74.003  1.00  0.00    -0.121 C  
HETATM    2  N   UNL     1      -8.909   6.130  73.983  1.00  0.00    -0.126 NA 
HETATM    3  H   UNL     1      -8.129   6.211  73.331  1.00  0.00     0.000 HD 
ENDROOT
BRANCH   2   4
HETATM    4  C   UNL     1      -9.933   7.144  73.693  1.00  0.00    -0.325 C  
BRANCH   4   5
HETATM    5  C   UNL     1     -10.365   7.266  72.206  1.00  0.00    -0.210 C  
HETATM    6  C   UNL     1     -11.526   6.365  71.827  1.00  0.00    -0.349 C  
HETATM    7  C   UNL     1     -11.890   6.611  70.363  1.00  0.00    -0.407 C  
HETATM    8  C   UNL     1     -10.656   6.625  69.435  1.00  0.00    -0.240 C  
HETATM    9  C   UNL     1      -9.384   7.375  70.038  1.00  0.00    -0.151 C  
HETATM   10  N   UNL     1     -11.080   7.022  68.072  1.00  0.00    -0.514 NA 
HETATM   11  O   UNL     1      -9.229   6.921  71.380  1.00  0.00    -0.155 OA 
HETATM   12  H1  UNL     1     -10.266   7.031  67.459  1.00  0.00     0.000 HD 
HETATM   13  H2  UNL     1     -11.581   7.911  68.065  1.00  0.00     0.000 HD 
BRANCH   9  14
HETATM   14  O   UNL     1      -9.378   8.818  69.939  1.00  0.00    -0.155 OA 
BRANCH  14  15
HETATM   15  C   UNL     1      -8.569   9.462  68.867  1.00  0.00    -0.131 C  
HETATM   16  C   UNL     1      -7.168   9.959  69.319  1.00  0.00    -0.073 C  
HETATM   17  N   UNL     1      -6.259   8.816  69.539  1.00  0.00    -0.039 NA 
HETATM   18  C   UNL     1      -6.503  10.874  68.270  1.00  0.00    -0.057 C  
HETATM   19  H2  UNL     1      -6.200   8.215  68.718  1.00  0.00     0.000 HD 
HETATM   20  H1  UNL     1      -5.339   9.142  69.837  1.00  0.00     0.000 HD 
HETATM   21  C   UNL     1      -7.379  12.076  67.886  1.00  0.00    -0.104 C  
HETATM   22  N   UNL     1      -6.624  13.016  67.051  1.00  0.00    -0.453 NA 
HETATM   23  C   UNL     1      -8.662  11.614  67.169  1.00  0.00    -0.164 C  
HETATM   24  C   UNL     1      -9.362  10.534  68.050  1.00  0.00    -0.145 C  
HETATM   25  O   UNL     1     -10.383   9.873  67.265  1.00  0.00    -0.214 OA 
HETATM   26  H1  UNL     1      -7.205  13.814  66.796  1.00  0.00     0.000 HD 
HETATM   27  H2  UNL     1      -6.227  12.559  66.230  1.00  0.00     0.000 HD 
HETATM   28  H   UNL     1     -10.865  10.524  66.769  1.00  0.00     0.000 HD 
BRANCH  23  29
HETATM   29  O   UNL     1      -9.602  12.724  67.071  1.00  0.00    -0.216 OA 
BRANCH  29  30
HETATM   30  C   UNL     1      -9.959  13.538  68.206  1.00  0.00    -0.237 C  
HETATM   31  O   UNL     1     -11.226  13.245  68.802  1.00  0.00    -0.248 OA 
HETATM   32  C   UNL     1     -11.439  13.995  70.008  1.00  0.00    -0.168 C  
HETATM   33  C   UNL     1     -11.471  15.529  69.778  1.00  0.00    -0.331 C  
HETATM   34  C   UNL     1     -10.122  15.959  69.138  1.00  0.00    -0.240 C  
HETATM   35  O   UNL     1     -12.553  15.841  68.886  1.00  0.00    -0.423 OA 
HETATM   36  C   UNL     1     -11.741  16.226  71.121  1.00  0.00    -0.353 C  
HETATM   37  H   UNL     1      -8.347  16.328  67.274  1.00  0.00     0.000 HD 
HETATM   38  H   UNL     1     -12.572  16.780  68.747  1.00  0.00     0.000 HD 
HETATM   39  C   UNL     1      -9.793  15.071  67.889  1.00  0.00    -0.217 C  
HETATM   40  O   UNL     1      -8.448  15.403  67.466  1.00  0.00    -0.158 OA 
BRANCH  34  41
HETATM   41  N   UNL     1      -9.855  17.409  68.893  1.00  0.00    -0.301 NA 
HETATM   42  C   UNL     1     -10.333  17.985  67.649  1.00  0.00    -0.388 C  
HETATM   43  H   UNL     1      -9.355  17.975  69.579  1.00  0.00     0.000 HD 
ENDBRANCH  34  41
ENDBRANCH  29  30
ENDBRANCH  23  29
ENDBRANCH  14  15
ENDBRANCH   9  14
ENDBRANCH   4   5
ENDBRANCH   2   4
TORSDOF 7
ENDMDL
MODEL      138
REMARK 921   NORMALIZED FREE ENERGY PREDICTED BY IDOCK:   -4.99 KCAL/MOL
REMARK 922        TOTAL FREE ENERGY PREDICTED BY IDOCK:   -8.75 KCAL/MOL
REMARK 923 INTER-LIGAND FREE ENERGY PREDICTED BY IDOCK:   -7.32 KCAL/MOL
REMARK 924 INTRA-LIGAND FREE ENERGY PREDICTED BY IDOCK:   -1.43 KCAL/MOL
REMARK 927      BINDING AFFINITY PREDICTED BY RF-SCORE:    0.00 PKD
ROOT
HETATM    1  C   UNL     1      -7.577   3.200  68.337  1.00  0.00    -0.052 C  
HETATM    2  N   UNL     1      -8.805   3.798  68.838  1.00  0.00    -0.100 NA 
HETATM    3  H   UNL     1      -9.619   3.352  68.415  1.00  0.00     0.000 HD 
ENDROOT
BRANCH   2   4
HETATM    4  C   UNL     1      -8.915   3.791  70.305  1.00  0.00    -0.104 C  
BRANCH   4   5
HETATM    5  C   UNL     1      -9.777   4.925  70.925  1.00  0.00    -0.195 C  
HETATM    6  C   UNL     1     -10.578   4.493  72.140  1.00  0.00    -0.137 C  
HETATM    7  C   UNL     1     -11.339   5.699  72.689  1.00  0.00    -0.356 C  
HETATM    8  C   UNL     1     -12.075   6.493  71.587  1.00  0.00    -0.328 C  
HETATM    9  C   UNL     1     -11.246   6.668  70.235  1.00  0.00    -0.353 C  
HETATM   10  N   UNL     1     -12.651   7.723  72.179  1.00  0.00    -0.468 NA 
HETATM   11  O   UNL     1     -10.698   5.393  69.913  1.00  0.00    -0.316 OA 
HETATM   12  H1  UNL     1     -13.137   8.247  71.452  1.00  0.00     0.000 HD 
HETATM   13  H2  UNL     1     -11.952   8.286  72.662  1.00  0.00     0.000 HD 
BRANCH   9  14
HETATM   14  O   UNL     1     -10.251   7.718  70.219  1.00  0.00    -0.195 OA 
BRANCH  14  15
HETATM   15  C   UNL     1      -9.419   7.901  68.996  1.00  0.00    -0.151 C  
HETATM   16  C   UNL     1      -7.929   8.245  69.269  1.00  0.00    -0.114 C  
HETATM   17  N   UNL     1      -7.207   7.059  69.775  1.00  0.00    -0.077 NA 
HETATM   18  C   UNL     1      -7.194   8.716  67.997  1.00  0.00    -0.087 C  
HETATM   19  H2  UNL     1      -7.303   6.261  69.147  1.00  0.00     0.000 HD 
HETATM   20  H1  UNL     1      -6.229   7.286  69.954  1.00  0.00     0.000 HD 
HETATM   21  C   UNL     1      -7.884   9.909  67.317  1.00  0.00    -0.102 C  
HETATM   22  N   UNL     1      -7.042  10.445  66.242  1.00  0.00    -0.116 NA 
HETATM   23  C   UNL     1      -9.270   9.507  66.777  1.00  0.00    -0.149 C  
HETATM   24  C   UNL     1     -10.078   8.840  67.934  1.00  0.00    -0.207 C  
HETATM   25  O   UNL     1     -11.243   8.185  67.378  1.00  0.00    -0.378 OA 
HETATM   26  H1  UNL     1      -7.499  11.237  65.791  1.00  0.00     0.000 HD 
HETATM   27  H2  UNL     1      -6.780   9.724  65.570  1.00  0.00     0.000 HD 
HETATM   28  H   UNL     1     -11.644   8.756  66.732  1.00  0.00     0.000 HD 
BRANCH  23  29
HETATM   29  O   UNL     1     -10.019  10.698  66.399  1.00  0.00    -0.206 OA 
BRANCH  29  30
HETATM   30  C   UNL     1     -10.368  11.727  67.347  1.00  0.00    -0.204 C  
HETATM   31  O   UNL     1     -11.741  11.758  67.746  1.00  0.00    -0.464 OA 
HETATM   32  C   UNL     1     -11.974  12.710  68.796  1.00  0.00    -0.237 C  
HETATM   33  C   UNL     1     -11.664  14.172  68.379  1.00  0.00    -0.345 C  
HETATM   34  C   UNL     1     -10.177  14.252  67.934  1.00  0.00    -0.237 C  
HETATM   35  O   UNL     1     -12.519  14.531  67.283  1.00  0.00    -0.578 OA 
HETATM   36  C   UNL     1     -11.982  15.102  69.559  1.00  0.00    -0.351 C  
HETATM   37  H   UNL     1      -8.111  14.010  66.374  1.00  0.00     0.000 HD 
HETATM   38  H   UNL     1     -12.329  15.426  67.028  1.00  0.00     0.000 HD 
HETATM   39  C   UNL     1      -9.853  13.139  66.878  1.00  0.00    -0.249 C  
HETATM   40  O   UNL     1      -8.422  13.158  66.657  1.00  0.00    -0.052 OA 
BRANCH  34  41
HETATM   41  N   UNL     1      -9.592  15.577  67.564  1.00  0.00    -0.212 NA 
HETATM   42  C   UNL     1      -8.609  16.157  68.462  1.00  0.00    -0.202 C  
HETATM   43  H   UNL     1      -9.874  16.057  66.709  1.00  0.00     0.000 HD 
ENDBRANCH  34  41
ENDBRANCH  29  30
ENDBRANCH  23  29
ENDBRANCH  14  15
ENDBRANCH   9  14
ENDBRANCH   4   5
ENDBRANCH   2   4
TORSDOF 7
ENDMDL
MODEL      139
REMARK 921   NORMALIZED FREE ENERGY PREDICTED BY IDOCK:   -4.99 KCAL/MOL
REMARK 922        TOTAL FREE ENERGY PREDICTED BY IDOCK:   -8.74 KCAL/MOL
REMARK 923 INTER-LIGAND FREE ENERGY PREDICTED BY IDOCK:   -6.74 KCAL/MOL
REMARK 924 INTRA-LIGAND FREE ENERGY PREDICTED BY IDOCK:   -2.00 KCAL/MOL
REMARK 927      BINDING AFFINITY PREDICTED BY RF-SCORE:    0.00 PKD
ROOT
HETATM    1  C   UNL     1     -11.704   7.349  70.928  1.00  0.00    -0.296 C  
HETATM    2  N   UNL     1     -10.569   6.821  71.671  1.00  0.00    -0.213 NA 
HETATM    3  H   UNL     1     -10.655   7.043  72.663  1.00  0.00     0.000 HD 
ENDROOT
BRANCH   2   4
HETATM    4  C   UNL     1     -10.353   5.379  71.482  1.00  0.00    -0.225 C  
BRANCH   4   5
HETATM    5  C   UNL     1     -10.009   4.928  70.036  1.00  0.00    -0.253 C  
HETATM    6  C   UNL     1      -9.613   3.467  69.925  1.00  0.00    -0.219 C  
HETATM    7  C   UNL     1      -9.349   3.133  68.457  1.00  0.00    -0.240 C  
HETATM    8  C   UNL     1      -8.451   4.176  67.759  1.00  0.00    -0.098 C  
HETATM    9  C   UNL     1      -8.772   5.689  68.148  1.00  0.00    -0.102 C  
HETATM   10  N   UNL     1      -8.376   3.861  66.313  1.00  0.00    -0.104 NA 
HETATM   11  O   UNL     1      -8.906   5.737  69.565  1.00  0.00    -0.116 OA 
HETATM   12  H1  UNL     1      -7.782   4.550  65.852  1.00  0.00     0.000 HD 
HETATM   13  H2  UNL     1      -9.298   3.793  65.882  1.00  0.00     0.000 HD 
BRANCH   9  14
HETATM   14  O   UNL     1      -9.888   6.309  67.466  1.00  0.00    -0.114 OA 
BRANCH  14  15
HETATM   15  C   UNL     1      -9.635   7.500  66.609  1.00  0.00    -0.200 C  
HETATM   16  C   UNL     1      -8.436   7.356  65.631  1.00  0.00    -0.130 C  
HETATM   17  N   UNL     1      -8.776   6.435  64.527  1.00  0.00    -0.325 NA 
HETATM   18  C   UNL     1      -8.034   8.702  64.994  1.00  0.00    -0.131 C  
HETATM   19  H2  UNL     1      -9.627   6.722  64.043  1.00  0.00     0.000 HD 
HETATM   20  H1  UNL     1      -7.989   6.341  63.885  1.00  0.00     0.000 HD 
HETATM   21  C   UNL     1      -7.722   9.786  66.037  1.00  0.00    -0.104 C  
HETATM   22  N   UNL     1      -7.149  10.972  65.390  1.00  0.00    -0.353 NA 
HETATM   23  C   UNL     1      -8.984  10.155  66.839  1.00  0.00    -0.132 C  
HETATM   24  C   UNL     1      -9.613   8.845  67.407  1.00  0.00    -0.157 C  
HETATM   25  O   UNL     1     -10.946   9.132  67.891  1.00  0.00    -0.483 OA 
HETATM   26  H1  UNL     1      -6.943  11.692  66.082  1.00  0.00     0.000 HD 
HETATM   27  H2  UNL     1      -7.750  11.324  64.644  1.00  0.00     0.000 HD 
HETATM   28  H   UNL     1     -10.932   9.949  68.376  1.00  0.00     0.000 HD 
BRANCH  23  29
HETATM   29  O   UNL     1      -8.618  10.960  67.997  1.00  0.00    -0.124 OA 
BRANCH  29  30
HETATM   30  C   UNL     1      -9.293  12.190  68.330  1.00  0.00    -0.198 C  
HETATM   31  O   UNL     1     -10.693  12.073  68.599  1.00  0.00    -0.223 OA 
HETATM   32  C   UNL     1     -11.256  13.310  69.063  1.00  0.00    -0.270 C  
HETATM   33  C   UNL     1     -11.162  14.455  68.021  1.00  0.00    -0.280 C  
HETATM   34  C   UNL     1      -9.667  14.675  67.663  1.00  0.00    -0.214 C  
HETATM   35  O   UNL     1     -11.891  14.071  66.844  1.00  0.00    -0.385 OA 
HETATM   36  C   UNL     1     -11.825  15.713  68.605  1.00  0.00    -0.306 C  
HETATM   37  H   UNL     1      -7.377  14.253  66.505  1.00  0.00     0.000 HD 
HETATM   38  H   UNL     1     -11.834  14.773  66.207  1.00  0.00     0.000 HD 
HETATM   39  C   UNL     1      -8.983  13.319  67.275  1.00  0.00    -0.217 C  
HETATM   40  O   UNL     1      -7.564  13.573  67.141  1.00  0.00    -0.102 OA 
BRANCH  34  41
HETATM   41  N   UNL     1      -9.288  15.789  66.741  1.00  0.00    -0.228 NA 
HETATM   42  C   UNL     1      -8.583  16.926  67.306  1.00  0.00    -0.196 C  
HETATM   43  H   UNL     1      -9.517  15.751  65.748  1.00  0.00     0.000 HD 
ENDBRANCH  34  41
ENDBRANCH  29  30
ENDBRANCH  23  29
ENDBRANCH  14  15
ENDBRANCH   9  14
ENDBRANCH   4   5
ENDBRANCH   2   4
TORSDOF 7
ENDMDL
MODEL      140
REMARK 921   NORMALIZED FREE ENERGY PREDICTED BY IDOCK:   -4.98 KCAL/MOL
REMARK 922        TOTAL FREE ENERGY PREDICTED BY IDOCK:   -8.73 KCAL/MOL
REMARK 923 INTER-LIGAND FREE ENERGY PREDICTED BY IDOCK:   -7.30 KCAL/MOL
REMARK 924 INTRA-LIGAND FREE ENERGY PREDICTED BY IDOCK:   -1.43 KCAL/MOL
REMARK 927      BINDING AFFINITY PREDICTED BY RF-SCORE:    0.00 PKD
ROOT
HETATM    1  C   UNL     1      -8.984   6.651  65.885  1.00  0.00    -0.074 C  
HETATM    2  N   UNL     1     -10.038   6.245  66.802  1.00  0.00    -0.190 NA 
HETATM    3  H   UNL     1     -10.822   5.841  66.290  1.00  0.00     0.000 HD 
ENDROOT
BRANCH   2   4
HETATM    4  C   UNL     1      -9.586   5.331  67.861  1.00  0.00    -0.134 C  
BRANCH   4   5
HETATM    5  C   UNL     1      -9.799   5.824  69.319  1.00  0.00    -0.170 C  
HETATM    6  C   UNL     1     -10.023   4.705  70.319  1.00  0.00    -0.309 C  
HETATM    7  C   UNL     1     -10.168   5.307  71.716  1.00  0.00    -0.269 C  
HETATM    8  C   UNL     1     -11.138   6.508  71.751  1.00  0.00    -0.257 C  
HETATM    9  C   UNL     1     -11.009   7.497  70.507  1.00  0.00    -0.252 C  
HETATM   10  N   UNL     1     -11.099   7.123  73.099  1.00  0.00    -0.512 NA 
HETATM   11  O   UNL     1     -10.958   6.689  69.334  1.00  0.00    -0.265 OA 
HETATM   12  H1  UNL     1     -11.739   7.916  73.122  1.00  0.00     0.000 HD 
HETATM   13  H2  UNL     1     -10.153   7.381  73.381  1.00  0.00     0.000 HD 
BRANCH   9  14
HETATM   14  O   UNL     1      -9.933   8.464  70.558  1.00  0.00    -0.182 OA 
BRANCH  14  15
HETATM   15  C   UNL     1      -9.178   8.766  69.311  1.00  0.00    -0.149 C  
HETATM   16  C   UNL     1      -7.691   9.157  69.529  1.00  0.00    -0.080 C  
HETATM   17  N   UNL     1      -6.894   7.973  69.913  1.00  0.00    -0.041 NA 
HETATM   18  C   UNL     1      -7.046   9.746  68.258  1.00  0.00    -0.077 C  
HETATM   19  H2  UNL     1      -6.991   7.216  69.237  1.00  0.00     0.000 HD 
HETATM   20  H1  UNL     1      -5.918   8.230  70.057  1.00  0.00     0.000 HD 
HETATM   21  C   UNL     1      -7.820  10.950  67.699  1.00  0.00    -0.113 C  
HETATM   22  N   UNL     1      -7.060  11.596  66.623  1.00  0.00    -0.337 NA 
HETATM   23  C   UNL     1      -9.215  10.525  67.205  1.00  0.00    -0.143 C  
HETATM   24  C   UNL     1      -9.932   9.745  68.352  1.00  0.00    -0.156 C  
HETATM   25  O   UNL     1     -11.097   9.079  67.813  1.00  0.00    -0.497 OA 
HETATM   26  H1  UNL     1      -7.573  12.395  66.253  1.00  0.00     0.000 HD 
HETATM   27  H2  UNL     1      -6.806  10.934  65.889  1.00  0.00     0.000 HD 
HETATM   28  H   UNL     1     -11.556   9.674  67.230  1.00  0.00     0.000 HD 
BRANCH  23  29
HETATM   29  O   UNL     1     -10.032  11.704  66.951  1.00  0.00    -0.198 OA 
BRANCH  29  30
HETATM   30  C   UNL     1     -10.273  12.710  67.956  1.00  0.00    -0.230 C  
HETATM   31  O   UNL     1     -11.528  12.614  68.636  1.00  0.00    -0.261 OA 
HETATM   32  C   UNL     1     -11.627  13.556  69.715  1.00  0.00    -0.244 C  
HETATM   33  C   UNL     1     -11.558  15.034  69.248  1.00  0.00    -0.315 C  
HETATM   34  C   UNL     1     -10.215  15.252  68.498  1.00  0.00    -0.224 C  
HETATM   35  O   UNL     1     -12.657  15.289  68.358  1.00  0.00    -0.259 OA 
HETATM   36  C   UNL     1     -11.711  15.949  70.472  1.00  0.00    -0.394 C  
HETATM   37  H   UNL     1      -8.511  15.186  66.536  1.00  0.00     0.000 HD 
HETATM   38  H   UNL     1     -12.615  16.194  68.073  1.00  0.00     0.000 HD 
HETATM   39  C   UNL     1     -10.012  14.158  67.394  1.00  0.00    -0.240 C  
HETATM   40  O   UNL     1      -8.668  14.313  66.875  1.00  0.00    -0.218 OA 
BRANCH  34  41
HETATM   41  N   UNL     1      -9.856  16.621  68.018  1.00  0.00    -0.240 NA 
HETATM   42  C   UNL     1      -8.698  17.265  68.614  1.00  0.00    -0.268 C  
HETATM   43  H   UNL     1     -10.405  17.087  67.296  1.00  0.00     0.000 HD 
ENDBRANCH  34  41
ENDBRANCH  29  30
ENDBRANCH  23  29
ENDBRANCH  14  15
ENDBRANCH   9  14
ENDBRANCH   4   5
ENDBRANCH   2   4
TORSDOF 7
ENDMDL
MODEL      141
REMARK 921   NORMALIZED FREE ENERGY PREDICTED BY IDOCK:   -4.96 KCAL/MOL
REMARK 922        TOTAL FREE ENERGY PREDICTED BY IDOCK:   -8.70 KCAL/MOL
REMARK 923 INTER-LIGAND FREE ENERGY PREDICTED BY IDOCK:   -7.82 KCAL/MOL
REMARK 924 INTRA-LIGAND FREE ENERGY PREDICTED BY IDOCK:   -0.87 KCAL/MOL
REMARK 927      BINDING AFFINITY PREDICTED BY RF-SCORE:    0.00 PKD
ROOT
HETATM    1  C   UNL     1      -5.684   9.662  69.568  1.00  0.00    -0.033 C  
HETATM    2  N   UNL     1      -6.635   9.227  68.556  1.00  0.00    -0.054 NA 
HETATM    3  H   UNL     1      -7.384   8.680  68.980  1.00  0.00     0.000 HD 
ENDROOT
BRANCH   2   4
HETATM    4  C   UNL     1      -7.189  10.324  67.750  1.00  0.00    -0.086 C  
BRANCH   4   5
HETATM    5  C   UNL     1      -7.736   9.929  66.351  1.00  0.00    -0.104 C  
HETATM    6  C   UNL     1      -6.692   9.319  65.433  1.00  0.00    -0.073 C  
HETATM    7  C   UNL     1      -7.358   8.927  64.114  1.00  0.00    -0.104 C  
HETATM    8  C   UNL     1      -8.255  10.045  63.541  1.00  0.00    -0.163 C  
HETATM    9  C   UNL     1      -9.126  10.816  64.632  1.00  0.00    -0.201 C  
HETATM   10  N   UNL     1      -8.977   9.527  62.355  1.00  0.00    -0.260 NA 
HETATM   11  O   UNL     1      -8.259  11.121  65.720  1.00  0.00    -0.119 OA 
HETATM   12  H1  UNL     1      -9.569  10.266  61.977  1.00  0.00     0.000 HD 
HETATM   13  H2  UNL     1      -9.501   8.676  62.561  1.00  0.00     0.000 HD 
BRANCH   9  14
HETATM   14  O   UNL     1     -10.345  10.166  65.063  1.00  0.00    -0.246 OA 
BRANCH  14  15
HETATM   15  C   UNL     1     -11.153  10.796  66.143  1.00  0.00     0.136 C  
HETATM   16  C   UNL     1     -11.284  12.340  66.041  1.00  0.00    -0.332 C  
HETATM   17  N   UNL     1     -12.187  12.712  64.932  1.00  0.00    -0.449 NA 
HETATM   18  C   UNL     1     -11.863  12.966  67.327  1.00  0.00    -0.416 C  
HETATM   19  H2  UNL     1     -13.097  12.259  65.016  1.00  0.00     0.000 HD 
HETATM   20  H1  UNL     1     -12.273  13.726  64.865  1.00  0.00     0.000 HD 
HETATM   21  C   UNL     1     -11.059  12.598  68.584  1.00  0.00    -0.266 C  
HETATM   22  N   UNL     1     -11.521  13.378  69.737  1.00  0.00    -0.471 NA 
HETATM   23  C   UNL     1     -11.151  11.087  68.871  1.00  0.00    -0.239 C  
HETATM   24  C   UNL     1     -10.757  10.310  67.576  1.00  0.00    -0.294 C  
HETATM   25  O   UNL     1     -11.132   8.921  67.727  1.00  0.00    -0.493 OA 
HETATM   26  H1  UNL     1     -10.988  13.133  70.571  1.00  0.00     0.000 HD 
HETATM   27  H2  UNL     1     -12.525  13.275  69.885  1.00  0.00     0.000 HD 
HETATM   28  H   UNL     1     -10.891   8.626  68.598  1.00  0.00     0.000 HD 
BRANCH  23  29
HETATM   29  O   UNL     1     -10.167  10.714  69.879  1.00  0.00    -0.148 OA 
BRANCH  29  30
HETATM   30  C   UNL     1     -10.254   9.484  70.627  1.00  0.00    -0.297 C  
HETATM   31  O   UNL     1      -9.595   8.358  70.043  1.00  0.00    -0.166 OA 
HETATM   32  C   UNL     1      -9.604   7.218  70.917  1.00  0.00    -0.170 C  
HETATM   33  C   UNL     1     -11.031   6.701  71.237  1.00  0.00    -0.253 C  
HETATM   34  C   UNL     1     -11.838   7.856  71.891  1.00  0.00    -0.301 C  
HETATM   35  O   UNL     1     -11.664   6.302  70.010  1.00  0.00    -0.408 OA 
HETATM   36  C   UNL     1     -10.920   5.465  72.142  1.00  0.00    -0.265 C  
HETATM   37  H   UNL     1     -13.252  10.034  72.030  1.00  0.00     0.000 HD 
HETATM   38  H   UNL     1     -12.538   5.985  70.207  1.00  0.00     0.000 HD 
HETATM   39  C   UNL     1     -11.743   9.160  71.027  1.00  0.00    -0.301 C  
HETATM   40  O   UNL     1     -12.354  10.229  71.789  1.00  0.00    -0.377 OA 
BRANCH  34  41
HETATM   41  N   UNL     1     -13.226   7.596  72.382  1.00  0.00    -0.483 NA 
HETATM   42  C   UNL     1     -14.282   7.479  71.392  1.00  0.00    -0.388 C  
HETATM   43  H   UNL     1     -13.424   7.503  73.378  1.00  0.00     0.000 HD 
ENDBRANCH  34  41
ENDBRANCH  29  30
ENDBRANCH  23  29
ENDBRANCH  14  15
ENDBRANCH   9  14
ENDBRANCH   4   5
ENDBRANCH   2   4
TORSDOF 7
ENDMDL
MODEL      142
REMARK 921   NORMALIZED FREE ENERGY PREDICTED BY IDOCK:   -4.96 KCAL/MOL
REMARK 922        TOTAL FREE ENERGY PREDICTED BY IDOCK:   -8.70 KCAL/MOL
REMARK 923 INTER-LIGAND FREE ENERGY PREDICTED BY IDOCK:   -7.47 KCAL/MOL
REMARK 924 INTRA-LIGAND FREE ENERGY PREDICTED BY IDOCK:   -1.22 KCAL/MOL
REMARK 927      BINDING AFFINITY PREDICTED BY RF-SCORE:    0.00 PKD
ROOT
HETATM    1  C   UNL     1      -6.907  20.460  64.937  1.00  0.00    -0.185 C  
HETATM    2  N   UNL     1      -6.165  20.589  66.182  1.00  0.00    -0.205 NA 
HETATM    3  H   UNL     1      -5.483  21.345  66.117  1.00  0.00     0.000 HD 
ENDROOT
BRANCH   2   4
HETATM    4  C   UNL     1      -7.017  20.761  67.368  1.00  0.00    -0.364 C  
BRANCH   4   5
HETATM    5  C   UNL     1      -6.752  19.780  68.542  1.00  0.00    -0.295 C  
HETATM    6  C   UNL     1      -5.987  20.398  69.699  1.00  0.00    -0.384 C  
HETATM    7  C   UNL     1      -5.834  19.357  70.807  1.00  0.00    -0.178 C  
HETATM    8  C   UNL     1      -5.356  17.987  70.278  1.00  0.00    -0.250 C  
HETATM    9  C   UNL     1      -6.029  17.539  68.903  1.00  0.00    -0.186 C  
HETATM   10  N   UNL     1      -5.385  17.003  71.386  1.00  0.00    -0.120 NA 
HETATM   11  O   UNL     1      -5.986  18.665  68.031  1.00  0.00    -0.191 OA 
HETATM   12  H1  UNL     1      -5.070  16.099  71.037  1.00  0.00     0.000 HD 
HETATM   13  H2  UNL     1      -6.301  16.949  71.833  1.00  0.00     0.000 HD 
BRANCH   9  14
HETATM   14  O   UNL     1      -7.351  16.958  68.990  1.00  0.00    -0.232 OA 
BRANCH  14  15
HETATM   15  C   UNL     1      -7.786  16.002  67.934  1.00  0.00    -0.138 C  
HETATM   16  C   UNL     1      -8.662  16.625  66.813  1.00  0.00    -0.226 C  
HETATM   17  N   UNL     1      -7.842  17.476  65.927  1.00  0.00    -0.546 NA 
HETATM   18  C   UNL     1      -9.329  15.554  65.925  1.00  0.00    -0.355 C  
HETATM   19  H2  UNL     1      -7.044  16.968  65.545  1.00  0.00     0.000 HD 
HETATM   20  H1  UNL     1      -8.417  17.885  65.191  1.00  0.00     0.000 HD 
HETATM   21  C   UNL     1     -10.161  14.545  66.731  1.00  0.00    -0.266 C  
HETATM   22  N   UNL     1     -10.935  13.682  65.832  1.00  0.00    -0.281 NA 
HETATM   23  C   UNL     1      -9.261  13.705  67.657  1.00  0.00    -0.213 C  
HETATM   24  C   UNL     1      -8.382  14.675  68.508  1.00  0.00    -0.162 C  
HETATM   25  O   UNL     1      -7.328  13.917  69.147  1.00  0.00    -0.222 OA 
HETATM   26  H1  UNL     1     -11.487  13.012  66.366  1.00  0.00     0.000 HD 
HETATM   27  H2  UNL     1     -10.338  13.219  65.145  1.00  0.00     0.000 HD 
HETATM   28  H   UNL     1      -7.690  13.111  69.495  1.00  0.00     0.000 HD 
BRANCH  23  29
HETATM   29  O   UNL     1     -10.081  12.967  68.609  1.00  0.00    -0.212 OA 
BRANCH  29  30
HETATM   30  C   UNL     1      -9.874  11.567  68.885  1.00  0.00    -0.075 C  
HETATM   31  O   UNL     1      -8.551  11.206  69.290  1.00  0.00    -0.016 OA 
HETATM   32  C   UNL     1      -8.467   9.828  69.686  1.00  0.00    -0.185 C  
HETATM   33  C   UNL     1      -8.798   8.839  68.537  1.00  0.00    -0.138 C  
HETATM   34  C   UNL     1     -10.234   9.140  68.027  1.00  0.00    -0.211 C  
HETATM   35  O   UNL     1      -7.854   9.033  67.472  1.00  0.00    -0.099 OA 
HETATM   36  C   UNL     1      -8.641   7.402  69.060  1.00  0.00    -0.133 C  
HETATM   37  H   UNL     1     -12.121  10.351  66.710  1.00  0.00     0.000 HD 
HETATM   38  H   UNL     1      -8.057   8.427  66.770  1.00  0.00     0.000 HD 
HETATM   39  C   UNL     1     -10.402  10.665  67.707  1.00  0.00    -0.204 C  
HETATM   40  O   UNL     1     -11.803  10.895  67.422  1.00  0.00    -0.465 OA 
BRANCH  34  41
HETATM   41  N   UNL     1     -10.837   8.266  66.974  1.00  0.00    -0.399 NA 
HETATM   42  C   UNL     1     -11.036   6.863  67.291  1.00  0.00    -0.336 C  
HETATM   43  H   UNL     1     -11.100   8.643  66.064  1.00  0.00     0.000 HD 
ENDBRANCH  34  41
ENDBRANCH  29  30
ENDBRANCH  23  29
ENDBRANCH  14  15
ENDBRANCH   9  14
ENDBRANCH   4   5
ENDBRANCH   2   4
TORSDOF 7
ENDMDL
MODEL      143
REMARK 921   NORMALIZED FREE ENERGY PREDICTED BY IDOCK:   -4.96 KCAL/MOL
REMARK 922        TOTAL FREE ENERGY PREDICTED BY IDOCK:   -8.69 KCAL/MOL
REMARK 923 INTER-LIGAND FREE ENERGY PREDICTED BY IDOCK:   -9.22 KCAL/MOL
REMARK 924 INTRA-LIGAND FREE ENERGY PREDICTED BY IDOCK:    0.53 KCAL/MOL
REMARK 927      BINDING AFFINITY PREDICTED BY RF-SCORE:    0.00 PKD
ROOT
HETATM    1  C   UNL     1     -12.097  11.797  63.782  1.00  0.00    -0.358 C  
HETATM    2  N   UNL     1     -10.686  11.594  63.487  1.00  0.00    -0.480 NA 
HETATM    3  H   UNL     1     -10.151  12.436  63.701  1.00  0.00     0.000 HD 
ENDROOT
BRANCH   2   4
HETATM    4  C   UNL     1     -10.100  10.424  64.157  1.00  0.00    -0.191 C  
BRANCH   4   5
HETATM    5  C   UNL     1      -9.801  10.588  65.672  1.00  0.00    -0.252 C  
HETATM    6  C   UNL     1      -8.339  10.845  65.986  1.00  0.00    -0.165 C  
HETATM    7  C   UNL     1      -8.180  11.040  67.494  1.00  0.00    -0.117 C  
HETATM    8  C   UNL     1      -8.912   9.958  68.316  1.00  0.00    -0.119 C  
HETATM    9  C   UNL     1     -10.348   9.557  67.749  1.00  0.00    -0.239 C  
HETATM   10  N   UNL     1      -8.838  10.309  69.753  1.00  0.00    -0.380 NA 
HETATM   11  O   UNL     1     -10.206   9.372  66.343  1.00  0.00    -0.268 OA 
HETATM   12  H1  UNL     1      -9.322   9.594  70.296  1.00  0.00     0.000 HD 
HETATM   13  H2  UNL     1      -9.192  11.246  69.943  1.00  0.00     0.000 HD 
BRANCH   9  14
HETATM   14  O   UNL     1     -11.444  10.441  68.081  1.00  0.00    -0.315 OA 
BRANCH  14  15
HETATM   15  C   UNL     1     -11.511  11.019  69.452  1.00  0.00    -0.294 C  
HETATM   16  C   UNL     1     -12.618  10.415  70.359  1.00  0.00    -0.254 C  
HETATM   17  N   UNL     1     -12.254   9.047  70.782  1.00  0.00    -0.483 NA 
HETATM   18  C   UNL     1     -12.842  11.242  71.642  1.00  0.00    -0.510 C  
HETATM   19  H2  UNL     1     -11.339   9.021  71.232  1.00  0.00     0.000 HD 
HETATM   20  H1  UNL     1     -12.981   8.651  71.377  1.00  0.00     0.000 HD 
HETATM   21  C   UNL     1     -13.159  12.718  71.352  1.00  0.00    -0.227 C  
HETATM   22  N   UNL     1     -13.565  13.407  72.582  1.00  0.00    -0.685 NA 
HETATM   23  C   UNL     1     -11.953  13.421  70.701  1.00  0.00    -0.209 C  
HETATM   24  C   UNL     1     -11.496  12.582  69.467  1.00  0.00    -0.230 C  
HETATM   25  O   UNL     1     -10.196  13.049  69.036  1.00  0.00    -0.428 OA 
HETATM   26  H1  UNL     1     -13.775  14.386  72.390  1.00  0.00     0.000 HD 
HETATM   27  H2  UNL     1     -12.868  13.307  73.320  1.00  0.00     0.000 HD 
HETATM   28  H   UNL     1     -10.186  13.999  69.045  1.00  0.00     0.000 HD 
BRANCH  23  29
HETATM   29  O   UNL     1     -12.359  14.719  70.177  1.00  0.00    -0.316 OA 
BRANCH  29  30
HETATM   30  C   UNL     1     -12.181  15.085  68.794  1.00  0.00    -0.082 C  
HETATM   31  O   UNL     1     -12.452  14.052  67.842  1.00  0.00    -0.115 OA 
HETATM   32  C   UNL     1     -12.394  14.537  66.492  1.00  0.00    -0.140 C  
HETATM   33  C   UNL     1     -10.993  15.069  66.090  1.00  0.00    -0.334 C  
HETATM   34  C   UNL     1     -10.603  16.214  67.065  1.00  0.00    -0.292 C  
HETATM   35  O   UNL     1     -10.043  13.996  66.198  1.00  0.00    -0.290 OA 
HETATM   36  C   UNL     1     -11.037  15.524  64.624  1.00  0.00    -0.373 C  
HETATM   37  H   UNL     1      -9.735  17.335  69.244  1.00  0.00     0.000 HD 
HETATM   38  H   UNL     1      -9.186  14.322  65.952  1.00  0.00     0.000 HD 
HETATM   39  C   UNL     1     -10.779  15.760  68.555  1.00  0.00    -0.274 C  
HETATM   40  O   UNL     1     -10.581  16.928  69.388  1.00  0.00    -0.337 OA 
BRANCH  34  41
HETATM   41  N   UNL     1      -9.329  16.965  66.843  1.00  0.00    -0.233 NA 
HETATM   42  C   UNL     1      -9.418  18.291  66.259  1.00  0.00    -0.230 C  
HETATM   43  H   UNL     1      -8.428  16.558  67.095  1.00  0.00     0.000 HD 
ENDBRANCH  34  41
ENDBRANCH  29  30
ENDBRANCH  23  29
ENDBRANCH  14  15
ENDBRANCH   9  14
ENDBRANCH   4   5
ENDBRANCH   2   4
TORSDOF 7
ENDMDL
MODEL      144
REMARK 921   NORMALIZED FREE ENERGY PREDICTED BY IDOCK:   -4.94 KCAL/MOL
REMARK 922        TOTAL FREE ENERGY PREDICTED BY IDOCK:   -8.68 KCAL/MOL
REMARK 923 INTER-LIGAND FREE ENERGY PREDICTED BY IDOCK:   -7.42 KCAL/MOL
REMARK 924 INTRA-LIGAND FREE ENERGY PREDICTED BY IDOCK:   -1.26 KCAL/MOL
REMARK 927      BINDING AFFINITY PREDICTED BY RF-SCORE:    0.00 PKD
ROOT
HETATM    1  C   UNL     1      -6.169   5.575  70.259  1.00  0.00    -0.026 C  
HETATM    2  N   UNL     1      -7.062   4.572  69.700  1.00  0.00    -0.049 NA 
HETATM    3  H   UNL     1      -8.032   4.786  69.931  1.00  0.00     0.000 HD 
ENDROOT
BRANCH   2   4
HETATM    4  C   UNL     1      -6.907   4.379  68.250  1.00  0.00    -0.051 C  
BRANCH   4   5
HETATM    5  C   UNL     1      -8.224   4.239  67.440  1.00  0.00    -0.099 C  
HETATM    6  C   UNL     1      -8.299   2.976  66.601  1.00  0.00    -0.094 C  
HETATM    7  C   UNL     1      -9.654   2.927  65.895  1.00  0.00     0.118 C  
HETATM    8  C   UNL     1     -10.024   4.263  65.217  1.00  0.00    -0.219 C  
HETATM    9  C   UNL     1      -9.659   5.560  66.071  1.00  0.00    -0.107 C  
HETATM   10  N   UNL     1     -11.408   4.176  64.696  1.00  0.00    -0.917 NA 
HETATM   11  O   UNL     1      -8.332   5.380  66.558  1.00  0.00    -0.108 OA 
HETATM   12  H1  UNL     1     -11.652   5.059  64.248  1.00  0.00     0.000 HD 
HETATM   13  H2  UNL     1     -12.078   3.908  65.417  1.00  0.00     0.000 HD 
BRANCH   9  14
HETATM   14  O   UNL     1     -10.587   5.925  67.120  1.00  0.00    -0.235 OA 
BRANCH  14  15
HETATM   15  C   UNL     1     -10.207   7.005  68.073  1.00  0.00    -0.182 C  
HETATM   16  C   UNL     1     -10.761   6.826  69.513  1.00  0.00    -0.257 C  
HETATM   17  N   UNL     1     -10.045   5.739  70.213  1.00  0.00    -0.196 NA 
HETATM   18  C   UNL     1     -10.598   8.101  70.367  1.00  0.00    -0.226 C  
HETATM   19  H2  UNL     1      -9.036   5.887  70.211  1.00  0.00     0.000 HD 
HETATM   20  H1  UNL     1     -10.409   5.622  71.158  1.00  0.00     0.000 HD 
HETATM   21  C   UNL     1     -11.235   9.339  69.717  1.00  0.00    -0.085 C  
HETATM   22  N   UNL     1     -11.235  10.468  70.654  1.00  0.00    -0.411 NA 
HETATM   23  C   UNL     1     -10.508   9.710  68.411  1.00  0.00    -0.223 C  
HETATM   24  C   UNL     1     -10.439   8.442  67.504  1.00  0.00    -0.257 C  
HETATM   25  O   UNL     1      -9.503   8.684  66.427  1.00  0.00    -0.193 OA 
HETATM   26  H1  UNL     1     -11.658  11.290  70.223  1.00  0.00     0.000 HD 
HETATM   27  H2  UNL     1     -10.300  10.665  71.009  1.00  0.00     0.000 HD 
HETATM   28  H   UNL     1      -9.643   9.558  66.081  1.00  0.00     0.000 HD 
BRANCH  23  29
HETATM   29  O   UNL     1     -11.289  10.692  67.671  1.00  0.00    -0.395 OA 
BRANCH  29  30
HETATM   30  C   UNL     1     -10.876  12.067  67.535  1.00  0.00    -0.241 C  
HETATM   31  O   UNL     1     -10.622  12.759  68.760  1.00  0.00    -0.240 OA 
HETATM   32  C   UNL     1     -10.076  14.069  68.535  1.00  0.00    -0.236 C  
HETATM   33  C   UNL     1     -11.036  15.008  67.757  1.00  0.00    -0.310 C  
HETATM   34  C   UNL     1     -11.371  14.348  66.391  1.00  0.00    -0.350 C  
HETATM   35  O   UNL     1     -12.240  15.175  68.523  1.00  0.00    -0.575 OA 
HETATM   36  C   UNL     1     -10.370  16.384  67.606  1.00  0.00    -0.284 C  
HETATM   37  H   UNL     1     -12.544  12.753  64.706  1.00  0.00     0.000 HD 
HETATM   38  H   UNL     1     -12.827  15.750  68.046  1.00  0.00     0.000 HD 
HETATM   39  C   UNL     1     -11.848  12.869  66.590  1.00  0.00    -0.395 C  
HETATM   40  O   UNL     1     -11.957  12.269  65.276  1.00  0.00    -0.387 OA 
BRANCH  34  41
HETATM   41  N   UNL     1     -12.212  15.091  65.404  1.00  0.00    -0.001 NA 
HETATM   42  C   UNL     1     -11.546  15.682  64.256  1.00  0.00    -0.189 C  
HETATM   43  H   UNL     1     -13.220  15.180  65.532  1.00  0.00     0.000 HD 
ENDBRANCH  34  41
ENDBRANCH  29  30
ENDBRANCH  23  29
ENDBRANCH  14  15
ENDBRANCH   9  14
ENDBRANCH   4   5
ENDBRANCH   2   4
TORSDOF 7
ENDMDL
MODEL      145
REMARK 921   NORMALIZED FREE ENERGY PREDICTED BY IDOCK:   -4.94 KCAL/MOL
REMARK 922        TOTAL FREE ENERGY PREDICTED BY IDOCK:   -8.67 KCAL/MOL
REMARK 923 INTER-LIGAND FREE ENERGY PREDICTED BY IDOCK:   -7.32 KCAL/MOL
REMARK 924 INTRA-LIGAND FREE ENERGY PREDICTED BY IDOCK:   -1.34 KCAL/MOL
REMARK 927      BINDING AFFINITY PREDICTED BY RF-SCORE:    0.00 PKD
ROOT
HETATM    1  C   UNL     1     -12.350  10.334  70.458  1.00  0.00    -0.284 C  
HETATM    2  N   UNL     1     -11.830   8.992  70.675  1.00  0.00    -0.448 NA 
HETATM    3  H   UNL     1     -11.145   8.753  69.958  1.00  0.00     0.000 HD 
ENDROOT
BRANCH   2   4
HETATM    4  C   UNL     1     -11.269   8.781  72.017  1.00  0.00    -0.373 C  
BRANCH   4   5
HETATM    5  C   UNL     1     -10.181   7.679  72.132  1.00  0.00    -0.207 C  
HETATM    6  C   UNL     1      -9.560   7.570  73.513  1.00  0.00    -0.339 C  
HETATM    7  C   UNL     1      -8.547   6.425  73.514  1.00  0.00    -0.128 C  
HETATM    8  C   UNL     1      -7.596   6.467  72.299  1.00  0.00    -0.096 C  
HETATM    9  C   UNL     1      -8.301   6.857  70.922  1.00  0.00    -0.130 C  
HETATM   10  N   UNL     1      -6.759   5.245  72.297  1.00  0.00    -0.059 NA 
HETATM   11  O   UNL     1      -9.133   7.983  71.183  1.00  0.00    -0.142 OA 
HETATM   12  H1  UNL     1      -6.130   5.273  71.494  1.00  0.00     0.000 HD 
HETATM   13  H2  UNL     1      -7.317   4.392  72.323  1.00  0.00     0.000 HD 
BRANCH   9  14
HETATM   14  O   UNL     1      -9.006   5.796  70.235  1.00  0.00    -0.138 OA 
BRANCH  14  15
HETATM   15  C   UNL     1      -9.247   5.924  68.771  1.00  0.00    -0.115 C  
HETATM   16  C   UNL     1      -7.964   5.889  67.895  1.00  0.00    -0.105 C  
HETATM   17  N   UNL     1      -7.407   4.521  67.846  1.00  0.00    -0.065 NA 
HETATM   18  C   UNL     1      -8.234   6.323  66.440  1.00  0.00    -0.114 C  
HETATM   19  H2  UNL     1      -8.099   3.841  67.530  1.00  0.00     0.000 HD 
HETATM   20  H1  UNL     1      -6.565   4.498  67.271  1.00  0.00     0.000 HD 
HETATM   21  C   UNL     1      -8.889   7.709  66.343  1.00  0.00    -0.156 C  
HETATM   22  N   UNL     1      -8.934   8.160  64.947  1.00  0.00    -0.373 NA 
HETATM   23  C   UNL     1     -10.300   7.695  66.960  1.00  0.00    -0.330 C  
HETATM   24  C   UNL     1     -10.206   7.102  68.401  1.00  0.00    -0.174 C  
HETATM   25  O   UNL     1     -11.539   6.795  68.872  1.00  0.00    -0.574 OA 
HETATM   26  H1  UNL     1      -9.368   9.080  64.882  1.00  0.00     0.000 HD 
HETATM   27  H2  UNL     1      -9.396   7.479  64.344  1.00  0.00     0.000 HD 
HETATM   28  H   UNL     1     -12.122   7.511  68.647  1.00  0.00     0.000 HD 
BRANCH  23  29
HETATM   29  O   UNL     1     -10.785   9.060  67.119  1.00  0.00    -0.259 OA 
BRANCH  29  30
HETATM   30  C   UNL     1      -9.896  10.192  67.207  1.00  0.00    -0.183 C  
HETATM   31  O   UNL     1      -9.504  10.568  68.530  1.00  0.00    -0.151 OA 
HETATM   32  C   UNL     1      -8.509  11.604  68.522  1.00  0.00    -0.135 C  
HETATM   33  C   UNL     1      -9.005  12.926  67.880  1.00  0.00    -0.193 C  
HETATM   34  C   UNL     1      -9.449  12.629  66.421  1.00  0.00    -0.231 C  
HETATM   35  O   UNL     1     -10.123  13.417  68.637  1.00  0.00    -0.304 OA 
HETATM   36  C   UNL     1      -7.879  13.969  67.959  1.00  0.00    -0.152 C  
HETATM   37  H   UNL     1     -10.986  11.823  64.485  1.00  0.00     0.000 HD 
HETATM   38  H   UNL     1     -10.426  14.227  68.244  1.00  0.00     0.000 HD 
HETATM   39  C   UNL     1     -10.440  11.416  66.378  1.00  0.00    -0.254 C  
HETATM   40  O   UNL     1     -10.657  11.085  64.985  1.00  0.00    -0.292 OA 
BRANCH  34  41
HETATM   41  N   UNL     1      -9.889  13.757  65.544  1.00  0.00    -0.504 NA 
HETATM   42  C   UNL     1     -11.314  14.024  65.449  1.00  0.00    -0.315 C  
HETATM   43  H   UNL     1      -9.211  14.320  65.030  1.00  0.00     0.000 HD 
ENDBRANCH  34  41
ENDBRANCH  29  30
ENDBRANCH  23  29
ENDBRANCH  14  15
ENDBRANCH   9  14
ENDBRANCH   4   5
ENDBRANCH   2   4
TORSDOF 7
ENDMDL
MODEL      146
REMARK 921   NORMALIZED FREE ENERGY PREDICTED BY IDOCK:   -4.93 KCAL/MOL
REMARK 922        TOTAL FREE ENERGY PREDICTED BY IDOCK:   -8.66 KCAL/MOL
REMARK 923 INTER-LIGAND FREE ENERGY PREDICTED BY IDOCK:   -9.24 KCAL/MOL
REMARK 924 INTRA-LIGAND FREE ENERGY PREDICTED BY IDOCK:    0.58 KCAL/MOL
REMARK 927      BINDING AFFINITY PREDICTED BY RF-SCORE:    0.00 PKD
ROOT
HETATM    1  C   UNL     1     -12.365  13.340  70.418  1.00  0.00    -0.295 C  
HETATM    2  N   UNL     1     -11.770  14.452  69.692  1.00  0.00    -0.290 NA 
HETATM    3  H   UNL     1     -11.475  15.185  70.337  1.00  0.00     0.000 HD 
ENDROOT
BRANCH   2   4
HETATM    4  C   UNL     1     -10.660  14.062  68.810  1.00  0.00    -0.251 C  
BRANCH   4   5
HETATM    5  C   UNL     1     -10.962  14.086  67.288  1.00  0.00    -0.295 C  
HETATM    6  C   UNL     1     -10.380  15.287  66.564  1.00  0.00    -0.289 C  
HETATM    7  C   UNL     1     -10.698  15.173  65.074  1.00  0.00    -0.451 C  
HETATM    8  C   UNL     1     -12.176  14.819  64.804  1.00  0.00    -0.348 C  
HETATM    9  C   UNL     1     -12.786  13.729  65.796  1.00  0.00    -0.446 C  
HETATM   10  N   UNL     1     -12.359  14.576  63.354  1.00  0.00    -1.034 NA 
HETATM   11  O   UNL     1     -12.398  14.102  67.115  1.00  0.00    -0.370 OA 
HETATM   12  H1  UNL     1     -13.335  14.342  63.176  1.00  0.00     0.000 HD 
HETATM   13  H2  UNL     1     -11.719  13.868  62.994  1.00  0.00     0.000 HD 
BRANCH   9  14
HETATM   14  O   UNL     1     -12.481  12.345  65.502  1.00  0.00    -0.643 OA 
BRANCH  14  15
HETATM   15  C   UNL     1     -11.126  11.822  65.831  1.00  0.00    -0.302 C  
HETATM   16  C   UNL     1     -10.236  11.503  64.598  1.00  0.00    -0.285 C  
HETATM   17  N   UNL     1      -9.772  12.750  63.956  1.00  0.00    -0.657 NA 
HETATM   18  C   UNL     1      -8.979  10.692  64.977  1.00  0.00    -0.218 C  
HETATM   19  H2  UNL     1      -9.296  13.363  64.618  1.00  0.00     0.000 HD 
HETATM   20  H1  UNL     1      -9.188  12.540  63.147  1.00  0.00     0.000 HD 
HETATM   21  C   UNL     1      -9.311   9.392  65.725  1.00  0.00    -0.239 C  
HETATM   22  N   UNL     1      -8.109   8.565  65.876  1.00  0.00    -0.110 NA 
HETATM   23  C   UNL     1      -9.944   9.694  67.096  1.00  0.00    -0.194 C  
HETATM   24  C   UNL     1     -11.146  10.667  66.884  1.00  0.00    -0.090 C  
HETATM   25  O   UNL     1     -11.553  11.200  68.166  1.00  0.00    -0.392 OA 
HETATM   26  H1  UNL     1      -8.329   7.702  66.373  1.00  0.00     0.000 HD 
HETATM   27  H2  UNL     1      -7.350   9.078  66.326  1.00  0.00     0.000 HD 
HETATM   28  H   UNL     1     -11.565  10.498  68.807  1.00  0.00     0.000 HD 
BRANCH  23  29
HETATM   29  O   UNL     1     -10.509   8.475  67.661  1.00  0.00    -0.244 OA 
BRANCH  29  30
HETATM   30  C   UNL     1      -9.963   7.841  68.835  1.00  0.00    -0.182 C  
HETATM   31  O   UNL     1      -9.267   6.613  68.607  1.00  0.00    -0.130 OA 
HETATM   32  C   UNL     1      -8.632   6.126  69.799  1.00  0.00    -0.132 C  
HETATM   33  C   UNL     1      -9.634   5.791  70.935  1.00  0.00    -0.168 C  
HETATM   34  C   UNL     1     -10.443   7.074  71.272  1.00  0.00    -0.206 C  
HETATM   35  O   UNL     1     -10.525   4.762  70.478  1.00  0.00    -0.178 OA 
HETATM   36  C   UNL     1      -8.853   5.246  72.141  1.00  0.00    -0.135 C  
HETATM   37  H   UNL     1     -12.271   8.907  71.025  1.00  0.00     0.000 HD 
HETATM   38  H   UNL     1     -11.138   4.557  71.174  1.00  0.00     0.000 HD 
HETATM   39  C   UNL     1     -11.046   7.708  69.972  1.00  0.00    -0.191 C  
HETATM   40  O   UNL     1     -11.618   8.987  70.340  1.00  0.00    -0.226 OA 
BRANCH  34  41
HETATM   41  N   UNL     1     -11.422   7.049  72.402  1.00  0.00    -0.301 NA 
HETATM   42  C   UNL     1     -12.652   6.300  72.215  1.00  0.00     0.053 C  
HETATM   43  H   UNL     1     -11.232   7.542  73.274  1.00  0.00     0.000 HD 
ENDBRANCH  34  41
ENDBRANCH  29  30
ENDBRANCH  23  29
ENDBRANCH  14  15
ENDBRANCH   9  14
ENDBRANCH   4   5
ENDBRANCH   2   4
TORSDOF 7
ENDMDL
MODEL      147
REMARK 921   NORMALIZED FREE ENERGY PREDICTED BY IDOCK:   -4.91 KCAL/MOL
REMARK 922        TOTAL FREE ENERGY PREDICTED BY IDOCK:   -8.63 KCAL/MOL
REMARK 923 INTER-LIGAND FREE ENERGY PREDICTED BY IDOCK:   -8.15 KCAL/MOL
REMARK 924 INTRA-LIGAND FREE ENERGY PREDICTED BY IDOCK:   -0.47 KCAL/MOL
REMARK 927      BINDING AFFINITY PREDICTED BY RF-SCORE:    0.00 PKD
ROOT
HETATM    1  C   UNL     1     -10.634  19.711  65.565  1.00  0.00    -0.235 C  
HETATM    2  N   UNL     1     -10.536  18.260  65.595  1.00  0.00    -0.590 NA 
HETATM    3  H   UNL     1     -10.181  17.906  64.707  1.00  0.00     0.000 HD 
ENDROOT
BRANCH   2   4
HETATM    4  C   UNL     1      -9.738  17.740  66.715  1.00  0.00    -0.309 C  
BRANCH   4   5
HETATM    5  C   UNL     1     -10.387  16.593  67.536  1.00  0.00    -0.294 C  
HETATM    6  C   UNL     1     -10.732  16.978  68.964  1.00  0.00    -0.271 C  
HETATM    7  C   UNL     1     -11.408  15.791  69.650  1.00  0.00    -0.334 C  
HETATM    8  C   UNL     1     -10.654  14.463  69.426  1.00  0.00    -0.121 C  
HETATM    9  C   UNL     1     -10.090  14.265  67.947  1.00  0.00    -0.233 C  
HETATM   10  N   UNL     1     -11.455  13.350  69.988  1.00  0.00    -0.510 NA 
HETATM   11  O   UNL     1      -9.457  15.486  67.574  1.00  0.00    -0.206 OA 
HETATM   12  H1  UNL     1     -10.956  12.473  69.840  1.00  0.00     0.000 HD 
HETATM   13  H2  UNL     1     -12.403  13.326  69.613  1.00  0.00     0.000 HD 
BRANCH   9  14
HETATM   14  O   UNL     1     -11.035  13.807  66.951  1.00  0.00    -0.286 OA 
BRANCH  14  15
HETATM   15  C   UNL     1     -10.517  13.208  65.690  1.00  0.00    -0.282 C  
HETATM   16  C   UNL     1     -11.610  12.659  64.733  1.00  0.00    -0.331 C  
HETATM   17  N   UNL     1     -12.344  13.769  64.091  1.00  0.00    -0.659 NA 
HETATM   18  C   UNL     1     -11.018  11.791  63.603  1.00  0.00    -0.513 C  
HETATM   19  H2  UNL     1     -11.714  14.414  63.615  1.00  0.00     0.000 HD 
HETATM   20  H1  UNL     1     -13.061  13.408  63.464  1.00  0.00     0.000 HD 
HETATM   21  C   UNL     1     -10.160  10.631  64.129  1.00  0.00    -0.334 C  
HETATM   22  N   UNL     1      -9.796   9.724  63.034  1.00  0.00    -0.407 NA 
HETATM   23  C   UNL     1      -8.902  11.158  64.845  1.00  0.00     0.019 C  
HETATM   24  C   UNL     1      -9.343  12.201  65.919  1.00  0.00    -0.130 C  
HETATM   25  O   UNL     1      -8.178  12.925  66.379  1.00  0.00    -0.347 OA 
HETATM   26  H1  UNL     1      -9.227   8.953  63.383  1.00  0.00     0.000 HD 
HETATM   27  H2  UNL     1      -9.337  10.218  62.269  1.00  0.00     0.000 HD 
HETATM   28  H   UNL     1      -7.464  12.313  66.518  1.00  0.00     0.000 HD 
BRANCH  23  29
HETATM   29  O   UNL     1      -8.258  10.075  65.577  1.00  0.00    -0.134 OA 
BRANCH  29  30
HETATM   30  C   UNL     1      -9.008   9.037  66.242  1.00  0.00    -0.162 C  
HETATM   31  O   UNL     1      -9.684   9.435  67.437  1.00  0.00    -0.147 OA 
HETATM   32  C   UNL     1     -10.521   8.388  67.954  1.00  0.00    -0.193 C  
HETATM   33  C   UNL     1      -9.731   7.118  68.366  1.00  0.00    -0.142 C  
HETATM   34  C   UNL     1      -8.960   6.593  67.124  1.00  0.00    -0.118 C  
HETATM   35  O   UNL     1      -8.801   7.469  69.403  1.00  0.00    -0.136 OA 
HETATM   36  C   UNL     1     -10.715   6.085  68.936  1.00  0.00    -0.384 C  
HETATM   37  H   UNL     1      -7.073   6.449  65.340  1.00  0.00     0.000 HD 
HETATM   38  H   UNL     1      -8.317   6.691  69.655  1.00  0.00     0.000 HD 
HETATM   39  C   UNL     1      -8.133   7.745  66.455  1.00  0.00    -0.111 C  
HETATM   40  O   UNL     1      -7.601   7.228  65.212  1.00  0.00    -0.089 OA 
BRANCH  34  41
HETATM   41  N   UNL     1      -8.184   5.319  67.226  1.00  0.00    -0.104 NA 
HETATM   42  C   UNL     1      -6.893   5.364  67.890  1.00  0.00    -0.060 C  
HETATM   43  H   UNL     1      -8.550   4.447  66.843  1.00  0.00     0.000 HD 
ENDBRANCH  34  41
ENDBRANCH  29  30
ENDBRANCH  23  29
ENDBRANCH  14  15
ENDBRANCH   9  14
ENDBRANCH   4   5
ENDBRANCH   2   4
TORSDOF 7
ENDMDL
MODEL      148
REMARK 921   NORMALIZED FREE ENERGY PREDICTED BY IDOCK:   -4.90 KCAL/MOL
REMARK 922        TOTAL FREE ENERGY PREDICTED BY IDOCK:   -8.62 KCAL/MOL
REMARK 923 INTER-LIGAND FREE ENERGY PREDICTED BY IDOCK:   -8.07 KCAL/MOL
REMARK 924 INTRA-LIGAND FREE ENERGY PREDICTED BY IDOCK:   -0.54 KCAL/MOL
REMARK 927      BINDING AFFINITY PREDICTED BY RF-SCORE:    0.00 PKD
ROOT
HETATM    1  C   UNL     1     -10.165  11.523  62.874  1.00  0.00    -0.139 C  
HETATM    2  N   UNL     1     -10.847  12.706  63.376  1.00  0.00    -0.577 NA 
HETATM    3  H   UNL     1     -11.130  13.310  62.604  1.00  0.00     0.000 HD 
ENDROOT
BRANCH   2   4
HETATM    4  C   UNL     1     -11.992  12.409  64.248  1.00  0.00    -0.410 C  
BRANCH   4   5
HETATM    5  C   UNL     1     -11.822  12.788  65.744  1.00  0.00    -0.434 C  
HETATM    6  C   UNL     1     -12.245  14.209  66.070  1.00  0.00    -0.464 C  
HETATM    7  C   UNL     1     -12.080  14.446  67.571  1.00  0.00    -0.327 C  
HETATM    8  C   UNL     1     -10.716  13.961  68.106  1.00  0.00    -0.250 C  
HETATM    9  C   UNL     1     -10.224  12.571  67.498  1.00  0.00    -0.217 C  
HETATM   10  N   UNL     1     -10.703  14.085  69.583  1.00  0.00    -0.452 NA 
HETATM   11  O   UNL     1     -10.425  12.637  66.089  1.00  0.00    -0.250 OA 
HETATM   12  H1  UNL     1      -9.802  13.764  69.936  1.00  0.00     0.000 HD 
HETATM   13  H2  UNL     1     -11.486  13.598  70.020  1.00  0.00     0.000 HD 
BRANCH   9  14
HETATM   14  O   UNL     1     -10.791  11.374  68.081  1.00  0.00    -0.190 OA 
BRANCH  14  15
HETATM   15  C   UNL     1     -10.014  10.645  69.122  1.00  0.00    -0.211 C  
HETATM   16  C   UNL     1      -8.472  10.727  68.960  1.00  0.00    -0.133 C  
HETATM   17  N   UNL     1      -7.984  12.076  69.316  1.00  0.00    -0.272 NA 
HETATM   18  C   UNL     1      -7.732   9.723  69.867  1.00  0.00    -0.162 C  
HETATM   19  H2  UNL     1      -8.282  12.352  70.251  1.00  0.00     0.000 HD 
HETATM   20  H1  UNL     1      -6.972  12.130  69.209  1.00  0.00     0.000 HD 
HETATM   21  C   UNL     1      -8.197   8.274  69.656  1.00  0.00    -0.118 C  
HETATM   22  N   UNL     1      -7.327   7.343  70.384  1.00  0.00    -0.076 NA 
HETATM   23  C   UNL     1      -9.666   8.100  70.086  1.00  0.00    -0.175 C  
HETATM   24  C   UNL     1     -10.525   9.188  69.368  1.00  0.00    -0.219 C  
HETATM   25  O   UNL     1     -11.832   9.240  69.986  1.00  0.00    -0.464 OA 
HETATM   26  H1  UNL     1      -7.635   6.382  70.244  1.00  0.00     0.000 HD 
HETATM   27  H2  UNL     1      -7.263   7.581  71.374  1.00  0.00     0.000 HD 
HETATM   28  H   UNL     1     -12.143   8.354  70.136  1.00  0.00     0.000 HD 
BRANCH  23  29
HETATM   29  O   UNL     1     -10.171   6.816  69.618  1.00  0.00    -0.179 OA 
BRANCH  29  30
HETATM   30  C   UNL     1      -9.643   6.156  68.450  1.00  0.00    -0.118 C  
HETATM   31  O   UNL     1      -9.983   6.753  67.196  1.00  0.00    -0.144 OA 
HETATM   32  C   UNL     1      -9.301   6.126  66.099  1.00  0.00    -0.102 C  
HETATM   33  C   UNL     1      -9.671   4.630  65.922  1.00  0.00    -0.200 C  
HETATM   34  C   UNL     1      -9.327   3.878  67.237  1.00  0.00    -0.191 C  
HETATM   35  O   UNL     1     -11.080   4.530  65.660  1.00  0.00    -0.763 OA 
HETATM   36  C   UNL     1      -8.917   4.073  64.704  1.00  0.00    -0.136 C  
HETATM   37  H   UNL     1      -9.620   3.034  69.679  1.00  0.00     0.000 HD 
HETATM   38  H   UNL     1     -11.306   3.614  65.551  1.00  0.00     0.000 HD 
HETATM   39  C   UNL     1      -9.950   4.611  68.475  1.00  0.00    -0.060 C  
HETATM   40  O   UNL     1      -9.434   3.966  69.664  1.00  0.00    -0.165 OA 
BRANCH  34  41
HETATM   41  N   UNL     1      -9.505   2.395  67.303  1.00  0.00    -0.401 NA 
HETATM   42  C   UNL     1      -8.311   1.569  67.280  1.00  0.00    -0.077 C  
HETATM   43  H   UNL     1     -10.434   1.978  67.363  1.00  0.00     0.000 HD 
ENDBRANCH  34  41
ENDBRANCH  29  30
ENDBRANCH  23  29
ENDBRANCH  14  15
ENDBRANCH   9  14
ENDBRANCH   4   5
ENDBRANCH   2   4
TORSDOF 7
ENDMDL
MODEL      149
REMARK 921   NORMALIZED FREE ENERGY PREDICTED BY IDOCK:   -4.90 KCAL/MOL
REMARK 922        TOTAL FREE ENERGY PREDICTED BY IDOCK:   -8.62 KCAL/MOL
REMARK 923 INTER-LIGAND FREE ENERGY PREDICTED BY IDOCK:   -7.10 KCAL/MOL
REMARK 924 INTRA-LIGAND FREE ENERGY PREDICTED BY IDOCK:   -1.51 KCAL/MOL
REMARK 927      BINDING AFFINITY PREDICTED BY RF-SCORE:    0.00 PKD
ROOT
HETATM    1  C   UNL     1     -12.214  13.626  63.857  1.00  0.00    -0.374 C  
HETATM    2  N   UNL     1     -11.806  12.521  64.712  1.00  0.00    -0.364 NA 
HETATM    3  H   UNL     1     -10.867  12.206  64.466  1.00  0.00     0.000 HD 
ENDROOT
BRANCH   2   4
HETATM    4  C   UNL     1     -11.893  12.817  66.149  1.00  0.00    -0.425 C  
BRANCH   4   5
HETATM    5  C   UNL     1     -10.544  12.859  66.916  1.00  0.00    -0.253 C  
HETATM    6  C   UNL     1      -9.544  13.850  66.347  1.00  0.00    -0.292 C  
HETATM    7  C   UNL     1      -8.284  13.838  67.212  1.00  0.00    -0.173 C  
HETATM    8  C   UNL     1      -7.784  12.410  67.520  1.00  0.00    -0.161 C  
HETATM    9  C   UNL     1      -8.942  11.363  67.849  1.00  0.00    -0.153 C  
HETATM   10  N   UNL     1      -6.661  12.488  68.483  1.00  0.00    -0.072 NA 
HETATM   11  O   UNL     1      -9.956  11.538  66.865  1.00  0.00    -0.201 OA 
HETATM   12  H1  UNL     1      -6.331  11.544  68.687  1.00  0.00     0.000 HD 
HETATM   13  H2  UNL     1      -6.909  13.003  69.328  1.00  0.00     0.000 HD 
BRANCH   9  14
HETATM   14  O   UNL     1      -9.469  11.386  69.196  1.00  0.00    -0.037 OA 
BRANCH  14  15
HETATM   15  C   UNL     1     -10.251  10.215  69.682  1.00  0.00    -0.242 C  
HETATM   16  C   UNL     1     -11.722  10.529  70.068  1.00  0.00    -0.312 C  
HETATM   17  N   UNL     1     -12.535  10.769  68.857  1.00  0.00    -0.731 NA 
HETATM   18  C   UNL     1     -12.387   9.370  70.838  1.00  0.00    -0.263 C  
HETATM   19  H2  UNL     1     -12.473   9.993  68.199  1.00  0.00     0.000 HD 
HETATM   20  H1  UNL     1     -13.501  10.976  69.110  1.00  0.00     0.000 HD 
HETATM   21  C   UNL     1     -11.601   8.959  72.093  1.00  0.00    -0.330 C  
HETATM   22  N   UNL     1     -12.374   8.005  72.895  1.00  0.00    -0.638 NA 
HETATM   23  C   UNL     1     -10.229   8.370  71.713  1.00  0.00    -0.253 C  
HETATM   24  C   UNL     1      -9.500   9.378  70.770  1.00  0.00    -0.241 C  
HETATM   25  O   UNL     1      -8.365   8.718  70.162  1.00  0.00    -0.115 OA 
HETATM   26  H1  UNL     1     -11.853   7.732  73.728  1.00  0.00     0.000 HD 
HETATM   27  H2  UNL     1     -12.663   7.195  72.346  1.00  0.00     0.000 HD 
HETATM   28  H   UNL     1      -7.909   8.209  70.823  1.00  0.00     0.000 HD 
BRANCH  23  29
HETATM   29  O   UNL     1      -9.393   8.256  72.901  1.00  0.00    -0.256 OA 
BRANCH  29  30
HETATM   30  C   UNL     1      -8.686   7.044  73.236  1.00  0.00    -0.127 C  
HETATM   31  O   UNL     1      -7.631   6.679  72.343  1.00  0.00    -0.093 OA 
HETATM   32  C   UNL     1      -6.886   5.549  72.825  1.00  0.00    -0.078 C  
HETATM   33  C   UNL     1      -7.741   4.261  72.953  1.00  0.00    -0.081 C  
HETATM   34  C   UNL     1      -8.922   4.548  73.921  1.00  0.00    -0.102 C  
HETATM   35  O   UNL     1      -8.250   3.912  71.656  1.00  0.00    -0.075 OA 
HETATM   36  C   UNL     1      -6.840   3.114  73.438  1.00  0.00    -0.035 C  
HETATM   37  H   UNL     1     -11.238   5.435  74.703  1.00  0.00     0.000 HD 
HETATM   38  H   UNL     1      -8.773   3.123  71.736  1.00  0.00     0.000 HD 
HETATM   39  C   UNL     1      -9.681   5.852  73.499  1.00  0.00    -0.160 C  
HETATM   40  O   UNL     1     -10.637   6.154  74.544  1.00  0.00    -0.178 OA 
BRANCH  34  41
HETATM   41  N   UNL     1      -9.854   3.439  74.291  1.00  0.00    -0.109 NA 
HETATM   42  C   UNL     1     -10.812   2.999  73.292  1.00  0.00    -0.180 C  
HETATM   43  H   UNL     1      -9.818   3.007  75.214  1.00  0.00     0.000 HD 
ENDBRANCH  34  41
ENDBRANCH  29  30
ENDBRANCH  23  29
ENDBRANCH  14  15
ENDBRANCH   9  14
ENDBRANCH   4   5
ENDBRANCH   2   4
TORSDOF 7
ENDMDL
MODEL      150
REMARK 921   NORMALIZED FREE ENERGY PREDICTED BY IDOCK:   -4.90 KCAL/MOL
REMARK 922        TOTAL FREE ENERGY PREDICTED BY IDOCK:   -8.61 KCAL/MOL
REMARK 923 INTER-LIGAND FREE ENERGY PREDICTED BY IDOCK:   -7.20 KCAL/MOL
REMARK 924 INTRA-LIGAND FREE ENERGY PREDICTED BY IDOCK:   -1.41 KCAL/MOL
REMARK 927      BINDING AFFINITY PREDICTED BY RF-SCORE:    0.00 PKD
ROOT
HETATM    1  C   UNL     1     -12.432   8.645  71.740  1.00  0.00    -0.346 C  
HETATM    2  N   UNL     1     -11.797   7.971  72.863  1.00  0.00    -0.587 NA 
HETATM    3  H   UNL     1     -12.122   7.007  72.933  1.00  0.00     0.000 HD 
ENDROOT
BRANCH   2   4
HETATM    4  C   UNL     1     -10.327   8.021  72.834  1.00  0.00    -0.327 C  
BRANCH   4   5
HETATM    5  C   UNL     1      -9.639   7.118  71.775  1.00  0.00    -0.151 C  
HETATM    6  C   UNL     1      -8.783   6.015  72.370  1.00  0.00    -0.126 C  
HETATM    7  C   UNL     1      -8.204   5.167  71.238  1.00  0.00    -0.117 C  
HETATM    8  C   UNL     1      -7.593   6.020  70.106  1.00  0.00    -0.095 C  
HETATM    9  C   UNL     1      -8.438   7.319  69.728  1.00  0.00    -0.136 C  
HETATM   10  N   UNL     1      -7.200   5.131  68.988  1.00  0.00    -0.056 NA 
HETATM   11  O   UNL     1      -8.796   7.956  70.951  1.00  0.00    -0.135 OA 
HETATM   12  H1  UNL     1      -6.795   5.695  68.240  1.00  0.00     0.000 HD 
HETATM   13  H2  UNL     1      -7.974   4.552  68.662  1.00  0.00     0.000 HD 
BRANCH   9  14
HETATM   14  O   UNL     1      -9.575   7.118  68.856  1.00  0.00    -0.142 OA 
BRANCH  14  15
HETATM   15  C   UNL     1      -9.593   7.796  67.530  1.00  0.00    -0.148 C  
HETATM   16  C   UNL     1      -8.342   7.533  66.648  1.00  0.00    -0.127 C  
HETATM   17  N   UNL     1      -8.360   6.153  66.120  1.00  0.00    -0.122 NA 
HETATM   18  C   UNL     1      -8.269   8.482  65.434  1.00  0.00    -0.145 C  
HETATM   19  H2  UNL     1      -9.226   5.950  65.620  1.00  0.00     0.000 HD 
HETATM   20  H1  UNL     1      -7.539   5.980  65.541  1.00  0.00     0.000 HD 
HETATM   21  C   UNL     1      -8.318   9.965  65.833  1.00  0.00    -0.123 C  
HETATM   22  N   UNL     1      -8.038  10.819  64.673  1.00  0.00    -0.365 NA 
HETATM   23  C   UNL     1      -9.679  10.321  66.461  1.00  0.00    -0.193 C  
HETATM   24  C   UNL     1      -9.973   9.310  67.613  1.00  0.00    -0.196 C  
HETATM   25  O   UNL     1     -11.362   9.431  68.002  1.00  0.00    -0.494 OA 
HETATM   26  H1  UNL     1      -8.070  11.803  64.938  1.00  0.00     0.000 HD 
HETATM   27  H2  UNL     1      -8.664  10.616  63.894  1.00  0.00     0.000 HD 
HETATM   28  H   UNL     1     -11.593  10.352  68.053  1.00  0.00     0.000 HD 
BRANCH  23  29
HETATM   29  O   UNL     1      -9.607  11.635  67.087  1.00  0.00    -0.174 OA 
BRANCH  29  30
HETATM   30  C   UNL     1     -10.261  12.794  66.531  1.00  0.00    -0.253 C  
HETATM   31  O   UNL     1      -9.844  13.165  65.215  1.00  0.00    -0.196 OA 
HETATM   32  C   UNL     1     -10.642  14.232  64.679  1.00  0.00    -0.340 C  
HETATM   33  C   UNL     1     -10.537  15.546  65.498  1.00  0.00    -0.396 C  
HETATM   34  C   UNL     1     -10.983  15.254  66.957  1.00  0.00    -0.324 C  
HETATM   35  O   UNL     1      -9.171  15.991  65.487  1.00  0.00    -0.354 OA 
HETATM   36  C   UNL     1     -11.396  16.624  64.818  1.00  0.00     0.021 C  
HETATM   37  H   UNL     1     -10.798  14.423  69.414  1.00  0.00     0.000 HD 
HETATM   38  H   UNL     1      -9.108  16.795  65.988  1.00  0.00     0.000 HD 
HETATM   39  C   UNL     1     -10.222  14.010  67.532  1.00  0.00    -0.244 C  
HETATM   40  O   UNL     1     -10.822  13.690  68.811  1.00  0.00    -0.248 OA 
BRANCH  34  41
HETATM   41  N   UNL     1     -11.061  16.378  67.940  1.00  0.00    -0.297 NA 
HETATM   42  C   UNL     1      -9.814  16.950  68.416  1.00  0.00    -0.266 C  
HETATM   43  H   UNL     1     -11.961  16.732  68.264  1.00  0.00     0.000 HD 
ENDBRANCH  34  41
ENDBRANCH  29  30
ENDBRANCH  23  29
ENDBRANCH  14  15
ENDBRANCH   9  14
ENDBRANCH   4   5
ENDBRANCH   2   4
TORSDOF 7
ENDMDL
MODEL      151
REMARK 921   NORMALIZED FREE ENERGY PREDICTED BY IDOCK:   -4.88 KCAL/MOL
REMARK 922        TOTAL FREE ENERGY PREDICTED BY IDOCK:   -8.59 KCAL/MOL
REMARK 923 INTER-LIGAND FREE ENERGY PREDICTED BY IDOCK:   -7.33 KCAL/MOL
REMARK 924 INTRA-LIGAND FREE ENERGY PREDICTED BY IDOCK:   -1.26 KCAL/MOL
REMARK 927      BINDING AFFINITY PREDICTED BY RF-SCORE:    0.00 PKD
ROOT
HETATM    1  C   UNL     1      -9.763  17.945  68.451  1.00  0.00    -0.340 C  
HETATM    2  N   UNL     1     -10.554  17.287  67.423  1.00  0.00    -0.332 NA 
HETATM    3  H   UNL     1     -11.119  17.967  66.914  1.00  0.00     0.000 HD 
ENDROOT
BRANCH   2   4
HETATM    4  C   UNL     1      -9.760  16.474  66.490  1.00  0.00    -0.272 C  
BRANCH   4   5
HETATM    5  C   UNL     1     -10.520  15.324  65.774  1.00  0.00    -0.349 C  
HETATM    6  C   UNL     1     -11.521  15.801  64.737  1.00  0.00    -0.256 C  
HETATM    7  C   UNL     1     -12.164  14.586  64.070  1.00  0.00    -0.262 C  
HETATM    8  C   UNL     1     -12.635  13.525  65.088  1.00  0.00    -0.436 C  
HETATM    9  C   UNL     1     -11.628  13.282  66.301  1.00  0.00    -0.346 C  
HETATM   10  N   UNL     1     -13.099  12.324  64.355  1.00  0.00    -0.777 NA 
HETATM   11  O   UNL     1     -11.232  14.564  66.778  1.00  0.00    -0.317 OA 
HETATM   12  H1  UNL     1     -13.410  11.623  65.028  1.00  0.00     0.000 HD 
HETATM   13  H2  UNL     1     -12.391  11.961  63.716  1.00  0.00     0.000 HD 
BRANCH   9  14
HETATM   14  O   UNL     1     -10.498  12.417  66.039  1.00  0.00    -0.245 OA 
BRANCH  14  15
HETATM   15  C   UNL     1     -10.205  11.308  66.990  1.00  0.00    -0.215 C  
HETATM   16  C   UNL     1      -9.675  11.764  68.377  1.00  0.00    -0.197 C  
HETATM   17  N   UNL     1     -10.761  12.372  69.173  1.00  0.00    -0.433 NA 
HETATM   18  C   UNL     1      -9.109  10.591  69.203  1.00  0.00    -0.177 C  
HETATM   19  H2  UNL     1     -11.563  11.748  69.260  1.00  0.00     0.000 HD 
HETATM   20  H1  UNL     1     -10.413  12.671  70.083  1.00  0.00     0.000 HD 
HETATM   21  C   UNL     1      -8.012   9.813  68.460  1.00  0.00    -0.089 C  
HETATM   22  N   UNL     1      -7.367   8.849  69.358  1.00  0.00    -0.074 NA 
HETATM   23  C   UNL     1      -8.584   9.107  67.217  1.00  0.00    -0.118 C  
HETATM   24  C   UNL     1      -9.353  10.159  66.358  1.00  0.00    -0.169 C  
HETATM   25  O   UNL     1     -10.149   9.468  65.366  1.00  0.00    -0.383 OA 
HETATM   26  H1  UNL     1      -6.639   8.333  68.865  1.00  0.00     0.000 HD 
HETATM   27  H2  UNL     1      -8.047   8.224  69.793  1.00  0.00     0.000 HD 
HETATM   28  H   UNL     1      -9.631   8.769  64.982  1.00  0.00     0.000 HD 
BRANCH  23  29
HETATM   29  O   UNL     1      -7.496   8.622  66.377  1.00  0.00    -0.085 OA 
BRANCH  29  30
HETATM   30  C   UNL     1      -7.517   7.317  65.762  1.00  0.00    -0.084 C  
HETATM   31  O   UNL     1      -8.249   7.224  64.538  1.00  0.00    -0.107 OA 
HETATM   32  C   UNL     1      -8.098   5.937  63.918  1.00  0.00    -0.098 C  
HETATM   33  C   UNL     1      -8.647   4.771  64.782  1.00  0.00    -0.146 C  
HETATM   34  C   UNL     1      -7.903   4.776  66.146  1.00  0.00    -0.099 C  
HETATM   35  O   UNL     1     -10.053   4.977  64.996  1.00  0.00    -0.381 OA 
HETATM   36  C   UNL     1      -8.469   3.455  64.011  1.00  0.00    -0.090 C  
HETATM   37  H   UNL     1      -7.324   5.499  68.575  1.00  0.00     0.000 HD 
HETATM   38  H   UNL     1     -10.389   4.263  65.525  1.00  0.00     0.000 HD 
HETATM   39  C   UNL     1      -7.937   6.203  66.793  1.00  0.00    -0.105 C  
HETATM   40  O   UNL     1      -7.071   6.171  67.953  1.00  0.00    -0.073 OA 
BRANCH  34  41
HETATM   41  N   UNL     1      -8.182   3.693  67.138  1.00  0.00    -0.091 NA 
HETATM   42  C   UNL     1      -9.407   3.783  67.912  1.00  0.00    -0.186 C  
HETATM   43  H   UNL     1      -7.533   2.916  67.265  1.00  0.00     0.000 HD 
ENDBRANCH  34  41
ENDBRANCH  29  30
ENDBRANCH  23  29
ENDBRANCH  14  15
ENDBRANCH   9  14
ENDBRANCH   4   5
ENDBRANCH   2   4
TORSDOF 7
ENDMDL
MODEL      152
REMARK 921   NORMALIZED FREE ENERGY PREDICTED BY IDOCK:   -4.88 KCAL/MOL
REMARK 922        TOTAL FREE ENERGY PREDICTED BY IDOCK:   -8.58 KCAL/MOL
REMARK 923 INTER-LIGAND FREE ENERGY PREDICTED BY IDOCK:   -7.76 KCAL/MOL
REMARK 924 INTRA-LIGAND FREE ENERGY PREDICTED BY IDOCK:   -0.83 KCAL/MOL
REMARK 927      BINDING AFFINITY PREDICTED BY RF-SCORE:    0.00 PKD
ROOT
HETATM    1  C   UNL     1      -6.658  11.615  69.513  1.00  0.00    -0.111 C  
HETATM    2  N   UNL     1      -7.578  10.576  69.075  1.00  0.00    -0.106 NA 
HETATM    3  H   UNL     1      -8.171  10.918  68.319  1.00  0.00     0.000 HD 
ENDROOT
BRANCH   2   4
HETATM    4  C   UNL     1      -6.917   9.321  68.686  1.00  0.00    -0.062 C  
BRANCH   4   5
HETATM    5  C   UNL     1      -7.517   8.594  67.452  1.00  0.00    -0.089 C  
HETATM    6  C   UNL     1      -7.082   7.145  67.322  1.00  0.00    -0.084 C  
HETATM    7  C   UNL     1      -7.773   6.525  66.108  1.00  0.00    -0.092 C  
HETATM    8  C   UNL     1      -7.687   7.418  64.851  1.00  0.00    -0.113 C  
HETATM    9  C   UNL     1      -7.895   8.974  65.131  1.00  0.00    -0.108 C  
HETATM   10  N   UNL     1      -8.509   6.818  63.774  1.00  0.00    -0.332 NA 
HETATM   11  O   UNL     1      -7.098   9.305  66.265  1.00  0.00    -0.085 OA 
HETATM   12  H1  UNL     1      -8.452   7.408  62.944  1.00  0.00     0.000 HD 
HETATM   13  H2  UNL     1      -9.472   6.653  64.067  1.00  0.00     0.000 HD 
BRANCH   9  14
HETATM   14  O   UNL     1      -9.262   9.429  65.266  1.00  0.00    -0.224 OA 
BRANCH  14  15
HETATM   15  C   UNL     1      -9.631  10.257  66.448  1.00  0.00    -0.185 C  
HETATM   16  C   UNL     1     -11.022   9.935  67.059  1.00  0.00    -0.027 C  
HETATM   17  N   UNL     1     -10.987   8.644  67.776  1.00  0.00    -0.487 NA 
HETATM   18  C   UNL     1     -11.480  11.005  68.072  1.00  0.00    -0.365 C  
HETATM   19  H2  UNL     1     -10.249   8.621  68.480  1.00  0.00     0.000 HD 
HETATM   20  H1  UNL     1     -11.900   8.432  68.177  1.00  0.00     0.000 HD 
HETATM   21  C   UNL     1     -11.492  12.422  67.478  1.00  0.00    -0.346 C  
HETATM   22  N   UNL     1     -12.126  13.363  68.408  1.00  0.00    -0.307 NA 
HETATM   23  C   UNL     1     -10.065  12.881  67.123  1.00  0.00    -0.243 C  
HETATM   24  C   UNL     1      -9.401  11.788  66.227  1.00  0.00    -0.225 C  
HETATM   25  O   UNL     1      -7.980  12.048  66.143  1.00  0.00    -0.357 OA 
HETATM   26  H1  UNL     1     -12.135  14.304  68.014  1.00  0.00     0.000 HD 
HETATM   27  H2  UNL     1     -11.687  13.341  69.328  1.00  0.00     0.000 HD 
HETATM   28  H   UNL     1      -7.840  12.978  66.009  1.00  0.00     0.000 HD 
BRANCH  23  29
HETATM   29  O   UNL     1     -10.121  14.088  66.308  1.00  0.00    -0.282 OA 
BRANCH  29  30
HETATM   30  C   UNL     1      -9.565  15.344  66.747  1.00  0.00    -0.241 C  
HETATM   31  O   UNL     1      -9.130  15.384  68.109  1.00  0.00    -0.180 OA 
HETATM   32  C   UNL     1      -8.458  16.614  68.422  1.00  0.00    -0.216 C  
HETATM   33  C   UNL     1      -9.366  17.863  68.275  1.00  0.00    -0.286 C  
HETATM   34  C   UNL     1      -9.890  17.922  66.813  1.00  0.00    -0.333 C  
HETATM   35  O   UNL     1     -10.473  17.740  69.182  1.00  0.00    -0.426 OA 
HETATM   36  C   UNL     1      -8.561  19.111  68.669  1.00  0.00    -0.396 C  
HETATM   37  H   UNL     1     -11.379  17.348  64.760  1.00  0.00     0.000 HD 
HETATM   38  H   UNL     1     -11.029  18.505  69.092  1.00  0.00     0.000 HD 
HETATM   39  C   UNL     1     -10.516  16.548  66.392  1.00  0.00    -0.274 C  
HETATM   40  O   UNL     1     -10.805  16.622  64.975  1.00  0.00    -0.641 OA 
BRANCH  34  41
HETATM   41  N   UNL     1     -10.721  19.085  66.378  1.00  0.00    -0.378 NA 
HETATM   42  C   UNL     1     -10.051  20.178  65.694  1.00  0.00    -0.157 C  
HETATM   43  H   UNL     1     -11.726  19.111  66.555  1.00  0.00     0.000 HD 
ENDBRANCH  34  41
ENDBRANCH  29  30
ENDBRANCH  23  29
ENDBRANCH  14  15
ENDBRANCH   9  14
ENDBRANCH   4   5
ENDBRANCH   2   4
TORSDOF 7
ENDMDL
MODEL      153
REMARK 921   NORMALIZED FREE ENERGY PREDICTED BY IDOCK:   -4.87 KCAL/MOL
REMARK 922        TOTAL FREE ENERGY PREDICTED BY IDOCK:   -8.57 KCAL/MOL
REMARK 923 INTER-LIGAND FREE ENERGY PREDICTED BY IDOCK:   -6.82 KCAL/MOL
REMARK 924 INTRA-LIGAND FREE ENERGY PREDICTED BY IDOCK:   -1.75 KCAL/MOL
REMARK 927      BINDING AFFINITY PREDICTED BY RF-SCORE:    0.00 PKD
ROOT
HETATM    1  C   UNL     1      -9.146   2.309  72.561  1.00  0.00    -0.078 C  
HETATM    2  N   UNL     1      -8.816   3.609  71.997  1.00  0.00    -0.094 NA 
HETATM    3  H   UNL     1      -7.931   3.567  71.492  1.00  0.00     0.000 HD 
ENDROOT
BRANCH   2   4
HETATM    4  C   UNL     1      -9.872   4.173  71.143  1.00  0.00    -0.174 C  
BRANCH   4   5
HETATM    5  C   UNL     1     -10.229   5.662  71.400  1.00  0.00    -0.214 C  
HETATM    6  C   UNL     1     -10.682   5.950  72.820  1.00  0.00    -0.274 C  
HETATM    7  C   UNL     1     -10.953   7.448  72.963  1.00  0.00    -0.422 C  
HETATM    8  C   UNL     1     -11.808   8.012  71.808  1.00  0.00    -0.296 C  
HETATM    9  C   UNL     1     -11.429   7.442  70.367  1.00  0.00    -0.225 C  
HETATM   10  N   UNL     1     -11.890   9.485  71.942  1.00  0.00    -0.350 NA 
HETATM   11  O   UNL     1     -11.298   6.030  70.498  1.00  0.00    -0.323 OA 
HETATM   12  H1  UNL     1     -12.455   9.858  71.179  1.00  0.00     0.000 HD 
HETATM   13  H2  UNL     1     -10.970   9.923  71.993  1.00  0.00     0.000 HD 
BRANCH   9  14
HETATM   14  O   UNL     1     -10.288   8.045  69.713  1.00  0.00    -0.209 OA 
BRANCH  14  15
HETATM   15  C   UNL     1     -10.509   8.863  68.489  1.00  0.00    -0.182 C  
HETATM   16  C   UNL     1     -10.104   8.169  67.160  1.00  0.00    -0.264 C  
HETATM   17  N   UNL     1     -11.069   7.105  66.816  1.00  0.00    -0.548 NA 
HETATM   18  C   UNL     1     -10.068   9.152  65.972  1.00  0.00    -0.204 C  
HETATM   19  H2  UNL     1     -12.026   7.457  66.782  1.00  0.00     0.000 HD 
HETATM   20  H1  UNL     1     -10.803   6.649  65.943  1.00  0.00     0.000 HD 
HETATM   21  C   UNL     1      -9.152  10.359  66.224  1.00  0.00    -0.158 C  
HETATM   22  N   UNL     1      -8.991  11.148  64.997  1.00  0.00    -0.355 NA 
HETATM   23  C   UNL     1      -9.697  11.233  67.369  1.00  0.00    -0.173 C  
HETATM   24  C   UNL     1      -9.955  10.321  68.610  1.00  0.00    -0.173 C  
HETATM   25  O   UNL     1     -10.747  11.051  69.575  1.00  0.00    -0.322 OA 
HETATM   26  H1  UNL     1      -8.383  11.949  65.165  1.00  0.00     0.000 HD 
HETATM   27  H2  UNL     1      -9.891  11.429  64.607  1.00  0.00     0.000 HD 
HETATM   28  H   UNL     1     -10.411  11.937  69.649  1.00  0.00     0.000 HD 
BRANCH  23  29
HETATM   29  O   UNL     1      -8.686  12.196  67.783  1.00  0.00    -0.155 OA 
BRANCH  29  30
HETATM   30  C   UNL     1      -9.000  13.575  68.065  1.00  0.00    -0.189 C  
HETATM   31  O   UNL     1      -9.474  13.843  69.387  1.00  0.00     0.332 OA 
HETATM   32  C   UNL     1      -9.622  15.250  69.630  1.00  0.00    -0.180 C  
HETATM   33  C   UNL     1     -10.669  15.926  68.705  1.00  0.00    -0.265 C  
HETATM   34  C   UNL     1     -10.240  15.702  67.229  1.00  0.00    -0.266 C  
HETATM   35  O   UNL     1     -11.950  15.317  68.935  1.00  0.00    -0.469 OA 
HETATM   36  C   UNL     1     -10.773  17.413  69.076  1.00  0.00    -0.085 C  
HETATM   37  H   UNL     1      -9.941  14.455  64.967  1.00  0.00     0.000 HD 
HETATM   38  H   UNL     1     -12.591  15.731  68.369  1.00  0.00     0.000 HD 
HETATM   39  C   UNL     1      -9.943  14.186  66.961  1.00  0.00    -0.260 C  
HETATM   40  O   UNL     1      -9.373  14.087  65.633  1.00  0.00    -0.023 OA 
BRANCH  34  41
HETATM   41  N   UNL     1     -11.034  16.331  66.130  1.00  0.00    -0.084 NA 
HETATM   42  C   UNL     1     -10.565  17.598  65.596  1.00  0.00    -0.135 C  
HETATM   43  H   UNL     1     -11.876  15.885  65.767  1.00  0.00     0.000 HD 
ENDBRANCH  34  41
ENDBRANCH  29  30
ENDBRANCH  23  29
ENDBRANCH  14  15
ENDBRANCH   9  14
ENDBRANCH   4   5
ENDBRANCH   2   4
TORSDOF 7
ENDMDL
MODEL      154
REMARK 921   NORMALIZED FREE ENERGY PREDICTED BY IDOCK:   -4.86 KCAL/MOL
REMARK 922        TOTAL FREE ENERGY PREDICTED BY IDOCK:   -8.56 KCAL/MOL
REMARK 923 INTER-LIGAND FREE ENERGY PREDICTED BY IDOCK:   -7.19 KCAL/MOL
REMARK 924 INTRA-LIGAND FREE ENERGY PREDICTED BY IDOCK:   -1.38 KCAL/MOL
REMARK 927      BINDING AFFINITY PREDICTED BY RF-SCORE:    0.00 PKD
ROOT
HETATM    1  C   UNL     1     -14.225   8.251  71.631  1.00  0.00    -0.447 C  
HETATM    2  N   UNL     1     -13.339   8.754  72.670  1.00  0.00    -0.658 NA 
HETATM    3  H   UNL     1     -13.551   8.314  73.566  1.00  0.00     0.000 HD 
ENDROOT
BRANCH   2   4
HETATM    4  C   UNL     1     -11.910   8.617  72.352  1.00  0.00    -0.331 C  
BRANCH   4   5
HETATM    5  C   UNL     1     -11.422   7.178  72.033  1.00  0.00    -0.274 C  
HETATM    6  C   UNL     1     -11.555   6.211  73.196  1.00  0.00     0.167 C  
HETATM    7  C   UNL     1     -11.094   4.825  72.747  1.00  0.00    -0.248 C  
HETATM    8  C   UNL     1      -9.748   4.859  71.991  1.00  0.00    -0.166 C  
HETATM    9  C   UNL     1      -9.593   6.078  70.974  1.00  0.00    -0.172 C  
HETATM   10  N   UNL     1      -9.456   3.507  71.461  1.00  0.00    -0.140 NA 
HETATM   11  O   UNL     1     -10.027   7.250  71.657  1.00  0.00    -0.180 OA 
HETATM   12  H1  UNL     1      -8.567   3.530  70.962  1.00  0.00     0.000 HD 
HETATM   13  H2  UNL     1     -10.215   3.143  70.884  1.00  0.00     0.000 HD 
BRANCH   9  14
HETATM   14  O   UNL     1     -10.226   5.926  69.682  1.00  0.00    -0.182 OA 
BRANCH  14  15
HETATM   15  C   UNL     1      -9.575   6.530  68.486  1.00  0.00    -0.123 C  
HETATM   16  C   UNL     1      -8.170   5.958  68.153  1.00  0.00    -0.109 C  
HETATM   17  N   UNL     1      -8.283   4.593  67.598  1.00  0.00    -0.100 NA 
HETATM   18  C   UNL     1      -7.422   6.812  67.108  1.00  0.00    -0.091 C  
HETATM   19  H2  UNL     1      -8.906   4.563  66.791  1.00  0.00     0.000 HD 
HETATM   20  H1  UNL     1      -7.361   4.218  67.380  1.00  0.00     0.000 HD 
HETATM   21  C   UNL     1      -7.295   8.286  67.523  1.00  0.00    -0.093 C  
HETATM   22  N   UNL     1      -6.405   9.004  66.605  1.00  0.00    -0.065 NA 
HETATM   23  C   UNL     1      -8.679   8.961  67.584  1.00  0.00    -0.124 C  
HETATM   24  C   UNL     1      -9.615   8.093  68.483  1.00  0.00    -0.148 C  
HETATM   25  O   UNL     1     -10.981   8.533  68.303  1.00  0.00    -0.450 OA 
HETATM   26  H1  UNL     1      -6.320   9.982  66.880  1.00  0.00     0.000 HD 
HETATM   27  H2  UNL     1      -6.704   8.908  65.634  1.00  0.00     0.000 HD 
HETATM   28  H   UNL     1     -11.006   9.483  68.301  1.00  0.00     0.000 HD 
BRANCH  23  29
HETATM   29  O   UNL     1      -8.571  10.254  68.247  1.00  0.00    -0.117 OA 
BRANCH  29  30
HETATM   30  C   UNL     1      -9.286  11.420  67.790  1.00  0.00    -0.159 C  
HETATM   31  O   UNL     1     -10.549  11.655  68.416  1.00  0.00    -0.194 OA 
HETATM   32  C   UNL     1     -11.124  12.908  68.012  1.00  0.00    -0.253 C  
HETATM   33  C   UNL     1     -11.432  12.980  66.493  1.00  0.00    -0.340 C  
HETATM   34  C   UNL     1     -10.110  12.746  65.712  1.00  0.00    -0.286 C  
HETATM   35  O   UNL     1     -12.379  11.952  66.163  1.00  0.00    -0.302 OA 
HETATM   36  C   UNL     1     -12.074  14.340  66.182  1.00  0.00    -0.424 C  
HETATM   37  H   UNL     1      -8.147  11.424  64.634  1.00  0.00     0.000 HD 
HETATM   38  H   UNL     1     -12.567  11.997  65.233  1.00  0.00     0.000 HD 
HETATM   39  C   UNL     1      -9.386  11.451  66.218  1.00  0.00    -0.212 C  
HETATM   40  O   UNL     1      -8.086  11.406  65.582  1.00  0.00     0.080 OA 
BRANCH  34  41
HETATM   41  N   UNL     1     -10.110  12.853  64.220  1.00  0.00    -0.609 NA 
HETATM   42  C   UNL     1     -10.291  11.633  63.454  1.00  0.00    -0.435 C  
HETATM   43  H   UNL     1      -9.987  13.754  63.757  1.00  0.00     0.000 HD 
ENDBRANCH  34  41
ENDBRANCH  29  30
ENDBRANCH  23  29
ENDBRANCH  14  15
ENDBRANCH   9  14
ENDBRANCH   4   5
ENDBRANCH   2   4
TORSDOF 7
ENDMDL
MODEL      155
REMARK 921   NORMALIZED FREE ENERGY PREDICTED BY IDOCK:   -4.86 KCAL/MOL
REMARK 922        TOTAL FREE ENERGY PREDICTED BY IDOCK:   -8.56 KCAL/MOL
REMARK 923 INTER-LIGAND FREE ENERGY PREDICTED BY IDOCK:   -7.60 KCAL/MOL
REMARK 924 INTRA-LIGAND FREE ENERGY PREDICTED BY IDOCK:   -0.95 KCAL/MOL
REMARK 927      BINDING AFFINITY PREDICTED BY RF-SCORE:    0.00 PKD
ROOT
HETATM    1  C   UNL     1     -12.540  13.455  70.833  1.00  0.00    -0.327 C  
HETATM    2  N   UNL     1     -12.563  14.364  69.696  1.00  0.00    -0.538 NA 
HETATM    3  H   UNL     1     -12.973  15.259  69.961  1.00  0.00     0.000 HD 
ENDROOT
BRANCH   2   4
HETATM    4  C   UNL     1     -11.249  14.563  69.067  1.00  0.00    -0.268 C  
BRANCH   4   5
HETATM    5  C   UNL     1     -10.969  13.712  67.798  1.00  0.00    -0.259 C  
HETATM    6  C   UNL     1     -12.217  13.347  67.015  1.00  0.00    -0.321 C  
HETATM    7  C   UNL     1     -11.811  12.560  65.769  1.00  0.00    -0.494 C  
HETATM    8  C   UNL     1     -10.801  11.434  66.077  1.00  0.00    -0.249 C  
HETATM    9  C   UNL     1      -9.668  11.833  67.127  1.00  0.00    -0.183 C  
HETATM   10  N   UNL     1     -10.347  10.830  64.803  1.00  0.00    -0.327 NA 
HETATM   11  O   UNL     1     -10.317  12.490  68.212  1.00  0.00    -0.224 OA 
HETATM   12  H1  UNL     1      -9.679  10.086  65.007  1.00  0.00     0.000 HD 
HETATM   13  H2  UNL     1      -9.969  11.523  64.157  1.00  0.00     0.000 HD 
BRANCH   9  14
HETATM   14  O   UNL     1      -8.548  12.591  66.612  1.00  0.00    -0.160 OA 
BRANCH  14  15
HETATM   15  C   UNL     1      -7.298  12.663  67.418  1.00  0.00    -0.140 C  
HETATM   16  C   UNL     1      -7.127  11.522  68.458  1.00  0.00    -0.087 C  
HETATM   17  N   UNL     1      -6.806  10.248  67.783  1.00  0.00    -0.074 NA 
HETATM   18  C   UNL     1      -5.988  11.806  69.458  1.00  0.00    -0.092 C  
HETATM   19  H2  UNL     1      -5.989  10.335  67.178  1.00  0.00     0.000 HD 
HETATM   20  H1  UNL     1      -6.695   9.499  68.466  1.00  0.00     0.000 HD 
HETATM   21  C   UNL     1      -6.154  13.149  70.186  1.00  0.00    -0.099 C  
HETATM   22  N   UNL     1      -5.167  13.274  71.265  1.00  0.00    -0.169 NA 
HETATM   23  C   UNL     1      -6.039  14.326  69.200  1.00  0.00    -0.095 C  
HETATM   24  C   UNL     1      -7.029  14.082  68.018  1.00  0.00    -0.145 C  
HETATM   25  O   UNL     1      -6.718  15.001  66.945  1.00  0.00    -0.271 OA 
HETATM   26  H1  UNL     1      -5.277  14.165  71.748  1.00  0.00     0.000 HD 
HETATM   27  H2  UNL     1      -4.215  13.142  70.925  1.00  0.00     0.000 HD 
HETATM   28  H   UNL     1      -6.554  15.863  67.310  1.00  0.00     0.000 HD 
BRANCH  23  29
HETATM   29  O   UNL     1      -6.479  15.557  69.844  1.00  0.00    -0.167 OA 
BRANCH  29  30
HETATM   30  C   UNL     1      -6.321  16.852  69.229  1.00  0.00    -0.223 C  
HETATM   31  O   UNL     1      -5.328  17.697  69.816  1.00  0.00    -0.186 OA 
HETATM   32  C   UNL     1      -5.132  18.901  69.058  1.00  0.00    -0.191 C  
HETATM   33  C   UNL     1      -6.399  19.794  68.986  1.00  0.00    -0.306 C  
HETATM   34  C   UNL     1      -7.548  18.967  68.346  1.00  0.00    -0.308 C  
HETATM   35  O   UNL     1      -6.766  20.185  70.318  1.00  0.00    -0.288 OA 
HETATM   36  C   UNL     1      -6.066  21.064  68.189  1.00  0.00    -0.385 C  
HETATM   37  H   UNL     1      -9.492  17.246  68.207  1.00  0.00     0.000 HD 
HETATM   38  H   UNL     1      -7.542  20.731  70.273  1.00  0.00     0.000 HD 
HETATM   39  C   UNL     1      -7.706  17.584  69.068  1.00  0.00    -0.139 C  
HETATM   40  O   UNL     1      -8.657  16.804  68.304  1.00  0.00    -0.210 OA 
BRANCH  34  41
HETATM   41  N   UNL     1      -8.863  19.623  68.077  1.00  0.00    -0.315 NA 
HETATM   42  C   UNL     1      -9.366  19.600  66.714  1.00  0.00    -0.364 C  
HETATM   43  H   UNL     1      -9.391  20.073  68.826  1.00  0.00     0.000 HD 
ENDBRANCH  34  41
ENDBRANCH  29  30
ENDBRANCH  23  29
ENDBRANCH  14  15
ENDBRANCH   9  14
ENDBRANCH   4   5
ENDBRANCH   2   4
TORSDOF 7
ENDMDL
MODEL      156
REMARK 921   NORMALIZED FREE ENERGY PREDICTED BY IDOCK:   -4.84 KCAL/MOL
REMARK 922        TOTAL FREE ENERGY PREDICTED BY IDOCK:   -8.54 KCAL/MOL
REMARK 923 INTER-LIGAND FREE ENERGY PREDICTED BY IDOCK:   -6.77 KCAL/MOL
REMARK 924 INTRA-LIGAND FREE ENERGY PREDICTED BY IDOCK:   -1.77 KCAL/MOL
REMARK 927      BINDING AFFINITY PREDICTED BY RF-SCORE:    0.00 PKD
ROOT
HETATM    1  C   UNL     1     -10.379  14.319  68.874  1.00  0.00    -0.215 C  
HETATM    2  N   UNL     1     -11.406  15.011  68.110  1.00  0.00    -0.317 NA 
HETATM    3  H   UNL     1     -11.049  15.894  67.747  1.00  0.00     0.000 HD 
ENDROOT
BRANCH   2   4
HETATM    4  C   UNL     1     -11.987  14.204  67.027  1.00  0.00    -0.439 C  
BRANCH   4   5
HETATM    5  C   UNL     1     -11.128  13.006  66.538  1.00  0.00    -0.288 C  
HETATM    6  C   UNL     1     -10.630  13.149  65.111  1.00  0.00    -0.332 C  
HETATM    7  C   UNL     1      -9.760  11.941  64.764  1.00  0.00    -0.143 C  
HETATM    8  C   UNL     1     -10.411  10.600  65.168  1.00  0.00    -0.261 C  
HETATM    9  C   UNL     1     -11.149  10.624  66.582  1.00  0.00     0.019 C  
HETATM   10  N   UNL     1      -9.441   9.503  64.941  1.00  0.00    -0.431 NA 
HETATM   11  O   UNL     1     -11.938  11.810  66.621  1.00  0.00    -0.561 OA 
HETATM   12  H1  UNL     1      -9.871   8.618  65.208  1.00  0.00     0.000 HD 
HETATM   13  H2  UNL     1      -8.554   9.663  65.419  1.00  0.00     0.000 HD 
BRANCH   9  14
HETATM   14  O   UNL     1     -10.310  10.480  67.752  1.00  0.00    -0.189 OA 
BRANCH  14  15
HETATM   15  C   UNL     1     -10.751   9.571  68.846  1.00  0.00    -0.195 C  
HETATM   16  C   UNL     1     -11.426  10.283  70.050  1.00  0.00    -0.296 C  
HETATM   17  N   UNL     1     -12.777  10.756  69.683  1.00  0.00    -0.528 NA 
HETATM   18  C   UNL     1     -11.587   9.350  71.268  1.00  0.00    -0.434 C  
HETATM   19  H2  UNL     1     -13.356  10.001  69.316  1.00  0.00     0.000 HD 
HETATM   20  H1  UNL     1     -13.219  11.224  70.473  1.00  0.00     0.000 HD 
HETATM   21  C   UNL     1     -10.259   8.721  71.717  1.00  0.00    -0.338 C  
HETATM   22  N   UNL     1     -10.430   8.015  72.992  1.00  0.00    -0.333 NA 
HETATM   23  C   UNL     1      -9.706   7.774  70.636  1.00  0.00    -0.177 C  
HETATM   24  C   UNL     1      -9.654   8.545  69.280  1.00  0.00    -0.170 C  
HETATM   25  O   UNL     1      -9.438   7.599  68.207  1.00  0.00    -0.145 OA 
HETATM   26  H1  UNL     1      -9.549   7.598  73.290  1.00  0.00     0.000 HD 
HETATM   27  H2  UNL     1     -11.180   7.325  72.945  1.00  0.00     0.000 HD 
HETATM   28  H   UNL     1      -8.771   6.975  68.471  1.00  0.00     0.000 HD 
BRANCH  23  29
HETATM   29  O   UNL     1      -8.329   7.416  70.947  1.00  0.00    -0.113 OA 
BRANCH  29  30
HETATM   30  C   UNL     1      -7.866   6.050  70.951  1.00  0.00    -0.107 C  
HETATM   31  O   UNL     1      -7.907   5.381  69.688  1.00  0.00    -0.075 OA 
HETATM   32  C   UNL     1      -7.295   4.082  69.748  1.00  0.00    -0.049 C  
HETATM   33  C   UNL     1      -8.016   3.110  70.718  1.00  0.00    -0.049 C  
HETATM   34  C   UNL     1      -8.019   3.742  72.137  1.00  0.00    -0.072 C  
HETATM   35  O   UNL     1      -9.367   2.923  70.267  1.00  0.00    -0.134 OA 
HETATM   36  C   UNL     1      -7.305   1.748  70.675  1.00  0.00    -0.033 C  
HETATM   37  H   UNL     1      -8.777   5.285  74.088  1.00  0.00     0.000 HD 
HETATM   38  H   UNL     1      -9.808   2.327  70.861  1.00  0.00     0.000 HD 
HETATM   39  C   UNL     1      -8.561   5.212  72.090  1.00  0.00    -0.126 C  
HETATM   40  O   UNL     1      -8.358   5.790  73.402  1.00  0.00    -0.116 OA 
BRANCH  34  41
HETATM   41  N   UNL     1      -8.578   2.965  73.286  1.00  0.00    -0.079 NA 
HETATM   42  C   UNL     1      -7.642   2.415  74.250  1.00  0.00    -0.042 C  
HETATM   43  H   UNL     1      -9.583   2.825  73.388  1.00  0.00     0.000 HD 
ENDBRANCH  34  41
ENDBRANCH  29  30
ENDBRANCH  23  29
ENDBRANCH  14  15
ENDBRANCH   9  14
ENDBRANCH   4   5
ENDBRANCH   2   4
TORSDOF 7
ENDMDL
MODEL      157
REMARK 921   NORMALIZED FREE ENERGY PREDICTED BY IDOCK:   -4.83 KCAL/MOL
REMARK 922        TOTAL FREE ENERGY PREDICTED BY IDOCK:   -8.51 KCAL/MOL
REMARK 923 INTER-LIGAND FREE ENERGY PREDICTED BY IDOCK:   -7.18 KCAL/MOL
REMARK 924 INTRA-LIGAND FREE ENERGY PREDICTED BY IDOCK:   -1.33 KCAL/MOL
REMARK 927      BINDING AFFINITY PREDICTED BY RF-SCORE:    0.00 PKD
ROOT
HETATM    1  C   UNL     1     -13.366  11.376  71.867  1.00  0.00    -0.304 C  
HETATM    2  N   UNL     1     -12.763  10.257  71.159  1.00  0.00    -0.370 NA 
HETATM    3  H   UNL     1     -12.754  10.432  70.154  1.00  0.00     0.000 HD 
ENDROOT
BRANCH   2   4
HETATM    4  C   UNL     1     -11.417   9.907  71.636  1.00  0.00    -0.111 C  
BRANCH   4   5
HETATM    5  C   UNL     1     -10.969   8.441  71.386  1.00  0.00    -0.253 C  
HETATM    6  C   UNL     1     -11.248   7.506  72.549  1.00  0.00    -0.381 C  
HETATM    7  C   UNL     1     -10.813   6.092  72.167  1.00  0.00    -0.297 C  
HETATM    8  C   UNL     1      -9.406   6.050  71.532  1.00  0.00    -0.149 C  
HETATM    9  C   UNL     1      -9.107   7.239  70.512  1.00  0.00    -0.158 C  
HETATM   10  N   UNL     1      -9.132   4.676  71.053  1.00  0.00    -0.127 NA 
HETATM   11  O   UNL     1      -9.545   8.444  71.134  1.00  0.00    -0.158 OA 
HETATM   12  H1  UNL     1      -8.203   4.648  70.634  1.00  0.00     0.000 HD 
HETATM   13  H2  UNL     1      -9.854   4.334  70.418  1.00  0.00     0.000 HD 
BRANCH   9  14
HETATM   14  O   UNL     1      -9.631   7.088  69.172  1.00  0.00    -0.150 OA 
BRANCH  14  15
HETATM   15  C   UNL     1      -8.800   7.535  68.019  1.00  0.00    -0.127 C  
HETATM   16  C   UNL     1      -7.348   7.948  68.386  1.00  0.00    -0.101 C  
HETATM   17  N   UNL     1      -6.537   6.757  68.714  1.00  0.00    -0.049 NA 
HETATM   18  C   UNL     1      -6.636   8.678  67.229  1.00  0.00    -0.058 C  
HETATM   19  H2  UNL     1      -6.556   6.067  67.963  1.00  0.00     0.000 HD 
HETATM   20  H1  UNL     1      -5.584   7.028  68.955  1.00  0.00     0.000 HD 
HETATM   21  C   UNL     1      -7.413   9.907  66.732  1.00  0.00    -0.095 C  
HETATM   22  N   UNL     1      -6.602  10.678  65.783  1.00  0.00    -0.215 NA 
HETATM   23  C   UNL     1      -8.752   9.489  66.095  1.00  0.00    -0.145 C  
HETATM   24  C   UNL     1      -9.519   8.579  67.105  1.00  0.00    -0.162 C  
HETATM   25  O   UNL     1     -10.616   7.934  66.417  1.00  0.00    -0.394 OA 
HETATM   26  H1  UNL     1      -7.117  11.493  65.452  1.00  0.00     0.000 HD 
HETATM   27  H2  UNL     1      -6.271  10.100  65.010  1.00  0.00     0.000 HD 
HETATM   28  H   UNL     1     -11.054   8.568  65.861  1.00  0.00     0.000 HD 
BRANCH  23  29
HETATM   29  O   UNL     1      -9.592  10.663  65.893  1.00  0.00    -0.187 OA 
BRANCH  29  30
HETATM   30  C   UNL     1     -10.125  11.431  66.991  1.00  0.00    -0.208 C  
HETATM   31  O   UNL     1     -11.525  11.274  67.232  1.00  0.00    -0.464 OA 
HETATM   32  C   UNL     1     -11.945  11.954  68.426  1.00  0.00    -0.182 C  
HETATM   33  C   UNL     1     -11.738  13.491  68.361  1.00  0.00    -0.358 C  
HETATM   34  C   UNL     1     -10.231  13.775  68.110  1.00  0.00    -0.253 C  
HETATM   35  O   UNL     1     -12.518  14.017  67.275  1.00  0.00    -0.532 OA 
HETATM   36  C   UNL     1     -12.252  14.116  69.667  1.00  0.00    -0.376 C  
HETATM   37  H   UNL     1      -8.015  14.031  66.774  1.00  0.00     0.000 HD 
HETATM   38  H   UNL     1     -12.392  14.957  67.236  1.00  0.00     0.000 HD 
HETATM   39  C   UNL     1      -9.705  12.946  66.888  1.00  0.00    -0.240 C  
HETATM   40  O   UNL     1      -8.268  13.117  66.837  1.00  0.00    -0.103 OA 
BRANCH  34  41
HETATM   41  N   UNL     1      -9.744  15.188  68.093  1.00  0.00    -0.214 NA 
HETATM   42  C   UNL     1      -9.275  15.757  69.344  1.00  0.00    -0.263 C  
HETATM   43  H   UNL     1      -9.741  15.734  67.232  1.00  0.00     0.000 HD 
ENDBRANCH  34  41
ENDBRANCH  29  30
ENDBRANCH  23  29
ENDBRANCH  14  15
ENDBRANCH   9  14
ENDBRANCH   4   5
ENDBRANCH   2   4
TORSDOF 7
ENDMDL
MODEL      158
REMARK 921   NORMALIZED FREE ENERGY PREDICTED BY IDOCK:   -4.83 KCAL/MOL
REMARK 922        TOTAL FREE ENERGY PREDICTED BY IDOCK:   -8.51 KCAL/MOL
REMARK 923 INTER-LIGAND FREE ENERGY PREDICTED BY IDOCK:   -7.87 KCAL/MOL
REMARK 924 INTRA-LIGAND FREE ENERGY PREDICTED BY IDOCK:   -0.64 KCAL/MOL
REMARK 927      BINDING AFFINITY PREDICTED BY RF-SCORE:    0.00 PKD
ROOT
HETATM    1  C   UNL     1     -12.814   8.173  71.682  1.00  0.00    -0.326 C  
HETATM    2  N   UNL     1     -11.887   8.194  72.804  1.00  0.00    -0.557 NA 
HETATM    3  H   UNL     1     -12.390   8.094  73.686  1.00  0.00     0.000 HD 
ENDROOT
BRANCH   2   4
HETATM    4  C   UNL     1     -10.811   7.198  72.706  1.00  0.00    -0.300 C  
BRANCH   4   5
HETATM    5  C   UNL     1     -10.375   6.810  71.267  1.00  0.00    -0.204 C  
HETATM    6  C   UNL     1     -10.930   5.478  70.794  1.00  0.00    -0.193 C  
HETATM    7  C   UNL     1     -10.476   5.233  69.355  1.00  0.00    -0.284 C  
HETATM    8  C   UNL     1      -8.969   5.497  69.150  1.00  0.00    -0.108 C  
HETATM    9  C   UNL     1      -8.415   6.784  69.912  1.00  0.00    -0.140 C  
HETATM   10  N   UNL     1      -8.649   5.387  67.708  1.00  0.00    -0.105 NA 
HETATM   11  O   UNL     1      -8.930   6.738  71.240  1.00  0.00    -0.139 OA 
HETATM   12  H1  UNL     1      -7.654   5.562  67.573  1.00  0.00     0.000 HD 
HETATM   13  H2  UNL     1      -9.231   5.997  67.133  1.00  0.00     0.000 HD 
BRANCH   9  14
HETATM   14  O   UNL     1      -8.646   8.062  69.274  1.00  0.00    -0.134 OA 
BRANCH  14  15
HETATM   15  C   UNL     1      -8.538   8.155  67.792  1.00  0.00    -0.131 C  
HETATM   16  C   UNL     1      -7.130   8.546  67.266  1.00  0.00    -0.076 C  
HETATM   17  N   UNL     1      -6.187   7.419  67.422  1.00  0.00    -0.046 NA 
HETATM   18  C   UNL     1      -7.146   8.921  65.769  1.00  0.00    -0.084 C  
HETATM   19  H2  UNL     1      -6.534   6.570  66.978  1.00  0.00     0.000 HD 
HETATM   20  H1  UNL     1      -5.262   7.676  67.077  1.00  0.00     0.000 HD 
HETATM   21  C   UNL     1      -8.147  10.040  65.445  1.00  0.00    -0.143 C  
HETATM   22  N   UNL     1      -7.976  10.499  64.062  1.00  0.00    -0.332 NA 
HETATM   23  C   UNL     1      -9.594   9.571  65.692  1.00  0.00    -0.277 C  
HETATM   24  C   UNL     1      -9.687   8.991  67.138  1.00  0.00    -0.181 C  
HETATM   25  O   UNL     1     -10.935   8.272  67.278  1.00  0.00    -0.474 OA 
HETATM   26  H1  UNL     1      -8.641  11.241  63.847  1.00  0.00     0.000 HD 
HETATM   27  H2  UNL     1      -8.040   9.728  63.397  1.00  0.00     0.000 HD 
HETATM   28  H   UNL     1     -11.634   8.780  66.880  1.00  0.00     0.000 HD 
BRANCH  23  29
HETATM   29  O   UNL     1     -10.497  10.714  65.659  1.00  0.00    -0.236 OA 
BRANCH  29  30
HETATM   30  C   UNL     1     -10.131  12.006  66.185  1.00  0.00    -0.226 C  
HETATM   31  O   UNL     1     -10.519  12.254  67.538  1.00  0.00    -0.210 OA 
HETATM   32  C   UNL     1      -9.991  13.496  68.029  1.00  0.00    -0.248 C  
HETATM   33  C   UNL     1     -10.510  14.734  67.251  1.00  0.00    -0.264 C  
HETATM   34  C   UNL     1     -10.128  14.569  65.754  1.00  0.00    -0.342 C  
HETATM   35  O   UNL     1     -11.939  14.798  67.382  1.00  0.00    -0.460 OA 
HETATM   36  C   UNL     1      -9.914  16.002  67.881  1.00  0.00    -0.233 C  
HETATM   37  H   UNL     1     -10.291  13.716  63.303  1.00  0.00     0.000 HD 
HETATM   38  H   UNL     1     -12.256  15.555  66.906  1.00  0.00     0.000 HD 
HETATM   39  C   UNL     1     -10.576  13.166  65.217  1.00  0.00    -0.313 C  
HETATM   40  O   UNL     1     -10.023  13.016  63.887  1.00  0.00    -0.311 OA 
BRANCH  34  41
HETATM   41  N   UNL     1     -10.434  15.672  64.793  1.00  0.00    -0.631 NA 
HETATM   42  C   UNL     1     -11.773  15.731  64.233  1.00  0.00    -0.162 C  
HETATM   43  H   UNL     1      -9.726  16.361  64.538  1.00  0.00     0.000 HD 
ENDBRANCH  34  41
ENDBRANCH  29  30
ENDBRANCH  23  29
ENDBRANCH  14  15
ENDBRANCH   9  14
ENDBRANCH   4   5
ENDBRANCH   2   4
TORSDOF 7
ENDMDL
MODEL      159
REMARK 921   NORMALIZED FREE ENERGY PREDICTED BY IDOCK:   -4.75 KCAL/MOL
REMARK 922        TOTAL FREE ENERGY PREDICTED BY IDOCK:   -8.40 KCAL/MOL
REMARK 923 INTER-LIGAND FREE ENERGY PREDICTED BY IDOCK:   -7.77 KCAL/MOL
REMARK 924 INTRA-LIGAND FREE ENERGY PREDICTED BY IDOCK:   -0.64 KCAL/MOL
REMARK 927      BINDING AFFINITY PREDICTED BY RF-SCORE:    0.00 PKD
ROOT
HETATM    1  C   UNL     1     -11.927  16.247  72.926  1.00  0.00    -0.516 C  
HETATM    2  N   UNL     1     -12.875  15.342  72.295  1.00  0.00    -0.333 NA 
HETATM    3  H   UNL     1     -13.828  15.565  72.580  1.00  0.00     0.000 HD 
ENDROOT
BRANCH   2   4
HETATM    4  C   UNL     1     -12.770  15.298  70.829  1.00  0.00    -0.433 C  
BRANCH   4   5
HETATM    5  C   UNL     1     -12.623  13.885  70.201  1.00  0.00    -0.224 C  
HETATM    6  C   UNL     1     -12.806  12.750  71.193  1.00  0.00    -0.315 C  
HETATM    7  C   UNL     1     -12.691  11.418  70.452  1.00  0.00    -0.171 C  
HETATM    8  C   UNL     1     -11.467  11.361  69.512  1.00  0.00    -0.312 C  
HETATM    9  C   UNL     1     -11.194  12.708  68.702  1.00  0.00    -0.282 C  
HETATM   10  N   UNL     1     -11.519  10.108  68.724  1.00  0.00    -0.491 NA 
HETATM   11  O   UNL     1     -11.297  13.783  69.631  1.00  0.00    -0.243 OA 
HETATM   12  H1  UNL     1     -10.711  10.070  68.103  1.00  0.00     0.000 HD 
HETATM   13  H2  UNL     1     -12.400  10.002  68.220  1.00  0.00     0.000 HD 
BRANCH   9  14
HETATM   14  O   UNL     1     -11.997  12.923  67.517  1.00  0.00    -0.359 OA 
BRANCH  14  15
HETATM   15  C   UNL     1     -11.352  12.797  66.180  1.00  0.00    -0.328 C  
HETATM   16  C   UNL     1     -12.269  12.219  65.068  1.00  0.00    -0.304 C  
HETATM   17  N   UNL     1     -13.283  13.213  64.662  1.00  0.00    -0.433 NA 
HETATM   18  C   UNL     1     -11.481  11.831  63.800  1.00  0.00    -0.510 C  
HETATM   19  H2  UNL     1     -12.857  14.096  64.380  1.00  0.00     0.000 HD 
HETATM   20  H1  UNL     1     -13.885  12.833  63.932  1.00  0.00     0.000 HD 
HETATM   21  C   UNL     1     -10.335  10.849  64.088  1.00  0.00    -0.364 C  
HETATM   22  N   UNL     1      -9.754  10.355  62.834  1.00  0.00    -0.503 NA 
HETATM   23  C   UNL     1      -9.256  11.506  64.970  1.00  0.00    -0.019 C  
HETATM   24  C   UNL     1      -9.948  12.112  66.231  1.00  0.00    -0.229 C  
HETATM   25  O   UNL     1      -9.015  12.990  66.904  1.00  0.00    -0.220 OA 
HETATM   26  H1  UNL     1      -8.993   9.703  63.025  1.00  0.00     0.000 HD 
HETATM   27  H2  UNL     1      -9.455  11.119  62.228  1.00  0.00     0.000 HD 
HETATM   28  H   UNL     1      -8.161  12.574  66.935  1.00  0.00     0.000 HD 
BRANCH  23  29
HETATM   29  O   UNL     1      -8.335  10.492  65.465  1.00  0.00    -0.163 OA 
BRANCH  29  30
HETATM   30  C   UNL     1      -8.655   9.633  66.578  1.00  0.00    -0.127 C  
HETATM   31  O   UNL     1      -8.138  10.045  67.845  1.00  0.00    -0.108 OA 
HETATM   32  C   UNL     1      -8.623   9.221  68.917  1.00  0.00    -0.130 C  
HETATM   33  C   UNL     1      -8.190   7.737  68.793  1.00  0.00    -0.128 C  
HETATM   34  C   UNL     1      -8.715   7.182  67.441  1.00  0.00    -0.120 C  
HETATM   35  O   UNL     1      -6.755   7.669  68.821  1.00  0.00    -0.051 OA 
HETATM   36  C   UNL     1      -8.729   6.960  70.005  1.00  0.00    -0.142 C  
HETATM   37  H   UNL     1      -8.787   6.743  64.879  1.00  0.00     0.000 HD 
HETATM   38  H   UNL     1      -6.491   6.760  68.745  1.00  0.00     0.000 HD 
HETATM   39  C   UNL     1      -8.314   8.128  66.258  1.00  0.00    -0.119 C  
HETATM   40  O   UNL     1      -8.993   7.650  65.072  1.00  0.00     0.176 OA 
BRANCH  34  41
HETATM   41  N   UNL     1      -8.511   5.738  67.111  1.00  0.00    -0.108 NA 
HETATM   42  C   UNL     1      -9.577   4.810  67.443  1.00  0.00    -0.159 C  
HETATM   43  H   UNL     1      -7.651   5.416  66.666  1.00  0.00     0.000 HD 
ENDBRANCH  34  41
ENDBRANCH  29  30
ENDBRANCH  23  29
ENDBRANCH  14  15
ENDBRANCH   9  14
ENDBRANCH   4   5
ENDBRANCH   2   4
TORSDOF 7
ENDMDL
MODEL      160
REMARK 921   NORMALIZED FREE ENERGY PREDICTED BY IDOCK:   -4.74 KCAL/MOL
REMARK 922        TOTAL FREE ENERGY PREDICTED BY IDOCK:   -8.39 KCAL/MOL
REMARK 923 INTER-LIGAND FREE ENERGY PREDICTED BY IDOCK:   -7.67 KCAL/MOL
REMARK 924 INTRA-LIGAND FREE ENERGY PREDICTED BY IDOCK:   -0.72 KCAL/MOL
REMARK 927      BINDING AFFINITY PREDICTED BY RF-SCORE:    0.00 PKD
ROOT
HETATM    1  C   UNL     1     -10.076  18.240  67.975  1.00  0.00    -0.364 C  
HETATM    2  N   UNL     1      -8.928  19.109  67.764  1.00  0.00    -0.291 NA 
HETATM    3  H   UNL     1      -9.014  19.957  68.324  1.00  0.00     0.000 HD 
ENDROOT
BRANCH   2   4
HETATM    4  C   UNL     1      -7.634  18.456  68.009  1.00  0.00    -0.259 C  
BRANCH   4   5
HETATM    5  C   UNL     1      -7.695  16.954  68.400  1.00  0.00    -0.219 C  
HETATM    6  C   UNL     1      -6.894  16.609  69.642  1.00  0.00    -0.057 C  
HETATM    7  C   UNL     1      -7.073  15.124  69.954  1.00  0.00    -0.119 C  
HETATM    8  C   UNL     1      -6.893  14.227  68.710  1.00  0.00    -0.099 C  
HETATM    9  C   UNL     1      -7.548  14.808  67.377  1.00  0.00    -0.202 C  
HETATM   10  N   UNL     1      -7.235  12.830  69.068  1.00  0.00    -0.267 NA 
HETATM   11  O   UNL     1      -7.177  16.180  67.293  1.00  0.00    -0.158 OA 
HETATM   12  H1  UNL     1      -7.116  12.238  68.246  1.00  0.00     0.000 HD 
HETATM   13  H2  UNL     1      -8.168  12.750  69.472  1.00  0.00     0.000 HD 
BRANCH   9  14
HETATM   14  O   UNL     1      -8.973  14.610  67.218  1.00  0.00    -0.184 OA 
BRANCH  14  15
HETATM   15  C   UNL     1      -9.476  13.978  65.967  1.00  0.00    -0.136 C  
HETATM   16  C   UNL     1     -10.835  14.533  65.459  1.00  0.00    -0.336 C  
HETATM   17  N   UNL     1     -10.664  15.887  64.895  1.00  0.00    -0.648 NA 
HETATM   18  C   UNL     1     -11.450  13.653  64.351  1.00  0.00    -0.410 C  
HETATM   19  H2  UNL     1      -9.951  15.907  64.166  1.00  0.00     0.000 HD 
HETATM   20  H1  UNL     1     -11.557  16.251  64.562  1.00  0.00     0.000 HD 
HETATM   21  C   UNL     1     -11.617  12.186  64.778  1.00  0.00    -0.321 C  
HETATM   22  N   UNL     1     -12.390  11.444  63.776  1.00  0.00    -0.283 NA 
HETATM   23  C   UNL     1     -10.247  11.524  65.014  1.00  0.00    -0.280 C  
HETATM   24  C   UNL     1      -9.427  12.416  65.999  1.00  0.00    -0.166 C  
HETATM   25  O   UNL     1      -8.047  11.982  65.990  1.00  0.00    -0.331 OA 
HETATM   26  H1  UNL     1     -12.500  10.471  64.058  1.00  0.00     0.000 HD 
HETATM   27  H2  UNL     1     -11.979  11.524  62.845  1.00  0.00     0.000 HD 
HETATM   28  H   UNL     1      -8.017  11.033  66.009  1.00  0.00     0.000 HD 
BRANCH  23  29
HETATM   29  O   UNL     1     -10.425  10.243  65.686  1.00  0.00    -0.200 OA 
BRANCH  29  30
HETATM   30  C   UNL     1     -11.105  10.121  66.951  1.00  0.00     0.074 C  
HETATM   31  O   UNL     1     -11.260  11.336  67.689  1.00  0.00    -0.258 OA 
HETATM   32  C   UNL     1     -12.072  11.154  68.859  1.00  0.00    -0.207 C  
HETATM   33  C   UNL     1     -11.460  10.162  69.883  1.00  0.00    -0.254 C  
HETATM   34  C   UNL     1     -11.258   8.792  69.180  1.00  0.00     0.293 C  
HETATM   35  O   UNL     1     -10.191  10.674  70.321  1.00  0.00    -0.375 OA 
HETATM   36  C   UNL     1     -12.387  10.074  71.104  1.00  0.00    -0.477 C  
HETATM   37  H   UNL     1     -10.127   6.995  67.678  1.00  0.00     0.000 HD 
HETATM   38  H   UNL     1      -9.816  10.067  70.948  1.00  0.00     0.000 HD 
HETATM   39  C   UNL     1     -10.484   8.969  67.828  1.00  0.00    -0.245 C  
HETATM   40  O   UNL     1     -10.502   7.690  67.150  1.00  0.00    -0.287 OA 
BRANCH  34  41
HETATM   41  N   UNL     1     -10.760   7.626  69.973  1.00  0.00    -0.239 NA 
HETATM   42  C   UNL     1     -11.701   6.562  70.276  1.00  0.00    -0.366 C  
HETATM   43  H   UNL     1      -9.792   7.580  70.291  1.00  0.00     0.000 HD 
ENDBRANCH  34  41
ENDBRANCH  29  30
ENDBRANCH  23  29
ENDBRANCH  14  15
ENDBRANCH   9  14
ENDBRANCH   4   5
ENDBRANCH   2   4
TORSDOF 7
ENDMDL
MODEL      161
REMARK 921   NORMALIZED FREE ENERGY PREDICTED BY IDOCK:   -4.74 KCAL/MOL
REMARK 922        TOTAL FREE ENERGY PREDICTED BY IDOCK:   -8.38 KCAL/MOL
REMARK 923 INTER-LIGAND FREE ENERGY PREDICTED BY IDOCK:   -7.90 KCAL/MOL
REMARK 924 INTRA-LIGAND FREE ENERGY PREDICTED BY IDOCK:   -0.48 KCAL/MOL
REMARK 927      BINDING AFFINITY PREDICTED BY RF-SCORE:    0.00 PKD
ROOT
HETATM    1  C   UNL     1      -9.636  19.146  66.662  1.00  0.00    -0.346 C  
HETATM    2  N   UNL     1     -10.649  18.414  67.408  1.00  0.00    -0.420 NA 
HETATM    3  H   UNL     1     -11.216  17.846  66.779  1.00  0.00     0.000 HD 
ENDROOT
BRANCH   2   4
HETATM    4  C   UNL     1     -10.108  17.593  68.500  1.00  0.00    -0.375 C  
BRANCH   4   5
HETATM    5  C   UNL     1     -10.816  16.233  68.742  1.00  0.00    -0.317 C  
HETATM    6  C   UNL     1     -11.689  16.206  69.983  1.00  0.00    -0.198 C  
HETATM    7  C   UNL     1     -12.369  14.841  70.085  1.00  0.00    -0.381 C  
HETATM    8  C   UNL     1     -11.389  13.668  69.870  1.00  0.00    -0.056 C  
HETATM    9  C   UNL     1     -10.325  13.902  68.706  1.00  0.00    -0.206 C  
HETATM   10  N   UNL     1     -12.153  12.399  69.830  1.00  0.00    -0.281 NA 
HETATM   11  O   UNL     1      -9.798  15.214  68.878  1.00  0.00    -0.212 OA 
HETATM   12  H1  UNL     1     -11.505  11.624  69.688  1.00  0.00     0.000 HD 
HETATM   13  H2  UNL     1     -12.897  12.416  69.132  1.00  0.00     0.000 HD 
BRANCH   9  14
HETATM   14  O   UNL     1     -10.783  13.664  67.354  1.00  0.00    -0.263 OA 
BRANCH  14  15
HETATM   15  C   UNL     1     -10.087  12.639  66.528  1.00  0.00    -0.248 C  
HETATM   16  C   UNL     1     -11.003  11.869  65.538  1.00  0.00    -0.297 C  
HETATM   17  N   UNL     1     -11.395  12.740  64.411  1.00  0.00    -0.327 NA 
HETATM   18  C   UNL     1     -10.306  10.632  64.935  1.00  0.00    -0.347 C  
HETATM   19  H2  UNL     1     -10.584  13.141  63.941  1.00  0.00     0.000 HD 
HETATM   20  H1  UNL     1     -11.997  12.234  63.761  1.00  0.00     0.000 HD 
HETATM   21  C   UNL     1      -9.775   9.666  66.006  1.00  0.00    -0.264 C  
HETATM   22  N   UNL     1      -9.311   8.418  65.388  1.00  0.00    -0.411 NA 
HETATM   23  C   UNL     1      -8.649  10.322  66.827  1.00  0.00    -0.127 C  
HETATM   24  C   UNL     1      -9.161  11.695  67.364  1.00  0.00    -0.168 C  
HETATM   25  O   UNL     1      -8.036  12.454  67.865  1.00  0.00    -0.138 OA 
HETATM   26  H1  UNL     1      -8.959   7.777  66.098  1.00  0.00     0.000 HD 
HETATM   27  H2  UNL     1      -8.621   8.591  64.657  1.00  0.00     0.000 HD 
HETATM   28  H   UNL     1      -7.474  11.881  68.373  1.00  0.00     0.000 HD 
BRANCH  23  29
HETATM   29  O   UNL     1      -8.359   9.513  68.005  1.00  0.00    -0.117 OA 
BRANCH  29  30
HETATM   30  C   UNL     1      -9.387   9.082  68.919  1.00  0.00    -0.143 C  
HETATM   31  O   UNL     1      -9.788  10.046  69.897  1.00  0.00    -0.235 OA 
HETATM   32  C   UNL     1     -10.911   9.593  70.669  1.00  0.00    -0.320 C  
HETATM   33  C   UNL     1     -10.612   8.313  71.494  1.00  0.00    -0.235 C  
HETATM   34  C   UNL     1     -10.174   7.188  70.517  1.00  0.00    -0.196 C  
HETATM   35  O   UNL     1      -9.548   8.595  72.417  1.00  0.00    -0.288 OA 
HETATM   36  C   UNL     1     -11.864   7.943  72.305  1.00  0.00    -0.404 C  
HETATM   37  H   UNL     1      -8.599   5.821  68.963  1.00  0.00     0.000 HD 
HETATM   38  H   UNL     1      -9.366   7.812  72.922  1.00  0.00     0.000 HD 
HETATM   39  C   UNL     1      -9.033   7.691  69.567  1.00  0.00    -0.139 C  
HETATM   40  O   UNL     1      -8.813   6.660  68.573  1.00  0.00    -0.123 OA 
BRANCH  34  41
HETATM   41  N   UNL     1      -9.912   5.815  71.047  1.00  0.00    -0.184 NA 
HETATM   42  C   UNL     1      -8.578   5.525  71.543  1.00  0.00    -0.132 C  
HETATM   43  H   UNL     1     -10.646   5.107  71.061  1.00  0.00     0.000 HD 
ENDBRANCH  34  41
ENDBRANCH  29  30
ENDBRANCH  23  29
ENDBRANCH  14  15
ENDBRANCH   9  14
ENDBRANCH   4   5
ENDBRANCH   2   4
TORSDOF 7
ENDMDL
MODEL      162
REMARK 921   NORMALIZED FREE ENERGY PREDICTED BY IDOCK:   -4.73 KCAL/MOL
REMARK 922        TOTAL FREE ENERGY PREDICTED BY IDOCK:   -8.38 KCAL/MOL
REMARK 923 INTER-LIGAND FREE ENERGY PREDICTED BY IDOCK:   -7.34 KCAL/MOL
REMARK 924 INTRA-LIGAND FREE ENERGY PREDICTED BY IDOCK:   -1.04 KCAL/MOL
REMARK 927      BINDING AFFINITY PREDICTED BY RF-SCORE:    0.00 PKD
ROOT
HETATM    1  C   UNL     1      -5.838  13.929  70.041  1.00  0.00    -0.135 C  
HETATM    2  N   UNL     1      -7.209  14.066  69.573  1.00  0.00    -0.332 NA 
HETATM    3  H   UNL     1      -7.783  14.531  70.277  1.00  0.00     0.000 HD 
ENDROOT
BRANCH   2   4
HETATM    4  C   UNL     1      -7.330  14.746  68.275  1.00  0.00    -0.115 C  
BRANCH   4   5
HETATM    5  C   UNL     1      -8.560  14.350  67.414  1.00  0.00    -0.202 C  
HETATM    6  C   UNL     1      -9.563  15.473  67.221  1.00  0.00    -0.216 C  
HETATM    7  C   UNL     1     -10.695  14.981  66.320  1.00  0.00    -0.322 C  
HETATM    8  C   UNL     1     -11.236  13.598  66.743  1.00  0.00    -0.314 C  
HETATM    9  C   UNL     1     -10.113  12.558  67.189  1.00  0.00    -0.214 C  
HETATM   10  N   UNL     1     -12.214  13.131  65.733  1.00  0.00    -0.448 NA 
HETATM   11  O   UNL     1      -9.230  13.248  68.069  1.00  0.00    -0.202 OA 
HETATM   12  H1  UNL     1     -12.572  12.218  66.012  1.00  0.00     0.000 HD 
HETATM   13  H2  UNL     1     -11.824  13.123  64.790  1.00  0.00     0.000 HD 
BRANCH   9  14
HETATM   14  O   UNL     1      -9.410  11.871  66.127  1.00  0.00    -0.224 OA 
BRANCH  14  15
HETATM   15  C   UNL     1      -8.894  10.496  66.377  1.00  0.00    -0.153 C  
HETATM   16  C   UNL     1      -9.593   9.380  65.553  1.00  0.00    -0.258 C  
HETATM   17  N   UNL     1      -9.182   9.447  64.136  1.00  0.00    -0.427 NA 
HETATM   18  C   UNL     1      -9.240   7.967  66.062  1.00  0.00    -0.179 C  
HETATM   19  H2  UNL     1      -8.168   9.415  64.033  1.00  0.00     0.000 HD 
HETATM   20  H1  UNL     1      -9.641   8.715  63.595  1.00  0.00     0.000 HD 
HETATM   21  C   UNL     1      -9.548   7.777  67.555  1.00  0.00    -0.148 C  
HETATM   22  N   UNL     1      -9.391   6.369  67.937  1.00  0.00    -0.116 NA 
HETATM   23  C   UNL     1      -8.651   8.682  68.421  1.00  0.00    -0.135 C  
HETATM   24  C   UNL     1      -8.772  10.148  67.896  1.00  0.00    -0.122 C  
HETATM   25  O   UNL     1      -7.718  10.947  68.484  1.00  0.00    -0.104 OA 
HETATM   26  H1  UNL     1      -9.595   6.243  68.928  1.00  0.00     0.000 HD 
HETATM   27  H2  UNL     1      -8.469   6.010  67.691  1.00  0.00     0.000 HD 
HETATM   28  H   UNL     1      -7.643  10.735  69.407  1.00  0.00     0.000 HD 
BRANCH  23  29
HETATM   29  O   UNL     1      -9.144   8.705  69.792  1.00  0.00    -0.146 OA 
BRANCH  29  30
HETATM   30  C   UNL     1     -10.496   8.337  70.133  1.00  0.00    -0.225 C  
HETATM   31  O   UNL     1     -11.383   9.427  70.402  1.00  0.00    -0.250 OA 
HETATM   32  C   UNL     1     -12.736   8.984  70.589  1.00  0.00     0.280 C  
HETATM   33  C   UNL     1     -12.911   8.040  71.807  1.00  0.00    -0.331 C  
HETATM   34  C   UNL     1     -11.990   6.805  71.609  1.00  0.00    -0.347 C  
HETATM   35  O   UNL     1     -12.527   8.746  72.998  1.00  0.00    -0.439 OA 
HETATM   36  C   UNL     1     -14.395   7.662  71.933  1.00  0.00    -0.536 C  
HETATM   37  H   UNL     1      -9.798   5.407  71.610  1.00  0.00     0.000 HD 
HETATM   38  H   UNL     1     -12.634   8.168  73.744  1.00  0.00     0.000 HD 
HETATM   39  C   UNL     1     -10.525   7.252  71.275  1.00  0.00    -0.201 C  
HETATM   40  O   UNL     1      -9.781   6.061  70.921  1.00  0.00    -0.170 OA 
BRANCH  34  41
HETATM   41  N   UNL     1     -12.033   5.690  72.604  1.00  0.00    -0.470 NA 
HETATM   42  C   UNL     1     -10.987   5.639  73.610  1.00  0.00    -0.138 C  
HETATM   43  H   UNL     1     -12.774   4.989  72.577  1.00  0.00     0.000 HD 
ENDBRANCH  34  41
ENDBRANCH  29  30
ENDBRANCH  23  29
ENDBRANCH  14  15
ENDBRANCH   9  14
ENDBRANCH   4   5
ENDBRANCH   2   4
TORSDOF 7
ENDMDL
MODEL      163
REMARK 921   NORMALIZED FREE ENERGY PREDICTED BY IDOCK:   -4.72 KCAL/MOL
REMARK 922        TOTAL FREE ENERGY PREDICTED BY IDOCK:   -8.36 KCAL/MOL
REMARK 923 INTER-LIGAND FREE ENERGY PREDICTED BY IDOCK:   -6.86 KCAL/MOL
REMARK 924 INTRA-LIGAND FREE ENERGY PREDICTED BY IDOCK:   -1.50 KCAL/MOL
REMARK 927      BINDING AFFINITY PREDICTED BY RF-SCORE:    0.00 PKD
ROOT
HETATM    1  C   UNL     1     -11.354   4.860  73.369  1.00  0.00    -0.298 C  
HETATM    2  N   UNL     1     -11.956   6.069  72.825  1.00  0.00    -0.529 NA 
HETATM    3  H   UNL     1     -12.005   6.796  73.538  1.00  0.00     0.000 HD 
ENDROOT
BRANCH   2   4
HETATM    4  C   UNL     1     -11.290   6.574  71.616  1.00  0.00    -0.285 C  
BRANCH   4   5
HETATM    5  C   UNL     1     -11.352   8.110  71.399  1.00  0.00    -0.259 C  
HETATM    6  C   UNL     1     -12.638   8.749  71.891  1.00  0.00    -0.428 C  
HETATM    7  C   UNL     1     -12.559  10.260  71.671  1.00  0.00    -0.534 C  
HETATM    8  C   UNL     1     -12.066  10.633  70.257  1.00  0.00    -0.338 C  
HETATM    9  C   UNL     1     -10.876   9.722  69.711  1.00  0.00    -0.257 C  
HETATM   10  N   UNL     1     -11.872  12.100  70.183  1.00  0.00    -0.485 NA 
HETATM   11  O   UNL     1     -11.227   8.369  69.981  1.00  0.00    -0.206 OA 
HETATM   12  H1  UNL     1     -11.546  12.346  69.248  1.00  0.00     0.000 HD 
HETATM   13  H2  UNL     1     -11.250  12.446  70.914  1.00  0.00     0.000 HD 
BRANCH   9  14
HETATM   14  O   UNL     1      -9.546  10.051  70.176  1.00  0.00    -0.225 OA 
BRANCH  14  15
HETATM   15  C   UNL     1      -8.543  10.549  69.194  1.00  0.00    -0.150 C  
HETATM   16  C   UNL     1      -9.120  11.471  68.085  1.00  0.00    -0.181 C  
HETATM   17  N   UNL     1      -9.467  12.795  68.641  1.00  0.00    -0.408 NA 
HETATM   18  C   UNL     1      -8.116  11.708  66.938  1.00  0.00    -0.164 C  
HETATM   19  H2  UNL     1      -8.675  13.226  69.118  1.00  0.00     0.000 HD 
HETATM   20  H1  UNL     1      -9.846  13.400  67.913  1.00  0.00     0.000 HD 
HETATM   21  C   UNL     1      -7.607  10.401  66.311  1.00  0.00    -0.127 C  
HETATM   22  N   UNL     1      -6.825  10.682  65.102  1.00  0.00    -0.345 NA 
HETATM   23  C   UNL     1      -6.778   9.592  67.325  1.00  0.00    -0.072 C  
HETATM   24  C   UNL     1      -7.616   9.422  68.630  1.00  0.00    -0.080 C  
HETATM   25  O   UNL     1      -6.752   8.944  69.687  1.00  0.00    -0.044 OA 
HETATM   26  H1  UNL     1      -6.487   9.815  64.685  1.00  0.00     0.000 HD 
HETATM   27  H2  UNL     1      -6.064  11.336  65.287  1.00  0.00     0.000 HD 
HETATM   28  H   UNL     1      -6.189   8.259  69.344  1.00  0.00     0.000 HD 
BRANCH  23  29
HETATM   29  O   UNL     1      -6.550   8.245  66.816  1.00  0.00    -0.055 OA 
BRANCH  29  30
HETATM   30  C   UNL     1      -7.457   7.155  67.078  1.00  0.00    -0.097 C  
HETATM   31  O   UNL     1      -7.004   6.192  68.034  1.00  0.00    -0.071 OA 
HETATM   32  C   UNL     1      -8.021   5.226  68.345  1.00  0.00    -0.087 C  
HETATM   33  C   UNL     1      -8.455   4.376  67.122  1.00  0.00    -0.104 C  
HETATM   34  C   UNL     1      -8.978   5.334  66.017  1.00  0.00    -0.144 C  
HETATM   35  O   UNL     1      -7.314   3.651  66.635  1.00  0.00    -0.067 OA 
HETATM   36  C   UNL     1      -9.511   3.357  67.576  1.00  0.00    -0.227 C  
HETATM   37  H   UNL     1      -8.876   7.021  64.041  1.00  0.00     0.000 HD 
HETATM   38  H   UNL     1      -7.580   3.130  65.886  1.00  0.00     0.000 HD 
HETATM   39  C   UNL     1      -7.946   6.481  65.741  1.00  0.00    -0.115 C  
HETATM   40  O   UNL     1      -8.581   7.428  64.848  1.00  0.00    -0.006 OA 
BRANCH  34  41
HETATM   41  N   UNL     1      -9.545   4.762  64.758  1.00  0.00    -0.350 NA 
HETATM   42  C   UNL     1      -8.620   4.426  63.690  1.00  0.00    -0.122 C  
HETATM   43  H   UNL     1     -10.549   4.613  64.653  1.00  0.00     0.000 HD 
ENDBRANCH  34  41
ENDBRANCH  29  30
ENDBRANCH  23  29
ENDBRANCH  14  15
ENDBRANCH   9  14
ENDBRANCH   4   5
ENDBRANCH   2   4
TORSDOF 7
ENDMDL
MODEL      164
REMARK 921   NORMALIZED FREE ENERGY PREDICTED BY IDOCK:   -4.71 KCAL/MOL
REMARK 922        TOTAL FREE ENERGY PREDICTED BY IDOCK:   -8.35 KCAL/MOL
REMARK 923 INTER-LIGAND FREE ENERGY PREDICTED BY IDOCK:   -7.64 KCAL/MOL
REMARK 924 INTRA-LIGAND FREE ENERGY PREDICTED BY IDOCK:   -0.71 KCAL/MOL
REMARK 927      BINDING AFFINITY PREDICTED BY RF-SCORE:    0.00 PKD
ROOT
HETATM    1  C   UNL     1     -12.448   6.936  71.241  1.00  0.00    -0.361 C  
HETATM    2  N   UNL     1     -12.139   6.743  72.650  1.00  0.00    -0.494 NA 
HETATM    3  H   UNL     1     -11.837   5.784  72.822  1.00  0.00     0.000 HD 
ENDROOT
BRANCH   2   4
HETATM    4  C   UNL     1     -11.156   7.698  73.181  1.00  0.00    -0.317 C  
BRANCH   4   5
HETATM    5  C   UNL     1      -9.940   8.001  72.263  1.00  0.00    -0.239 C  
HETATM    6  C   UNL     1      -8.602   7.942  72.977  1.00  0.00    -0.245 C  
HETATM    7  C   UNL     1      -7.486   8.204  71.966  1.00  0.00    -0.115 C  
HETATM    8  C   UNL     1      -7.769   9.428  71.068  1.00  0.00     0.010 C  
HETATM    9  C   UNL     1      -9.282   9.552  70.579  1.00  0.00    -0.225 C  
HETATM   10  N   UNL     1      -6.722   9.515  70.024  1.00  0.00    -0.060 NA 
HETATM   11  O   UNL     1     -10.109   9.330  71.718  1.00  0.00    -0.293 OA 
HETATM   12  H1  UNL     1      -6.909  10.323  69.431  1.00  0.00     0.000 HD 
HETATM   13  H2  UNL     1      -6.636   8.651  69.487  1.00  0.00     0.000 HD 
BRANCH   9  14
HETATM   14  O   UNL     1      -9.666   8.732  69.450  1.00  0.00    -0.168 OA 
BRANCH  14  15
HETATM   15  C   UNL     1     -10.071   9.400  68.182  1.00  0.00    -0.181 C  
HETATM   16  C   UNL     1      -9.803   8.571  66.896  1.00  0.00    -0.242 C  
HETATM   17  N   UNL     1     -10.757   7.447  66.795  1.00  0.00    -0.497 NA 
HETATM   18  C   UNL     1      -9.956   9.413  65.613  1.00  0.00    -0.210 C  
HETATM   19  H2  UNL     1     -11.724   7.765  66.845  1.00  0.00     0.000 HD 
HETATM   20  H1  UNL     1     -10.580   6.903  65.951  1.00  0.00     0.000 HD 
HETATM   21  C   UNL     1      -9.069  10.668  65.614  1.00  0.00    -0.183 C  
HETATM   22  N   UNL     1      -9.094  11.316  64.298  1.00  0.00    -0.391 NA 
HETATM   23  C   UNL     1      -9.506  11.649  66.717  1.00  0.00    -0.186 C  
HETATM   24  C   UNL     1      -9.570  10.877  68.072  1.00  0.00    -0.162 C  
HETATM   25  O   UNL     1     -10.268  11.689  69.045  1.00  0.00    -0.361 OA 
HETATM   26  H1  UNL     1      -8.505  12.149  64.298  1.00  0.00     0.000 HD 
HETATM   27  H2  UNL     1     -10.046  11.525  63.997  1.00  0.00     0.000 HD 
HETATM   28  H   UNL     1      -9.964  12.587  68.978  1.00  0.00     0.000 HD 
BRANCH  23  29
HETATM   29  O   UNL     1      -8.494  12.683  66.892  1.00  0.00    -0.184 OA 
BRANCH  29  30
HETATM   30  C   UNL     1      -8.819  14.088  66.916  1.00  0.00    -0.194 C  
HETATM   31  O   UNL     1      -9.071  14.641  68.210  1.00  0.00    -0.177 OA 
HETATM   32  C   UNL     1      -9.240  16.066  68.162  1.00  0.00    -0.195 C  
HETATM   33  C   UNL     1     -10.460  16.510  67.313  1.00  0.00    -0.304 C  
HETATM   34  C   UNL     1     -10.280  15.965  65.869  1.00  0.00    -0.352 C  
HETATM   35  O   UNL     1     -11.653  15.960  67.894  1.00  0.00    -0.256 OA 
HETATM   36  C   UNL     1     -10.567  18.042  67.361  1.00  0.00    -0.378 C  
HETATM   37  H   UNL     1     -10.317  14.246  63.918  1.00  0.00     0.000 HD 
HETATM   38  H   UNL     1     -12.400  16.232  67.374  1.00  0.00     0.000 HD 
HETATM   39  C   UNL     1      -9.964  14.430  65.890  1.00  0.00    -0.328 C  
HETATM   40  O   UNL     1      -9.626  14.040  64.537  1.00  0.00     0.227 OA 
BRANCH  34  41
HETATM   41  N   UNL     1     -11.279  16.327  64.818  1.00  0.00    -0.525 NA 
HETATM   42  C   UNL     1     -12.357  15.390  64.556  1.00  0.00    -0.055 C  
HETATM   43  H   UNL     1     -11.206  17.204  64.302  1.00  0.00     0.000 HD 
ENDBRANCH  34  41
ENDBRANCH  29  30
ENDBRANCH  23  29
ENDBRANCH  14  15
ENDBRANCH   9  14
ENDBRANCH   4   5
ENDBRANCH   2   4
TORSDOF 7
ENDMDL
MODEL      165
REMARK 921   NORMALIZED FREE ENERGY PREDICTED BY IDOCK:   -4.71 KCAL/MOL
REMARK 922        TOTAL FREE ENERGY PREDICTED BY IDOCK:   -8.34 KCAL/MOL
REMARK 923 INTER-LIGAND FREE ENERGY PREDICTED BY IDOCK:   -7.48 KCAL/MOL
REMARK 924 INTRA-LIGAND FREE ENERGY PREDICTED BY IDOCK:   -0.86 KCAL/MOL
REMARK 927      BINDING AFFINITY PREDICTED BY RF-SCORE:    0.00 PKD
ROOT
HETATM    1  C   UNL     1      -9.648   4.494  68.418  1.00  0.00    -0.145 C  
HETATM    2  N   UNL     1      -9.379   3.953  69.741  1.00  0.00    -0.155 NA 
HETATM    3  H   UNL     1      -8.378   3.961  69.935  1.00  0.00     0.000 HD 
ENDROOT
BRANCH   2   4
HETATM    4  C   UNL     1     -10.119   4.624  70.820  1.00  0.00    -0.194 C  
BRANCH   4   5
HETATM    5  C   UNL     1      -9.336   5.708  71.608  1.00  0.00    -0.146 C  
HETATM    6  C   UNL     1      -8.704   5.200  72.891  1.00  0.00    -0.118 C  
HETATM    7  C   UNL     1      -7.922   6.338  73.547  1.00  0.00    -0.100 C  
HETATM    8  C   UNL     1      -8.727   7.654  73.614  1.00  0.00    -0.231 C  
HETATM    9  C   UNL     1      -9.580   7.973  72.304  1.00  0.00    -0.223 C  
HETATM   10  N   UNL     1      -7.847   8.735  74.116  1.00  0.00    -0.376 NA 
HETATM   11  O   UNL     1     -10.256   6.773  71.943  1.00  0.00    -0.190 OA 
HETATM   12  H1  UNL     1      -8.378   9.604  74.160  1.00  0.00     0.000 HD 
HETATM   13  H2  UNL     1      -6.994   8.830  73.564  1.00  0.00     0.000 HD 
BRANCH   9  14
HETATM   14  O   UNL     1      -8.863   8.559  71.193  1.00  0.00    -0.147 OA 
BRANCH  14  15
HETATM   15  C   UNL     1      -9.041   7.975  69.834  1.00  0.00    -0.145 C  
HETATM   16  C   UNL     1      -7.738   7.875  68.994  1.00  0.00    -0.101 C  
HETATM   17  N   UNL     1      -6.866   6.803  69.514  1.00  0.00    -0.053 NA 
HETATM   18  C   UNL     1      -8.020   7.552  67.512  1.00  0.00    -0.116 C  
HETATM   19  H2  UNL     1      -7.353   5.908  69.565  1.00  0.00     0.000 HD 
HETATM   20  H1  UNL     1      -6.011   6.738  68.963  1.00  0.00     0.000 HD 
HETATM   21  C   UNL     1      -8.983   8.554  66.856  1.00  0.00    -0.143 C  
HETATM   22  N   UNL     1      -9.054   8.327  65.408  1.00  0.00    -0.401 NA 
HETATM   23  C   UNL     1     -10.383   8.468  67.493  1.00  0.00    -0.267 C  
HETATM   24  C   UNL     1     -10.233   8.602  69.041  1.00  0.00    -0.207 C  
HETATM   25  O   UNL     1     -11.478   8.218  69.670  1.00  0.00    -0.439 OA 
HETATM   26  H1  UNL     1      -9.693   8.991  64.973  1.00  0.00     0.000 HD 
HETATM   27  H2  UNL     1      -9.302   7.362  65.188  1.00  0.00     0.000 HD 
HETATM   28  H   UNL     1     -12.202   8.599  69.188  1.00  0.00     0.000 HD 
BRANCH  23  29
HETATM   29  O   UNL     1     -11.192   9.602  67.068  1.00  0.00     0.055 OA 
BRANCH  29  30
HETATM   30  C   UNL     1     -10.901  10.956  67.473  1.00  0.00    -0.272 C  
HETATM   31  O   UNL     1     -11.833  11.541  68.385  1.00  0.00    -0.438 OA 
HETATM   32  C   UNL     1     -11.395  12.827  68.850  1.00  0.00    -0.296 C  
HETATM   33  C   UNL     1     -11.261  13.877  67.715  1.00  0.00    -0.293 C  
HETATM   34  C   UNL     1     -10.251  13.339  66.664  1.00  0.00    -0.265 C  
HETATM   35  O   UNL     1     -12.546  14.062  67.102  1.00  0.00    -0.491 OA 
HETATM   36  C   UNL     1     -10.825  15.217  68.327  1.00  0.00    -0.262 C  
HETATM   37  H   UNL     1      -9.380  11.943  64.650  1.00  0.00     0.000 HD 
HETATM   38  H   UNL     1     -12.464  14.705  66.408  1.00  0.00     0.000 HD 
HETATM   39  C   UNL     1     -10.626  11.881  66.228  1.00  0.00    -0.253 C  
HETATM   40  O   UNL     1      -9.546  11.386  65.401  1.00  0.00    -0.220 OA 
BRANCH  34  41
HETATM   41  N   UNL     1      -9.870  14.201  65.503  1.00  0.00    -0.522 NA 
HETATM   42  C   UNL     1     -10.923  14.611  64.591  1.00  0.00    -0.325 C  
HETATM   43  H   UNL     1      -8.903  14.492  65.358  1.00  0.00     0.000 HD 
ENDBRANCH  34  41
ENDBRANCH  29  30
ENDBRANCH  23  29
ENDBRANCH  14  15
ENDBRANCH   9  14
ENDBRANCH   4   5
ENDBRANCH   2   4
TORSDOF 7
ENDMDL
MODEL      166
REMARK 921   NORMALIZED FREE ENERGY PREDICTED BY IDOCK:   -4.67 KCAL/MOL
REMARK 922        TOTAL FREE ENERGY PREDICTED BY IDOCK:   -8.29 KCAL/MOL
REMARK 923 INTER-LIGAND FREE ENERGY PREDICTED BY IDOCK:   -7.19 KCAL/MOL
REMARK 924 INTRA-LIGAND FREE ENERGY PREDICTED BY IDOCK:   -1.10 KCAL/MOL
REMARK 927      BINDING AFFINITY PREDICTED BY RF-SCORE:    0.00 PKD
ROOT
HETATM    1  C   UNL     1      -6.071  10.099  70.141  1.00  0.00    -0.077 C  
HETATM    2  N   UNL     1      -7.341   9.782  70.777  1.00  0.00    -0.318 NA 
HETATM    3  H   UNL     1      -8.071   9.655  70.075  1.00  0.00     0.000 HD 
ENDROOT
BRANCH   2   4
HETATM    4  C   UNL     1      -7.283   8.622  71.679  1.00  0.00    -0.091 C  
BRANCH   4   5
HETATM    5  C   UNL     1      -8.098   7.377  71.236  1.00  0.00    -0.100 C  
HETATM    6  C   UNL     1      -7.414   6.056  71.537  1.00  0.00    -0.094 C  
HETATM    7  C   UNL     1      -8.330   4.911  71.106  1.00  0.00    -0.114 C  
HETATM    8  C   UNL     1      -8.912   5.113  69.690  1.00  0.00    -0.106 C  
HETATM    9  C   UNL     1      -9.362   6.609  69.369  1.00  0.00    -0.147 C  
HETATM   10  N   UNL     1      -9.902   4.045  69.417  1.00  0.00    -0.133 NA 
HETATM   11  O   UNL     1      -8.311   7.465  69.808  1.00  0.00    -0.131 OA 
HETATM   12  H1  UNL     1     -10.286   4.179  68.481  1.00  0.00     0.000 HD 
HETATM   13  H2  UNL     1     -10.629   3.997  70.131  1.00  0.00     0.000 HD 
BRANCH   9  14
HETATM   14  O   UNL     1     -10.655   7.017  69.874  1.00  0.00    -0.214 OA 
BRANCH  14  15
HETATM   15  C   UNL     1     -10.810   8.392  70.424  1.00  0.00    -0.235 C  
HETATM   16  C   UNL     1     -11.746   8.497  71.659  1.00  0.00    -0.306 C  
HETATM   17  N   UNL     1     -11.095   7.921  72.854  1.00  0.00    -0.402 NA 
HETATM   18  C   UNL     1     -12.109   9.957  71.999  1.00  0.00    -0.103 C  
HETATM   19  H2  UNL     1     -10.185   8.346  73.032  1.00  0.00     0.000 HD 
HETATM   20  H1  UNL     1     -11.710   7.989  73.664  1.00  0.00     0.000 HD 
HETATM   21  C   UNL     1     -12.732  10.708  70.812  1.00  0.00    -0.378 C  
HETATM   22  N   UNL     1     -13.245  12.014  71.243  1.00  0.00    -0.113 NA 
HETATM   23  C   UNL     1     -11.714  10.870  69.668  1.00  0.00    -0.331 C  
HETATM   24  C   UNL     1     -11.120   9.466  69.331  1.00  0.00    -0.076 C  
HETATM   25  O   UNL     1      -9.956   9.637  68.489  1.00  0.00    -0.157 OA 
HETATM   26  H1  UNL     1     -13.659  12.513  70.455  1.00  0.00     0.000 HD 
HETATM   27  H2  UNL     1     -12.526  12.569  71.707  1.00  0.00     0.000 HD 
HETATM   28  H   UNL     1     -10.144  10.290  67.824  1.00  0.00     0.000 HD 
BRANCH  23  29
HETATM   29  O   UNL     1     -12.394  11.319  68.460  1.00  0.00    -0.543 OA 
BRANCH  29  30
HETATM   30  C   UNL     1     -11.917  12.428  67.671  1.00  0.00    -0.180 C  
HETATM   31  O   UNL     1     -11.115  12.081  66.539  1.00  0.00    -0.283 OA 
HETATM   32  C   UNL     1     -10.806  13.226  65.728  1.00  0.00    -0.274 C  
HETATM   33  C   UNL     1      -9.969  14.298  66.475  1.00  0.00    -0.281 C  
HETATM   34  C   UNL     1     -10.762  14.756  67.730  1.00  0.00    -0.268 C  
HETATM   35  O   UNL     1      -8.720  13.712  66.877  1.00  0.00    -0.321 OA 
HETATM   36  C   UNL     1      -9.666  15.453  65.508  1.00  0.00    -0.318 C  
HETATM   37  H   UNL     1     -11.697  14.673  70.154  1.00  0.00     0.000 HD 
HETATM   38  H   UNL     1      -8.208  14.369  67.333  1.00  0.00     0.000 HD 
HETATM   39  C   UNL     1     -11.229  13.521  68.573  1.00  0.00    -0.278 C  
HETATM   40  O   UNL     1     -12.112  14.015  69.610  1.00  0.00    -0.321 OA 
BRANCH  34  41
HETATM   41  N   UNL     1     -10.215  15.856  68.582  1.00  0.00    -0.217 NA 
HETATM   42  C   UNL     1      -9.060  15.559  69.411  1.00  0.00    -0.280 C  
HETATM   43  H   UNL     1     -10.639  16.783  68.581  1.00  0.00     0.000 HD 
ENDBRANCH  34  41
ENDBRANCH  29  30
ENDBRANCH  23  29
ENDBRANCH  14  15
ENDBRANCH   9  14
ENDBRANCH   4   5
ENDBRANCH   2   4
TORSDOF 7
ENDMDL
MODEL      167
REMARK 921   NORMALIZED FREE ENERGY PREDICTED BY IDOCK:   -4.67 KCAL/MOL
REMARK 922        TOTAL FREE ENERGY PREDICTED BY IDOCK:   -8.29 KCAL/MOL
REMARK 923 INTER-LIGAND FREE ENERGY PREDICTED BY IDOCK:   -6.78 KCAL/MOL
REMARK 924 INTRA-LIGAND FREE ENERGY PREDICTED BY IDOCK:   -1.50 KCAL/MOL
REMARK 927      BINDING AFFINITY PREDICTED BY RF-SCORE:    0.00 PKD
ROOT
HETATM    1  C   UNL     1     -13.151  11.241  71.769  1.00  0.00    -0.422 C  
HETATM    2  N   UNL     1     -12.814  10.105  70.924  1.00  0.00    -0.434 NA 
HETATM    3  H   UNL     1     -13.025  10.310  69.947  1.00  0.00     0.000 HD 
ENDROOT
BRANCH   2   4
HETATM    4  C   UNL     1     -11.424   9.648  71.067  1.00  0.00    -0.371 C  
BRANCH   4   5
HETATM    5  C   UNL     1     -11.219   8.110  71.131  1.00  0.00    -0.257 C  
HETATM    6  C   UNL     1     -11.646   7.487  72.448  1.00  0.00    -0.356 C  
HETATM    7  C   UNL     1     -11.445   5.974  72.371  1.00  0.00    -0.357 C  
HETATM    8  C   UNL     1     -10.064   5.582  71.805  1.00  0.00    -0.196 C  
HETATM    9  C   UNL     1      -9.576   6.477  70.577  1.00  0.00    -0.169 C  
HETATM   10  N   UNL     1     -10.015   4.113  71.620  1.00  0.00    -0.184 NA 
HETATM   11  O   UNL     1      -9.813   7.836  70.931  1.00  0.00    -0.176 OA 
HETATM   12  H1  UNL     1      -9.102   3.855  71.246  1.00  0.00     0.000 HD 
HETATM   13  H2  UNL     1     -10.782   3.768  71.043  1.00  0.00     0.000 HD 
BRANCH   9  14
HETATM   14  O   UNL     1     -10.117   6.141  69.278  1.00  0.00    -0.156 OA 
BRANCH  14  15
HETATM   15  C   UNL     1      -9.177   5.830  68.166  1.00  0.00    -0.109 C  
HETATM   16  C   UNL     1      -7.697   5.642  68.599  1.00  0.00    -0.092 C  
HETATM   17  N   UNL     1      -7.525   4.360  69.314  1.00  0.00    -0.055 NA 
HETATM   18  C   UNL     1      -6.731   5.624  67.395  1.00  0.00    -0.059 C  
HETATM   19  H2  UNL     1      -7.862   3.571  68.763  1.00  0.00     0.000 HD 
HETATM   20  H1  UNL     1      -6.554   4.237  69.598  1.00  0.00     0.000 HD 
HETATM   21  C   UNL     1      -6.856   6.875  66.512  1.00  0.00    -0.068 C  
HETATM   22  N   UNL     1      -5.784   6.906  65.511  1.00  0.00    -0.030 NA 
HETATM   23  C   UNL     1      -8.239   6.934  65.836  1.00  0.00    -0.129 C  
HETATM   24  C   UNL     1      -9.336   6.782  66.936  1.00  0.00    -0.150 C  
HETATM   25  O   UNL     1     -10.610   6.526  66.298  1.00  0.00    -0.470 OA 
HETATM   26  H1  UNL     1      -5.867   7.736  64.925  1.00  0.00     0.000 HD 
HETATM   27  H2  UNL     1      -5.759   6.051  64.956  1.00  0.00     0.000 HD 
HETATM   28  H   UNL     1     -10.707   7.104  65.550  1.00  0.00     0.000 HD 
BRANCH  23  29
HETATM   29  O   UNL     1      -8.445   8.249  65.242  1.00  0.00    -0.166 OA 
BRANCH  29  30
HETATM   30  C   UNL     1      -8.856   9.393  66.018  1.00  0.00    -0.156 C  
HETATM   31  O   UNL     1     -10.180   9.868  65.763  1.00  0.00    -0.265 OA 
HETATM   32  C   UNL     1     -10.562  10.909  66.675  1.00  0.00    -0.249 C  
HETATM   33  C   UNL     1      -9.674  12.177  66.566  1.00  0.00    -0.223 C  
HETATM   34  C   UNL     1      -8.200  11.770  66.839  1.00  0.00    -0.166 C  
HETATM   35  O   UNL     1      -9.792  12.711  65.238  1.00  0.00    -0.410 OA 
HETATM   36  C   UNL     1     -10.193  13.233  67.554  1.00  0.00    -0.222 C  
HETATM   37  H   UNL     1      -5.834  10.810  66.352  1.00  0.00     0.000 HD 
HETATM   38  H   UNL     1      -9.248  13.487  65.171  1.00  0.00     0.000 HD 
HETATM   39  C   UNL     1      -7.787  10.547  65.950  1.00  0.00    -0.151 C  
HETATM   40  O   UNL     1      -6.478  10.113  66.393  1.00  0.00    -0.073 OA 
BRANCH  34  41
HETATM   41  N   UNL     1      -7.143  12.827  66.883  1.00  0.00    -0.351 NA 
HETATM   42  C   UNL     1      -6.578  13.165  68.177  1.00  0.00    -0.107 C  
HETATM   43  H   UNL     1      -6.830  13.294  66.032  1.00  0.00     0.000 HD 
ENDBRANCH  34  41
ENDBRANCH  29  30
ENDBRANCH  23  29
ENDBRANCH  14  15
ENDBRANCH   9  14
ENDBRANCH   4   5
ENDBRANCH   2   4
TORSDOF 7
ENDMDL
MODEL      168
REMARK 921   NORMALIZED FREE ENERGY PREDICTED BY IDOCK:   -4.66 KCAL/MOL
REMARK 922        TOTAL FREE ENERGY PREDICTED BY IDOCK:   -8.28 KCAL/MOL
REMARK 923 INTER-LIGAND FREE ENERGY PREDICTED BY IDOCK:   -8.02 KCAL/MOL
REMARK 924 INTRA-LIGAND FREE ENERGY PREDICTED BY IDOCK:   -0.26 KCAL/MOL
REMARK 927      BINDING AFFINITY PREDICTED BY RF-SCORE:    0.00 PKD
ROOT
HETATM    1  C   UNL     1      -6.461  11.032  68.640  1.00  0.00    -0.052 C  
HETATM    2  N   UNL     1      -6.039  10.365  67.418  1.00  0.00    -0.053 NA 
HETATM    3  H   UNL     1      -6.147   9.355  67.505  1.00  0.00     0.000 HD 
ENDROOT
BRANCH   2   4
HETATM    4  C   UNL     1      -6.716  10.855  66.208  1.00  0.00    -0.124 C  
BRANCH   4   5
HETATM    5  C   UNL     1      -8.228  11.175  66.359  1.00  0.00    -0.164 C  
HETATM    6  C   UNL     1      -9.079  10.687  65.200  1.00  0.00    -0.227 C  
HETATM    7  C   UNL     1     -10.544  11.013  65.487  1.00  0.00    -0.267 C  
HETATM    8  C   UNL     1     -10.750  12.465  65.969  1.00  0.00    -0.261 C  
HETATM    9  C   UNL     1      -9.642  12.985  66.992  1.00  0.00    -0.236 C  
HETATM   10  N   UNL     1     -12.165  12.646  66.369  1.00  0.00    -0.543 NA 
HETATM   11  O   UNL     1      -8.374  12.611  66.460  1.00  0.00     0.003 OA 
HETATM   12  H1  UNL     1     -12.301  13.606  66.687  1.00  0.00     0.000 HD 
HETATM   13  H2  UNL     1     -12.463  11.962  67.064  1.00  0.00     0.000 HD 
BRANCH   9  14
HETATM   14  O   UNL     1      -9.801  12.586  68.374  1.00  0.00    -0.225 OA 
BRANCH  14  15
HETATM   15  C   UNL     1     -11.168  12.575  68.966  1.00  0.00    -0.268 C  
HETATM   16  C   UNL     1     -11.567  13.882  69.704  1.00  0.00    -0.286 C  
HETATM   17  N   UNL     1     -11.824  14.967  68.734  1.00  0.00    -0.458 NA 
HETATM   18  C   UNL     1     -12.849  13.712  70.546  1.00  0.00    -0.167 C  
HETATM   19  H2  UNL     1     -12.520  14.697  68.039  1.00  0.00     0.000 HD 
HETATM   20  H1  UNL     1     -12.086  15.825  69.219  1.00  0.00     0.000 HD 
HETATM   21  C   UNL     1     -12.750  12.558  71.555  1.00  0.00    -0.220 C  
HETATM   22  N   UNL     1     -13.902  12.571  72.465  1.00  0.00    -0.544 NA 
HETATM   23  C   UNL     1     -12.638  11.203  70.832  1.00  0.00    -0.386 C  
HETATM   24  C   UNL     1     -11.471  11.287  69.799  1.00  0.00    -0.310 C  
HETATM   25  O   UNL     1     -11.550  10.151  68.906  1.00  0.00    -0.483 OA 
HETATM   26  H1  UNL     1     -13.837  11.805  73.135  1.00  0.00     0.000 HD 
HETATM   27  H2  UNL     1     -14.786  12.556  71.956  1.00  0.00     0.000 HD 
HETATM   28  H   UNL     1     -11.735   9.368  69.412  1.00  0.00     0.000 HD 
BRANCH  23  29
HETATM   29  O   UNL     1     -12.261  10.164  71.781  1.00  0.00    -0.374 OA 
BRANCH  29  30
HETATM   30  C   UNL     1     -11.744   8.884  71.362  1.00  0.00    -0.315 C  
HETATM   31  O   UNL     1     -12.585   7.760  71.635  1.00  0.00    -0.314 OA 
HETATM   32  C   UNL     1     -12.068   6.550  71.058  1.00  0.00    -0.243 C  
HETATM   33  C   UNL     1     -10.685   6.141  71.630  1.00  0.00    -0.245 C  
HETATM   34  C   UNL     1      -9.683   7.300  71.374  1.00  0.00    -0.164 C  
HETATM   35  O   UNL     1     -10.816   5.916  73.042  1.00  0.00    -0.239 OA 
HETATM   36  C   UNL     1     -10.248   4.822  70.974  1.00  0.00    -0.239 C  
HETATM   37  H   UNL     1      -8.485   9.577  71.746  1.00  0.00     0.000 HD 
HETATM   38  H   UNL     1      -9.970   5.665  73.392  1.00  0.00     0.000 HD 
HETATM   39  C   UNL     1     -10.272   8.664  71.876  1.00  0.00    -0.334 C  
HETATM   40  O   UNL     1      -9.373   9.710  71.436  1.00  0.00    -0.111 OA 
BRANCH  34  41
HETATM   41  N   UNL     1      -8.247   7.126  71.750  1.00  0.00    -0.105 NA 
HETATM   42  C   UNL     1      -7.270   7.055  70.677  1.00  0.00    -0.068 C  
HETATM   43  H   UNL     1      -7.963   7.060  72.727  1.00  0.00     0.000 HD 
ENDBRANCH  34  41
ENDBRANCH  29  30
ENDBRANCH  23  29
ENDBRANCH  14  15
ENDBRANCH   9  14
ENDBRANCH   4   5
ENDBRANCH   2   4
TORSDOF 7
ENDMDL
MODEL      169
REMARK 921   NORMALIZED FREE ENERGY PREDICTED BY IDOCK:   -4.66 KCAL/MOL
REMARK 922        TOTAL FREE ENERGY PREDICTED BY IDOCK:   -8.27 KCAL/MOL
REMARK 923 INTER-LIGAND FREE ENERGY PREDICTED BY IDOCK:   -8.35 KCAL/MOL
REMARK 924 INTRA-LIGAND FREE ENERGY PREDICTED BY IDOCK:    0.07 KCAL/MOL
REMARK 927      BINDING AFFINITY PREDICTED BY RF-SCORE:    0.00 PKD
ROOT
HETATM    1  C   UNL     1     -13.218   7.607  71.333  1.00  0.00    -0.289 C  
HETATM    2  N   UNL     1     -12.474   7.298  72.545  1.00  0.00    -0.489 NA 
HETATM    3  H   UNL     1     -13.099   6.940  73.267  1.00  0.00     0.000 HD 
ENDROOT
BRANCH   2   4
HETATM    4  C   UNL     1     -11.347   6.377  72.333  1.00  0.00    -0.287 C  
BRANCH   4   5
HETATM    5  C   UNL     1     -10.498   6.626  71.057  1.00  0.00    -0.214 C  
HETATM    6  C   UNL     1     -10.403   5.423  70.137  1.00  0.00    -0.361 C  
HETATM    7  C   UNL     1      -9.590   5.805  68.900  1.00  0.00    -0.163 C  
HETATM    8  C   UNL     1      -8.283   6.547  69.250  1.00  0.00    -0.123 C  
HETATM    9  C   UNL     1      -8.425   7.616  70.426  1.00  0.00    -0.136 C  
HETATM   10  N   UNL     1      -7.641   7.014  67.999  1.00  0.00    -0.108 NA 
HETATM   11  O   UNL     1      -9.161   6.990  71.473  1.00  0.00    -0.140 OA 
HETATM   12  H1  UNL     1      -6.777   7.505  68.230  1.00  0.00     0.000 HD 
HETATM   13  H2  UNL     1      -8.268   7.581  67.429  1.00  0.00     0.000 HD 
BRANCH   9  14
HETATM   14  O   UNL     1      -8.970   8.907  70.063  1.00  0.00    -0.148 OA 
BRANCH  14  15
HETATM   15  C   UNL     1      -8.838   9.373  68.655  1.00  0.00    -0.132 C  
HETATM   16  C   UNL     1      -7.741  10.449  68.426  1.00  0.00    -0.098 C  
HETATM   17  N   UNL     1      -6.396   9.846  68.519  1.00  0.00    -0.050 NA 
HETATM   18  C   UNL     1      -7.848  11.109  67.035  1.00  0.00    -0.142 C  
HETATM   19  H2  UNL     1      -6.289   9.056  67.884  1.00  0.00     0.000 HD 
HETATM   20  H1  UNL     1      -5.676  10.553  68.369  1.00  0.00     0.000 HD 
HETATM   21  C   UNL     1      -9.233  11.717  66.769  1.00  0.00    -0.194 C  
HETATM   22  N   UNL     1      -9.219  12.506  65.532  1.00  0.00    -0.424 NA 
HETATM   23  C   UNL     1     -10.313  10.620  66.707  1.00  0.00    -0.245 C  
HETATM   24  C   UNL     1     -10.206   9.745  67.995  1.00  0.00    -0.190 C  
HETATM   25  O   UNL     1     -10.989   8.542  67.814  1.00  0.00    -0.495 OA 
HETATM   26  H1  UNL     1     -10.138  12.910  65.354  1.00  0.00     0.000 HD 
HETATM   27  H2  UNL     1      -8.886  11.959  64.738  1.00  0.00     0.000 HD 
HETATM   28  H   UNL     1     -11.820   8.768  67.413  1.00  0.00     0.000 HD 
BRANCH  23  29
HETATM   29  O   UNL     1     -11.638  11.226  66.742  1.00  0.00    -0.433 OA 
BRANCH  29  30
HETATM   30  C   UNL     1     -11.939  12.382  67.549  1.00  0.00    -0.183 C  
HETATM   31  O   UNL     1     -11.251  13.582  67.189  1.00  0.00    -0.289 OA 
HETATM   32  C   UNL     1     -11.714  14.714  67.942  1.00  0.00    -0.351 C  
HETATM   33  C   UNL     1     -11.469  14.577  69.468  1.00  0.00    -0.288 C  
HETATM   34  C   UNL     1     -12.191  13.296  69.969  1.00  0.00    -0.275 C  
HETATM   35  O   UNL     1     -10.057  14.461  69.701  1.00  0.00    -0.421 OA 
HETATM   36  C   UNL     1     -11.966  15.852  70.167  1.00  0.00    -0.306 C  
HETATM   37  H   UNL     1     -12.575  10.764  70.418  1.00  0.00     0.000 HD 
HETATM   38  H   UNL     1      -9.907  14.377  70.635  1.00  0.00     0.000 HD 
HETATM   39  C   UNL     1     -11.807  12.060  69.085  1.00  0.00    -0.311 C  
HETATM   40  O   UNL     1     -12.655  10.958  69.492  1.00  0.00    -0.304 OA 
BRANCH  34  41
HETATM   41  N   UNL     1     -12.188  12.976  71.430  1.00  0.00    -0.216 NA 
HETATM   42  C   UNL     1     -13.454  13.042  72.140  1.00  0.00    -0.542 C  
HETATM   43  H   UNL     1     -11.326  12.719  71.911  1.00  0.00     0.000 HD 
ENDBRANCH  34  41
ENDBRANCH  29  30
ENDBRANCH  23  29
ENDBRANCH  14  15
ENDBRANCH   9  14
ENDBRANCH   4   5
ENDBRANCH   2   4
TORSDOF 7
ENDMDL
MODEL      170
REMARK 921   NORMALIZED FREE ENERGY PREDICTED BY IDOCK:   -4.65 KCAL/MOL
REMARK 922        TOTAL FREE ENERGY PREDICTED BY IDOCK:   -8.26 KCAL/MOL
REMARK 923 INTER-LIGAND FREE ENERGY PREDICTED BY IDOCK:   -7.86 KCAL/MOL
REMARK 924 INTRA-LIGAND FREE ENERGY PREDICTED BY IDOCK:   -0.40 KCAL/MOL
REMARK 927      BINDING AFFINITY PREDICTED BY RF-SCORE:    0.00 PKD
ROOT
HETATM    1  C   UNL     1     -11.200  12.093  63.474  1.00  0.00    -0.458 C  
HETATM    2  N   UNL     1     -10.050  11.422  62.887  1.00  0.00    -0.627 NA 
HETATM    3  H   UNL     1      -9.271  12.071  62.781  1.00  0.00     0.000 HD 
ENDROOT
BRANCH   2   4
HETATM    4  C   UNL     1      -9.625  10.220  63.620  1.00  0.00    -0.277 C  
BRANCH   4   5
HETATM    5  C   UNL     1      -9.485  10.377  65.158  1.00  0.00    -0.249 C  
HETATM    6  C   UNL     1      -8.047  10.441  65.641  1.00  0.00    -0.156 C  
HETATM    7  C   UNL     1      -8.039  10.648  67.156  1.00  0.00    -0.121 C  
HETATM    8  C   UNL     1      -9.004   9.695  67.893  1.00  0.00    -0.118 C  
HETATM    9  C   UNL     1     -10.406   9.479  67.163  1.00  0.00    -0.253 C  
HETATM   10  N   UNL     1      -9.050  10.066  69.327  1.00  0.00    -0.187 NA 
HETATM   11  O   UNL     1     -10.127   9.244  65.786  1.00  0.00    -0.268 OA 
HETATM   12  H1  UNL     1      -9.687   9.436  69.814  1.00  0.00     0.000 HD 
HETATM   13  H2  UNL     1      -9.292  11.047  69.467  1.00  0.00     0.000 HD 
BRANCH   9  14
HETATM   14  O   UNL     1     -11.401  10.511  67.357  1.00  0.00    -0.381 OA 
BRANCH  14  15
HETATM   15  C   UNL     1     -11.301  11.390  68.555  1.00  0.00    -0.271 C  
HETATM   16  C   UNL     1     -12.380  11.133  69.642  1.00  0.00    -0.218 C  
HETATM   17  N   UNL     1     -12.109   9.867  70.353  1.00  0.00    -0.438 NA 
HETATM   18  C   UNL     1     -12.420  12.251  70.705  1.00  0.00    -0.323 C  
HETATM   19  H2  UNL     1     -11.167   9.845  70.742  1.00  0.00     0.000 HD 
HETATM   20  H1  UNL     1     -12.818   9.698  71.066  1.00  0.00     0.000 HD 
HETATM   21  C   UNL     1     -12.622  13.647  70.095  1.00  0.00    -0.151 C  
HETATM   22  N   UNL     1     -12.859  14.639  71.149  1.00  0.00    -0.323 NA 
HETATM   23  C   UNL     1     -11.414  14.048  69.227  1.00  0.00    -0.295 C  
HETATM   24  C   UNL     1     -11.140  12.905  68.200  1.00  0.00    -0.253 C  
HETATM   25  O   UNL     1      -9.843  13.116  67.595  1.00  0.00    -0.210 OA 
HETATM   26  H1  UNL     1     -12.994  15.565  70.745  1.00  0.00     0.000 HD 
HETATM   27  H2  UNL     1     -12.116  14.635  71.848  1.00  0.00     0.000 HD 
HETATM   28  H   UNL     1      -9.745  14.036  67.379  1.00  0.00     0.000 HD 
BRANCH  23  29
HETATM   29  O   UNL     1     -11.741  15.227  68.437  1.00  0.00    -0.342 OA 
BRANCH  29  30
HETATM   30  C   UNL     1     -10.729  16.081  67.865  1.00  0.00    -0.316 C  
HETATM   31  O   UNL     1     -10.569  15.983  66.447  1.00  0.00    -0.308 OA 
HETATM   32  C   UNL     1      -9.650  16.965  65.942  1.00  0.00    -0.138 C  
HETATM   33  C   UNL     1      -8.212  16.805  66.501  1.00  0.00    -0.290 C  
HETATM   34  C   UNL     1      -8.272  16.907  68.050  1.00  0.00    -0.203 C  
HETATM   35  O   UNL     1      -7.708  15.516  66.119  1.00  0.00    -0.026 OA 
HETATM   36  C   UNL     1      -7.312  17.878  65.869  1.00  0.00    -0.247 C  
HETATM   37  H   UNL     1      -8.659  16.140  70.504  1.00  0.00     0.000 HD 
HETATM   38  H   UNL     1      -6.827  15.418  66.461  1.00  0.00     0.000 HD 
HETATM   39  C   UNL     1      -9.359  15.938  68.629  1.00  0.00    -0.212 C  
HETATM   40  O   UNL     1      -9.485  16.226  70.043  1.00  0.00     0.232 OA 
BRANCH  34  41
HETATM   41  N   UNL     1      -7.001  16.874  68.838  1.00  0.00    -0.202 NA 
HETATM   42  C   UNL     1      -6.500  18.130  69.367  1.00  0.00    -0.233 C  
HETATM   43  H   UNL     1      -6.503  15.998  68.998  1.00  0.00     0.000 HD 
ENDBRANCH  34  41
ENDBRANCH  29  30
ENDBRANCH  23  29
ENDBRANCH  14  15
ENDBRANCH   9  14
ENDBRANCH   4   5
ENDBRANCH   2   4
TORSDOF 7
ENDMDL
MODEL      171
REMARK 921   NORMALIZED FREE ENERGY PREDICTED BY IDOCK:   -4.57 KCAL/MOL
REMARK 922        TOTAL FREE ENERGY PREDICTED BY IDOCK:   -8.16 KCAL/MOL
REMARK 923 INTER-LIGAND FREE ENERGY PREDICTED BY IDOCK:   -6.74 KCAL/MOL
REMARK 924 INTRA-LIGAND FREE ENERGY PREDICTED BY IDOCK:   -1.42 KCAL/MOL
REMARK 927      BINDING AFFINITY PREDICTED BY RF-SCORE:    0.00 PKD
ROOT
HETATM    1  C   UNL     1      -5.397   5.481  71.790  1.00  0.00    -0.016 C  
HETATM    2  N   UNL     1      -6.797   5.322  71.426  1.00  0.00    -0.050 NA 
HETATM    3  H   UNL     1      -7.092   6.071  70.799  1.00  0.00     0.000 HD 
ENDROOT
BRANCH   2   4
HETATM    4  C   UNL     1      -7.117   4.008  70.848  1.00  0.00    -0.033 C  
BRANCH   4   5
HETATM    5  C   UNL     1      -8.126   4.013  69.669  1.00  0.00    -0.054 C  
HETATM    6  C   UNL     1      -8.635   2.635  69.289  1.00  0.00    -0.114 C  
HETATM    7  C   UNL     1      -9.654   2.774  68.158  1.00  0.00    -0.112 C  
HETATM    8  C   UNL     1      -9.164   3.697  67.022  1.00  0.00    -0.186 C  
HETATM    9  C   UNL     1      -8.397   5.004  67.519  1.00  0.00    -0.105 C  
HETATM   10  N   UNL     1     -10.265   3.898  66.052  1.00  0.00    -0.420 NA 
HETATM   11  O   UNL     1      -7.468   4.590  68.517  1.00  0.00    -0.063 OA 
HETATM   12  H1  UNL     1      -9.941   4.508  65.302  1.00  0.00     0.000 HD 
HETATM   13  H2  UNL     1     -11.115   4.248  66.496  1.00  0.00     0.000 HD 
BRANCH   9  14
HETATM   14  O   UNL     1      -9.221   6.110  67.957  1.00  0.00    -0.118 OA 
BRANCH  14  15
HETATM   15  C   UNL     1      -8.695   7.497  67.821  1.00  0.00    -0.123 C  
HETATM   16  C   UNL     1      -7.707   7.930  68.939  1.00  0.00    -0.105 C  
HETATM   17  N   UNL     1      -6.406   7.250  68.773  1.00  0.00    -0.034 NA 
HETATM   18  C   UNL     1      -7.432   9.448  68.923  1.00  0.00    -0.074 C  
HETATM   19  H2  UNL     1      -6.015   7.402  67.843  1.00  0.00     0.000 HD 
HETATM   20  H1  UNL     1      -5.757   7.534  69.506  1.00  0.00     0.000 HD 
HETATM   21  C   UNL     1      -8.716  10.287  69.015  1.00  0.00    -0.163 C  
HETATM   22  N   UNL     1      -8.390  11.705  69.204  1.00  0.00    -0.363 NA 
HETATM   23  C   UNL     1      -9.592  10.089  67.763  1.00  0.00    -0.148 C  
HETATM   24  C   UNL     1      -9.810   8.558  67.547  1.00  0.00    -0.177 C  
HETATM   25  O   UNL     1     -10.358   8.342  66.226  1.00  0.00    -0.418 OA 
HETATM   26  H1  UNL     1      -9.242  12.262  69.265  1.00  0.00     0.000 HD 
HETATM   27  H2  UNL     1      -7.762  12.050  68.478  1.00  0.00     0.000 HD 
HETATM   28  H   UNL     1     -11.035   8.987  66.059  1.00  0.00     0.000 HD 
BRANCH  23  29
HETATM   29  O   UNL     1     -10.915  10.655  67.990  1.00  0.00    -0.238 OA 
BRANCH  29  30
HETATM   30  C   UNL     1     -11.459  11.706  67.165  1.00  0.00    -0.271 C  
HETATM   31  O   UNL     1     -11.369  11.492  65.754  1.00  0.00    -0.229 OA 
HETATM   32  C   UNL     1     -12.061  12.508  65.012  1.00  0.00    -0.446 C  
HETATM   33  C   UNL     1     -11.472  13.928  65.221  1.00  0.00    -0.315 C  
HETATM   34  C   UNL     1     -11.533  14.268  66.736  1.00  0.00    -0.367 C  
HETATM   35  O   UNL     1     -10.106  13.933  64.777  1.00  0.00    -0.583 OA 
HETATM   36  C   UNL     1     -12.260  14.924  64.356  1.00  0.00    -0.399 C  
HETATM   37  H   UNL     1     -10.825  14.266  69.238  1.00  0.00     0.000 HD 
HETATM   38  H   UNL     1      -9.747  14.803  64.905  1.00  0.00     0.000 HD 
HETATM   39  C   UNL     1     -10.900  13.116  67.589  1.00  0.00    -0.254 C  
HETATM   40  O   UNL     1     -11.163  13.416  68.982  1.00  0.00    -0.259 OA 
BRANCH  34  41
HETATM   41  N   UNL     1     -11.107  15.623  67.202  1.00  0.00    -0.270 NA 
HETATM   42  C   UNL     1      -9.688  15.855  67.402  1.00  0.00    -0.227 C  
HETATM   43  H   UNL     1     -11.791  16.360  67.373  1.00  0.00     0.000 HD 
ENDBRANCH  34  41
ENDBRANCH  29  30
ENDBRANCH  23  29
ENDBRANCH  14  15
ENDBRANCH   9  14
ENDBRANCH   4   5
ENDBRANCH   2   4
TORSDOF 7
ENDMDL
MODEL      172
REMARK 921   NORMALIZED FREE ENERGY PREDICTED BY IDOCK:   -4.55 KCAL/MOL
REMARK 922        TOTAL FREE ENERGY PREDICTED BY IDOCK:   -8.13 KCAL/MOL
REMARK 923 INTER-LIGAND FREE ENERGY PREDICTED BY IDOCK:   -7.34 KCAL/MOL
REMARK 924 INTRA-LIGAND FREE ENERGY PREDICTED BY IDOCK:   -0.79 KCAL/MOL
REMARK 927      BINDING AFFINITY PREDICTED BY RF-SCORE:    0.00 PKD
ROOT
HETATM    1  C   UNL     1      -7.432   7.211  71.741  1.00  0.00    -0.086 C  
HETATM    2  N   UNL     1      -7.023   8.595  71.561  1.00  0.00    -0.082 NA 
HETATM    3  H   UNL     1      -6.060   8.644  71.228  1.00  0.00     0.000 HD 
ENDROOT
BRANCH   2   4
HETATM    4  C   UNL     1      -7.913   9.371  70.685  1.00  0.00    -0.158 C  
BRANCH   4   5
HETATM    5  C   UNL     1      -7.475   9.482  69.199  1.00  0.00    -0.074 C  
HETATM    6  C   UNL     1      -5.972   9.566  69.007  1.00  0.00    -0.042 C  
HETATM    7  C   UNL     1      -5.664   9.619  67.510  1.00  0.00    -0.040 C  
HETATM    8  C   UNL     1      -6.543  10.638  66.755  1.00  0.00    -0.091 C  
HETATM    9  C   UNL     1      -8.070  10.663  67.218  1.00  0.00    -0.116 C  
HETATM   10  N   UNL     1      -6.290  10.513  65.301  1.00  0.00    -0.251 NA 
HETATM   11  O   UNL     1      -8.074  10.675  68.643  1.00  0.00    -0.116 OA 
HETATM   12  H1  UNL     1      -6.871  11.186  64.802  1.00  0.00     0.000 HD 
HETATM   13  H2  UNL     1      -6.425   9.559  64.964  1.00  0.00     0.000 HD 
BRANCH   9  14
HETATM   14  O   UNL     1      -8.928   9.635  66.672  1.00  0.00    -0.142 OA 
BRANCH  14  15
HETATM   15  C   UNL     1      -9.938  10.012  65.644  1.00  0.00    -0.285 C  
HETATM   16  C   UNL     1      -9.347  10.388  64.258  1.00  0.00    -0.277 C  
HETATM   17  N   UNL     1      -8.855   9.183  63.560  1.00  0.00    -0.418 NA 
HETATM   18  C   UNL     1     -10.390  11.053  63.336  1.00  0.00    -0.373 C  
HETATM   19  H2  UNL     1      -9.578   8.468  63.482  1.00  0.00     0.000 HD 
HETATM   20  H1  UNL     1      -8.466   9.430  62.650  1.00  0.00     0.000 HD 
HETATM   21  C   UNL     1     -11.046  12.289  63.971  1.00  0.00    -0.386 C  
HETATM   22  N   UNL     1     -11.868  12.998  62.985  1.00  0.00    -0.801 NA 
HETATM   23  C   UNL     1     -11.884  11.895  65.202  1.00  0.00    -0.121 C  
HETATM   24  C   UNL     1     -10.990  11.048  66.161  1.00  0.00    -0.089 C  
HETATM   25  O   UNL     1     -11.831  10.416  67.154  1.00  0.00    -0.051 OA 
HETATM   26  H1  UNL     1     -12.303  13.818  63.406  1.00  0.00     0.000 HD 
HETATM   27  H2  UNL     1     -12.558  12.382  62.554  1.00  0.00     0.000 HD 
HETATM   28  H   UNL     1     -12.470  11.045  67.468  1.00  0.00     0.000 HD 
BRANCH  23  29
HETATM   29  O   UNL     1     -12.256  13.088  65.950  1.00  0.00    -0.439 OA 
BRANCH  29  30
HETATM   30  C   UNL     1     -11.302  13.851  66.717  1.00  0.00    -0.333 C  
HETATM   31  O   UNL     1     -11.495  13.837  68.133  1.00  0.00    -0.276 OA 
HETATM   32  C   UNL     1     -10.424  14.494  68.828  1.00  0.00    -0.246 C  
HETATM   33  C   UNL     1     -10.296  15.999  68.475  1.00  0.00    -0.241 C  
HETATM   34  C   UNL     1     -10.070  16.129  66.944  1.00  0.00    -0.272 C  
HETATM   35  O   UNL     1     -11.514  16.666  68.844  1.00  0.00    -0.212 OA 
HETATM   36  C   UNL     1      -9.150  16.606  69.299  1.00  0.00    -0.066 C  
HETATM   37  H   UNL     1     -10.673  16.210  64.416  1.00  0.00     0.000 HD 
HETATM   38  H   UNL     1     -11.435  17.588  68.628  1.00  0.00     0.000 HD 
HETATM   39  C   UNL     1     -11.150  15.313  66.152  1.00  0.00    -0.280 C  
HETATM   40  O   UNL     1     -10.764  15.328  64.756  1.00  0.00    -0.410 OA 
BRANCH  34  41
HETATM   41  N   UNL     1      -9.825  17.478  66.349  1.00  0.00    -0.302 NA 
HETATM   42  C   UNL     1      -8.991  18.405  67.094  1.00  0.00    -0.268 C  
HETATM   43  H   UNL     1     -10.229  17.739  65.450  1.00  0.00     0.000 HD 
ENDBRANCH  34  41
ENDBRANCH  29  30
ENDBRANCH  23  29
ENDBRANCH  14  15
ENDBRANCH   9  14
ENDBRANCH   4   5
ENDBRANCH   2   4
TORSDOF 7
ENDMDL
MODEL      173
REMARK 921   NORMALIZED FREE ENERGY PREDICTED BY IDOCK:   -4.54 KCAL/MOL
REMARK 922        TOTAL FREE ENERGY PREDICTED BY IDOCK:   -8.11 KCAL/MOL
REMARK 923 INTER-LIGAND FREE ENERGY PREDICTED BY IDOCK:   -7.14 KCAL/MOL
REMARK 924 INTRA-LIGAND FREE ENERGY PREDICTED BY IDOCK:   -0.97 KCAL/MOL
REMARK 927      BINDING AFFINITY PREDICTED BY RF-SCORE:    0.00 PKD
ROOT
HETATM    1  C   UNL     1      -9.185   5.516  66.179  1.00  0.00    -0.158 C  
HETATM    2  N   UNL     1      -9.184   5.630  67.630  1.00  0.00    -0.106 NA 
HETATM    3  H   UNL     1      -9.779   4.914  68.046  1.00  0.00     0.000 HD 
ENDROOT
BRANCH   2   4
HETATM    4  C   UNL     1      -7.842   5.599  68.229  1.00  0.00    -0.096 C  
BRANCH   4   5
HETATM    5  C   UNL     1      -7.617   6.546  69.439  1.00  0.00    -0.096 C  
HETATM    6  C   UNL     1      -6.796   5.930  70.557  1.00  0.00    -0.054 C  
HETATM    7  C   UNL     1      -6.601   6.969  71.662  1.00  0.00    -0.048 C  
HETATM    8  C   UNL     1      -7.912   7.687  72.045  1.00  0.00    -0.100 C  
HETATM    9  C   UNL     1      -8.846   8.061  70.807  1.00  0.00    -0.139 C  
HETATM   10  N   UNL     1      -7.606   8.776  73.002  1.00  0.00    -0.367 NA 
HETATM   11  O   UNL     1      -8.913   6.909  69.971  1.00  0.00    -0.141 OA 
HETATM   12  H1  UNL     1      -8.473   9.250  73.255  1.00  0.00     0.000 HD 
HETATM   13  H2  UNL     1      -6.901   9.421  72.644  1.00  0.00     0.000 HD 
BRANCH   9  14
HETATM   14  O   UNL     1      -8.497   9.257  70.072  1.00  0.00    -0.139 OA 
BRANCH  14  15
HETATM   15  C   UNL     1      -9.030   9.436  68.693  1.00  0.00    -0.132 C  
HETATM   16  C   UNL     1      -8.054  10.127  67.702  1.00  0.00    -0.109 C  
HETATM   17  N   UNL     1      -6.957   9.209  67.330  1.00  0.00    -0.077 NA 
HETATM   18  C   UNL     1      -8.751  10.556  66.394  1.00  0.00    -0.152 C  
HETATM   19  H2  UNL     1      -7.310   8.327  66.960  1.00  0.00     0.000 HD 
HETATM   20  H1  UNL     1      -6.316   9.663  66.679  1.00  0.00     0.000 HD 
HETATM   21  C   UNL     1      -9.968  11.462  66.637  1.00  0.00    -0.208 C  
HETATM   22  N   UNL     1     -10.465  12.006  65.369  1.00  0.00    -0.264 NA 
HETATM   23  C   UNL     1     -11.081  10.699  67.380  1.00  0.00    -0.272 C  
HETATM   24  C   UNL     1     -10.468  10.048  68.660  1.00  0.00    -0.204 C  
HETATM   25  O   UNL     1     -11.407   9.086  69.195  1.00  0.00    -0.423 OA 
HETATM   26  H1  UNL     1     -11.273  12.607  65.529  1.00  0.00     0.000 HD 
HETATM   27  H2  UNL     1     -10.670  11.268  64.694  1.00  0.00     0.000 HD 
HETATM   28  H   UNL     1     -12.282   9.459  69.175  1.00  0.00     0.000 HD 
BRANCH  23  29
HETATM   29  O   UNL     1     -12.094  11.635  67.851  1.00  0.00    -0.613 OA 
BRANCH  29  30
HETATM   30  C   UNL     1     -11.904  12.458  69.019  1.00  0.00    -0.300 C  
HETATM   31  O   UNL     1     -12.763  12.168  70.125  1.00  0.00     0.041 OA 
HETATM   32  C   UNL     1     -12.411  12.929  71.292  1.00  0.00    -0.200 C  
HETATM   33  C   UNL     1     -12.552  14.460  71.091  1.00  0.00    -0.352 C  
HETATM   34  C   UNL     1     -11.641  14.887  69.906  1.00  0.00    -0.289 C  
HETATM   35  O   UNL     1     -13.922  14.763  70.783  1.00  0.00    -0.564 OA 
HETATM   36  C   UNL     1     -12.189  15.169  72.405  1.00  0.00    -0.462 C  
HETATM   37  H   UNL     1     -10.903  15.243  67.439  1.00  0.00     0.000 HD 
HETATM   38  H   UNL     1     -14.007  15.701  70.660  1.00  0.00     0.000 HD 
HETATM   39  C   UNL     1     -11.907  13.989  68.650  1.00  0.00    -0.361 C  
HETATM   40  O   UNL     1     -10.900  14.319  67.662  1.00  0.00    -0.262 OA 
BRANCH  34  41
HETATM   41  N   UNL     1     -11.521  16.336  69.558  1.00  0.00    -0.284 NA 
HETATM   42  C   UNL     1     -10.186  16.898  69.451  1.00  0.00    -0.208 C  
HETATM   43  H   UNL     1     -12.349  16.910  69.400  1.00  0.00     0.000 HD 
ENDBRANCH  34  41
ENDBRANCH  29  30
ENDBRANCH  23  29
ENDBRANCH  14  15
ENDBRANCH   9  14
ENDBRANCH   4   5
ENDBRANCH   2   4
TORSDOF 7
ENDMDL
MODEL      174
REMARK 921   NORMALIZED FREE ENERGY PREDICTED BY IDOCK:   -4.53 KCAL/MOL
REMARK 922        TOTAL FREE ENERGY PREDICTED BY IDOCK:   -8.10 KCAL/MOL
REMARK 923 INTER-LIGAND FREE ENERGY PREDICTED BY IDOCK:   -7.73 KCAL/MOL
REMARK 924 INTRA-LIGAND FREE ENERGY PREDICTED BY IDOCK:   -0.37 KCAL/MOL
REMARK 927      BINDING AFFINITY PREDICTED BY RF-SCORE:    0.00 PKD
ROOT
HETATM    1  C   UNL     1     -10.374  17.965  68.676  1.00  0.00    -0.337 C  
HETATM    2  N   UNL     1     -10.066  16.822  69.523  1.00  0.00    -0.167 NA 
HETATM    3  H   UNL     1      -9.908  17.121  70.485  1.00  0.00     0.000 HD 
ENDROOT
BRANCH   2   4
HETATM    4  C   UNL     1     -11.076  15.755  69.472  1.00  0.00    -0.306 C  
BRANCH   4   5
HETATM    5  C   UNL     1     -10.850  14.658  68.396  1.00  0.00    -0.245 C  
HETATM    6  C   UNL     1     -10.640  15.205  66.995  1.00  0.00    -0.300 C  
HETATM    7  C   UNL     1     -10.379  14.041  66.040  1.00  0.00    -0.312 C  
HETATM    8  C   UNL     1     -11.386  12.885  66.217  1.00  0.00    -0.323 C  
HETATM    9  C   UNL     1     -11.753  12.556  67.734  1.00  0.00    -0.359 C  
HETATM   10  N   UNL     1     -10.968  11.744  65.369  1.00  0.00    -0.305 NA 
HETATM   11  O   UNL     1     -12.013  13.798  68.380  1.00  0.00    -0.355 OA 
HETATM   12  H1  UNL     1     -11.634  10.981  65.486  1.00  0.00     0.000 HD 
HETATM   13  H2  UNL     1     -10.008  11.453  65.555  1.00  0.00     0.000 HD 
BRANCH   9  14
HETATM   14  O   UNL     1     -10.808  11.740  68.465  1.00  0.00    -0.202 OA 
BRANCH  14  15
HETATM   15  C   UNL     1     -11.270  10.448  69.045  1.00  0.00    -0.234 C  
HETATM   16  C   UNL     1     -11.369  10.430  70.595  1.00  0.00    -0.325 C  
HETATM   17  N   UNL     1     -12.524  11.230  71.051  1.00  0.00    -0.402 NA 
HETATM   18  C   UNL     1     -11.555   9.004  71.154  1.00  0.00    -0.372 C  
HETATM   19  H2  UNL     1     -13.393  10.925  70.612  1.00  0.00     0.000 HD 
HETATM   20  H1  UNL     1     -12.589  11.218  72.068  1.00  0.00     0.000 HD 
HETATM   21  C   UNL     1     -10.454   8.035  70.695  1.00  0.00    -0.210 C  
HETATM   22  N   UNL     1     -10.559   6.760  71.413  1.00  0.00    -0.219 NA 
HETATM   23  C   UNL     1     -10.519   7.813  69.172  1.00  0.00    -0.211 C  
HETATM   24  C   UNL     1     -10.518   9.205  68.467  1.00  0.00    -0.204 C  
HETATM   25  O   UNL     1     -10.887   9.030  67.078  1.00  0.00    -0.279 OA 
HETATM   26  H1  UNL     1      -9.829   6.117  71.109  1.00  0.00     0.000 HD 
HETATM   27  H2  UNL     1     -11.489   6.350  71.322  1.00  0.00     0.000 HD 
HETATM   28  H   UNL     1     -10.431   8.275  66.727  1.00  0.00     0.000 HD 
BRANCH  23  29
HETATM   29  O   UNL     1      -9.313   7.132  68.719  1.00  0.00    -0.137 OA 
BRANCH  29  30
HETATM   30  C   UNL     1      -9.333   5.790  68.192  1.00  0.00    -0.109 C  
HETATM   31  O   UNL     1      -8.094   5.079  68.265  1.00  0.00    -0.086 OA 
HETATM   32  C   UNL     1      -8.236   3.709  67.858  1.00  0.00    -0.084 C  
HETATM   33  C   UNL     1      -8.680   3.552  66.380  1.00  0.00    -0.124 C  
HETATM   34  C   UNL     1     -10.036   4.286  66.191  1.00  0.00    -0.215 C  
HETATM   35  O   UNL     1      -7.684   4.147  65.532  1.00  0.00    -0.084 OA 
HETATM   36  C   UNL     1      -8.763   2.055  66.043  1.00  0.00    -0.116 C  
HETATM   37  H   UNL     1     -11.671   6.276  65.836  1.00  0.00     0.000 HD 
HETATM   38  H   UNL     1      -7.956   4.050  64.627  1.00  0.00     0.000 HD 
HETATM   39  C   UNL     1      -9.956   5.750  66.746  1.00  0.00    -0.175 C  
HETATM   40  O   UNL     1     -11.296   6.300  66.708  1.00  0.00    -0.229 OA 
BRANCH  34  41
HETATM   41  N   UNL     1     -10.733   4.214  64.871  1.00  0.00    -0.631 NA 
HETATM   42  C   UNL     1      -9.913   4.190  63.673  1.00  0.00    -0.079 C  
HETATM   43  H   UNL     1     -11.751   4.181  64.814  1.00  0.00     0.000 HD 
ENDBRANCH  34  41
ENDBRANCH  29  30
ENDBRANCH  23  29
ENDBRANCH  14  15
ENDBRANCH   9  14
ENDBRANCH   4   5
ENDBRANCH   2   4
TORSDOF 7
ENDMDL
MODEL      175
REMARK 921   NORMALIZED FREE ENERGY PREDICTED BY IDOCK:   -4.52 KCAL/MOL
REMARK 922        TOTAL FREE ENERGY PREDICTED BY IDOCK:   -8.08 KCAL/MOL
REMARK 923 INTER-LIGAND FREE ENERGY PREDICTED BY IDOCK:   -5.98 KCAL/MOL
REMARK 924 INTRA-LIGAND FREE ENERGY PREDICTED BY IDOCK:   -2.10 KCAL/MOL
REMARK 927      BINDING AFFINITY PREDICTED BY RF-SCORE:    0.00 PKD
ROOT
HETATM    1  C   UNL     1      -6.203  12.224  69.615  1.00  0.00    -0.131 C  
HETATM    2  N   UNL     1      -7.540  12.157  69.045  1.00  0.00    -0.323 NA 
HETATM    3  H   UNL     1      -8.243  12.128  69.783  1.00  0.00     0.000 HD 
ENDROOT
BRANCH   2   4
HETATM    4  C   UNL     1      -7.835  13.235  68.090  1.00  0.00    -0.145 C  
BRANCH   4   5
HETATM    5  C   UNL     1      -8.645  12.823  66.831  1.00  0.00    -0.137 C  
HETATM    6  C   UNL     1      -9.783  13.771  66.495  1.00  0.00    -0.301 C  
HETATM    7  C   UNL     1     -10.468  13.292  65.216  1.00  0.00    -0.324 C  
HETATM    8  C   UNL     1     -10.774  11.778  65.232  1.00  0.00    -0.287 C  
HETATM    9  C   UNL     1      -9.614  10.878  65.856  1.00  0.00    -0.216 C  
HETATM   10  N   UNL     1     -11.291  11.374  63.904  1.00  0.00    -0.469 NA 
HETATM   11  O   UNL     1      -9.200  11.508  67.064  1.00  0.00    -0.170 OA 
HETATM   12  H1  UNL     1     -11.492  10.374  63.915  1.00  0.00     0.000 HD 
HETATM   13  H2  UNL     1     -10.659  11.634  63.146  1.00  0.00     0.000 HD 
BRANCH   9  14
HETATM   14  O   UNL     1      -8.501  10.565  64.987  1.00  0.00    -0.173 OA 
BRANCH  14  15
HETATM   15  C   UNL     1      -7.732   9.312  65.226  1.00  0.00    -0.103 C  
HETATM   16  C   UNL     1      -8.441   8.013  64.753  1.00  0.00    -0.019 C  
HETATM   17  N   UNL     1      -8.431   7.925  63.278  1.00  0.00    -0.389 NA 
HETATM   18  C   UNL     1      -7.752   6.741  65.289  1.00  0.00    -0.106 C  
HETATM   19  H2  UNL     1      -7.487   8.000  62.900  1.00  0.00     0.000 HD 
HETATM   20  H1  UNL     1      -8.896   7.072  62.968  1.00  0.00     0.000 HD 
HETATM   21  C   UNL     1      -7.625   6.731  66.820  1.00  0.00    -0.090 C  
HETATM   22  N   UNL     1      -7.158   5.422  67.289  1.00  0.00    -0.069 NA 
HETATM   23  C   UNL     1      -6.684   7.853  67.299  1.00  0.00    -0.069 C  
HETATM   24  C   UNL     1      -7.163   9.202  66.678  1.00  0.00    -0.085 C  
HETATM   25  O   UNL     1      -6.130  10.198  66.860  1.00  0.00    -0.054 OA 
HETATM   26  H1  UNL     1      -7.073   5.416  68.305  1.00  0.00     0.000 HD 
HETATM   27  H2  UNL     1      -6.287   5.145  66.834  1.00  0.00     0.000 HD 
HETATM   28  H   UNL     1      -5.784  10.132  67.743  1.00  0.00     0.000 HD 
BRANCH  23  29
HETATM   29  O   UNL     1      -6.798   8.012  68.743  1.00  0.00    -0.059 OA 
BRANCH  29  30
HETATM   30  C   UNL     1      -8.072   8.080  69.416  1.00  0.00    -0.118 C  
HETATM   31  O   UNL     1      -8.467   9.380  69.862  1.00  0.00    -0.141 OA 
HETATM   32  C   UNL     1      -9.804   9.385  70.386  1.00  0.00    -0.259 C  
HETATM   33  C   UNL     1      -9.976   8.483  71.637  1.00  0.00    -0.259 C  
HETATM   34  C   UNL     1      -9.580   7.030  71.255  1.00  0.00    -0.164 C  
HETATM   35  O   UNL     1      -9.110   8.965  72.677  1.00  0.00    -0.321 OA 
HETATM   36  C   UNL     1     -11.426   8.594  72.133  1.00  0.00    -0.443 C  
HETATM   37  H   UNL     1      -8.025   5.006  70.760  1.00  0.00     0.000 HD 
HETATM   38  H   UNL     1      -9.215   8.413  73.443  1.00  0.00     0.000 HD 
HETATM   39  C   UNL     1      -8.175   7.002  70.560  1.00  0.00    -0.123 C  
HETATM   40  O   UNL     1      -7.963   5.656  70.070  1.00  0.00    -0.088 OA 
BRANCH  34  41
HETATM   41  N   UNL     1      -9.740   5.937  72.262  1.00  0.00    -0.160 NA 
HETATM   42  C   UNL     1     -11.016   5.245  72.313  1.00  0.00    -0.185 C  
HETATM   43  H   UNL     1      -8.978   5.686  72.893  1.00  0.00     0.000 HD 
ENDBRANCH  34  41
ENDBRANCH  29  30
ENDBRANCH  23  29
ENDBRANCH  14  15
ENDBRANCH   9  14
ENDBRANCH   4   5
ENDBRANCH   2   4
TORSDOF 7
ENDMDL
MODEL      176
REMARK 921   NORMALIZED FREE ENERGY PREDICTED BY IDOCK:   -4.50 KCAL/MOL
REMARK 922        TOTAL FREE ENERGY PREDICTED BY IDOCK:   -8.05 KCAL/MOL
REMARK 923 INTER-LIGAND FREE ENERGY PREDICTED BY IDOCK:   -7.58 KCAL/MOL
REMARK 924 INTRA-LIGAND FREE ENERGY PREDICTED BY IDOCK:   -0.48 KCAL/MOL
REMARK 927      BINDING AFFINITY PREDICTED BY RF-SCORE:    0.00 PKD
ROOT
HETATM    1  C   UNL     1      -5.222  13.774  70.439  1.00  0.00    -0.106 C  
HETATM    2  N   UNL     1      -5.342  12.647  69.526  1.00  0.00    -0.076 NA 
HETATM    3  H   UNL     1      -5.026  11.787  69.974  1.00  0.00     0.000 HD 
ENDROOT
BRANCH   2   4
HETATM    4  C   UNL     1      -6.691  12.475  68.967  1.00  0.00    -0.098 C  
BRANCH   4   5
HETATM    5  C   UNL     1      -6.911  11.201  68.106  1.00  0.00    -0.067 C  
HETATM    6  C   UNL     1      -5.712  10.271  68.068  1.00  0.00    -0.041 C  
HETATM    7  C   UNL     1      -6.066   9.037  67.237  1.00  0.00    -0.058 C  
HETATM    8  C   UNL     1      -6.743   9.394  65.897  1.00  0.00    -0.081 C  
HETATM    9  C   UNL     1      -7.807  10.578  65.989  1.00  0.00    -0.147 C  
HETATM   10  N   UNL     1      -7.189   8.147  65.233  1.00  0.00    -0.067 NA 
HETATM   11  O   UNL     1      -7.208  11.620  66.754  1.00  0.00    -0.137 OA 
HETATM   12  H1  UNL     1      -7.637   8.382  64.347  1.00  0.00     0.000 HD 
HETATM   13  H2  UNL     1      -7.791   7.581  65.832  1.00  0.00     0.000 HD 
BRANCH   9  14
HETATM   14  O   UNL     1      -9.125  10.227  66.472  1.00  0.00    -0.146 OA 
BRANCH  14  15
HETATM   15  C   UNL     1     -10.317  10.666  65.694  1.00  0.00    -0.216 C  
HETATM   16  C   UNL     1     -10.063  10.869  64.175  1.00  0.00    -0.355 C  
HETATM   17  N   UNL     1      -9.903   9.566  63.497  1.00  0.00    -0.170 NA 
HETATM   18  C   UNL     1     -11.228  11.603  63.478  1.00  0.00    -0.462 C  
HETATM   19  H2  UNL     1     -10.697   8.949  63.669  1.00  0.00     0.000 HD 
HETATM   20  H1  UNL     1      -9.736   9.700  62.500  1.00  0.00     0.000 HD 
HETATM   21  C   UNL     1     -11.557  12.954  64.133  1.00  0.00    -0.398 C  
HETATM   22  N   UNL     1     -12.522  13.699  63.316  1.00  0.00    -1.048 NA 
HETATM   23  C   UNL     1     -12.090  12.755  65.564  1.00  0.00    -0.465 C  
HETATM   24  C   UNL     1     -11.079  11.862  66.351  1.00  0.00    -0.309 C  
HETATM   25  O   UNL     1     -11.702  11.413  67.577  1.00  0.00    -0.568 OA 
HETATM   26  H1  UNL     1     -12.741  14.595  63.750  1.00  0.00     0.000 HD 
HETATM   27  H2  UNL     1     -13.363  13.152  63.130  1.00  0.00     0.000 HD 
HETATM   28  H   UNL     1     -12.166  12.140  67.976  1.00  0.00     0.000 HD 
BRANCH  23  29
HETATM   29  O   UNL     1     -12.124  14.034  66.263  1.00  0.00    -0.412 OA 
BRANCH  29  30
HETATM   30  C   UNL     1     -11.770  14.165  67.654  1.00  0.00    -0.387 C  
HETATM   31  O   UNL     1     -12.751  14.792  68.484  1.00  0.00     0.292 OA 
HETATM   32  C   UNL     1     -12.385  14.751  69.873  1.00  0.00    -0.283 C  
HETATM   33  C   UNL     1     -11.074  15.519  70.185  1.00  0.00    -0.323 C  
HETATM   34  C   UNL     1      -9.929  14.904  69.334  1.00  0.00    -0.136 C  
HETATM   35  O   UNL     1     -11.252  16.901  69.833  1.00  0.00    -0.361 OA 
HETATM   36  C   UNL     1     -10.801  15.442  71.695  1.00  0.00     0.061 C  
HETATM   37  H   UNL     1      -8.453  14.456  67.240  1.00  0.00     0.000 HD 
HETATM   38  H   UNL     1     -10.449  17.370  70.024  1.00  0.00     0.000 HD 
HETATM   39  C   UNL     1     -10.344  14.813  67.825  1.00  0.00    -0.244 C  
HETATM   40  O   UNL     1      -9.313  14.065  67.137  1.00  0.00    -0.222 OA 
BRANCH  34  41
HETATM   41  N   UNL     1      -8.532  15.406  69.511  1.00  0.00    -0.304 NA 
HETATM   42  C   UNL     1      -8.132  16.578  68.754  1.00  0.00    -0.244 C  
HETATM   43  H   UNL     1      -7.881  14.940  70.144  1.00  0.00     0.000 HD 
ENDBRANCH  34  41
ENDBRANCH  29  30
ENDBRANCH  23  29
ENDBRANCH  14  15
ENDBRANCH   9  14
ENDBRANCH   4   5
ENDBRANCH   2   4
TORSDOF 7
ENDMDL
MODEL      177
REMARK 921   NORMALIZED FREE ENERGY PREDICTED BY IDOCK:   -4.48 KCAL/MOL
REMARK 922        TOTAL FREE ENERGY PREDICTED BY IDOCK:   -8.02 KCAL/MOL
REMARK 923 INTER-LIGAND FREE ENERGY PREDICTED BY IDOCK:   -8.16 KCAL/MOL
REMARK 924 INTRA-LIGAND FREE ENERGY PREDICTED BY IDOCK:    0.14 KCAL/MOL
REMARK 927      BINDING AFFINITY PREDICTED BY RF-SCORE:    0.00 PKD
ROOT
HETATM    1  C   UNL     1     -11.843  15.598  69.819  1.00  0.00    -0.363 C  
HETATM    2  N   UNL     1     -12.191  14.921  68.579  1.00  0.00    -0.597 NA 
HETATM    3  H   UNL     1     -13.178  15.060  68.360  1.00  0.00     0.000 HD 
ENDROOT
BRANCH   2   4
HETATM    4  C   UNL     1     -11.349  15.303  67.436  1.00  0.00    -0.284 C  
BRANCH   4   5
HETATM    5  C   UNL     1     -11.366  14.330  66.226  1.00  0.00    -0.346 C  
HETATM    6  C   UNL     1     -11.906  14.946  64.948  1.00  0.00    -0.337 C  
HETATM    7  C   UNL     1     -11.825  13.914  63.824  1.00  0.00    -0.234 C  
HETATM    8  C   UNL     1     -12.370  12.532  64.242  1.00  0.00    -0.456 C  
HETATM    9  C   UNL     1     -11.966  12.081  65.717  1.00  0.00    -0.063 C  
HETATM   10  N   UNL     1     -12.111  11.560  63.153  1.00  0.00    -0.933 NA 
HETATM   11  O   UNL     1     -12.196  13.197  66.573  1.00  0.00    -0.378 OA 
HETATM   12  H1  UNL     1     -12.471  10.647  63.430  1.00  0.00     0.000 HD 
HETATM   13  H2  UNL     1     -11.126  11.525  62.890  1.00  0.00     0.000 HD 
BRANCH   9  14
HETATM   14  O   UNL     1     -10.641  11.522  65.882  1.00  0.00    -0.254 OA 
BRANCH  14  15
HETATM   15  C   UNL     1     -10.055  11.453  67.250  1.00  0.00    -0.192 C  
HETATM   16  C   UNL     1      -8.537  11.771  67.324  1.00  0.00    -0.162 C  
HETATM   17  N   UNL     1      -8.299  13.216  67.123  1.00  0.00    -0.296 NA 
HETATM   18  C   UNL     1      -7.924  11.395  68.689  1.00  0.00    -0.141 C  
HETATM   19  H2  UNL     1      -8.837  13.783  67.778  1.00  0.00     0.000 HD 
HETATM   20  H1  UNL     1      -7.302  13.424  67.171  1.00  0.00     0.000 HD 
HETATM   21  C   UNL     1      -8.163   9.925  69.065  1.00  0.00    -0.124 C  
HETATM   22  N   UNL     1      -7.391   9.568  70.260  1.00  0.00    -0.115 NA 
HETATM   23  C   UNL     1      -9.664   9.650  69.280  1.00  0.00    -0.185 C  
HETATM   24  C   UNL     1     -10.445  10.153  68.026  1.00  0.00    -0.209 C  
HETATM   25  O   UNL     1     -11.858  10.188  68.334  1.00  0.00    -0.676 OA 
HETATM   26  H1  UNL     1      -7.550   8.593  70.510  1.00  0.00     0.000 HD 
HETATM   27  H2  UNL     1      -7.588  10.196  71.040  1.00  0.00     0.000 HD 
HETATM   28  H   UNL     1     -12.095   9.398  68.805  1.00  0.00     0.000 HD 
BRANCH  23  29
HETATM   29  O   UNL     1      -9.899   8.214  69.350  1.00  0.00    -0.176 OA 
BRANCH  29  30
HETATM   30  C   UNL     1      -9.140   7.266  68.572  1.00  0.00    -0.136 C  
HETATM   31  O   UNL     1      -8.175   7.831  67.681  1.00  0.00    -0.122 OA 
HETATM   32  C   UNL     1      -7.366   6.823  67.056  1.00  0.00    -0.082 C  
HETATM   33  C   UNL     1      -8.181   5.846  66.167  1.00  0.00    -0.116 C  
HETATM   34  C   UNL     1      -9.262   5.163  67.048  1.00  0.00    -0.117 C  
HETATM   35  O   UNL     1      -8.813   6.595  65.117  1.00  0.00    -0.361 OA 
HETATM   36  C   UNL     1      -7.215   4.840  65.522  1.00  0.00    -0.071 C  
HETATM   37  H   UNL     1     -11.501   4.894  68.342  1.00  0.00     0.000 HD 
HETATM   38  H   UNL     1      -9.311   5.997  64.572  1.00  0.00     0.000 HD 
HETATM   39  C   UNL     1     -10.083   6.232  67.848  1.00  0.00    -0.145 C  
HETATM   40  O   UNL     1     -10.933   5.517  68.778  1.00  0.00    -0.145 OA 
BRANCH  34  41
HETATM   41  N   UNL     1     -10.132   4.103  66.453  1.00  0.00    -0.389 NA 
HETATM   42  C   UNL     1     -11.002   4.480  65.353  1.00  0.00     0.050 C  
HETATM   43  H   UNL     1     -10.115   3.147  66.808  1.00  0.00     0.000 HD 
ENDBRANCH  34  41
ENDBRANCH  29  30
ENDBRANCH  23  29
ENDBRANCH  14  15
ENDBRANCH   9  14
ENDBRANCH   4   5
ENDBRANCH   2   4
TORSDOF 7
ENDMDL
MODEL      178
REMARK 921   NORMALIZED FREE ENERGY PREDICTED BY IDOCK:   -4.47 KCAL/MOL
REMARK 922        TOTAL FREE ENERGY PREDICTED BY IDOCK:   -8.01 KCAL/MOL
REMARK 923 INTER-LIGAND FREE ENERGY PREDICTED BY IDOCK:   -6.73 KCAL/MOL
REMARK 924 INTRA-LIGAND FREE ENERGY PREDICTED BY IDOCK:   -1.28 KCAL/MOL
REMARK 927      BINDING AFFINITY PREDICTED BY RF-SCORE:    0.00 PKD
ROOT
HETATM    1  C   UNL     1     -10.889   8.759  70.617  1.00  0.00    -0.232 C  
HETATM    2  N   UNL     1     -11.395   9.244  71.892  1.00  0.00    -0.359 NA 
HETATM    3  H   UNL     1     -10.670   9.757  72.393  1.00  0.00     0.000 HD 
ENDROOT
BRANCH   2   4
HETATM    4  C   UNL     1     -12.618  10.052  71.779  1.00  0.00    -0.409 C  
BRANCH   4   5
HETATM    5  C   UNL     1     -12.419  11.525  71.330  1.00  0.00    -0.232 C  
HETATM    6  C   UNL     1     -13.311  12.515  72.056  1.00  0.00    -0.528 C  
HETATM    7  C   UNL     1     -12.988  13.927  71.568  1.00  0.00    -0.436 C  
HETATM    8  C   UNL     1     -12.910  14.024  70.029  1.00  0.00     0.059 C  
HETATM    9  C   UNL     1     -12.180  12.792  69.327  1.00  0.00    -0.054 C  
HETATM   10  N   UNL     1     -12.442  15.378  69.652  1.00  0.00    -0.605 NA 
HETATM   11  O   UNL     1     -12.705  11.605  69.914  1.00  0.00     0.002 OA 
HETATM   12  H1  UNL     1     -12.391  15.442  68.636  1.00  0.00     0.000 HD 
HETATM   13  H2  UNL     1     -11.560  15.624  70.102  1.00  0.00     0.000 HD 
BRANCH   9  14
HETATM   14  O   UNL     1     -10.733  12.813  69.324  1.00  0.00    -0.079 OA 
BRANCH  14  15
HETATM   15  C   UNL     1     -10.017  12.888  68.021  1.00  0.00    -0.236 C  
HETATM   16  C   UNL     1     -10.940  13.020  66.778  1.00  0.00    -0.276 C  
HETATM   17  N   UNL     1     -11.531  14.373  66.712  1.00  0.00    -0.357 NA 
HETATM   18  C   UNL     1     -10.180  12.791  65.456  1.00  0.00    -0.293 C  
HETATM   19  H2  UNL     1     -10.816  15.100  66.731  1.00  0.00     0.000 HD 
HETATM   20  H1  UNL     1     -12.137  14.459  65.897  1.00  0.00     0.000 HD 
HETATM   21  C   UNL     1      -9.448  11.441  65.415  1.00  0.00    -0.216 C  
HETATM   22  N   UNL     1      -8.919  11.183  64.071  1.00  0.00    -0.392 NA 
HETATM   23  C   UNL     1      -8.322  11.395  66.465  1.00  0.00    -0.164 C  
HETATM   24  C   UNL     1      -8.920  11.787  67.852  1.00  0.00    -0.180 C  
HETATM   25  O   UNL     1      -7.838  12.049  68.775  1.00  0.00    -0.237 OA 
HETATM   26  H1  UNL     1      -8.433  10.288  64.043  1.00  0.00     0.000 HD 
HETATM   27  H2  UNL     1      -8.326  11.947  63.744  1.00  0.00     0.000 HD 
HETATM   28  H   UNL     1      -7.171  11.379  68.673  1.00  0.00     0.000 HD 
BRANCH  23  29
HETATM   29  O   UNL     1      -7.834  10.029  66.609  1.00  0.00    -0.108 OA 
BRANCH  29  30
HETATM   30  C   UNL     1      -8.677   8.879  66.390  1.00  0.00    -0.129 C  
HETATM   31  O   UNL     1      -9.258   8.307  67.564  1.00  0.00    -0.136 OA 
HETATM   32  C   UNL     1     -10.194   7.264  67.247  1.00  0.00    -0.253 C  
HETATM   33  C   UNL     1      -9.546   6.060  66.515  1.00  0.00    -0.154 C  
HETATM   34  C   UNL     1      -8.888   6.575  65.205  1.00  0.00     0.131 C  
HETATM   35  O   UNL     1      -8.543   5.485  67.368  1.00  0.00    -0.110 OA 
HETATM   36  C   UNL     1     -10.625   4.996  66.260  1.00  0.00    -0.332 C  
HETATM   37  H   UNL     1      -7.098   7.686  63.681  1.00  0.00     0.000 HD 
HETATM   38  H   UNL     1      -8.147   4.747  66.919  1.00  0.00     0.000 HD 
HETATM   39  C   UNL     1      -7.956   7.801  65.497  1.00  0.00    -0.121 C  
HETATM   40  O   UNL     1      -7.534   8.336  64.219  1.00  0.00    -0.095 OA 
BRANCH  34  41
HETATM   41  N   UNL     1      -8.266   5.597  64.262  1.00  0.00    -0.150 NA 
HETATM   42  C   UNL     1      -6.998   5.000  64.644  1.00  0.00    -0.050 C  
HETATM   43  H   UNL     1      -8.717   5.355  63.379  1.00  0.00     0.000 HD 
ENDBRANCH  34  41
ENDBRANCH  29  30
ENDBRANCH  23  29
ENDBRANCH  14  15
ENDBRANCH   9  14
ENDBRANCH   4   5
ENDBRANCH   2   4
TORSDOF 7
ENDMDL
MODEL      179
REMARK 921   NORMALIZED FREE ENERGY PREDICTED BY IDOCK:   -4.47 KCAL/MOL
REMARK 922        TOTAL FREE ENERGY PREDICTED BY IDOCK:   -8.00 KCAL/MOL
REMARK 923 INTER-LIGAND FREE ENERGY PREDICTED BY IDOCK:   -6.96 KCAL/MOL
REMARK 924 INTRA-LIGAND FREE ENERGY PREDICTED BY IDOCK:   -1.05 KCAL/MOL
REMARK 927      BINDING AFFINITY PREDICTED BY RF-SCORE:    0.00 PKD
ROOT
HETATM    1  C   UNL     1      -8.663   6.618  73.019  1.00  0.00    -0.120 C  
HETATM    2  N   UNL     1      -8.862   6.562  71.579  1.00  0.00    -0.139 NA 
HETATM    3  H   UNL     1      -9.685   6.003  71.353  1.00  0.00     0.000 HD 
ENDROOT
BRANCH   2   4
HETATM    4  C   UNL     1      -8.942   7.883  70.937  1.00  0.00    -0.143 C  
BRANCH   4   5
HETATM    5  C   UNL     1      -8.522   7.937  69.443  1.00  0.00    -0.133 C  
HETATM    6  C   UNL     1      -7.746   6.718  68.978  1.00  0.00    -0.110 C  
HETATM    7  C   UNL     1      -7.436   6.864  67.488  1.00  0.00    -0.097 C  
HETATM    8  C   UNL     1      -6.872   8.255  67.129  1.00  0.00    -0.070 C  
HETATM    9  C   UNL     1      -7.584   9.470  67.879  1.00  0.00    -0.087 C  
HETATM   10  N   UNL     1      -6.749   8.362  65.656  1.00  0.00    -0.055 NA 
HETATM   11  O   UNL     1      -7.692   9.106  69.253  1.00  0.00    -0.077 OA 
HETATM   12  H1  UNL     1      -6.376   9.281  65.419  1.00  0.00     0.000 HD 
HETATM   13  H2  UNL     1      -7.627   8.164  65.177  1.00  0.00     0.000 HD 
BRANCH   9  14
HETATM   14  O   UNL     1      -8.842   9.923  67.327  1.00  0.00    -0.131 OA 
BRANCH  14  15
HETATM   15  C   UNL     1      -9.515  11.100  67.943  1.00  0.00    -0.175 C  
HETATM   16  C   UNL     1     -11.067  11.056  67.902  1.00  0.00    -0.288 C  
HETATM   17  N   UNL     1     -11.583  10.059  68.863  1.00  0.00    -0.498 NA 
HETATM   18  C   UNL     1     -11.702  12.413  68.271  1.00  0.00    -0.398 C  
HETATM   19  H2  UNL     1     -11.234  10.225  69.806  1.00  0.00     0.000 HD 
HETATM   20  H1  UNL     1     -12.602  10.030  68.836  1.00  0.00     0.000 HD 
HETATM   21  C   UNL     1     -11.195  13.567  67.393  1.00  0.00    -0.295 C  
HETATM   22  N   UNL     1     -11.975  14.784  67.643  1.00  0.00    -0.524 NA 
HETATM   23  C   UNL     1      -9.694  13.820  67.631  1.00  0.00    -0.227 C  
HETATM   24  C   UNL     1      -8.931  12.469  67.464  1.00  0.00    -0.185 C  
HETATM   25  O   UNL     1      -7.588  12.619  67.981  1.00  0.00    -0.109 OA 
HETATM   26  H1  UNL     1     -11.638  15.550  67.060  1.00  0.00     0.000 HD 
HETATM   27  H2  UNL     1     -11.981  15.034  68.632  1.00  0.00     0.000 HD 
HETATM   28  H   UNL     1      -7.232  13.451  67.690  1.00  0.00     0.000 HD 
BRANCH  23  29
HETATM   29  O   UNL     1      -9.171  14.707  66.601  1.00  0.00    -0.246 OA 
BRANCH  29  30
HETATM   30  C   UNL     1      -8.868  16.094  66.855  1.00  0.00    -0.219 C  
HETATM   31  O   UNL     1      -9.279  17.012  65.839  1.00  0.00    -0.504 OA 
HETATM   32  C   UNL     1      -9.075  18.378  66.233  1.00  0.00    -0.201 C  
HETATM   33  C   UNL     1      -7.584  18.727  66.483  1.00  0.00    -0.248 C  
HETATM   34  C   UNL     1      -7.036  17.785  67.590  1.00  0.00    -0.181 C  
HETATM   35  O   UNL     1      -6.850  18.522  65.265  1.00  0.00    -0.513 OA 
HETATM   36  C   UNL     1      -7.479  20.213  66.861  1.00  0.00    -0.320 C  
HETATM   37  H   UNL     1      -6.076  15.614  68.651  1.00  0.00     0.000 HD 
HETATM   38  H   UNL     1      -5.938  18.736  65.418  1.00  0.00     0.000 HD 
HETATM   39  C   UNL     1      -7.357  16.288  67.255  1.00  0.00    -0.182 C  
HETATM   40  O   UNL     1      -6.987  15.497  68.411  1.00  0.00    -0.109 OA 
BRANCH  34  41
HETATM   41  N   UNL     1      -5.638  17.971  68.087  1.00  0.00    -0.158 NA 
HETATM   42  C   UNL     1      -5.461  18.544  69.410  1.00  0.00    -0.214 C  
HETATM   43  H   UNL     1      -4.836  17.704  67.516  1.00  0.00     0.000 HD 
ENDBRANCH  34  41
ENDBRANCH  29  30
ENDBRANCH  23  29
ENDBRANCH  14  15
ENDBRANCH   9  14
ENDBRANCH   4   5
ENDBRANCH   2   4
TORSDOF 7
ENDMDL
MODEL      180
REMARK 921   NORMALIZED FREE ENERGY PREDICTED BY IDOCK:   -4.43 KCAL/MOL
REMARK 922        TOTAL FREE ENERGY PREDICTED BY IDOCK:   -7.95 KCAL/MOL
REMARK 923 INTER-LIGAND FREE ENERGY PREDICTED BY IDOCK:   -7.10 KCAL/MOL
REMARK 924 INTRA-LIGAND FREE ENERGY PREDICTED BY IDOCK:   -0.85 KCAL/MOL
REMARK 927      BINDING AFFINITY PREDICTED BY RF-SCORE:    0.00 PKD
ROOT
HETATM    1  C   UNL     1      -5.666  14.475  70.443  1.00  0.00    -0.144 C  
HETATM    2  N   UNL     1      -7.002  14.293  69.895  1.00  0.00    -0.363 NA 
HETATM    3  H   UNL     1      -7.606  13.827  70.571  1.00  0.00     0.000 HD 
ENDROOT
BRANCH   2   4
HETATM    4  C   UNL     1      -7.624  15.536  69.415  1.00  0.00    -0.225 C  
BRANCH   4   5
HETATM    5  C   UNL     1      -8.837  15.364  68.462  1.00  0.00    -0.183 C  
HETATM    6  C   UNL     1      -9.904  16.431  68.626  1.00  0.00    -0.234 C  
HETATM    7  C   UNL     1     -11.016  16.185  67.606  1.00  0.00    -0.268 C  
HETATM    8  C   UNL     1     -11.473  14.712  67.564  1.00  0.00    -0.361 C  
HETATM    9  C   UNL     1     -10.288  13.649  67.667  1.00  0.00    -0.239 C  
HETATM   10  N   UNL     1     -12.433  14.534  66.450  1.00  0.00    -0.405 NA 
HETATM   11  O   UNL     1      -9.437  14.074  68.728  1.00  0.00    -0.175 OA 
HETATM   12  H1  UNL     1     -12.735  13.560  66.422  1.00  0.00     0.000 HD 
HETATM   13  H2  UNL     1     -12.053  14.847  65.556  1.00  0.00     0.000 HD 
BRANCH   9  14
HETATM   14  O   UNL     1      -9.557  13.376  66.449  1.00  0.00    -0.269 OA 
BRANCH  14  15
HETATM   15  C   UNL     1      -9.113  11.981  66.174  1.00  0.00    -0.129 C  
HETATM   16  C   UNL     1      -9.934  11.239  65.085  1.00  0.00    -0.264 C  
HETATM   17  N   UNL     1      -9.617  11.772  63.744  1.00  0.00    -0.505 NA 
HETATM   18  C   UNL     1      -9.635   9.726  65.054  1.00  0.00    -0.333 C  
HETATM   19  H2  UNL     1      -8.617  11.742  63.550  1.00  0.00     0.000 HD 
HETATM   20  H1  UNL     1     -10.157  11.285  63.028  1.00  0.00     0.000 HD 
HETATM   21  C   UNL     1      -9.851   9.048  66.415  1.00  0.00    -0.286 C  
HETATM   22  N   UNL     1      -9.757   7.590  66.284  1.00  0.00    -0.423 NA 
HETATM   23  C   UNL     1      -8.843   9.571  67.456  1.00  0.00    -0.125 C  
HETATM   24  C   UNL     1      -8.908  11.130  67.470  1.00  0.00    -0.139 C  
HETATM   25  O   UNL     1      -7.770  11.643  68.201  1.00  0.00    -0.107 OA 
HETATM   26  H1  UNL     1      -9.900   7.139  67.187  1.00  0.00     0.000 HD 
HETATM   27  H2  UNL     1      -8.877   7.304  65.854  1.00  0.00     0.000 HD 
HETATM   28  H   UNL     1      -7.645  11.126  68.988  1.00  0.00     0.000 HD 
BRANCH  23  29
HETATM   29  O   UNL     1      -9.239   9.140  68.790  1.00  0.00    -0.135 OA 
BRANCH  29  30
HETATM   30  C   UNL     1      -9.291   7.750  69.171  1.00  0.00    -0.151 C  
HETATM   31  O   UNL     1     -10.602   7.193  69.296  1.00  0.00    -0.213 OA 
HETATM   32  C   UNL     1     -10.563   5.776  69.532  1.00  0.00    -0.319 C  
HETATM   33  C   UNL     1      -9.859   5.395  70.861  1.00  0.00    -0.188 C  
HETATM   34  C   UNL     1      -8.408   5.950  70.826  1.00  0.00    -0.125 C  
HETATM   35  O   UNL     1     -10.579   5.989  71.953  1.00  0.00    -0.212 OA 
HETATM   36  C   UNL     1      -9.908   3.869  71.028  1.00  0.00    -0.219 C  
HETATM   37  H   UNL     1      -6.487   7.693  71.013  1.00  0.00     0.000 HD 
HETATM   38  H   UNL     1     -10.147   5.755  72.766  1.00  0.00     0.000 HD 
HETATM   39  C   UNL     1      -8.403   7.470  70.442  1.00  0.00    -0.128 C  
HETATM   40  O   UNL     1      -7.023   7.862  70.246  1.00  0.00    -0.048 OA 
BRANCH  34  41
HETATM   41  N   UNL     1      -7.477   5.644  71.955  1.00  0.00    -0.093 NA 
HETATM   42  C   UNL     1      -7.465   6.553  73.087  1.00  0.00    -0.089 C  
HETATM   43  H   UNL     1      -6.872   4.823  71.930  1.00  0.00     0.000 HD 
ENDBRANCH  34  41
ENDBRANCH  29  30
ENDBRANCH  23  29
ENDBRANCH  14  15
ENDBRANCH   9  14
ENDBRANCH   4   5
ENDBRANCH   2   4
TORSDOF 7
ENDMDL
MODEL      181
REMARK 921   NORMALIZED FREE ENERGY PREDICTED BY IDOCK:   -4.42 KCAL/MOL
REMARK 922        TOTAL FREE ENERGY PREDICTED BY IDOCK:   -7.94 KCAL/MOL
REMARK 923 INTER-LIGAND FREE ENERGY PREDICTED BY IDOCK:   -7.29 KCAL/MOL
REMARK 924 INTRA-LIGAND FREE ENERGY PREDICTED BY IDOCK:   -0.65 KCAL/MOL
REMARK 927      BINDING AFFINITY PREDICTED BY RF-SCORE:    0.00 PKD
ROOT
HETATM    1  C   UNL     1      -7.398   5.822  73.671  1.00  0.00    -0.086 C  
HETATM    2  N   UNL     1      -7.583   6.595  72.452  1.00  0.00    -0.094 NA 
HETATM    3  H   UNL     1      -8.277   6.154  71.850  1.00  0.00     0.000 HD 
ENDROOT
BRANCH   2   4
HETATM    4  C   UNL     1      -7.925   8.006  72.688  1.00  0.00    -0.134 C  
BRANCH   4   5
HETATM    5  C   UNL     1      -9.357   8.435  72.269  1.00  0.00    -0.286 C  
HETATM    6  C   UNL     1     -10.460   7.728  73.036  1.00  0.00    -0.432 C  
HETATM    7  C   UNL     1     -11.814   8.269  72.574  1.00  0.00    -0.439 C  
HETATM    8  C   UNL     1     -11.936   8.337  71.037  1.00  0.00    -0.241 C  
HETATM    9  C   UNL     1     -10.621   8.845  70.291  1.00  0.00    -0.218 C  
HETATM   10  N   UNL     1     -13.206   9.013  70.682  1.00  0.00    -0.267 NA 
HETATM   11  O   UNL     1      -9.520   8.143  70.862  1.00  0.00    -0.158 OA 
HETATM   12  H1  UNL     1     -13.287   9.058  69.667  1.00  0.00     0.000 HD 
HETATM   13  H2  UNL     1     -13.293   9.931  71.119  1.00  0.00     0.000 HD 
BRANCH   9  14
HETATM   14  O   UNL     1     -10.407  10.275  70.260  1.00  0.00    -0.245 OA 
BRANCH  14  15
HETATM   15  C   UNL     1     -11.095  11.083  69.215  1.00  0.00    -0.254 C  
HETATM   16  C   UNL     1     -10.697  10.732  67.755  1.00  0.00    -0.251 C  
HETATM   17  N   UNL     1     -11.275   9.432  67.357  1.00  0.00    -0.271 NA 
HETATM   18  C   UNL     1     -11.198  11.782  66.742  1.00  0.00    -0.388 C  
HETATM   19  H2  UNL     1     -12.286   9.411  67.489  1.00  0.00     0.000 HD 
HETATM   20  H1  UNL     1     -11.013   9.202  66.399  1.00  0.00     0.000 HD 
HETATM   21  C   UNL     1     -10.730  13.206  67.078  1.00  0.00    -0.262 C  
HETATM   22  N   UNL     1     -11.056  14.126  65.982  1.00  0.00    -0.310 NA 
HETATM   23  C   UNL     1     -11.351  13.690  68.402  1.00  0.00    -0.295 C  
HETATM   24  C   UNL     1     -11.070  12.619  69.502  1.00  0.00     0.014 C  
HETATM   25  O   UNL     1     -11.898  12.901  70.656  1.00  0.00    -0.522 OA 
HETATM   26  H1  UNL     1     -10.745  15.071  66.205  1.00  0.00     0.000 HD 
HETATM   27  H2  UNL     1     -12.048  14.099  65.746  1.00  0.00     0.000 HD 
HETATM   28  H   UNL     1     -11.883  13.835  70.830  1.00  0.00     0.000 HD 
BRANCH  23  29
HETATM   29  O   UNL     1     -10.684  14.907  68.846  1.00  0.00    -0.229 OA 
BRANCH  29  30
HETATM   30  C   UNL     1      -9.313  15.205  68.510  1.00  0.00    -0.192 C  
HETATM   31  O   UNL     1      -8.352  14.925  69.532  1.00  0.00    -0.137 OA 
HETATM   32  C   UNL     1      -7.006  15.110  69.068  1.00  0.00    -0.131 C  
HETATM   33  C   UNL     1      -6.698  16.570  68.644  1.00  0.00    -0.152 C  
HETATM   34  C   UNL     1      -7.689  16.976  67.518  1.00  0.00    -0.170 C  
HETATM   35  O   UNL     1      -6.877  17.430  69.781  1.00  0.00    -0.061 OA 
HETATM   36  C   UNL     1      -5.229  16.660  68.203  1.00  0.00    -0.114 C  
HETATM   37  H   UNL     1      -9.916  17.773  66.438  1.00  0.00     0.000 HD 
HETATM   38  H   UNL     1      -6.689  18.324  69.521  1.00  0.00     0.000 HD 
HETATM   39  C   UNL     1      -9.167  16.666  67.941  1.00  0.00    -0.219 C  
HETATM   40  O   UNL     1     -10.004  16.892  66.781  1.00  0.00    -0.267 OA 
BRANCH  34  41
HETATM   41  N   UNL     1      -7.551  18.313  66.865  1.00  0.00    -0.211 NA 
HETATM   42  C   UNL     1      -6.735  18.400  65.667  1.00  0.00    -0.269 C  
HETATM   43  H   UNL     1      -8.015  19.137  67.248  1.00  0.00     0.000 HD 
ENDBRANCH  34  41
ENDBRANCH  29  30
ENDBRANCH  23  29
ENDBRANCH  14  15
ENDBRANCH   9  14
ENDBRANCH   4   5
ENDBRANCH   2   4
TORSDOF 7
ENDMDL
MODEL      182
REMARK 921   NORMALIZED FREE ENERGY PREDICTED BY IDOCK:   -4.41 KCAL/MOL
REMARK 922        TOTAL FREE ENERGY PREDICTED BY IDOCK:   -7.93 KCAL/MOL
REMARK 923 INTER-LIGAND FREE ENERGY PREDICTED BY IDOCK:   -6.90 KCAL/MOL
REMARK 924 INTRA-LIGAND FREE ENERGY PREDICTED BY IDOCK:   -1.03 KCAL/MOL
REMARK 927      BINDING AFFINITY PREDICTED BY RF-SCORE:    0.00 PKD
ROOT
HETATM    1  C   UNL     1     -10.381  18.188  68.508  1.00  0.00    -0.336 C  
HETATM    2  N   UNL     1     -10.312  16.775  68.851  1.00  0.00    -0.297 NA 
HETATM    3  H   UNL     1     -10.255  16.654  69.862  1.00  0.00     0.000 HD 
ENDROOT
BRANCH   2   4
HETATM    4  C   UNL     1     -11.413  15.974  68.296  1.00  0.00    -0.291 C  
BRANCH   4   5
HETATM    5  C   UNL     1     -11.009  14.623  67.646  1.00  0.00    -0.293 C  
HETATM    6  C   UNL     1     -10.473  14.757  66.232  1.00  0.00    -0.300 C  
HETATM    7  C   UNL     1     -10.063  13.376  65.722  1.00  0.00    -0.297 C  
HETATM    8  C   UNL     1     -11.137  12.298  65.985  1.00  0.00    -0.309 C  
HETATM    9  C   UNL     1     -11.841  12.403  67.413  1.00  0.00    -0.289 C  
HETATM   10  N   UNL     1     -10.597  10.973  65.603  1.00  0.00    -0.231 NA 
HETATM   11  O   UNL     1     -12.178  13.773  67.613  1.00  0.00    -0.337 OA 
HETATM   12  H1  UNL     1     -11.307  10.261  65.777  1.00  0.00     0.000 HD 
HETATM   13  H2  UNL     1      -9.715  10.763  66.072  1.00  0.00     0.000 HD 
BRANCH   9  14
HETATM   14  O   UNL     1     -11.116  11.843  68.533  1.00  0.00    -0.209 OA 
BRANCH  14  15
HETATM   15  C   UNL     1     -11.781  10.811  69.375  1.00  0.00    -0.306 C  
HETATM   16  C   UNL     1     -12.275  11.318  70.758  1.00  0.00    -0.380 C  
HETATM   17  N   UNL     1     -13.463  12.181  70.600  1.00  0.00     0.905 NA 
HETATM   18  C   UNL     1     -12.675  10.162  71.698  1.00  0.00    -0.549 C  
HETATM   19  H2  UNL     1     -14.206  11.712  70.081  1.00  0.00     0.000 HD 
HETATM   20  H1  UNL     1     -13.787  12.514  71.507  1.00  0.00     0.000 HD 
HETATM   21  C   UNL     1     -11.547   9.137  71.896  1.00  0.00    -0.360 C  
HETATM   22  N   UNL     1     -11.901   8.181  72.951  1.00  0.00    -0.551 NA 
HETATM   23  C   UNL     1     -11.231   8.407  70.577  1.00  0.00    -0.238 C  
HETATM   24  C   UNL     1     -10.975   9.474  69.468  1.00  0.00    -0.195 C  
HETATM   25  O   UNL     1     -10.984   8.823  68.176  1.00  0.00    -0.465 OA 
HETATM   26  H1  UNL     1     -11.154   7.500  73.082  1.00  0.00     0.000 HD 
HETATM   27  H2  UNL     1     -12.797   7.729  72.767  1.00  0.00     0.000 HD 
HETATM   28  H   UNL     1     -10.494   8.010  68.232  1.00  0.00     0.000 HD 
BRANCH  23  29
HETATM   29  O   UNL     1      -9.988   7.659  70.711  1.00  0.00    -0.182 OA 
BRANCH  29  30
HETATM   30  C   UNL     1      -9.955   6.219  70.792  1.00  0.00    -0.187 C  
HETATM   31  O   UNL     1      -9.303   5.680  71.945  1.00  0.00    -0.145 OA 
HETATM   32  C   UNL     1      -9.443   4.253  72.023  1.00  0.00    -0.135 C  
HETATM   33  C   UNL     1      -8.789   3.507  70.831  1.00  0.00    -0.083 C  
HETATM   34  C   UNL     1      -9.440   4.015  69.514  1.00  0.00    -0.187 C  
HETATM   35  O   UNL     1      -7.382   3.796  70.819  1.00  0.00    -0.037 OA 
HETATM   36  C   UNL     1      -8.965   1.994  71.036  1.00  0.00    -0.137 C  
HETATM   37  H   UNL     1      -9.882   5.594  67.496  1.00  0.00     0.000 HD 
HETATM   38  H   UNL     1      -6.982   3.338  70.089  1.00  0.00     0.000 HD 
HETATM   39  C   UNL     1      -9.421   5.581  69.454  1.00  0.00    -0.133 C  
HETATM   40  O   UNL     1     -10.205   5.978  68.303  1.00  0.00    -0.150 OA 
BRANCH  34  41
HETATM   41  N   UNL     1      -9.050   3.389  68.214  1.00  0.00    -0.139 NA 
HETATM   42  C   UNL     1      -7.636   3.174  67.963  1.00  0.00    -0.057 C  
HETATM   43  H   UNL     1      -9.755   3.123  67.526  1.00  0.00     0.000 HD 
ENDBRANCH  34  41
ENDBRANCH  29  30
ENDBRANCH  23  29
ENDBRANCH  14  15
ENDBRANCH   9  14
ENDBRANCH   4   5
ENDBRANCH   2   4
TORSDOF 7
ENDMDL
MODEL      183
REMARK 921   NORMALIZED FREE ENERGY PREDICTED BY IDOCK:   -4.40 KCAL/MOL
REMARK 922        TOTAL FREE ENERGY PREDICTED BY IDOCK:   -7.91 KCAL/MOL
REMARK 923 INTER-LIGAND FREE ENERGY PREDICTED BY IDOCK:   -6.94 KCAL/MOL
REMARK 924 INTRA-LIGAND FREE ENERGY PREDICTED BY IDOCK:   -0.97 KCAL/MOL
REMARK 927      BINDING AFFINITY PREDICTED BY RF-SCORE:    0.00 PKD
ROOT
HETATM    1  C   UNL     1      -6.963  19.999  68.514  1.00  0.00    -0.289 C  
HETATM    2  N   UNL     1      -6.409  18.732  68.061  1.00  0.00    -0.207 NA 
HETATM    3  H   UNL     1      -5.390  18.755  68.094  1.00  0.00     0.000 HD 
ENDROOT
BRANCH   2   4
HETATM    4  C   UNL     1      -6.924  17.563  68.789  1.00  0.00    -0.237 C  
BRANCH   4   5
HETATM    5  C   UNL     1      -7.987  16.714  68.041  1.00  0.00    -0.171 C  
HETATM    6  C   UNL     1      -8.357  17.257  66.673  1.00  0.00    -0.291 C  
HETATM    7  C   UNL     1      -9.366  16.314  66.019  1.00  0.00    -0.361 C  
HETATM    8  C   UNL     1     -10.516  15.916  66.970  1.00  0.00    -0.306 C  
HETATM    9  C   UNL     1     -10.060  15.619  68.469  1.00  0.00    -0.211 C  
HETATM   10  N   UNL     1     -11.354  14.887  66.312  1.00  0.00    -0.334 NA 
HETATM   11  O   UNL     1      -9.183  16.673  68.855  1.00  0.00    -0.247 OA 
HETATM   12  H1  UNL     1     -12.114  14.624  66.940  1.00  0.00     0.000 HD 
HETATM   13  H2  UNL     1     -10.810  14.081  66.003  1.00  0.00     0.000 HD 
BRANCH   9  14
HETATM   14  O   UNL     1      -9.498  14.311  68.726  1.00  0.00    -0.197 OA 
BRANCH  14  15
HETATM   15  C   UNL     1     -10.368  13.112  68.570  1.00  0.00    -0.238 C  
HETATM   16  C   UNL     1     -11.500  12.987  69.626  1.00  0.00    -0.183 C  
HETATM   17  N   UNL     1     -12.559  13.985  69.371  1.00  0.00    -0.402 NA 
HETATM   18  C   UNL     1     -12.170  11.597  69.607  1.00  0.00    -0.271 C  
HETATM   19  H2  UNL     1     -12.920  13.919  68.419  1.00  0.00     0.000 HD 
HETATM   20  H1  UNL     1     -13.302  13.903  70.064  1.00  0.00     0.000 HD 
HETATM   21  C   UNL     1     -11.166  10.449  69.787  1.00  0.00    -0.293 C  
HETATM   22  N   UNL     1     -11.870   9.174  69.969  1.00  0.00    -0.439 NA 
HETATM   23  C   UNL     1     -10.196  10.374  68.593  1.00  0.00    -0.181 C  
HETATM   24  C   UNL     1      -9.564  11.785  68.378  1.00  0.00    -0.191 C  
HETATM   25  O   UNL     1      -8.901  11.813  67.092  1.00  0.00    -0.161 OA 
HETATM   26  H1  UNL     1     -11.203   8.412  70.089  1.00  0.00     0.000 HD 
HETATM   27  H2  UNL     1     -12.523   8.991  69.207  1.00  0.00     0.000 HD 
HETATM   28  H   UNL     1      -8.412  11.006  66.975  1.00  0.00     0.000 HD 
BRANCH  23  29
HETATM   29  O   UNL     1      -9.088   9.481  68.909  1.00  0.00    -0.136 OA 
BRANCH  29  30
HETATM   30  C   UNL     1      -8.610   8.484  67.983  1.00  0.00    -0.134 C  
HETATM   31  O   UNL     1      -7.572   8.913  67.097  1.00  0.00    -0.090 OA 
HETATM   32  C   UNL     1      -7.053   7.827  66.313  1.00  0.00    -0.070 C  
HETATM   33  C   UNL     1      -8.111   7.183  65.379  1.00  0.00    -0.137 C  
HETATM   34  C   UNL     1      -9.290   6.670  66.251  1.00  0.00    -0.105 C  
HETATM   35  O   UNL     1      -8.586   8.181  64.461  1.00  0.00    -0.380 OA 
HETATM   36  C   UNL     1      -7.441   6.065  64.566  1.00  0.00    -0.081 C  
HETATM   37  H   UNL     1     -11.477   6.775  67.653  1.00  0.00     0.000 HD 
HETATM   38  H   UNL     1      -9.234   7.787  63.889  1.00  0.00     0.000 HD 
HETATM   39  C   UNL     1      -9.800   7.795  67.215  1.00  0.00    -0.189 C  
HETATM   40  O   UNL     1     -10.760   7.191  68.116  1.00  0.00    -0.203 OA 
BRANCH  34  41
HETATM   41  N   UNL     1     -10.411   5.923  65.603  1.00  0.00     0.027 NA 
HETATM   42  C   UNL     1     -10.528   4.502  65.881  1.00  0.00    -0.226 C  
HETATM   43  H   UNL     1     -11.072   6.396  64.986  1.00  0.00     0.000 HD 
ENDBRANCH  34  41
ENDBRANCH  29  30
ENDBRANCH  23  29
ENDBRANCH  14  15
ENDBRANCH   9  14
ENDBRANCH   4   5
ENDBRANCH   2   4
TORSDOF 7
ENDMDL
MODEL      184
REMARK 921   NORMALIZED FREE ENERGY PREDICTED BY IDOCK:   -4.39 KCAL/MOL
REMARK 922        TOTAL FREE ENERGY PREDICTED BY IDOCK:   -7.90 KCAL/MOL
REMARK 923 INTER-LIGAND FREE ENERGY PREDICTED BY IDOCK:   -7.85 KCAL/MOL
REMARK 924 INTRA-LIGAND FREE ENERGY PREDICTED BY IDOCK:   -0.04 KCAL/MOL
REMARK 927      BINDING AFFINITY PREDICTED BY RF-SCORE:    0.00 PKD
ROOT
HETATM    1  C   UNL     1     -13.292  14.223  71.957  1.00  0.00    -0.398 C  
HETATM    2  N   UNL     1     -13.262  14.784  70.615  1.00  0.00    -0.583 NA 
HETATM    3  H   UNL     1     -13.284  15.803  70.652  1.00  0.00     0.000 HD 
ENDROOT
BRANCH   2   4
HETATM    4  C   UNL     1     -12.127  14.321  69.802  1.00  0.00    -0.347 C  
BRANCH   4   5
HETATM    5  C   UNL     1     -11.175  15.427  69.274  1.00  0.00    -0.296 C  
HETATM    6  C   UNL     1     -10.943  16.560  70.257  1.00  0.00    -0.178 C  
HETATM    7  C   UNL     1      -9.954  17.554  69.648  1.00  0.00     0.272 C  
HETATM    8  C   UNL     1     -10.304  17.927  68.192  1.00  0.00    -0.389 C  
HETATM    9  C   UNL     1     -10.798  16.702  67.297  1.00  0.00    -0.158 C  
HETATM   10  N   UNL     1      -9.217  18.765  67.633  1.00  0.00    -0.283 NA 
HETATM   11  O   UNL     1     -11.753  15.980  68.069  1.00  0.00    -0.202 OA 
HETATM   12  H1  UNL     1      -9.448  19.011  66.670  1.00  0.00     0.000 HD 
HETATM   13  H2  UNL     1      -8.303  18.319  67.710  1.00  0.00     0.000 HD 
BRANCH   9  14
HETATM   14  O   UNL     1      -9.769  15.846  66.749  1.00  0.00    -0.225 OA 
BRANCH  14  15
HETATM   15  C   UNL     1     -10.149  14.825  65.734  1.00  0.00    -0.339 C  
HETATM   16  C   UNL     1     -11.457  15.136  64.956  1.00  0.00    -0.339 C  
HETATM   17  N   UNL     1     -11.240  16.239  63.997  1.00  0.00    -1.342 NA 
HETATM   18  C   UNL     1     -11.961  13.923  64.146  1.00  0.00    -0.464 C  
HETATM   19  H2  UNL     1     -10.461  16.046  63.367  1.00  0.00     0.000 HD 
HETATM   20  H1  UNL     1     -12.098  16.444  63.487  1.00  0.00     0.000 HD 
HETATM   21  C   UNL     1     -12.160  12.670  65.012  1.00  0.00    -0.444 C  
HETATM   22  N   UNL     1     -12.832  11.616  64.243  1.00  0.00    -0.112 NA 
HETATM   23  C   UNL     1     -10.816  12.168  65.571  1.00  0.00    -0.283 C  
HETATM   24  C   UNL     1     -10.097  13.360  66.278  1.00  0.00    -0.299 C  
HETATM   25  O   UNL     1      -8.720  12.996  66.532  1.00  0.00    -0.418 OA 
HETATM   26  H1  UNL     1     -12.964  10.784  64.818  1.00  0.00     0.000 HD 
HETATM   27  H2  UNL     1     -12.335  11.404  63.378  1.00  0.00     0.000 HD 
HETATM   28  H   UNL     1      -8.688  12.105  66.863  1.00  0.00     0.000 HD 
BRANCH  23  29
HETATM   29  O   UNL     1     -11.050  11.170  66.606  1.00  0.00    -0.270 OA 
BRANCH  29  30
HETATM   30  C   UNL     1      -9.980  10.417  67.211  1.00  0.00    -0.188 C  
HETATM   31  O   UNL     1      -9.058  11.177  67.997  1.00  0.00    -0.143 OA 
HETATM   32  C   UNL     1      -8.115  10.337  68.681  1.00  0.00    -0.114 C  
HETATM   33  C   UNL     1      -7.213   9.519  67.720  1.00  0.00    -0.082 C  
HETATM   34  C   UNL     1      -8.123   8.640  66.818  1.00  0.00    -0.101 C  
HETATM   35  O   UNL     1      -6.458  10.430  66.906  1.00  0.00    -0.070 OA 
HETATM   36  C   UNL     1      -6.223   8.690  68.553  1.00  0.00    -0.053 C  
HETATM   37  H   UNL     1      -9.717   8.046  64.852  1.00  0.00     0.000 HD 
HETATM   38  H   UNL     1      -5.906   9.929  66.318  1.00  0.00     0.000 HD 
HETATM   39  C   UNL     1      -9.249   9.506  66.154  1.00  0.00    -0.177 C  
HETATM   40  O   UNL     1     -10.158   8.595  65.489  1.00  0.00     0.330 OA 
BRANCH  34  41
HETATM   41  N   UNL     1      -7.498   7.682  65.856  1.00  0.00    -0.080 NA 
HETATM   42  C   UNL     1      -7.033   8.207  64.584  1.00  0.00    -0.075 C  
HETATM   43  H   UNL     1      -7.401   6.693  66.086  1.00  0.00     0.000 HD 
ENDBRANCH  34  41
ENDBRANCH  29  30
ENDBRANCH  23  29
ENDBRANCH  14  15
ENDBRANCH   9  14
ENDBRANCH   4   5
ENDBRANCH   2   4
TORSDOF 7
ENDMDL
MODEL      185
REMARK 921   NORMALIZED FREE ENERGY PREDICTED BY IDOCK:   -4.38 KCAL/MOL
REMARK 922        TOTAL FREE ENERGY PREDICTED BY IDOCK:   -7.89 KCAL/MOL
REMARK 923 INTER-LIGAND FREE ENERGY PREDICTED BY IDOCK:   -8.42 KCAL/MOL
REMARK 924 INTRA-LIGAND FREE ENERGY PREDICTED BY IDOCK:    0.53 KCAL/MOL
REMARK 927      BINDING AFFINITY PREDICTED BY RF-SCORE:    0.00 PKD
ROOT
HETATM    1  C   UNL     1     -12.302  13.351  70.705  1.00  0.00    -0.354 C  
HETATM    2  N   UNL     1     -12.747  14.160  69.581  1.00  0.00    -0.414 NA 
HETATM    3  H   UNL     1     -13.542  14.740  69.849  1.00  0.00     0.000 HD 
ENDROOT
BRANCH   2   4
HETATM    4  C   UNL     1     -11.686  14.983  68.982  1.00  0.00    -0.325 C  
BRANCH   4   5
HETATM    5  C   UNL     1     -11.136  14.491  67.616  1.00  0.00    -0.304 C  
HETATM    6  C   UNL     1     -12.215  14.160  66.601  1.00  0.00    -0.450 C  
HETATM    7  C   UNL     1     -11.554  13.740  65.289  1.00  0.00    -0.330 C  
HETATM    8  C   UNL     1     -10.420  12.712  65.494  1.00  0.00    -0.281 C  
HETATM    9  C   UNL     1      -9.489  13.000  66.756  1.00  0.00    -0.250 C  
HETATM   10  N   UNL     1      -9.737  12.481  64.199  1.00  0.00    -0.580 NA 
HETATM   11  O   UNL     1     -10.349  13.300  67.851  1.00  0.00    -0.228 OA 
HETATM   12  H1  UNL     1      -8.988  11.803  64.335  1.00  0.00     0.000 HD 
HETATM   13  H2  UNL     1      -9.403  13.347  63.776  1.00  0.00     0.000 HD 
BRANCH   9  14
HETATM   14  O   UNL     1      -8.451  13.994  66.580  1.00  0.00    -0.065 OA 
BRANCH  14  15
HETATM   15  C   UNL     1      -7.293  13.997  67.517  1.00  0.00    -0.170 C  
HETATM   16  C   UNL     1      -7.493  13.146  68.801  1.00  0.00    -0.050 C  
HETATM   17  N   UNL     1      -7.433  11.705  68.483  1.00  0.00    -0.106 NA 
HETATM   18  C   UNL     1      -6.407  13.422  69.862  1.00  0.00    -0.060 C  
HETATM   19  H2  UNL     1      -6.571  11.459  67.996  1.00  0.00     0.000 HD 
HETATM   20  H1  UNL     1      -7.564  11.147  69.326  1.00  0.00     0.000 HD 
HETATM   21  C   UNL     1      -6.305  14.909  70.238  1.00  0.00    -0.138 C  
HETATM   22  N   UNL     1      -5.412  15.088  71.389  1.00  0.00    -0.054 NA 
HETATM   23  C   UNL     1      -5.826  15.747  69.037  1.00  0.00    -0.106 C  
HETATM   24  C   UNL     1      -6.741  15.430  67.814  1.00  0.00    -0.166 C  
HETATM   25  O   UNL     1      -6.127  15.960  66.616  1.00  0.00    -0.128 OA 
HETATM   26  H1  UNL     1      -5.344  16.074  71.638  1.00  0.00     0.000 HD 
HETATM   27  H2  UNL     1      -4.495  14.674  71.224  1.00  0.00     0.000 HD 
HETATM   28  H   UNL     1      -5.792  16.831  66.796  1.00  0.00     0.000 HD 
BRANCH  23  29
HETATM   29  O   UNL     1      -6.008  17.165  69.319  1.00  0.00    -0.182 OA 
BRANCH  29  30
HETATM   30  C   UNL     1      -7.160  17.903  68.862  1.00  0.00    -0.264 C  
HETATM   31  O   UNL     1      -8.302  17.114  68.521  1.00  0.00    -0.245 OA 
HETATM   32  C   UNL     1      -9.446  17.928  68.219  1.00  0.00    -0.300 C  
HETATM   33  C   UNL     1      -9.236  18.849  66.988  1.00  0.00    -0.303 C  
HETATM   34  C   UNL     1      -8.012  19.765  67.261  1.00  0.00    -0.285 C  
HETATM   35  O   UNL     1      -8.981  18.030  65.835  1.00  0.00    -0.506 OA 
HETATM   36  C   UNL     1     -10.528  19.642  66.735  1.00  0.00    -0.605 C  
HETATM   37  H   UNL     1      -5.513  20.459  67.445  1.00  0.00     0.000 HD 
HETATM   38  H   UNL     1      -8.853  18.594  65.082  1.00  0.00     0.000 HD 
HETATM   39  C   UNL     1      -6.776  18.918  67.721  1.00  0.00    -0.210 C  
HETATM   40  O   UNL     1      -5.745  19.847  68.134  1.00  0.00    -0.208 OA 
BRANCH  34  41
HETATM   41  N   UNL     1      -7.644  20.816  66.264  1.00  0.00    -0.510 NA 
HETATM   42  C   UNL     1      -6.790  20.429  65.155  1.00  0.00    -0.238 C  
HETATM   43  H   UNL     1      -7.983  21.774  66.360  1.00  0.00     0.000 HD 
ENDBRANCH  34  41
ENDBRANCH  29  30
ENDBRANCH  23  29
ENDBRANCH  14  15
ENDBRANCH   9  14
ENDBRANCH   4   5
ENDBRANCH   2   4
TORSDOF 7
ENDMDL
MODEL      186
REMARK 921   NORMALIZED FREE ENERGY PREDICTED BY IDOCK:   -4.38 KCAL/MOL
REMARK 922        TOTAL FREE ENERGY PREDICTED BY IDOCK:   -7.88 KCAL/MOL
REMARK 923 INTER-LIGAND FREE ENERGY PREDICTED BY IDOCK:   -7.83 KCAL/MOL
REMARK 924 INTRA-LIGAND FREE ENERGY PREDICTED BY IDOCK:   -0.05 KCAL/MOL
REMARK 927      BINDING AFFINITY PREDICTED BY RF-SCORE:    0.00 PKD
ROOT
HETATM    1  C   UNL     1     -12.412  12.764  71.066  1.00  0.00    -0.277 C  
HETATM    2  N   UNL     1     -11.484  13.305  70.085  1.00  0.00    -0.515 NA 
HETATM    3  H   UNL     1     -11.164  12.571  69.452  1.00  0.00     0.000 HD 
ENDROOT
BRANCH   2   4
HETATM    4  C   UNL     1     -12.017  14.446  69.327  1.00  0.00    -0.324 C  
BRANCH   4   5
HETATM    5  C   UNL     1     -10.973  15.290  68.547  1.00  0.00    -0.266 C  
HETATM    6  C   UNL     1     -10.877  16.732  69.011  1.00  0.00    -0.291 C  
HETATM    7  C   UNL     1      -9.787  17.442  68.209  1.00  0.00    -0.310 C  
HETATM    8  C   UNL     1      -9.896  17.181  66.691  1.00  0.00    -0.289 C  
HETATM    9  C   UNL     1     -10.267  15.679  66.305  1.00  0.00    -0.299 C  
HETATM   10  N   UNL     1      -8.720  17.773  66.013  1.00  0.00    -0.514 NA 
HETATM   11  O   UNL     1     -11.345  15.284  67.149  1.00  0.00    -0.323 OA 
HETATM   12  H1  UNL     1      -8.792  17.601  65.010  1.00  0.00     0.000 HD 
HETATM   13  H2  UNL     1      -7.838  17.439  66.401  1.00  0.00     0.000 HD 
BRANCH   9  14
HETATM   14  O   UNL     1      -9.181  14.723  66.312  1.00  0.00    -0.283 OA 
BRANCH  14  15
HETATM   15  C   UNL     1      -8.719  14.170  67.616  1.00  0.00    -0.187 C  
HETATM   16  C   UNL     1      -7.324  14.674  68.078  1.00  0.00    -0.135 C  
HETATM   17  N   UNL     1      -7.402  16.081  68.522  1.00  0.00    -0.140 NA 
HETATM   18  C   UNL     1      -6.767  13.855  69.260  1.00  0.00    -0.108 C  
HETATM   19  H2  UNL     1      -8.110  16.212  69.244  1.00  0.00     0.000 HD 
HETATM   20  H1  UNL     1      -6.486  16.412  68.825  1.00  0.00     0.000 HD 
HETATM   21  C   UNL     1      -6.700  12.349  68.963  1.00  0.00    -0.100 C  
HETATM   22  N   UNL     1      -5.976  11.646  70.029  1.00  0.00    -0.138 NA 
HETATM   23  C   UNL     1      -8.112  11.762  68.781  1.00  0.00    -0.047 C  
HETATM   24  C   UNL     1      -8.872  12.617  67.719  1.00  0.00    -0.179 C  
HETATM   25  O   UNL     1     -10.278  12.280  67.761  1.00  0.00    -0.196 OA 
HETATM   26  H1  UNL     1      -5.932  10.647  69.832  1.00  0.00     0.000 HD 
HETATM   27  H2  UNL     1      -6.379  11.834  70.948  1.00  0.00     0.000 HD 
HETATM   28  H   UNL     1     -10.372  11.336  67.825  1.00  0.00     0.000 HD 
BRANCH  23  29
HETATM   29  O   UNL     1      -8.022  10.418  68.224  1.00  0.00    -0.106 OA 
BRANCH  29  30
HETATM   30  C   UNL     1      -8.747   9.301  68.777  1.00  0.00    -0.132 C  
HETATM   31  O   UNL     1      -9.951   8.946  68.093  1.00  0.00    -0.163 OA 
HETATM   32  C   UNL     1     -10.531   7.740  68.615  1.00  0.00    -0.172 C  
HETATM   33  C   UNL     1     -10.958   7.859  70.102  1.00  0.00    -0.233 C  
HETATM   34  C   UNL     1      -9.708   8.235  70.945  1.00  0.00    -0.172 C  
HETATM   35  O   UNL     1     -11.949   8.892  70.217  1.00  0.00    -0.473 OA 
HETATM   36  C   UNL     1     -11.595   6.533  70.543  1.00  0.00    -0.455 C  
HETATM   37  H   UNL     1      -7.866   9.748  71.983  1.00  0.00     0.000 HD 
HETATM   38  H   UNL     1     -12.211   8.964  71.127  1.00  0.00     0.000 HD 
HETATM   39  C   UNL     1      -8.973   9.474  70.327  1.00  0.00    -0.248 C  
HETATM   40  O   UNL     1      -7.730   9.644  71.049  1.00  0.00    -0.323 OA 
BRANCH  34  41
HETATM   41  N   UNL     1      -9.826   8.326  72.432  1.00  0.00    -0.278 NA 
HETATM   42  C   UNL     1      -9.117   7.340  73.229  1.00  0.00    -0.159 C  
HETATM   43  H   UNL     1     -10.386   9.056  72.873  1.00  0.00     0.000 HD 
ENDBRANCH  34  41
ENDBRANCH  29  30
ENDBRANCH  23  29
ENDBRANCH  14  15
ENDBRANCH   9  14
ENDBRANCH   4   5
ENDBRANCH   2   4
TORSDOF 7
ENDMDL
MODEL      187
REMARK 921   NORMALIZED FREE ENERGY PREDICTED BY IDOCK:   -4.37 KCAL/MOL
REMARK 922        TOTAL FREE ENERGY PREDICTED BY IDOCK:   -7.87 KCAL/MOL
REMARK 923 INTER-LIGAND FREE ENERGY PREDICTED BY IDOCK:   -6.53 KCAL/MOL
REMARK 924 INTRA-LIGAND FREE ENERGY PREDICTED BY IDOCK:   -1.34 KCAL/MOL
REMARK 927      BINDING AFFINITY PREDICTED BY RF-SCORE:    0.00 PKD
ROOT
HETATM    1  C   UNL     1     -10.902   7.212  68.613  1.00  0.00    -0.108 C  
HETATM    2  N   UNL     1     -10.898   8.150  69.725  1.00  0.00    -0.347 NA 
HETATM    3  H   UNL     1     -10.180   7.897  70.404  1.00  0.00     0.000 HD 
ENDROOT
BRANCH   2   4
HETATM    4  C   UNL     1     -10.753   9.556  69.318  1.00  0.00    -0.222 C  
BRANCH   4   5
HETATM    5  C   UNL     1     -11.403  10.605  70.261  1.00  0.00    -0.319 C  
HETATM    6  C   UNL     1     -12.418  10.019  71.226  1.00  0.00    -0.494 C  
HETATM    7  C   UNL     1     -12.947  11.133  72.129  1.00  0.00    -0.220 C  
HETATM    8  C   UNL     1     -13.349  12.399  71.342  1.00  0.00     0.056 C  
HETATM    9  C   UNL     1     -12.350  12.788  70.161  1.00  0.00    -0.165 C  
HETATM   10  N   UNL     1     -13.699  13.474  72.301  1.00  0.00    -0.564 NA 
HETATM   11  O   UNL     1     -12.070  11.592  69.440  1.00  0.00    -0.306 OA 
HETATM   12  H1  UNL     1     -13.965  14.310  71.781  1.00  0.00     0.000 HD 
HETATM   13  H2  UNL     1     -12.952  13.655  72.971  1.00  0.00     0.000 HD 
BRANCH   9  14
HETATM   14  O   UNL     1     -11.149  13.500  70.540  1.00  0.00     0.443 OA 
BRANCH  14  15
HETATM   15  C   UNL     1     -10.800  14.757  69.820  1.00  0.00    -0.198 C  
HETATM   16  C   UNL     1     -12.020  15.581  69.324  1.00  0.00    -0.316 C  
HETATM   17  N   UNL     1     -12.702  16.234  70.461  1.00  0.00    -0.213 NA 
HETATM   18  C   UNL     1     -11.612  16.696  68.338  1.00  0.00     0.121 C  
HETATM   19  H2  UNL     1     -12.059  16.802  71.013  1.00  0.00     0.000 HD 
HETATM   20  H1  UNL     1     -13.502  16.775  70.135  1.00  0.00     0.000 HD 
HETATM   21  C   UNL     1     -10.822  16.166  67.132  1.00  0.00    -0.216 C  
HETATM   22  N   UNL     1     -10.641  17.223  66.131  1.00  0.00    -0.263 NA 
HETATM   23  C   UNL     1      -9.463  15.592  67.576  1.00  0.00    -0.208 C  
HETATM   24  C   UNL     1      -9.709  14.558  68.718  1.00  0.00    -0.210 C  
HETATM   25  O   UNL     1      -8.446  14.244  69.351  1.00  0.00    -0.358 OA 
HETATM   26  H1  UNL     1     -10.116  16.871  65.331  1.00  0.00     0.000 HD 
HETATM   27  H2  UNL     1     -10.207  18.054  66.533  1.00  0.00     0.000 HD 
HETATM   28  H   UNL     1      -7.783  14.124  68.682  1.00  0.00     0.000 HD 
BRANCH  23  29
HETATM   29  O   UNL     1      -8.859  14.844  66.480  1.00  0.00    -0.266 OA 
BRANCH  29  30
HETATM   30  C   UNL     1      -9.202  13.472  66.199  1.00  0.00     0.029 C  
HETATM   31  O   UNL     1      -8.127  12.535  66.292  1.00  0.00     0.300 OA 
HETATM   32  C   UNL     1      -8.580  11.180  66.143  1.00  0.00    -0.172 C  
HETATM   33  C   UNL     1      -9.215  10.895  64.756  1.00  0.00    -0.201 C  
HETATM   34  C   UNL     1     -10.413  11.863  64.555  1.00  0.00    -0.296 C  
HETATM   35  O   UNL     1      -8.227  11.128  63.739  1.00  0.00    -0.344 OA 
HETATM   36  C   UNL     1      -9.627   9.416  64.693  1.00  0.00     0.104 C  
HETATM   37  H   UNL     1     -11.658  14.076  63.994  1.00  0.00     0.000 HD 
HETATM   38  H   UNL     1      -8.616  10.953  62.890  1.00  0.00     0.000 HD 
HETATM   39  C   UNL     1      -9.985  13.344  64.838  1.00  0.00    -0.136 C  
HETATM   40  O   UNL     1     -11.187  14.152  64.815  1.00  0.00    -0.349 OA 
BRANCH  34  41
HETATM   41  N   UNL     1     -11.260  11.738  63.329  1.00  0.00    -0.691 NA 
HETATM   42  C   UNL     1     -12.699  11.851  63.487  1.00  0.00    -0.405 C  
HETATM   43  H   UNL     1     -10.840  11.578  62.413  1.00  0.00     0.000 HD 
ENDBRANCH  34  41
ENDBRANCH  29  30
ENDBRANCH  23  29
ENDBRANCH  14  15
ENDBRANCH   9  14
ENDBRANCH   4   5
ENDBRANCH   2   4
TORSDOF 7
ENDMDL
MODEL      188
REMARK 921   NORMALIZED FREE ENERGY PREDICTED BY IDOCK:   -4.36 KCAL/MOL
REMARK 922        TOTAL FREE ENERGY PREDICTED BY IDOCK:   -7.86 KCAL/MOL
REMARK 923 INTER-LIGAND FREE ENERGY PREDICTED BY IDOCK:   -7.47 KCAL/MOL
REMARK 924 INTRA-LIGAND FREE ENERGY PREDICTED BY IDOCK:   -0.39 KCAL/MOL
REMARK 927      BINDING AFFINITY PREDICTED BY RF-SCORE:    0.00 PKD
ROOT
HETATM    1  C   UNL     1      -5.736   2.486  68.990  1.00  0.00    -0.022 C  
HETATM    2  N   UNL     1      -5.570   3.605  69.905  1.00  0.00    -0.016 NA 
HETATM    3  H   UNL     1      -5.523   4.484  69.391  1.00  0.00     0.000 HD 
ENDROOT
BRANCH   2   4
HETATM    4  C   UNL     1      -6.599   3.674  70.954  1.00  0.00    -0.031 C  
BRANCH   4   5
HETATM    5  C   UNL     1      -7.932   4.360  70.552  1.00  0.00    -0.059 C  
HETATM    6  C   UNL     1      -8.923   3.430  69.875  1.00  0.00    -0.172 C  
HETATM    7  C   UNL     1     -10.207   4.202  69.575  1.00  0.00     0.363 C  
HETATM    8  C   UNL     1      -9.940   5.572  68.915  1.00  0.00    -0.174 C  
HETATM    9  C   UNL     1      -8.699   6.368  69.524  1.00  0.00    -0.133 C  
HETATM   10  N   UNL     1     -11.218   6.313  68.804  1.00  0.00    -0.500 NA 
HETATM   11  O   UNL     1      -7.624   5.440  69.640  1.00  0.00    -0.067 OA 
HETATM   12  H1  UNL     1     -11.042   7.218  68.368  1.00  0.00     0.000 HD 
HETATM   13  H2  UNL     1     -11.695   6.402  69.701  1.00  0.00     0.000 HD 
BRANCH   9  14
HETATM   14  O   UNL     1      -8.938   7.094  70.753  1.00  0.00    -0.151 OA 
BRANCH  14  15
HETATM   15  C   UNL     1      -9.506   8.469  70.677  1.00  0.00    -0.174 C  
HETATM   16  C   UNL     1     -11.025   8.563  70.985  1.00  0.00    -0.249 C  
HETATM   17  N   UNL     1     -11.275   8.368  72.428  1.00  0.00    -0.371 NA 
HETATM   18  C   UNL     1     -11.618   9.935  70.602  1.00  0.00    -0.413 C  
HETATM   19  H2  UNL     1     -10.732   9.017  72.997  1.00  0.00     0.000 HD 
HETATM   20  H1  UNL     1     -12.272   8.429  72.630  1.00  0.00     0.000 HD 
HETATM   21  C   UNL     1     -11.364  10.305  69.132  1.00  0.00    -0.186 C  
HETATM   22  N   UNL     1     -12.119  11.509  68.768  1.00  0.00    -0.471 NA 
HETATM   23  C   UNL     1      -9.859  10.500  68.867  1.00  0.00    -0.201 C  
HETATM   24  C   UNL     1      -9.098   9.237  69.377  1.00  0.00    -0.152 C  
HETATM   25  O   UNL     1      -7.681   9.527  69.422  1.00  0.00    -0.081 OA 
HETATM   26  H1  UNL     1     -11.951  11.755  67.793  1.00  0.00     0.000 HD 
HETATM   27  H2  UNL     1     -11.916  12.287  69.396  1.00  0.00     0.000 HD 
HETATM   28  H   UNL     1      -7.433   9.994  68.632  1.00  0.00     0.000 HD 
BRANCH  23  29
HETATM   29  O   UNL     1      -9.614  10.564  67.432  1.00  0.00    -0.156 OA 
BRANCH  29  30
HETATM   30  C   UNL     1      -9.717  11.793  66.684  1.00  0.00    -0.202 C  
HETATM   31  O   UNL     1     -10.059  12.953  67.447  1.00  0.00    -0.219 OA 
HETATM   32  C   UNL     1      -9.997  14.152  66.658  1.00  0.00    -0.277 C  
HETATM   33  C   UNL     1     -11.002  14.162  65.476  1.00  0.00    -0.310 C  
HETATM   34  C   UNL     1     -10.708  12.935  64.570  1.00  0.00    -0.371 C  
HETATM   35  O   UNL     1     -12.335  14.068  66.003  1.00  0.00    -0.445 OA 
HETATM   36  C   UNL     1     -10.876  15.498  64.729  1.00  0.00    -0.385 C  
HETATM   37  H   UNL     1     -10.737  10.458  63.780  1.00  0.00     0.000 HD 
HETATM   38  H   UNL     1     -12.950  14.074  65.279  1.00  0.00     0.000 HD 
HETATM   39  C   UNL     1     -10.640  11.620  65.419  1.00  0.00    -0.280 C  
HETATM   40  O   UNL     1     -10.180  10.562  64.543  1.00  0.00    -0.348 OA 
BRANCH  34  41
HETATM   41  N   UNL     1     -11.482  12.756  63.303  1.00  0.00    -0.782 NA 
HETATM   42  C   UNL     1     -12.646  11.889  63.337  1.00  0.00    -0.431 C  
HETATM   43  H   UNL     1     -11.201  13.228  62.443  1.00  0.00     0.000 HD 
ENDBRANCH  34  41
ENDBRANCH  29  30
ENDBRANCH  23  29
ENDBRANCH  14  15
ENDBRANCH   9  14
ENDBRANCH   4   5
ENDBRANCH   2   4
TORSDOF 7
ENDMDL
MODEL      189
REMARK 921   NORMALIZED FREE ENERGY PREDICTED BY IDOCK:   -4.31 KCAL/MOL
REMARK 922        TOTAL FREE ENERGY PREDICTED BY IDOCK:   -7.78 KCAL/MOL
REMARK 923 INTER-LIGAND FREE ENERGY PREDICTED BY IDOCK:   -7.54 KCAL/MOL
REMARK 924 INTRA-LIGAND FREE ENERGY PREDICTED BY IDOCK:   -0.24 KCAL/MOL
REMARK 927      BINDING AFFINITY PREDICTED BY RF-SCORE:    0.00 PKD
ROOT
HETATM    1  C   UNL     1     -12.864  14.246  70.641  1.00  0.00    -0.314 C  
HETATM    2  N   UNL     1     -12.385  15.229  71.602  1.00  0.00    -0.332 NA 
HETATM    3  H   UNL     1     -11.866  14.772  72.352  1.00  0.00     0.000 HD 
ENDROOT
BRANCH   2   4
HETATM    4  C   UNL     1     -11.586  16.307  71.002  1.00  0.00    -0.303 C  
BRANCH   4   5
HETATM    5  C   UNL     1     -10.825  15.943  69.699  1.00  0.00    -0.314 C  
HETATM    6  C   UNL     1      -9.314  16.018  69.828  1.00  0.00     0.093 C  
HETATM    7  C   UNL     1      -8.679  15.590  68.504  1.00  0.00    -0.184 C  
HETATM    8  C   UNL     1      -9.331  16.271  67.282  1.00  0.00    -0.224 C  
HETATM    9  C   UNL     1     -10.920  16.387  67.360  1.00  0.00    -0.145 C  
HETATM   10  N   UNL     1      -8.765  15.686  66.043  1.00  0.00    -0.378 NA 
HETATM   11  O   UNL     1     -11.241  16.864  68.663  1.00  0.00    -0.258 OA 
HETATM   12  H1  UNL     1      -9.196  16.136  65.236  1.00  0.00     0.000 HD 
HETATM   13  H2  UNL     1      -8.857  14.671  66.016  1.00  0.00     0.000 HD 
BRANCH   9  14
HETATM   14  O   UNL     1     -11.672  15.203  67.004  1.00  0.00    -0.261 OA 
BRANCH  14  15
HETATM   15  C   UNL     1     -11.251  14.414  65.813  1.00  0.00    -0.326 C  
HETATM   16  C   UNL     1     -12.197  14.532  64.587  1.00  0.00    -0.460 C  
HETATM   17  N   UNL     1     -12.061  15.860  63.953  1.00  0.00    -1.210 NA 
HETATM   18  C   UNL     1     -11.888  13.478  63.504  1.00  0.00    -0.313 C  
HETATM   19  H2  UNL     1     -11.093  16.064  63.706  1.00  0.00     0.000 HD 
HETATM   20  H1  UNL     1     -12.682  15.937  63.148  1.00  0.00     0.000 HD 
HETATM   21  C   UNL     1     -11.920  12.040  64.045  1.00  0.00    -0.403 C  
HETATM   22  N   UNL     1     -11.827  11.074  62.945  1.00  0.00    -0.182 NA 
HETATM   23  C   UNL     1     -10.793  11.813  65.070  1.00  0.00    -0.295 C  
HETATM   24  C   UNL     1     -10.873  12.935  66.152  1.00  0.00    -0.279 C  
HETATM   25  O   UNL     1      -9.655  12.923  66.934  1.00  0.00    -0.226 OA 
HETATM   26  H1  UNL     1     -11.848  10.120  63.303  1.00  0.00     0.000 HD 
HETATM   27  H2  UNL     1     -11.007  11.242  62.362  1.00  0.00     0.000 HD 
HETATM   28  H   UNL     1      -9.425  12.024  67.140  1.00  0.00     0.000 HD 
BRANCH  23  29
HETATM   29  O   UNL     1     -11.010  10.557  65.776  1.00  0.00     0.033 OA 
BRANCH  29  30
HETATM   30  C   UNL     1     -10.063   9.470  65.730  1.00  0.00    -0.153 C  
HETATM   31  O   UNL     1     -10.337   8.375  66.608  1.00  0.00    -0.303 OA 
HETATM   32  C   UNL     1      -9.437   7.277  66.395  1.00  0.00    -0.127 C  
HETATM   33  C   UNL     1      -7.954   7.635  66.682  1.00  0.00    -0.107 C  
HETATM   34  C   UNL     1      -7.547   8.819  65.763  1.00  0.00    -0.086 C  
HETATM   35  O   UNL     1      -7.831   8.026  68.059  1.00  0.00    -0.121 OA 
HETATM   36  C   UNL     1      -7.090   6.385  66.460  1.00  0.00    -0.068 C  
HETATM   37  H   UNL     1      -7.350  11.279  64.943  1.00  0.00     0.000 HD 
HETATM   38  H   UNL     1      -6.923   8.245  68.234  1.00  0.00     0.000 HD 
HETATM   39  C   UNL     1      -8.584   9.990  65.872  1.00  0.00    -0.139 C  
HETATM   40  O   UNL     1      -8.243  10.965  64.857  1.00  0.00    -0.042 OA 
BRANCH  34  41
HETATM   41  N   UNL     1      -6.134   9.306  65.775  1.00  0.00    -0.055 NA 
HETATM   42  C   UNL     1      -5.359   9.165  64.555  1.00  0.00    -0.054 C  
HETATM   43  H   UNL     1      -5.728   9.723  66.613  1.00  0.00     0.000 HD 
ENDBRANCH  34  41
ENDBRANCH  29  30
ENDBRANCH  23  29
ENDBRANCH  14  15
ENDBRANCH   9  14
ENDBRANCH   4   5
ENDBRANCH   2   4
TORSDOF 7
ENDMDL
MODEL      190
REMARK 921   NORMALIZED FREE ENERGY PREDICTED BY IDOCK:   -4.28 KCAL/MOL
REMARK 922        TOTAL FREE ENERGY PREDICTED BY IDOCK:   -7.75 KCAL/MOL
REMARK 923 INTER-LIGAND FREE ENERGY PREDICTED BY IDOCK:   -6.66 KCAL/MOL
REMARK 924 INTRA-LIGAND FREE ENERGY PREDICTED BY IDOCK:   -1.08 KCAL/MOL
REMARK 927      BINDING AFFINITY PREDICTED BY RF-SCORE:    0.00 PKD
ROOT
HETATM    1  C   UNL     1      -5.281  10.740  65.200  1.00  0.00    -0.141 C  
HETATM    2  N   UNL     1      -6.257  10.883  66.270  1.00  0.00    -0.125 NA 
HETATM    3  H   UNL     1      -6.754  11.769  66.187  1.00  0.00     0.000 HD 
ENDROOT
BRANCH   2   4
HETATM    4  C   UNL     1      -7.207   9.764  66.363  1.00  0.00    -0.095 C  
BRANCH   4   5
HETATM    5  C   UNL     1      -6.777   8.584  67.276  1.00  0.00    -0.063 C  
HETATM    6  C   UNL     1      -5.991   7.504  66.556  1.00  0.00    -0.040 C  
HETATM    7  C   UNL     1      -5.583   6.429  67.564  1.00  0.00    -0.009 C  
HETATM    8  C   UNL     1      -6.752   5.984  68.469  1.00  0.00    -0.061 C  
HETATM    9  C   UNL     1      -7.692   7.174  68.965  1.00  0.00    -0.109 C  
HETATM   10  N   UNL     1      -6.237   5.064  69.509  1.00  0.00    -0.028 NA 
HETATM   11  O   UNL     1      -7.973   7.986  67.829  1.00  0.00    -0.122 OA 
HETATM   12  H1  UNL     1      -7.009   4.770  70.107  1.00  0.00     0.000 HD 
HETATM   13  H2  UNL     1      -5.468   5.471  70.041  1.00  0.00     0.000 HD 
BRANCH   9  14
HETATM   14  O   UNL     1      -7.216   7.947  70.092  1.00  0.00    -0.056 OA 
BRANCH  14  15
HETATM   15  C   UNL     1      -8.203   8.448  71.088  1.00  0.00    -0.131 C  
HETATM   16  C   UNL     1      -8.624   7.411  72.165  1.00  0.00    -0.113 C  
HETATM   17  N   UNL     1      -7.526   7.188  73.128  1.00  0.00    -0.072 NA 
HETATM   18  C   UNL     1      -9.853   7.872  72.975  1.00  0.00    -0.355 C  
HETATM   19  H2  UNL     1      -7.207   8.061  73.548  1.00  0.00     0.000 HD 
HETATM   20  H1  UNL     1      -7.803   6.507  73.835  1.00  0.00     0.000 HD 
HETATM   21  C   UNL     1     -11.059   8.214  72.087  1.00  0.00    -0.321 C  
HETATM   22  N   UNL     1     -12.253   8.445  72.908  1.00  0.00    -0.561 NA 
HETATM   23  C   UNL     1     -10.759   9.438  71.201  1.00  0.00    -0.347 C  
HETATM   24  C   UNL     1      -9.421   9.182  70.439  1.00  0.00    -0.227 C  
HETATM   25  O   UNL     1      -8.968  10.425  69.851  1.00  0.00    -0.394 OA 
HETATM   26  H1  UNL     1     -13.053   8.672  72.319  1.00  0.00     0.000 HD 
HETATM   27  H2  UNL     1     -12.091   9.158  73.620  1.00  0.00     0.000 HD 
HETATM   28  H   UNL     1      -9.709  10.871  69.456  1.00  0.00     0.000 HD 
BRANCH  23  29
HETATM   29  O   UNL     1     -11.786   9.571  70.175  1.00  0.00    -0.180 OA 
BRANCH  29  30
HETATM   30  C   UNL     1     -11.975  10.787  69.423  1.00  0.00    -0.281 C  
HETATM   31  O   UNL     1     -11.283  10.854  68.174  1.00  0.00    -0.255 OA 
HETATM   32  C   UNL     1     -11.640  12.026  67.425  1.00  0.00    -0.318 C  
HETATM   33  C   UNL     1     -11.264  13.350  68.141  1.00  0.00    -0.273 C  
HETATM   34  C   UNL     1     -11.980  13.384  69.519  1.00  0.00    -0.319 C  
HETATM   35  O   UNL     1      -9.841  13.385  68.333  1.00  0.00    -0.229 OA 
HETATM   36  C   UNL     1     -11.654  14.530  67.238  1.00  0.00    -0.405 C  
HETATM   37  H   UNL     1     -12.406  12.855  72.029  1.00  0.00     0.000 HD 
HETATM   38  H   UNL     1      -9.611  14.195  68.771  1.00  0.00     0.000 HD 
HETATM   39  C   UNL     1     -11.718  12.059  70.315  1.00  0.00    -0.179 C  
HETATM   40  O   UNL     1     -12.561  12.088  71.491  1.00  0.00    -0.279 OA 
BRANCH  34  41
HETATM   41  N   UNL     1     -11.857  14.600  70.380  1.00  0.00    -0.286 NA 
HETATM   42  C   UNL     1     -13.008  15.481  70.475  1.00  0.00    -0.290 C  
HETATM   43  H   UNL     1     -10.994  14.804  70.884  1.00  0.00     0.000 HD 
ENDBRANCH  34  41
ENDBRANCH  29  30
ENDBRANCH  23  29
ENDBRANCH  14  15
ENDBRANCH   9  14
ENDBRANCH   4   5
ENDBRANCH   2   4
TORSDOF 7
ENDMDL
MODEL      191
REMARK 921   NORMALIZED FREE ENERGY PREDICTED BY IDOCK:   -4.28 KCAL/MOL
REMARK 922        TOTAL FREE ENERGY PREDICTED BY IDOCK:   -7.75 KCAL/MOL
REMARK 923 INTER-LIGAND FREE ENERGY PREDICTED BY IDOCK:   -8.13 KCAL/MOL
REMARK 924 INTRA-LIGAND FREE ENERGY PREDICTED BY IDOCK:    0.38 KCAL/MOL
REMARK 927      BINDING AFFINITY PREDICTED BY RF-SCORE:    0.00 PKD
ROOT
HETATM    1  C   UNL     1      -9.281   2.745  68.911  1.00  0.00    -0.161 C  
HETATM    2  N   UNL     1      -9.242   3.115  70.318  1.00  0.00    -0.132 NA 
HETATM    3  H   UNL     1      -8.808   2.377  70.871  1.00  0.00     0.000 HD 
ENDROOT
BRANCH   2   4
HETATM    4  C   UNL     1      -8.588   4.407  70.576  1.00  0.00    -0.081 C  
BRANCH   4   5
HETATM    5  C   UNL     1      -9.492   5.516  71.179  1.00  0.00    -0.159 C  
HETATM    6  C   UNL     1     -10.261   5.080  72.413  1.00  0.00    -0.254 C  
HETATM    7  C   UNL     1     -11.069   6.265  72.941  1.00  0.00    -0.268 C  
HETATM    8  C   UNL     1     -11.850   6.998  71.829  1.00  0.00    -0.312 C  
HETATM    9  C   UNL     1     -11.045   7.176  70.464  1.00  0.00    -0.271 C  
HETATM   10  N   UNL     1     -12.475   8.215  72.399  1.00  0.00    -0.532 NA 
HETATM   11  O   UNL     1     -10.444   5.919  70.167  1.00  0.00    -0.217 OA 
HETATM   12  H1  UNL     1     -12.991   8.699  71.664  1.00  0.00     0.000 HD 
HETATM   13  H2  UNL     1     -11.796   8.821  72.859  1.00  0.00     0.000 HD 
BRANCH   9  14
HETATM   14  O   UNL     1     -10.097   8.267  70.410  1.00  0.00    -0.187 OA 
BRANCH  14  15
HETATM   15  C   UNL     1      -9.391   8.544  69.129  1.00  0.00    -0.153 C  
HETATM   16  C   UNL     1      -8.077   9.361  69.273  1.00  0.00    -0.105 C  
HETATM   17  N   UNL     1      -7.011   8.527  69.864  1.00  0.00    -0.042 NA 
HETATM   18  C   UNL     1      -7.554   9.874  67.915  1.00  0.00    -0.090 C  
HETATM   19  H2  UNL     1      -6.866   7.666  69.336  1.00  0.00     0.000 HD 
HETATM   20  H1  UNL     1      -6.149   9.063  69.959  1.00  0.00     0.000 HD 
HETATM   21  C   UNL     1      -8.596  10.702  67.149  1.00  0.00    -0.127 C  
HETATM   22  N   UNL     1      -7.986  11.335  65.974  1.00  0.00    -0.355 NA 
HETATM   23  C   UNL     1      -9.798   9.831  66.740  1.00  0.00    -0.208 C  
HETATM   24  C   UNL     1     -10.333   9.096  68.009  1.00  0.00    -0.222 C  
HETATM   25  O   UNL     1     -11.247   8.052  67.599  1.00  0.00    -0.402 OA 
HETATM   26  H1  UNL     1      -8.677  11.885  65.465  1.00  0.00     0.000 HD 
HETATM   27  H2  UNL     1      -7.527  10.651  65.371  1.00  0.00     0.000 HD 
HETATM   28  H   UNL     1     -11.819   8.387  66.919  1.00  0.00     0.000 HD 
BRANCH  23  29
HETATM   29  O   UNL     1     -10.889  10.678  66.276  1.00  0.00    -0.150 OA 
BRANCH  29  30
HETATM   30  C   UNL     1     -11.164  11.971  66.853  1.00  0.00    -0.320 C  
HETATM   31  O   UNL     1     -10.273  13.020  66.467  1.00  0.00    -0.258 OA 
HETATM   32  C   UNL     1     -10.701  14.298  66.964  1.00  0.00    -0.290 C  
HETATM   33  C   UNL     1     -10.732  14.374  68.514  1.00  0.00    -0.253 C  
HETATM   34  C   UNL     1     -11.689  13.270  69.042  1.00  0.00    -0.322 C  
HETATM   35  O   UNL     1      -9.405  14.145  69.015  1.00  0.00    -0.385 OA 
HETATM   36  C   UNL     1     -11.164  15.787  68.933  1.00  0.00    -0.332 C  
HETATM   37  H   UNL     1     -12.474  10.894  69.748  1.00  0.00     0.000 HD 
HETATM   38  H   UNL     1      -9.424  14.192  69.963  1.00  0.00     0.000 HD 
HETATM   39  C   UNL     1     -11.332  11.878  68.416  1.00  0.00    -0.276 C  
HETATM   40  O   UNL     1     -12.373  10.950  68.805  1.00  0.00    -0.495 OA 
BRANCH  34  41
HETATM   41  N   UNL     1     -11.970  13.182  70.508  1.00  0.00    -0.527 NA 
HETATM   42  C   UNL     1     -13.141  13.875  71.016  1.00  0.00    -0.243 C  
HETATM   43  H   UNL     1     -11.359  12.652  71.130  1.00  0.00     0.000 HD 
ENDBRANCH  34  41
ENDBRANCH  29  30
ENDBRANCH  23  29
ENDBRANCH  14  15
ENDBRANCH   9  14
ENDBRANCH   4   5
ENDBRANCH   2   4
TORSDOF 7
ENDMDL
MODEL      192
REMARK 921   NORMALIZED FREE ENERGY PREDICTED BY IDOCK:   -4.25 KCAL/MOL
REMARK 922        TOTAL FREE ENERGY PREDICTED BY IDOCK:   -7.70 KCAL/MOL
REMARK 923 INTER-LIGAND FREE ENERGY PREDICTED BY IDOCK:   -6.75 KCAL/MOL
REMARK 924 INTRA-LIGAND FREE ENERGY PREDICTED BY IDOCK:   -0.96 KCAL/MOL
REMARK 927      BINDING AFFINITY PREDICTED BY RF-SCORE:    0.00 PKD
ROOT
HETATM    1  C   UNL     1     -12.390  14.845  64.334  1.00  0.00    -0.323 C  
HETATM    2  N   UNL     1     -11.705  13.708  63.737  1.00  0.00    -0.665 NA 
HETATM    3  H   UNL     1     -10.730  13.939  63.544  1.00  0.00     0.000 HD 
ENDROOT
BRANCH   2   4
HETATM    4  C   UNL     1     -11.797  12.474  64.530  1.00  0.00    -0.383 C  
BRANCH   4   5
HETATM    5  C   UNL     1     -10.951  12.439  65.832  1.00  0.00    -0.288 C  
HETATM    6  C   UNL     1      -9.722  13.330  65.791  1.00  0.00    -0.149 C  
HETATM    7  C   UNL     1      -9.004  13.251  67.138  1.00  0.00    -0.229 C  
HETATM    8  C   UNL     1      -8.824  11.800  67.635  1.00  0.00    -0.162 C  
HETATM    9  C   UNL     1     -10.087  10.857  67.390  1.00  0.00    -0.191 C  
HETATM   10  N   UNL     1      -8.265  11.824  69.007  1.00  0.00    -0.368 NA 
HETATM   11  O   UNL     1     -10.519  11.076  66.050  1.00  0.00    -0.253 OA 
HETATM   12  H1  UNL     1      -8.146  10.866  69.334  1.00  0.00     0.000 HD 
HETATM   13  H2  UNL     1      -8.828  12.386  69.646  1.00  0.00     0.000 HD 
BRANCH   9  14
HETATM   14  O   UNL     1     -11.170  10.967  68.344  1.00  0.00    -0.229 OA 
BRANCH  14  15
HETATM   15  C   UNL     1     -11.385   9.861  69.317  1.00  0.00    -0.067 C  
HETATM   16  C   UNL     1     -11.193  10.258  70.807  1.00  0.00    -0.293 C  
HETATM   17  N   UNL     1     -12.318  11.096  71.269  1.00  0.00    -0.331 NA 
HETATM   18  C   UNL     1     -11.129   9.029  71.738  1.00  0.00    -0.444 C  
HETATM   19  H2  UNL     1     -13.218  10.644  71.111  1.00  0.00     0.000 HD 
HETATM   20  H1  UNL     1     -12.191  11.357  72.247  1.00  0.00     0.000 HD 
HETATM   21  C   UNL     1     -10.042   8.025  71.326  1.00  0.00    -0.185 C  
HETATM   22  N   UNL     1      -9.885   6.988  72.352  1.00  0.00    -0.153 NA 
HETATM   23  C   UNL     1     -10.366   7.396  69.957  1.00  0.00    -0.219 C  
HETATM   24  C   UNL     1     -10.634   8.544  68.935  1.00  0.00    -0.144 C  
HETATM   25  O   UNL     1     -11.235   7.983  67.743  1.00  0.00    -0.381 OA 
HETATM   26  H1  UNL     1      -9.164   6.321  72.079  1.00  0.00     0.000 HD 
HETATM   27  H2  UNL     1     -10.769   6.525  72.562  1.00  0.00     0.000 HD 
HETATM   28  H   UNL     1     -10.778   7.182  67.511  1.00  0.00     0.000 HD 
BRANCH  23  29
HETATM   29  O   UNL     1      -9.203   6.675  69.456  1.00  0.00    -0.143 OA 
BRANCH  29  30
HETATM   30  C   UNL     1      -9.312   5.411  68.769  1.00  0.00    -0.128 C  
HETATM   31  O   UNL     1      -8.950   4.260  69.535  1.00  0.00    -0.086 OA 
HETATM   32  C   UNL     1      -9.226   3.038  68.832  1.00  0.00    -0.163 C  
HETATM   33  C   UNL     1      -8.417   2.892  67.517  1.00  0.00    -0.089 C  
HETATM   34  C   UNL     1      -8.747   4.100  66.597  1.00  0.00    -0.114 C  
HETATM   35  O   UNL     1      -7.015   2.892  67.833  1.00  0.00    -0.048 OA 
HETATM   36  C   UNL     1      -8.760   1.541  66.870  1.00  0.00    -0.120 C  
HETATM   37  H   UNL     1      -8.643   6.529  65.678  1.00  0.00     0.000 HD 
HETATM   38  H   UNL     1      -6.520   2.802  67.028  1.00  0.00     0.000 HD 
HETATM   39  C   UNL     1      -8.581   5.451  67.374  1.00  0.00    -0.108 C  
HETATM   40  O   UNL     1      -9.084   6.506  66.519  1.00  0.00    -0.143 OA 
BRANCH  34  41
HETATM   41  N   UNL     1      -8.164   4.157  65.222  1.00  0.00    -0.101 NA 
HETATM   42  C   UNL     1      -6.782   4.582  65.090  1.00  0.00    -0.049 C  
HETATM   43  H   UNL     1      -8.719   3.906  64.404  1.00  0.00     0.000 HD 
ENDBRANCH  34  41
ENDBRANCH  29  30
ENDBRANCH  23  29
ENDBRANCH  14  15
ENDBRANCH   9  14
ENDBRANCH   4   5
ENDBRANCH   2   4
TORSDOF 7
ENDMDL
MODEL      193
REMARK 921   NORMALIZED FREE ENERGY PREDICTED BY IDOCK:   -4.25 KCAL/MOL
REMARK 922        TOTAL FREE ENERGY PREDICTED BY IDOCK:   -7.70 KCAL/MOL
REMARK 923 INTER-LIGAND FREE ENERGY PREDICTED BY IDOCK:   -6.89 KCAL/MOL
REMARK 924 INTRA-LIGAND FREE ENERGY PREDICTED BY IDOCK:   -0.80 KCAL/MOL
REMARK 927      BINDING AFFINITY PREDICTED BY RF-SCORE:    0.00 PKD
ROOT
HETATM    1  C   UNL     1      -6.241   6.574  70.347  1.00  0.00    -0.035 C  
HETATM    2  N   UNL     1      -6.368   7.963  70.762  1.00  0.00    -0.037 NA 
HETATM    3  H   UNL     1      -5.462   8.429  70.737  1.00  0.00     0.000 HD 
ENDROOT
BRANCH   2   4
HETATM    4  C   UNL     1      -7.364   8.725  69.995  1.00  0.00    -0.053 C  
BRANCH   4   5
HETATM    5  C   UNL     1      -6.927   9.174  68.574  1.00  0.00    -0.067 C  
HETATM    6  C   UNL     1      -5.445   9.482  68.456  1.00  0.00    -0.040 C  
HETATM    7  C   UNL     1      -5.129   9.860  67.009  1.00  0.00    -0.041 C  
HETATM    8  C   UNL     1      -6.125  10.887  66.429  1.00  0.00    -0.131 C  
HETATM    9  C   UNL     1      -7.647  10.631  66.832  1.00  0.00    -0.115 C  
HETATM   10  N   UNL     1      -5.841  11.077  64.987  1.00  0.00    -0.428 NA 
HETATM   11  O   UNL     1      -7.670  10.368  68.232  1.00  0.00    -0.093 OA 
HETATM   12  H1  UNL     1      -6.499  11.756  64.604  1.00  0.00     0.000 HD 
HETATM   13  H2  UNL     1      -5.846  10.197  64.471  1.00  0.00     0.000 HD 
BRANCH   9  14
HETATM   14  O   UNL     1      -8.358   9.628  66.070  1.00  0.00    -0.117 OA 
BRANCH  14  15
HETATM   15  C   UNL     1      -9.535  10.042  65.258  1.00  0.00    -0.263 C  
HETATM   16  C   UNL     1      -9.187  10.773  63.932  1.00  0.00    -0.235 C  
HETATM   17  N   UNL     1      -8.639   9.822  62.943  1.00  0.00    -0.176 NA 
HETATM   18  C   UNL     1     -10.420  11.439  63.288  1.00  0.00    -0.397 C  
HETATM   19  H2  UNL     1      -9.268   9.034  62.787  1.00  0.00     0.000 HD 
HETATM   20  H1  UNL     1      -8.410  10.302  62.074  1.00  0.00     0.000 HD 
HETATM   21  C   UNL     1     -11.140  12.408  64.239  1.00  0.00    -0.349 C  
HETATM   22  N   UNL     1     -12.170  13.164  63.519  1.00  0.00    -0.735 NA 
HETATM   23  C   UNL     1     -11.749  11.652  65.435  1.00  0.00     0.073 C  
HETATM   24  C   UNL     1     -10.634  10.779  66.091  1.00  0.00    -0.175 C  
HETATM   25  O   UNL     1     -11.248   9.840  67.005  1.00  0.00    -0.132 OA 
HETATM   26  H1  UNL     1     -12.648  13.807  64.150  1.00  0.00     0.000 HD 
HETATM   27  H2  UNL     1     -12.826  12.548  63.038  1.00  0.00     0.000 HD 
HETATM   28  H   UNL     1     -11.916  10.288  67.511  1.00  0.00     0.000 HD 
BRANCH  23  29
HETATM   29  O   UNL     1     -12.171  12.600  66.458  1.00  0.00    -0.538 OA 
BRANCH  29  30
HETATM   30  C   UNL     1     -11.285  13.603  66.996  1.00  0.00    -0.312 C  
HETATM   31  O   UNL     1      -9.937  13.555  66.520  1.00  0.00    -0.272 OA 
HETATM   32  C   UNL     1      -9.162  14.670  66.988  1.00  0.00    -0.239 C  
HETATM   33  C   UNL     1      -9.020  14.713  68.532  1.00  0.00    -0.184 C  
HETATM   34  C   UNL     1     -10.442  14.778  69.156  1.00  0.00    -0.239 C  
HETATM   35  O   UNL     1      -8.353  13.518  68.969  1.00  0.00    -0.346 OA 
HETATM   36  C   UNL     1      -8.147  15.917  68.917  1.00  0.00    -0.214 C  
HETATM   37  H   UNL     1     -12.747  13.919  69.998  1.00  0.00     0.000 HD 
HETATM   38  H   UNL     1      -8.267  13.545  69.915  1.00  0.00     0.000 HD 
HETATM   39  C   UNL     1     -11.358  13.650  68.568  1.00  0.00    -0.290 C  
HETATM   40  O   UNL     1     -12.703  13.891  69.050  1.00  0.00     0.151 OA 
BRANCH  34  41
HETATM   41  N   UNL     1     -10.588  14.918  70.637  1.00  0.00    -0.508 NA 
HETATM   42  C   UNL     1     -11.298  16.081  71.140  1.00  0.00    -0.361 C  
HETATM   43  H   UNL     1     -10.203  14.220  71.273  1.00  0.00     0.000 HD 
ENDBRANCH  34  41
ENDBRANCH  29  30
ENDBRANCH  23  29
ENDBRANCH  14  15
ENDBRANCH   9  14
ENDBRANCH   4   5
ENDBRANCH   2   4
TORSDOF 7
ENDMDL
MODEL      194
REMARK 921   NORMALIZED FREE ENERGY PREDICTED BY IDOCK:   -4.24 KCAL/MOL
REMARK 922        TOTAL FREE ENERGY PREDICTED BY IDOCK:   -7.68 KCAL/MOL
REMARK 923 INTER-LIGAND FREE ENERGY PREDICTED BY IDOCK:   -7.06 KCAL/MOL
REMARK 924 INTRA-LIGAND FREE ENERGY PREDICTED BY IDOCK:   -0.63 KCAL/MOL
REMARK 927      BINDING AFFINITY PREDICTED BY RF-SCORE:    0.00 PKD
ROOT
HETATM    1  C   UNL     1      -6.372  12.602  68.137  1.00  0.00    -0.080 C  
HETATM    2  N   UNL     1      -5.686  11.488  68.773  1.00  0.00    -0.046 NA 
HETATM    3  H   UNL     1      -4.796  11.792  69.166  1.00  0.00     0.000 HD 
ENDROOT
BRANCH   2   4
HETATM    4  C   UNL     1      -6.491  10.796  69.791  1.00  0.00    -0.118 C  
BRANCH   4   5
HETATM    5  C   UNL     1      -6.766   9.290  69.530  1.00  0.00    -0.047 C  
HETATM    6  C   UNL     1      -5.637   8.374  69.969  1.00  0.00    -0.025 C  
HETATM    7  C   UNL     1      -6.044   6.924  69.710  1.00  0.00    -0.030 C  
HETATM    8  C   UNL     1      -6.634   6.712  68.299  1.00  0.00    -0.059 C  
HETATM    9  C   UNL     1      -7.612   7.873  67.812  1.00  0.00    -0.109 C  
HETATM   10  N   UNL     1      -7.141   5.324  68.190  1.00  0.00    -0.065 NA 
HETATM   11  O   UNL     1      -6.972   9.111  68.109  1.00  0.00    -0.074 OA 
HETATM   12  H1  UNL     1      -7.531   5.184  67.258  1.00  0.00     0.000 HD 
HETATM   13  H2  UNL     1      -7.807   5.094  68.928  1.00  0.00     0.000 HD 
BRANCH   9  14
HETATM   14  O   UNL     1      -8.972   7.822  68.304  1.00  0.00    -0.132 OA 
BRANCH  14  15
HETATM   15  C   UNL     1      -9.442   8.889  69.231  1.00  0.00    -0.161 C  
HETATM   16  C   UNL     1     -10.094   8.372  70.542  1.00  0.00    -0.190 C  
HETATM   17  N   UNL     1      -9.067   7.817  71.448  1.00  0.00    -0.132 NA 
HETATM   18  C   UNL     1     -10.825   9.489  71.314  1.00  0.00    -0.413 C  
HETATM   19  H2  UNL     1      -8.323   8.489  71.635  1.00  0.00     0.000 HD 
HETATM   20  H1  UNL     1      -9.496   7.477  72.308  1.00  0.00     0.000 HD 
HETATM   21  C   UNL     1     -11.880  10.211  70.462  1.00  0.00    -0.321 C  
HETATM   22  N   UNL     1     -12.683  11.114  71.294  1.00  0.00    -0.422 NA 
HETATM   23  C   UNL     1     -11.218  10.978  69.302  1.00  0.00    -0.257 C  
HETATM   24  C   UNL     1     -10.290   9.996  68.522  1.00  0.00    -0.193 C  
HETATM   25  O   UNL     1      -9.435  10.757  67.637  1.00  0.00    -0.153 OA 
HETATM   26  H1  UNL     1     -13.384  11.593  70.729  1.00  0.00     0.000 HD 
HETATM   27  H2  UNL     1     -12.100  11.771  71.812  1.00  0.00     0.000 HD 
HETATM   28  H   UNL     1      -9.950  11.429  67.207  1.00  0.00     0.000 HD 
BRANCH  23  29
HETATM   29  O   UNL     1     -12.234  11.412  68.351  1.00  0.00    -0.571 OA 
BRANCH  29  30
HETATM   30  C   UNL     1     -12.092  12.610  67.560  1.00  0.00    -0.104 C  
HETATM   31  O   UNL     1     -11.702  12.409  66.200  1.00  0.00    -0.386 OA 
HETATM   32  C   UNL     1     -11.727  13.632  65.447  1.00  0.00    -0.332 C  
HETATM   33  C   UNL     1     -10.732  14.698  65.976  1.00  0.00    -0.312 C  
HETATM   34  C   UNL     1     -11.078  15.001  67.460  1.00  0.00    -0.317 C  
HETATM   35  O   UNL     1      -9.399  14.171  65.887  1.00  0.00    -0.507 OA 
HETATM   36  C   UNL     1     -10.816  15.943  65.080  1.00  0.00    -0.444 C  
HETATM   37  H   UNL     1     -11.146  14.664  70.038  1.00  0.00     0.000 HD 
HETATM   38  H   UNL     1      -8.790  14.825  66.211  1.00  0.00     0.000 HD 
HETATM   39  C   UNL     1     -11.187  13.674  68.287  1.00  0.00    -0.273 C  
HETATM   40  O   UNL     1     -11.692  14.023  69.599  1.00  0.00    -0.274 OA 
BRANCH  34  41
HETATM   41  N   UNL     1     -10.322  16.066  68.187  1.00  0.00    -0.253 NA 
HETATM   42  C   UNL     1     -10.887  17.404  68.207  1.00  0.00    -0.256 C  
HETATM   43  H   UNL     1      -9.439  15.860  68.654  1.00  0.00     0.000 HD 
ENDBRANCH  34  41
ENDBRANCH  29  30
ENDBRANCH  23  29
ENDBRANCH  14  15
ENDBRANCH   9  14
ENDBRANCH   4   5
ENDBRANCH   2   4
TORSDOF 7
ENDMDL
MODEL      195
REMARK 921   NORMALIZED FREE ENERGY PREDICTED BY IDOCK:   -4.23 KCAL/MOL
REMARK 922        TOTAL FREE ENERGY PREDICTED BY IDOCK:   -7.68 KCAL/MOL
REMARK 923 INTER-LIGAND FREE ENERGY PREDICTED BY IDOCK:   -7.04 KCAL/MOL
REMARK 924 INTRA-LIGAND FREE ENERGY PREDICTED BY IDOCK:   -0.64 KCAL/MOL
REMARK 927      BINDING AFFINITY PREDICTED BY RF-SCORE:    0.00 PKD
ROOT
HETATM    1  C   UNL     1      -6.790  19.359  68.476  1.00  0.00    -0.291 C  
HETATM    2  N   UNL     1      -8.179  18.928  68.432  1.00  0.00    -0.330 NA 
HETATM    3  H   UNL     1      -8.805  19.725  68.547  1.00  0.00     0.000 HD 
ENDROOT
BRANCH   2   4
HETATM    4  C   UNL     1      -8.529  18.166  67.224  1.00  0.00    -0.242 C  
BRANCH   4   5
HETATM    5  C   UNL     1      -9.523  16.991  67.427  1.00  0.00    -0.242 C  
HETATM    6  C   UNL     1     -10.579  17.255  68.485  1.00  0.00    -0.350 C  
HETATM    7  C   UNL     1     -11.524  16.055  68.557  1.00  0.00    -0.357 C  
HETATM    8  C   UNL     1     -10.773  14.707  68.611  1.00  0.00    -0.250 C  
HETATM    9  C   UNL     1      -9.504  14.619  67.649  1.00  0.00    -0.205 C  
HETATM   10  N   UNL     1     -11.756  13.602  68.521  1.00  0.00    -0.336 NA 
HETATM   11  O   UNL     1      -8.764  15.824  67.821  1.00  0.00    -0.168 OA 
HETATM   12  H1  UNL     1     -11.261  12.712  68.557  1.00  0.00     0.000 HD 
HETATM   13  H2  UNL     1     -12.355  13.680  67.699  1.00  0.00     0.000 HD 
BRANCH   9  14
HETATM   14  O   UNL     1      -9.768  14.327  66.256  1.00  0.00    -0.284 OA 
BRANCH  14  15
HETATM   15  C   UNL     1      -9.468  12.964  65.738  1.00  0.00     0.013 C  
HETATM   16  C   UNL     1     -10.652  12.270  65.008  1.00  0.00    -0.287 C  
HETATM   17  N   UNL     1     -10.885  12.893  63.689  1.00  0.00    -0.531 NA 
HETATM   18  C   UNL     1     -10.391  10.770  64.762  1.00  0.00    -0.380 C  
HETATM   19  H2  UNL     1     -10.039  12.900  63.118  1.00  0.00     0.000 HD 
HETATM   20  H1  UNL     1     -11.661  12.438  63.211  1.00  0.00     0.000 HD 
HETATM   21  C   UNL     1     -10.058  10.003  66.052  1.00  0.00    -0.248 C  
HETATM   22  N   UNL     1     -10.024   8.559  65.797  1.00  0.00    -0.368 NA 
HETATM   23  C   UNL     1      -8.722  10.486  66.648  1.00  0.00    -0.133 C  
HETATM   24  C   UNL     1      -8.774  12.039  66.790  1.00  0.00    -0.192 C  
HETATM   25  O   UNL     1      -7.440  12.534  67.051  1.00  0.00    -0.333 OA 
HETATM   26  H1  UNL     1      -9.803   8.050  66.652  1.00  0.00     0.000 HD 
HETATM   27  H2  UNL     1      -9.383   8.323  65.039  1.00  0.00     0.000 HD 
HETATM   28  H   UNL     1      -7.018  11.972  67.691  1.00  0.00     0.000 HD 
BRANCH  23  29
HETATM   29  O   UNL     1      -8.565   9.964  67.999  1.00  0.00    -0.120 OA 
BRANCH  29  30
HETATM   30  C   UNL     1      -8.205   8.592  68.262  1.00  0.00    -0.122 C  
HETATM   31  O   UNL     1      -7.666   7.872  67.150  1.00  0.00    -0.098 OA 
HETATM   32  C   UNL     1      -7.199   6.568  67.531  1.00  0.00    -0.086 C  
HETATM   33  C   UNL     1      -8.324   5.648  68.073  1.00  0.00    -0.100 C  
HETATM   34  C   UNL     1      -8.976   6.338  69.302  1.00  0.00    -0.125 C  
HETATM   35  O   UNL     1      -9.308   5.463  67.042  1.00  0.00    -0.117 OA 
HETATM   36  C   UNL     1      -7.723   4.275  68.411  1.00  0.00    -0.070 C  
HETATM   37  H   UNL     1     -10.513   7.973  70.616  1.00  0.00     0.000 HD 
HETATM   38  H   UNL     1      -9.997   4.899  67.375  1.00  0.00     0.000 HD 
HETATM   39  C   UNL     1      -9.382   7.813  68.961  1.00  0.00    -0.150 C  
HETATM   40  O   UNL     1      -9.803   8.443  70.195  1.00  0.00    -0.178 OA 
BRANCH  34  41
HETATM   41  N   UNL     1     -10.036   5.619  70.073  1.00  0.00    -0.188 NA 
HETATM   42  C   UNL     1      -9.709   5.166  71.413  1.00  0.00    -0.168 C  
HETATM   43  H   UNL     1     -10.958   5.452  69.670  1.00  0.00     0.000 HD 
ENDBRANCH  34  41
ENDBRANCH  29  30
ENDBRANCH  23  29
ENDBRANCH  14  15
ENDBRANCH   9  14
ENDBRANCH   4   5
ENDBRANCH   2   4
TORSDOF 7
ENDMDL
MODEL      196
REMARK 921   NORMALIZED FREE ENERGY PREDICTED BY IDOCK:   -4.23 KCAL/MOL
REMARK 922        TOTAL FREE ENERGY PREDICTED BY IDOCK:   -7.66 KCAL/MOL
REMARK 923 INTER-LIGAND FREE ENERGY PREDICTED BY IDOCK:   -6.98 KCAL/MOL
REMARK 924 INTRA-LIGAND FREE ENERGY PREDICTED BY IDOCK:   -0.68 KCAL/MOL
REMARK 927      BINDING AFFINITY PREDICTED BY RF-SCORE:    0.00 PKD
ROOT
HETATM    1  C   UNL     1      -8.536   7.676  65.457  1.00  0.00    -0.120 C  
HETATM    2  N   UNL     1      -7.932   8.473  66.513  1.00  0.00    -0.098 NA 
HETATM    3  H   UNL     1      -7.048   8.062  66.812  1.00  0.00     0.000 HD 
ENDROOT
BRANCH   2   4
HETATM    4  C   UNL     1      -7.751   9.889  66.161  1.00  0.00    -0.107 C  
BRANCH   4   5
HETATM    5  C   UNL     1      -7.173  10.798  67.280  1.00  0.00    -0.096 C  
HETATM    6  C   UNL     1      -6.589  10.032  68.454  1.00  0.00    -0.054 C  
HETATM    7  C   UNL     1      -6.009  11.027  69.458  1.00  0.00    -0.064 C  
HETATM    8  C   UNL     1      -6.972  12.194  69.768  1.00  0.00     0.319 C  
HETATM    9  C   UNL     1      -7.750  12.763  68.497  1.00  0.00    -0.113 C  
HETATM   10  N   UNL     1      -6.275  13.183  70.622  1.00  0.00    -0.472 NA 
HETATM   11  O   UNL     1      -8.242  11.640  67.771  1.00  0.00    -0.129 OA 
HETATM   12  H1  UNL     1      -6.912  13.954  70.827  1.00  0.00     0.000 HD 
HETATM   13  H2  UNL     1      -5.399  13.504  70.209  1.00  0.00     0.000 HD 
BRANCH   9  14
HETATM   14  O   UNL     1      -7.023  13.689  67.657  1.00  0.00    -0.154 OA 
BRANCH  14  15
HETATM   15  C   UNL     1      -7.720  14.907  67.158  1.00  0.00    -0.142 C  
HETATM   16  C   UNL     1      -7.570  16.160  68.065  1.00  0.00    -0.133 C  
HETATM   17  N   UNL     1      -6.202  16.710  67.968  1.00  0.00    -0.125 NA 
HETATM   18  C   UNL     1      -8.543  17.290  67.670  1.00  0.00    -0.218 C  
HETATM   19  H2  UNL     1      -5.941  16.908  67.002  1.00  0.00     0.000 HD 
HETATM   20  H1  UNL     1      -6.104  17.532  68.563  1.00  0.00     0.000 HD 
HETATM   21  C   UNL     1     -10.011  16.834  67.655  1.00  0.00    -0.262 C  
HETATM   22  N   UNL     1     -10.904  17.985  67.479  1.00  0.00    -0.325 NA 
HETATM   23  C   UNL     1     -10.249  15.783  66.555  1.00  0.00    -0.286 C  
HETATM   24  C   UNL     1      -9.198  14.641  66.724  1.00  0.00    -0.264 C  
HETATM   25  O   UNL     1      -9.204  13.815  65.536  1.00  0.00    -0.367 OA 
HETATM   26  H1  UNL     1     -11.878  17.683  67.469  1.00  0.00     0.000 HD 
HETATM   27  H2  UNL     1     -10.666  18.526  66.647  1.00  0.00     0.000 HD 
HETATM   28  H   UNL     1     -10.102  13.653  65.272  1.00  0.00     0.000 HD 
BRANCH  23  29
HETATM   29  O   UNL     1     -11.553  15.159  66.739  1.00  0.00    -0.270 OA 
BRANCH  29  30
HETATM   30  C   UNL     1     -12.101  14.882  68.044  1.00  0.00    -0.070 C  
HETATM   31  O   UNL     1     -12.090  15.977  68.963  1.00  0.00    -0.293 OA 
HETATM   32  C   UNL     1     -12.783  15.663  70.181  1.00  0.00    -0.124 C  
HETATM   33  C   UNL     1     -12.135  14.495  70.971  1.00  0.00    -0.344 C  
HETATM   34  C   UNL     1     -12.107  13.238  70.057  1.00  0.00    -0.315 C  
HETATM   35  O   UNL     1     -10.794  14.865  71.328  1.00  0.00    -0.552 OA 
HETATM   36  C   UNL     1     -12.931  14.270  72.266  1.00  0.00    -0.460 C  
HETATM   37  H   UNL     1     -11.274  11.634  68.188  1.00  0.00     0.000 HD 
HETATM   38  H   UNL     1     -10.398  14.149  71.812  1.00  0.00     0.000 HD 
HETATM   39  C   UNL     1     -11.473  13.578  68.665  1.00  0.00    -0.308 C  
HETATM   40  O   UNL     1     -11.653  12.420  67.814  1.00  0.00    -0.311 OA 
BRANCH  34  41
HETATM   41  N   UNL     1     -11.612  11.940  70.609  1.00  0.00    -0.328 NA 
HETATM   42  C   UNL     1     -12.592  10.908  70.896  1.00  0.00    -0.397 C  
HETATM   43  H   UNL     1     -10.617  11.785  70.777  1.00  0.00     0.000 HD 
ENDBRANCH  34  41
ENDBRANCH  29  30
ENDBRANCH  23  29
ENDBRANCH  14  15
ENDBRANCH   9  14
ENDBRANCH   4   5
ENDBRANCH   2   4
TORSDOF 7
ENDMDL
MODEL      197
REMARK 921   NORMALIZED FREE ENERGY PREDICTED BY IDOCK:   -4.22 KCAL/MOL
REMARK 922        TOTAL FREE ENERGY PREDICTED BY IDOCK:   -7.66 KCAL/MOL
REMARK 923 INTER-LIGAND FREE ENERGY PREDICTED BY IDOCK:   -7.22 KCAL/MOL
REMARK 924 INTRA-LIGAND FREE ENERGY PREDICTED BY IDOCK:   -0.43 KCAL/MOL
REMARK 927      BINDING AFFINITY PREDICTED BY RF-SCORE:    0.00 PKD
ROOT
HETATM    1  C   UNL     1      -8.182  16.718  67.838  1.00  0.00    -0.187 C  
HETATM    2  N   UNL     1      -7.037  16.859  66.952  1.00  0.00    -0.193 NA 
HETATM    3  H   UNL     1      -6.953  17.822  66.626  1.00  0.00     0.000 HD 
ENDROOT
BRANCH   2   4
HETATM    4  C   UNL     1      -5.770  16.398  67.537  1.00  0.00    -0.151 C  
BRANCH   4   5
HETATM    5  C   UNL     1      -5.892  15.376  68.700  1.00  0.00    -0.095 C  
HETATM    6  C   UNL     1      -5.201  15.814  69.978  1.00  0.00    -0.128 C  
HETATM    7  C   UNL     1      -5.433  14.756  71.057  1.00  0.00    -0.137 C  
HETATM    8  C   UNL     1      -5.172  13.321  70.553  1.00  0.00    -0.126 C  
HETATM    9  C   UNL     1      -5.706  13.032  69.078  1.00  0.00    -0.076 C  
HETATM   10  N   UNL     1      -5.569  12.358  71.607  1.00  0.00    -0.414 NA 
HETATM   11  O   UNL     1      -5.302  14.129  68.265  1.00  0.00    -0.098 OA 
HETATM   12  H1  UNL     1      -5.396  11.410  71.274  1.00  0.00     0.000 HD 
HETATM   13  H2  UNL     1      -6.533  12.492  71.912  1.00  0.00     0.000 HD 
BRANCH   9  14
HETATM   14  O   UNL     1      -7.116  12.737  68.948  1.00  0.00    -0.100 OA 
BRANCH  14  15
HETATM   15  C   UNL     1      -7.532  11.549  68.151  1.00  0.00    -0.101 C  
HETATM   16  C   UNL     1      -7.344  11.697  66.617  1.00  0.00    -0.028 C  
HETATM   17  N   UNL     1      -5.911  11.631  66.262  1.00  0.00    -0.481 NA 
HETATM   18  C   UNL     1      -8.059  10.580  65.828  1.00  0.00    -0.158 C  
HETATM   19  H2  UNL     1      -5.471  10.783  66.618  1.00  0.00     0.000 HD 
HETATM   20  H1  UNL     1      -5.787  11.728  65.254  1.00  0.00     0.000 HD 
HETATM   21  C   UNL     1      -9.556  10.483  66.158  1.00  0.00    -0.190 C  
HETATM   22  N   UNL     1     -10.226   9.556  65.239  1.00  0.00    -0.188 NA 
HETATM   23  C   UNL     1      -9.770  10.053  67.621  1.00  0.00    -0.158 C  
HETATM   24  C   UNL     1      -8.945  11.005  68.543  1.00  0.00    -0.163 C  
HETATM   25  O   UNL     1      -8.883  10.436  69.872  1.00  0.00    -0.384 OA 
HETATM   26  H1  UNL     1     -11.219   9.491  65.457  1.00  0.00     0.000 HD 
HETATM   27  H2  UNL     1      -9.778   8.639  65.233  1.00  0.00     0.000 HD 
HETATM   28  H   UNL     1      -9.741  10.105  70.111  1.00  0.00     0.000 HD 
BRANCH  23  29
HETATM   29  O   UNL     1     -11.165  10.242  67.995  1.00  0.00    -0.293 OA 
BRANCH  29  30
HETATM   30  C   UNL     1     -11.702  11.531  68.358  1.00  0.00    -0.303 C  
HETATM   31  O   UNL     1     -11.100  12.655  67.709  1.00  0.00    -0.226 OA 
HETATM   32  C   UNL     1     -11.785  13.880  68.012  1.00  0.00    -0.352 C  
HETATM   33  C   UNL     1     -11.751  14.246  69.519  1.00  0.00    -0.316 C  
HETATM   34  C   UNL     1     -12.397  13.084  70.323  1.00  0.00    -0.241 C  
HETATM   35  O   UNL     1     -10.382  14.413  69.923  1.00  0.00    -0.427 OA 
HETATM   36  C   UNL     1     -12.476  15.585  69.721  1.00  0.00    -0.188 C  
HETATM   37  H   UNL     1     -12.571  10.777  71.509  1.00  0.00     0.000 HD 
HETATM   38  H   UNL     1     -10.362  14.637  70.846  1.00  0.00     0.000 HD 
HETATM   39  C   UNL     1     -11.760  11.709  69.922  1.00  0.00    -0.337 C  
HETATM   40  O   UNL     1     -12.536  10.670  70.566  1.00  0.00    -0.316 OA 
BRANCH  34  41
HETATM   41  N   UNL     1     -12.572  13.223  71.801  1.00  0.00    -0.162 NA 
HETATM   42  C   UNL     1     -13.922  13.381  72.311  1.00  0.00    -0.507 C  
HETATM   43  H   UNL     1     -11.769  13.206  72.430  1.00  0.00     0.000 HD 
ENDBRANCH  34  41
ENDBRANCH  29  30
ENDBRANCH  23  29
ENDBRANCH  14  15
ENDBRANCH   9  14
ENDBRANCH   4   5
ENDBRANCH   2   4
TORSDOF 7
ENDMDL
MODEL      198
REMARK 921   NORMALIZED FREE ENERGY PREDICTED BY IDOCK:   -4.22 KCAL/MOL
REMARK 922        TOTAL FREE ENERGY PREDICTED BY IDOCK:   -7.65 KCAL/MOL
REMARK 923 INTER-LIGAND FREE ENERGY PREDICTED BY IDOCK:   -6.96 KCAL/MOL
REMARK 924 INTRA-LIGAND FREE ENERGY PREDICTED BY IDOCK:   -0.70 KCAL/MOL
REMARK 927      BINDING AFFINITY PREDICTED BY RF-SCORE:    0.00 PKD
ROOT
HETATM    1  C   UNL     1     -10.584   4.883  65.916  1.00  0.00    -0.230 C  
HETATM    2  N   UNL     1      -9.848   4.414  67.080  1.00  0.00    -0.198 NA 
HETATM    3  H   UNL     1      -9.222   3.649  66.825  1.00  0.00     0.000 HD 
ENDROOT
BRANCH   2   4
HETATM    4  C   UNL     1      -9.109   5.473  67.784  1.00  0.00    -0.107 C  
BRANCH   4   5
HETATM    5  C   UNL     1      -8.144   6.320  66.913  1.00  0.00    -0.109 C  
HETATM    6  C   UNL     1      -6.937   5.551  66.406  1.00  0.00    -0.064 C  
HETATM    7  C   UNL     1      -6.094   6.472  65.524  1.00  0.00    -0.034 C  
HETATM    8  C   UNL     1      -5.848   7.854  66.167  1.00  0.00    -0.037 C  
HETATM    9  C   UNL     1      -7.116   8.470  66.914  1.00  0.00    -0.075 C  
HETATM   10  N   UNL     1      -5.162   8.729  65.187  1.00  0.00    -0.038 NA 
HETATM   11  O   UNL     1      -7.675   7.431  67.713  1.00  0.00    -0.107 OA 
HETATM   12  H1  UNL     1      -5.000   9.642  65.611  1.00  0.00     0.000 HD 
HETATM   13  H2  UNL     1      -5.670   8.796  64.304  1.00  0.00     0.000 HD 
BRANCH   9  14
HETATM   14  O   UNL     1      -8.104   9.119  66.081  1.00  0.00    -0.105 OA 
BRANCH  14  15
HETATM   15  C   UNL     1      -8.409  10.558  66.315  1.00  0.00    -0.152 C  
HETATM   16  C   UNL     1      -7.287  11.350  67.041  1.00  0.00    -0.144 C  
HETATM   17  N   UNL     1      -6.143  11.577  66.134  1.00  0.00    -0.447 NA 
HETATM   18  C   UNL     1      -7.765  12.736  67.524  1.00  0.00    -0.168 C  
HETATM   19  H2  UNL     1      -6.429  12.033  65.268  1.00  0.00     0.000 HD 
HETATM   20  H1  UNL     1      -5.406  12.097  66.611  1.00  0.00     0.000 HD 
HETATM   21  C   UNL     1      -9.008  12.657  68.424  1.00  0.00    -0.125 C  
HETATM   22  N   UNL     1      -9.295  13.967  69.019  1.00  0.00    -0.396 NA 
HETATM   23  C   UNL     1     -10.224  12.134  67.637  1.00  0.00    -0.197 C  
HETATM   24  C   UNL     1      -9.824  10.799  66.934  1.00  0.00    -0.187 C  
HETATM   25  O   UNL     1     -10.835  10.460  65.956  1.00  0.00    -0.049 OA 
HETATM   26  H1  UNL     1     -10.120  13.915  69.617  1.00  0.00     0.000 HD 
HETATM   27  H2  UNL     1      -9.387  14.694  68.309  1.00  0.00     0.000 HD 
HETATM   28  H   UNL     1     -11.696  10.606  66.332  1.00  0.00     0.000 HD 
BRANCH  23  29
HETATM   29  O   UNL     1     -11.302  11.796  68.557  1.00  0.00    -0.225 OA 
BRANCH  29  30
HETATM   30  C   UNL     1     -11.103  10.944  69.703  1.00  0.00    -0.266 C  
HETATM   31  O   UNL     1     -10.465   9.692  69.438  1.00  0.00    -0.200 OA 
HETATM   32  C   UNL     1     -10.172   8.971  70.645  1.00  0.00    -0.229 C  
HETATM   33  C   UNL     1     -11.440   8.589  71.454  1.00  0.00    -0.287 C  
HETATM   34  C   UNL     1     -12.210   9.892  71.807  1.00  0.00    -0.341 C  
HETATM   35  O   UNL     1     -12.268   7.741  70.643  1.00  0.00    -0.496 OA 
HETATM   36  C   UNL     1     -11.014   7.794  72.698  1.00  0.00    -0.422 C  
HETATM   37  H   UNL     1     -13.785  11.931  71.461  1.00  0.00     0.000 HD 
HETATM   38  H   UNL     1     -13.044   7.508  71.138  1.00  0.00     0.000 HD 
HETATM   39  C   UNL     1     -12.434  10.769  70.528  1.00  0.00    -0.360 C  
HETATM   40  O   UNL     1     -12.982  12.037  70.964  1.00  0.00    -0.232 OA 
BRANCH  34  41
HETATM   41  N   UNL     1     -13.431   9.813  72.666  1.00  0.00    -0.599 NA 
HETATM   42  C   UNL     1     -14.408   8.784  72.360  1.00  0.00    -0.332 C  
HETATM   43  H   UNL     1     -13.572  10.461  73.441  1.00  0.00     0.000 HD 
ENDBRANCH  34  41
ENDBRANCH  29  30
ENDBRANCH  23  29
ENDBRANCH  14  15
ENDBRANCH   9  14
ENDBRANCH   4   5
ENDBRANCH   2   4
TORSDOF 7
ENDMDL
MODEL      199
REMARK 921   NORMALIZED FREE ENERGY PREDICTED BY IDOCK:   -4.21 KCAL/MOL
REMARK 922        TOTAL FREE ENERGY PREDICTED BY IDOCK:   -7.64 KCAL/MOL
REMARK 923 INTER-LIGAND FREE ENERGY PREDICTED BY IDOCK:   -7.34 KCAL/MOL
REMARK 924 INTRA-LIGAND FREE ENERGY PREDICTED BY IDOCK:   -0.30 KCAL/MOL
REMARK 927      BINDING AFFINITY PREDICTED BY RF-SCORE:    0.00 PKD
ROOT
HETATM    1  C   UNL     1      -8.902  17.799  68.680  1.00  0.00    -0.261 C  
HETATM    2  N   UNL     1     -10.332  17.799  68.411  1.00  0.00    -0.374 NA 
HETATM    3  H   UNL     1     -10.644  18.728  68.130  1.00  0.00     0.000 HD 
ENDROOT
BRANCH   2   4
HETATM    4  C   UNL     1     -10.752  16.793  67.424  1.00  0.00    -0.244 C  
BRANCH   4   5
HETATM    5  C   UNL     1     -11.352  15.483  68.003  1.00  0.00    -0.330 C  
HETATM    6  C   UNL     1     -11.903  15.629  69.410  1.00  0.00    -0.391 C  
HETATM    7  C   UNL     1     -12.508  14.296  69.849  1.00  0.00    -0.315 C  
HETATM    8  C   UNL     1     -11.581  13.095  69.561  1.00  0.00    -0.283 C  
HETATM    9  C   UNL     1     -10.830  13.163  68.155  1.00  0.00    -0.251 C  
HETATM   10  N   UNL     1     -12.304  11.840  69.871  1.00  0.00    -0.183 NA 
HETATM   11  O   UNL     1     -10.308  14.482  68.024  1.00  0.00    -0.225 OA 
HETATM   12  H1  UNL     1     -11.691  11.047  69.681  1.00  0.00     0.000 HD 
HETATM   13  H2  UNL     1     -13.192  11.771  69.375  1.00  0.00     0.000 HD 
BRANCH   9  14
HETATM   14  O   UNL     1     -11.592  12.753  66.995  1.00  0.00    -0.321 OA 
BRANCH  14  15
HETATM   15  C   UNL     1     -10.874  12.506  65.714  1.00  0.00    -0.276 C  
HETATM   16  C   UNL     1     -11.796  12.279  64.485  1.00  0.00    -0.369 C  
HETATM   17  N   UNL     1     -12.429  13.548  64.070  1.00  0.00    -0.683 NA 
HETATM   18  C   UNL     1     -11.024  11.736  63.265  1.00  0.00    -0.387 C  
HETATM   19  H2  UNL     1     -11.737  14.277  63.894  1.00  0.00     0.000 HD 
HETATM   20  H1  UNL     1     -13.034  13.399  63.263  1.00  0.00     0.000 HD 
HETATM   21  C   UNL     1     -10.250  10.446  63.575  1.00  0.00     0.172 C  
HETATM   22  N   UNL     1      -9.709   9.862  62.343  1.00  0.00    -0.649 NA 
HETATM   23  C   UNL     1      -9.127  10.711  64.596  1.00  0.00    -0.211 C  
HETATM   24  C   UNL     1      -9.743  11.434  65.835  1.00  0.00    -0.227 C  
HETATM   25  O   UNL     1      -8.672  11.962  66.652  1.00  0.00    -0.192 OA 
HETATM   26  H1  UNL     1      -9.195   9.005  62.549  1.00  0.00     0.000 HD 
HETATM   27  H2  UNL     1      -9.139  10.531  61.826  1.00  0.00     0.000 HD 
HETATM   28  H   UNL     1      -7.984  11.310  66.725  1.00  0.00     0.000 HD 
BRANCH  23  29
HETATM   29  O   UNL     1      -8.598   9.447  65.091  1.00  0.00    -0.146 OA 
BRANCH  29  30
HETATM   30  C   UNL     1      -8.160   9.271  66.454  1.00  0.00    -0.107 C  
HETATM   31  O   UNL     1      -6.744   9.262  66.651  1.00  0.00    -0.074 OA 
HETATM   32  C   UNL     1      -6.396   9.232  68.044  1.00  0.00    -0.054 C  
HETATM   33  C   UNL     1      -6.891   7.954  68.772  1.00  0.00    -0.062 C  
HETATM   34  C   UNL     1      -8.435   7.871  68.626  1.00  0.00    -0.128 C  
HETATM   35  O   UNL     1      -6.284   6.807  68.156  1.00  0.00    -0.030 OA 
HETATM   36  C   UNL     1      -6.433   8.009  70.237  1.00  0.00    -0.037 C  
HETATM   37  H   UNL     1     -10.729   7.386  67.503  1.00  0.00     0.000 HD 
HETATM   38  H   UNL     1      -6.587   6.025  68.602  1.00  0.00     0.000 HD 
HETATM   39  C   UNL     1      -8.862   8.032  67.127  1.00  0.00    -0.131 C  
HETATM   40  O   UNL     1     -10.306   8.133  67.097  1.00  0.00    -0.265 OA 
BRANCH  34  41
HETATM   41  N   UNL     1      -9.180   6.774  69.317  1.00  0.00    -0.142 NA 
HETATM   42  C   UNL     1      -9.550   6.978  70.707  1.00  0.00    -0.164 C  
HETATM   43  H   UNL     1      -9.421   5.912  68.828  1.00  0.00     0.000 HD 
ENDBRANCH  34  41
ENDBRANCH  29  30
ENDBRANCH  23  29
ENDBRANCH  14  15
ENDBRANCH   9  14
ENDBRANCH   4   5
ENDBRANCH   2   4
TORSDOF 7
ENDMDL
MODEL      200
REMARK 921   NORMALIZED FREE ENERGY PREDICTED BY IDOCK:   -4.21 KCAL/MOL
REMARK 922        TOTAL FREE ENERGY PREDICTED BY IDOCK:   -7.64 KCAL/MOL
REMARK 923 INTER-LIGAND FREE ENERGY PREDICTED BY IDOCK:   -6.85 KCAL/MOL
REMARK 924 INTRA-LIGAND FREE ENERGY PREDICTED BY IDOCK:   -0.79 KCAL/MOL
REMARK 927      BINDING AFFINITY PREDICTED BY RF-SCORE:    0.00 PKD
ROOT
HETATM    1  C   UNL     1     -12.378  13.516  65.837  1.00  0.00    -0.456 C  
HETATM    2  N   UNL     1     -13.227  12.894  64.832  1.00  0.00    -0.728 NA 
HETATM    3  H   UNL     1     -13.654  13.603  64.236  1.00  0.00     0.000 HD 
ENDROOT
BRANCH   2   4
HETATM    4  C   UNL     1     -12.542  11.879  64.020  1.00  0.00    -0.282 C  
BRANCH   4   5
HETATM    5  C   UNL     1     -11.035  11.667  64.328  1.00  0.00    -0.355 C  
HETATM    6  C   UNL     1     -10.139  11.755  63.106  1.00  0.00    -0.386 C  
HETATM    7  C   UNL     1      -8.684  11.583  63.541  1.00  0.00     0.375 C  
HETATM    8  C   UNL     1      -8.483  10.386  64.495  1.00  0.00    -0.169 C  
HETATM    9  C   UNL     1      -9.630  10.216  65.591  1.00  0.00    -0.243 C  
HETATM   10  N   UNL     1      -7.086  10.387  64.986  1.00  0.00    -0.273 NA 
HETATM   11  O   UNL     1     -10.877  10.355  64.916  1.00  0.00     0.056 OA 
HETATM   12  H1  UNL     1      -6.953   9.596  65.616  1.00  0.00     0.000 HD 
HETATM   13  H2  UNL     1      -6.827  11.274  65.418  1.00  0.00     0.000 HD 
BRANCH   9  14
HETATM   14  O   UNL     1      -9.536  11.063  66.760  1.00  0.00    -0.185 OA 
BRANCH  14  15
HETATM   15  C   UNL     1      -8.208  11.619  67.141  1.00  0.00    -0.165 C  
HETATM   16  C   UNL     1      -7.449  10.806  68.224  1.00  0.00    -0.092 C  
HETATM   17  N   UNL     1      -6.934   9.542  67.657  1.00  0.00    -0.079 NA 
HETATM   18  C   UNL     1      -6.238  11.574  68.794  1.00  0.00    -0.051 C  
HETATM   19  H2  UNL     1      -6.358   9.704  66.832  1.00  0.00     0.000 HD 
HETATM   20  H1  UNL     1      -6.436   9.008  68.369  1.00  0.00     0.000 HD 
HETATM   21  C   UNL     1      -6.618  12.953  69.355  1.00  0.00    -0.062 C  
HETATM   22  N   UNL     1      -5.482  13.550  70.065  1.00  0.00    -0.098 NA 
HETATM   23  C   UNL     1      -7.114  13.885  68.233  1.00  0.00    -0.108 C  
HETATM   24  C   UNL     1      -8.242  13.153  67.442  1.00  0.00    -0.187 C  
HETATM   25  O   UNL     1      -8.500  13.873  66.213  1.00  0.00    -0.254 OA 
HETATM   26  H1  UNL     1      -5.733  14.465  70.438  1.00  0.00     0.000 HD 
HETATM   27  H2  UNL     1      -4.649  13.596  69.477  1.00  0.00     0.000 HD 
HETATM   28  H   UNL     1      -8.521  14.806  66.396  1.00  0.00     0.000 HD 
BRANCH  23  29
HETATM   29  O   UNL     1      -7.732  15.071  68.811  1.00  0.00    -0.123 OA 
BRANCH  29  30
HETATM   30  C   UNL     1      -7.629  16.374  68.200  1.00  0.00    -0.155 C  
HETATM   31  O   UNL     1      -6.669  17.256  68.786  1.00  0.00    -0.182 OA 
HETATM   32  C   UNL     1      -6.525  18.470  68.033  1.00  0.00    -0.213 C  
HETATM   33  C   UNL     1      -7.827  19.311  67.968  1.00  0.00    -0.298 C  
HETATM   34  C   UNL     1      -8.944  18.440  67.330  1.00  0.00    -0.263 C  
HETATM   35  O   UNL     1      -8.205  19.682  69.303  1.00  0.00    -0.221 OA 
HETATM   36  C   UNL     1      -7.549  20.597  67.175  1.00  0.00    -0.364 C  
HETATM   37  H   UNL     1     -10.817  16.642  67.191  1.00  0.00     0.000 HD 
HETATM   38  H   UNL     1      -9.002  20.197  69.263  1.00  0.00     0.000 HD 
HETATM   39  C   UNL     1      -9.043  17.050  68.047  1.00  0.00    -0.237 C  
HETATM   40  O   UNL     1      -9.964  16.234  67.283  1.00  0.00    -0.241 OA 
BRANCH  34  41
HETATM   41  N   UNL     1     -10.286  19.044  67.068  1.00  0.00    -0.382 NA 
HETATM   42  C   UNL     1     -10.578  19.485  65.715  1.00  0.00    -0.427 C  
HETATM   43  H   UNL     1     -10.974  19.142  67.814  1.00  0.00     0.000 HD 
ENDBRANCH  34  41
ENDBRANCH  29  30
ENDBRANCH  23  29
ENDBRANCH  14  15
ENDBRANCH   9  14
ENDBRANCH   4   5
ENDBRANCH   2   4
TORSDOF 7
ENDMDL
MODEL      201
REMARK 921   NORMALIZED FREE ENERGY PREDICTED BY IDOCK:   -4.19 KCAL/MOL
REMARK 922        TOTAL FREE ENERGY PREDICTED BY IDOCK:   -7.62 KCAL/MOL
REMARK 923 INTER-LIGAND FREE ENERGY PREDICTED BY IDOCK:   -6.72 KCAL/MOL
REMARK 924 INTRA-LIGAND FREE ENERGY PREDICTED BY IDOCK:   -0.90 KCAL/MOL
REMARK 927      BINDING AFFINITY PREDICTED BY RF-SCORE:    0.00 PKD
ROOT
HETATM    1  C   UNL     1      -8.731   9.081  65.895  1.00  0.00    -0.166 C  
HETATM    2  N   UNL     1      -8.536   7.641  65.974  1.00  0.00    -0.137 NA 
HETATM    3  H   UNL     1      -8.586   7.222  65.045  1.00  0.00     0.000 HD 
ENDROOT
BRANCH   2   4
HETATM    4  C   UNL     1      -7.293   7.245  66.653  1.00  0.00    -0.080 C  
BRANCH   4   5
HETATM    5  C   UNL     1      -7.458   6.671  68.087  1.00  0.00    -0.095 C  
HETATM    6  C   UNL     1      -6.918   5.262  68.250  1.00  0.00    -0.061 C  
HETATM    7  C   UNL     1      -7.089   4.828  69.706  1.00  0.00    -0.054 C  
HETATM    8  C   UNL     1      -8.501   5.125  70.255  1.00  0.00    -0.101 C  
HETATM    9  C   UNL     1      -9.102   6.532  69.805  1.00  0.00    -0.142 C  
HETATM   10  N   UNL     1      -8.531   4.820  71.705  1.00  0.00    -0.115 NA 
HETATM   11  O   UNL     1      -8.869   6.658  68.406  1.00  0.00    -0.122 OA 
HETATM   12  H1  UNL     1      -9.464   5.016  72.067  1.00  0.00     0.000 HD 
HETATM   13  H2  UNL     1      -7.803   5.313  72.221  1.00  0.00     0.000 HD 
BRANCH   9  14
HETATM   14  O   UNL     1      -8.655   7.692  70.546  1.00  0.00    -0.134 OA 
BRANCH  14  15
HETATM   15  C   UNL     1      -9.594   8.833  70.732  1.00  0.00    -0.208 C  
HETATM   16  C   UNL     1     -10.925   8.470  71.446  1.00  0.00    -0.264 C  
HETATM   17  N   UNL     1     -10.691   8.223  72.884  1.00  0.00    -0.251 NA 
HETATM   18  C   UNL     1     -11.972   9.598  71.344  1.00  0.00    -0.480 C  
HETATM   19  H2  UNL     1     -10.222   9.010  73.333  1.00  0.00     0.000 HD 
HETATM   20  H1  UNL     1     -11.564   7.984  73.353  1.00  0.00     0.000 HD 
HETATM   21  C   UNL     1     -12.261  10.014  69.894  1.00  0.00     0.107 C  
HETATM   22  N   UNL     1     -13.403  10.934  69.840  1.00  0.00     0.017 NA 
HETATM   23  C   UNL     1     -11.016  10.648  69.246  1.00  0.00    -0.245 C  
HETATM   24  C   UNL     1      -9.809   9.676  69.433  1.00  0.00    -0.193 C  
HETATM   25  O   UNL     1      -8.585  10.378  69.113  1.00  0.00    -0.149 OA 
HETATM   26  H1  UNL     1     -13.595  11.210  68.878  1.00  0.00     0.000 HD 
HETATM   27  H2  UNL     1     -13.266  11.743  70.447  1.00  0.00     0.000 HD 
HETATM   28  H   UNL     1      -8.715  10.890  68.324  1.00  0.00     0.000 HD 
BRANCH  23  29
HETATM   29  O   UNL     1     -11.213  10.771  67.807  1.00  0.00    -0.297 OA 
BRANCH  29  30
HETATM   30  C   UNL     1     -11.491  12.034  67.169  1.00  0.00    -0.335 C  
HETATM   31  O   UNL     1     -11.950  11.954  65.817  1.00  0.00    -0.451 OA 
HETATM   32  C   UNL     1     -12.342  13.238  65.306  1.00  0.00    -0.476 C  
HETATM   33  C   UNL     1     -11.175  14.260  65.254  1.00  0.00    -0.337 C  
HETATM   34  C   UNL     1     -10.605  14.430  66.689  1.00  0.00    -0.282 C  
HETATM   35  O   UNL     1     -10.153  13.750  64.383  1.00  0.00    -0.692 OA 
HETATM   36  C   UNL     1     -11.696  15.578  64.661  1.00  0.00    -0.226 C  
HETATM   37  H   UNL     1      -9.215  13.869  68.814  1.00  0.00     0.000 HD 
HETATM   38  H   UNL     1      -9.439  14.375  64.351  1.00  0.00     0.000 HD 
HETATM   39  C   UNL     1     -10.286  13.035  67.329  1.00  0.00    -0.239 C  
HETATM   40  O   UNL     1      -9.942  13.265  68.717  1.00  0.00    -0.166 OA 
BRANCH  34  41
HETATM   41  N   UNL     1      -9.522  15.431  66.935  1.00  0.00    -0.221 NA 
HETATM   42  C   UNL     1      -8.146  14.980  66.832  1.00  0.00    -0.126 C  
HETATM   43  H   UNL     1      -9.744  16.400  67.166  1.00  0.00     0.000 HD 
ENDBRANCH  34  41
ENDBRANCH  29  30
ENDBRANCH  23  29
ENDBRANCH  14  15
ENDBRANCH   9  14
ENDBRANCH   4   5
ENDBRANCH   2   4
TORSDOF 7
ENDMDL
MODEL      202
REMARK 921   NORMALIZED FREE ENERGY PREDICTED BY IDOCK:   -4.18 KCAL/MOL
REMARK 922        TOTAL FREE ENERGY PREDICTED BY IDOCK:   -7.60 KCAL/MOL
REMARK 923 INTER-LIGAND FREE ENERGY PREDICTED BY IDOCK:   -6.20 KCAL/MOL
REMARK 924 INTRA-LIGAND FREE ENERGY PREDICTED BY IDOCK:   -1.40 KCAL/MOL
REMARK 927      BINDING AFFINITY PREDICTED BY RF-SCORE:    0.00 PKD
ROOT
HETATM    1  C   UNL     1     -10.834  11.287  63.895  1.00  0.00    -0.354 C  
HETATM    2  N   UNL     1     -11.355  12.392  64.685  1.00  0.00    -0.304 NA 
HETATM    3  H   UNL     1     -12.141  12.835  64.208  1.00  0.00     0.000 HD 
ENDROOT
BRANCH   2   4
HETATM    4  C   UNL     1     -11.727  12.018  66.058  1.00  0.00    -0.241 C  
BRANCH   4   5
HETATM    5  C   UNL     1     -11.034  12.822  67.191  1.00  0.00    -0.263 C  
HETATM    6  C   UNL     1     -11.742  14.116  67.549  1.00  0.00    -0.418 C  
HETATM    7  C   UNL     1     -10.999  14.788  68.704  1.00  0.00    -0.262 C  
HETATM    8  C   UNL     1      -9.472  14.840  68.482  1.00  0.00    -0.214 C  
HETATM    9  C   UNL     1      -8.851  13.515  67.847  1.00  0.00    -0.190 C  
HETATM   10  N   UNL     1      -8.822  15.360  69.707  1.00  0.00    -0.362 NA 
HETATM   11  O   UNL     1      -9.691  13.140  66.759  1.00  0.00    -0.232 OA 
HETATM   12  H1  UNL     1      -7.814  15.395  69.560  1.00  0.00     0.000 HD 
HETATM   13  H2  UNL     1      -9.075  14.825  70.538  1.00  0.00     0.000 HD 
BRANCH   9  14
HETATM   14  O   UNL     1      -8.603  12.418  68.756  1.00  0.00    -0.015 OA 
BRANCH  14  15
HETATM   15  C   UNL     1      -7.457  11.506  68.486  1.00  0.00    -0.115 C  
HETATM   16  C   UNL     1      -7.664  10.538  67.289  1.00  0.00    -0.106 C  
HETATM   17  N   UNL     1      -7.586  11.273  66.009  1.00  0.00    -0.362 NA 
HETATM   18  C   UNL     1      -6.595   9.427  67.241  1.00  0.00    -0.071 C  
HETATM   19  H2  UNL     1      -6.715  11.798  65.926  1.00  0.00     0.000 HD 
HETATM   20  H1  UNL     1      -7.722  10.638  65.223  1.00  0.00     0.000 HD 
HETATM   21  C   UNL     1      -6.513   8.622  68.547  1.00  0.00    -0.055 C  
HETATM   22  N   UNL     1      -5.637   7.457  68.378  1.00  0.00    -0.022 NA 
HETATM   23  C   UNL     1      -6.027   9.509  69.709  1.00  0.00    -0.036 C  
HETATM   24  C   UNL     1      -6.923  10.785  69.767  1.00  0.00    -0.141 C  
HETATM   25  O   UNL     1      -6.300  11.760  70.636  1.00  0.00    -0.528 OA 
HETATM   26  H1  UNL     1      -5.582   6.923  69.245  1.00  0.00     0.000 HD 
HETATM   27  H2  UNL     1      -4.713   7.724  68.038  1.00  0.00     0.000 HD 
HETATM   28  H   UNL     1      -5.975  11.322  71.415  1.00  0.00     0.000 HD 
BRANCH  23  29
HETATM   29  O   UNL     1      -6.227   8.819  70.976  1.00  0.00    -0.037 OA 
BRANCH  29  30
HETATM   30  C   UNL     1      -7.501   8.264  71.363  1.00  0.00    -0.085 C  
HETATM   31  O   UNL     1      -8.289   9.078  72.236  1.00  0.00    -0.354 OA 
HETATM   32  C   UNL     1      -9.596   8.524  72.453  1.00  0.00    -0.286 C  
HETATM   33  C   UNL     1      -9.566   7.137  73.147  1.00  0.00    -0.174 C  
HETATM   34  C   UNL     1      -8.735   6.163  72.267  1.00  0.00    -0.137 C  
HETATM   35  O   UNL     1      -8.945   7.277  74.435  1.00  0.00    -0.267 OA 
HETATM   36  C   UNL     1     -11.010   6.658  73.362  1.00  0.00    -0.182 C  
HETATM   37  H   UNL     1      -6.623   5.028  71.260  1.00  0.00     0.000 HD 
HETATM   38  H   UNL     1      -8.927   6.427  74.859  1.00  0.00     0.000 HD 
HETATM   39  C   UNL     1      -7.347   6.792  71.901  1.00  0.00    -0.085 C  
HETATM   40  O   UNL     1      -6.717   5.916  70.935  1.00  0.00    -0.052 OA 
BRANCH  34  41
HETATM   41  N   UNL     1      -8.623   4.727  72.666  1.00  0.00    -0.115 NA 
HETATM   42  C   UNL     1      -9.443   3.761  71.956  1.00  0.00    -0.137 C  
HETATM   43  H   UNL     1      -7.991   4.435  73.412  1.00  0.00     0.000 HD 
ENDBRANCH  34  41
ENDBRANCH  29  30
ENDBRANCH  23  29
ENDBRANCH  14  15
ENDBRANCH   9  14
ENDBRANCH   4   5
ENDBRANCH   2   4
TORSDOF 7
ENDMDL
MODEL      203
REMARK 921   NORMALIZED FREE ENERGY PREDICTED BY IDOCK:   -4.17 KCAL/MOL
REMARK 922        TOTAL FREE ENERGY PREDICTED BY IDOCK:   -7.59 KCAL/MOL
REMARK 923 INTER-LIGAND FREE ENERGY PREDICTED BY IDOCK:   -6.73 KCAL/MOL
REMARK 924 INTRA-LIGAND FREE ENERGY PREDICTED BY IDOCK:   -0.86 KCAL/MOL
REMARK 927      BINDING AFFINITY PREDICTED BY RF-SCORE:    0.00 PKD
ROOT
HETATM    1  C   UNL     1     -10.563  11.610  63.322  1.00  0.00    -0.356 C  
HETATM    2  N   UNL     1     -11.092  12.738  64.075  1.00  0.00    -0.387 NA 
HETATM    3  H   UNL     1     -11.679  13.322  63.479  1.00  0.00     0.000 HD 
ENDROOT
BRANCH   2   4
HETATM    4  C   UNL     1     -11.814  12.352  65.296  1.00  0.00    -0.399 C  
BRANCH   4   5
HETATM    5  C   UNL     1     -11.343  13.037  66.607  1.00  0.00    -0.325 C  
HETATM    6  C   UNL     1     -12.082  14.324  66.928  1.00  0.00    -0.440 C  
HETATM    7  C   UNL     1     -11.569  14.873  68.260  1.00  0.00    -0.356 C  
HETATM    8  C   UNL     1     -10.028  14.888  68.346  1.00  0.00    -0.222 C  
HETATM    9  C   UNL     1      -9.320  13.596  67.734  1.00  0.00    -0.218 C  
HETATM   10  N   UNL     1      -9.624  15.284  69.715  1.00  0.00    -0.447 NA 
HETATM   11  O   UNL     1      -9.935  13.339  66.475  1.00  0.00    -0.266 OA 
HETATM   12  H1  UNL     1      -8.606  15.294  69.772  1.00  0.00     0.000 HD 
HETATM   13  H2  UNL     1     -10.047  14.693  70.431  1.00  0.00     0.000 HD 
BRANCH   9  14
HETATM   14  O   UNL     1      -9.279  12.421  68.578  1.00  0.00    -0.170 OA 
BRANCH  14  15
HETATM   15  C   UNL     1      -8.132  11.480  68.445  1.00  0.00    -0.149 C  
HETATM   16  C   UNL     1      -7.479  11.445  67.036  1.00  0.00    -0.147 C  
HETATM   17  N   UNL     1      -6.701  12.678  66.794  1.00  0.00    -0.403 NA 
HETATM   18  C   UNL     1      -6.511  10.256  66.867  1.00  0.00    -0.071 C  
HETATM   19  H2  UNL     1      -6.011  12.840  67.527  1.00  0.00     0.000 HD 
HETATM   20  H1  UNL     1      -6.273  12.655  65.869  1.00  0.00     0.000 HD 
HETATM   21  C   UNL     1      -7.173   8.902  67.164  1.00  0.00    -0.083 C  
HETATM   22  N   UNL     1      -6.279   7.800  66.791  1.00  0.00    -0.048 NA 
HETATM   23  C   UNL     1      -7.577   8.801  68.647  1.00  0.00    -0.097 C  
HETATM   24  C   UNL     1      -8.431  10.055  69.015  1.00  0.00    -0.147 C  
HETATM   25  O   UNL     1      -8.555  10.135  70.454  1.00  0.00    -0.344 OA 
HETATM   26  H1  UNL     1      -6.717   6.901  66.988  1.00  0.00     0.000 HD 
HETATM   27  H2  UNL     1      -5.367   7.883  67.241  1.00  0.00     0.000 HD 
HETATM   28  H   UNL     1      -8.737   9.269  70.801  1.00  0.00     0.000 HD 
BRANCH  23  29
HETATM   29  O   UNL     1      -8.448   7.650  68.846  1.00  0.00    -0.128 OA 
BRANCH  29  30
HETATM   30  C   UNL     1      -8.232   6.689  69.901  1.00  0.00    -0.127 C  
HETATM   31  O   UNL     1      -7.652   5.447  69.494  1.00  0.00    -0.068 OA 
HETATM   32  C   UNL     1      -7.336   4.610  70.617  1.00  0.00    -0.049 C  
HETATM   33  C   UNL     1      -8.582   4.197  71.445  1.00  0.00    -0.101 C  
HETATM   34  C   UNL     1      -9.287   5.486  71.949  1.00  0.00    -0.144 C  
HETATM   35  O   UNL     1      -9.474   3.454  70.599  1.00  0.00    -0.150 OA 
HETATM   36  C   UNL     1      -8.133   3.277  72.591  1.00  0.00    -0.072 C  
HETATM   37  H   UNL     1     -10.800   7.599  71.859  1.00  0.00     0.000 HD 
HETATM   38  H   UNL     1     -10.236   3.202  71.106  1.00  0.00     0.000 HD 
HETATM   39  C   UNL     1      -9.533   6.484  70.765  1.00  0.00    -0.172 C  
HETATM   40  O   UNL     1     -10.015   7.723  71.338  1.00  0.00    -0.177 OA 
BRANCH  34  41
HETATM   41  N   UNL     1     -10.473   5.369  72.851  1.00  0.00    -0.197 NA 
HETATM   42  C   UNL     1     -10.302   5.738  74.245  1.00  0.00    -0.270 C  
HETATM   43  H   UNL     1     -11.373   5.040  72.499  1.00  0.00     0.000 HD 
ENDBRANCH  34  41
ENDBRANCH  29  30
ENDBRANCH  23  29
ENDBRANCH  14  15
ENDBRANCH   9  14
ENDBRANCH   4   5
ENDBRANCH   2   4
TORSDOF 7
ENDMDL
MODEL      204
REMARK 921   NORMALIZED FREE ENERGY PREDICTED BY IDOCK:   -4.15 KCAL/MOL
REMARK 922        TOTAL FREE ENERGY PREDICTED BY IDOCK:   -7.55 KCAL/MOL
REMARK 923 INTER-LIGAND FREE ENERGY PREDICTED BY IDOCK:   -6.86 KCAL/MOL
REMARK 924 INTRA-LIGAND FREE ENERGY PREDICTED BY IDOCK:   -0.70 KCAL/MOL
REMARK 927      BINDING AFFINITY PREDICTED BY RF-SCORE:    0.00 PKD
ROOT
HETATM    1  C   UNL     1      -9.358   3.849  65.852  1.00  0.00    -0.165 C  
HETATM    2  N   UNL     1      -9.819   3.481  67.183  1.00  0.00    -0.311 NA 
HETATM    3  H   UNL     1      -9.272   2.701  67.548  1.00  0.00     0.000 HD 
ENDROOT
BRANCH   2   4
HETATM    4  C   UNL     1      -9.830   4.597  68.140  1.00  0.00    -0.107 C  
BRANCH   4   5
HETATM    5  C   UNL     1      -8.751   5.691  67.917  1.00  0.00    -0.107 C  
HETATM    6  C   UNL     1      -7.545   5.560  68.830  1.00  0.00    -0.087 C  
HETATM    7  C   UNL     1      -6.537   6.656  68.484  1.00  0.00    -0.051 C  
HETATM    8  C   UNL     1      -7.190   8.048  68.350  1.00  0.00    -0.089 C  
HETATM    9  C   UNL     1      -8.598   8.048  67.602  1.00  0.00    -0.130 C  
HETATM   10  N   UNL     1      -6.176   9.013  67.863  1.00  0.00    -0.051 NA 
HETATM   11  O   UNL     1      -9.364   6.980  68.153  1.00  0.00    -0.127 OA 
HETATM   12  H1  UNL     1      -6.608   9.933  67.775  1.00  0.00     0.000 HD 
HETATM   13  H2  UNL     1      -5.734   8.708  66.996  1.00  0.00     0.000 HD 
BRANCH   9  14
HETATM   14  O   UNL     1      -8.562   8.012  66.156  1.00  0.00    -0.132 OA 
BRANCH  14  15
HETATM   15  C   UNL     1      -9.410   8.967  65.391  1.00  0.00    -0.144 C  
HETATM   16  C   UNL     1      -8.726   9.591  64.144  1.00  0.00    -0.215 C  
HETATM   17  N   UNL     1      -8.603   8.590  63.064  1.00  0.00    -0.419 NA 
HETATM   18  C   UNL     1      -9.523  10.782  63.571  1.00  0.00    -0.331 C  
HETATM   19  H2  UNL     1      -9.503   8.171  62.832  1.00  0.00     0.000 HD 
HETATM   20  H1  UNL     1      -8.154   9.000  62.246  1.00  0.00     0.000 HD 
HETATM   21  C   UNL     1      -9.793  11.876  64.615  1.00  0.00    -0.183 C  
HETATM   22  N   UNL     1     -10.366  13.066  63.976  1.00  0.00    -0.579 NA 
HETATM   23  C   UNL     1     -10.717  11.355  65.732  1.00  0.00    -0.251 C  
HETATM   24  C   UNL     1     -10.117  10.030  66.295  1.00  0.00    -0.243 C  
HETATM   25  O   UNL     1     -11.112   9.371  67.113  1.00  0.00    -0.275 OA 
HETATM   26  H1  UNL     1     -10.545  13.793  64.669  1.00  0.00     0.000 HD 
HETATM   27  H2  UNL     1     -11.202  12.841  63.438  1.00  0.00     0.000 HD 
HETATM   28  H   UNL     1     -11.541  10.017  67.663  1.00  0.00     0.000 HD 
BRANCH  23  29
HETATM   29  O   UNL     1     -10.730  12.296  66.845  1.00  0.00    -0.224 OA 
BRANCH  29  30
HETATM   30  C   UNL     1      -9.751  13.346  66.981  1.00  0.00    -0.239 C  
HETATM   31  O   UNL     1      -8.542  12.979  67.652  1.00  0.00    -0.165 OA 
HETATM   32  C   UNL     1      -7.567  14.033  67.616  1.00  0.00    -0.179 C  
HETATM   33  C   UNL     1      -8.030  15.322  68.343  1.00  0.00    -0.131 C  
HETATM   34  C   UNL     1      -9.345  15.817  67.679  1.00  0.00    -0.216 C  
HETATM   35  O   UNL     1      -8.271  15.013  69.725  1.00  0.00    -0.420 OA 
HETATM   36  C   UNL     1      -6.902  16.363  68.275  1.00  0.00    -0.134 C  
HETATM   37  H   UNL     1     -11.890  15.924  67.155  1.00  0.00     0.000 HD 
HETATM   38  H   UNL     1      -8.555  15.803  70.170  1.00  0.00     0.000 HD 
HETATM   39  C   UNL     1     -10.391  14.653  67.583  1.00  0.00    -0.233 C  
HETATM   40  O   UNL     1     -11.503  15.136  66.792  1.00  0.00    -0.303 OA 
BRANCH  34  41
HETATM   41  N   UNL     1      -9.960  17.100  68.135  1.00  0.00    -0.282 NA 
HETATM   42  C   UNL     1      -9.947  18.223  67.213  1.00  0.00    -0.335 C  
HETATM   43  H   UNL     1     -10.375  17.185  69.063  1.00  0.00     0.000 HD 
ENDBRANCH  34  41
ENDBRANCH  29  30
ENDBRANCH  23  29
ENDBRANCH  14  15
ENDBRANCH   9  14
ENDBRANCH   4   5
ENDBRANCH   2   4
TORSDOF 7
ENDMDL
MODEL      205
REMARK 921   NORMALIZED FREE ENERGY PREDICTED BY IDOCK:   -4.14 KCAL/MOL
REMARK 922        TOTAL FREE ENERGY PREDICTED BY IDOCK:   -7.54 KCAL/MOL
REMARK 923 INTER-LIGAND FREE ENERGY PREDICTED BY IDOCK:   -6.47 KCAL/MOL
REMARK 924 INTRA-LIGAND FREE ENERGY PREDICTED BY IDOCK:   -1.08 KCAL/MOL
REMARK 927      BINDING AFFINITY PREDICTED BY RF-SCORE:    0.00 PKD
ROOT
HETATM    1  C   UNL     1     -10.099   6.268  74.279  1.00  0.00    -0.335 C  
HETATM    2  N   UNL     1     -10.797   7.461  73.824  1.00  0.00    -0.542 NA 
HETATM    3  H   UNL     1     -10.288   8.301  74.100  1.00  0.00     0.000 HD 
ENDROOT
BRANCH   2   4
HETATM    4  C   UNL     1     -11.073   7.476  72.380  1.00  0.00    -0.301 C  
BRANCH   4   5
HETATM    5  C   UNL     1     -11.320   8.874  71.750  1.00  0.00    -0.361 C  
HETATM    6  C   UNL     1     -12.725   9.406  71.966  1.00  0.00    -0.483 C  
HETATM    7  C   UNL     1     -12.830  10.801  71.350  1.00  0.00    -0.557 C  
HETATM    8  C   UNL     1     -12.246  10.868  69.922  1.00  0.00    -0.336 C  
HETATM    9  C   UNL     1     -10.892  10.049  69.723  1.00  0.00    -0.273 C  
HETATM   10  N   UNL     1     -12.246  12.278  69.465  1.00  0.00    -0.160 NA 
HETATM   11  O   UNL     1     -11.083   8.773  70.327  1.00  0.00    -0.245 OA 
HETATM   12  H1  UNL     1     -11.860  12.322  68.522  1.00  0.00     0.000 HD 
HETATM   13  H2  UNL     1     -11.758  12.896  70.113  1.00  0.00     0.000 HD 
BRANCH   9  14
HETATM   14  O   UNL     1      -9.675  10.694  70.167  1.00  0.00     0.245 OA 
BRANCH  14  15
HETATM   15  C   UNL     1      -8.643  11.056  69.156  1.00  0.00     0.003 C  
HETATM   16  C   UNL     1      -9.207  11.625  67.825  1.00  0.00    -0.178 C  
HETATM   17  N   UNL     1      -9.722  12.995  68.024  1.00  0.00    -0.219 NA 
HETATM   18  C   UNL     1      -8.136  11.697  66.718  1.00  0.00    -0.150 C  
HETATM   19  H2  UNL     1      -9.017  13.610  68.429  1.00  0.00     0.000 HD 
HETATM   20  H1  UNL     1     -10.092  13.368  67.150  1.00  0.00     0.000 HD 
HETATM   21  C   UNL     1      -7.457  10.344  66.455  1.00  0.00    -0.119 C  
HETATM   22  N   UNL     1      -6.604  10.420  65.264  1.00  0.00    -0.200 NA 
HETATM   23  C   UNL     1      -6.645   9.890  67.682  1.00  0.00    -0.068 C  
HETATM   24  C   UNL     1      -7.572   9.939  68.937  1.00  0.00    -0.083 C  
HETATM   25  O   UNL     1      -6.759   9.819  70.128  1.00  0.00    -0.071 OA 
HETATM   26  H1  UNL     1      -6.153   9.522  65.089  1.00  0.00     0.000 HD 
HETATM   27  H2  UNL     1      -5.925  11.178  65.331  1.00  0.00     0.000 HD 
HETATM   28  H   UNL     1      -6.108   9.139  69.995  1.00  0.00     0.000 HD 
BRANCH  23  29
HETATM   29  O   UNL     1      -6.250   8.496  67.528  1.00  0.00    -0.051 OA 
BRANCH  29  30
HETATM   30  C   UNL     1      -7.199   7.452  67.229  1.00  0.00    -0.093 C  
HETATM   31  O   UNL     1      -7.915   7.602  66.000  1.00  0.00    -0.102 OA 
HETATM   32  C   UNL     1      -8.727   6.454  65.708  1.00  0.00    -0.127 C  
HETATM   33  C   UNL     1      -9.833   6.199  66.765  1.00  0.00    -0.164 C  
HETATM   34  C   UNL     1      -9.155   6.009  68.151  1.00  0.00    -0.118 C  
HETATM   35  O   UNL     1     -10.707   7.338  66.805  1.00  0.00    -0.471 OA 
HETATM   36  C   UNL     1     -10.659   4.977  66.335  1.00  0.00    -0.317 C  
HETATM   37  H   UNL     1      -8.016   6.679  70.390  1.00  0.00     0.000 HD 
HETATM   38  H   UNL     1     -11.384   7.182  67.453  1.00  0.00     0.000 HD 
HETATM   39  C   UNL     1      -8.160   7.183  68.448  1.00  0.00    -0.124 C  
HETATM   40  O   UNL     1      -7.437   6.841  69.655  1.00  0.00    -0.091 OA 
BRANCH  34  41
HETATM   41  N   UNL     1      -9.995   5.659  69.337  1.00  0.00    -0.180 NA 
HETATM   42  C   UNL     1      -9.886   4.312  69.869  1.00  0.00    -0.197 C  
HETATM   43  H   UNL     1     -10.623   6.344  69.758  1.00  0.00     0.000 HD 
ENDBRANCH  34  41
ENDBRANCH  29  30
ENDBRANCH  23  29
ENDBRANCH  14  15
ENDBRANCH   9  14
ENDBRANCH   4   5
ENDBRANCH   2   4
TORSDOF 7
ENDMDL
MODEL      206
REMARK 921   NORMALIZED FREE ENERGY PREDICTED BY IDOCK:   -4.14 KCAL/MOL
REMARK 922        TOTAL FREE ENERGY PREDICTED BY IDOCK:   -7.54 KCAL/MOL
REMARK 923 INTER-LIGAND FREE ENERGY PREDICTED BY IDOCK:   -7.02 KCAL/MOL
REMARK 924 INTRA-LIGAND FREE ENERGY PREDICTED BY IDOCK:   -0.52 KCAL/MOL
REMARK 927      BINDING AFFINITY PREDICTED BY RF-SCORE:    0.00 PKD
ROOT
HETATM    1  C   UNL     1     -12.827  13.910  65.374  1.00  0.00    -0.427 C  
HETATM    2  N   UNL     1     -11.442  14.354  65.321  1.00  0.00    -0.338 NA 
HETATM    3  H   UNL     1     -11.283  14.934  64.498  1.00  0.00     0.000 HD 
ENDROOT
BRANCH   2   4
HETATM    4  C   UNL     1     -10.992  15.047  66.537  1.00  0.00    -0.327 C  
BRANCH   4   5
HETATM    5  C   UNL     1     -10.065  14.232  67.479  1.00  0.00    -0.236 C  
HETATM    6  C   UNL     1      -8.651  14.777  67.573  1.00  0.00    -0.198 C  
HETATM    7  C   UNL     1      -7.855  13.927  68.563  1.00  0.00    -0.139 C  
HETATM    8  C   UNL     1      -8.027  12.412  68.323  1.00  0.00    -0.160 C  
HETATM    9  C   UNL     1      -9.516  11.965  67.964  1.00  0.00    -0.197 C  
HETATM   10  N   UNL     1      -7.352  11.669  69.413  1.00  0.00    -0.340 NA 
HETATM   11  O   UNL     1      -9.999  12.876  66.981  1.00  0.00    -0.235 OA 
HETATM   12  H1  UNL     1      -7.466  10.668  69.254  1.00  0.00     0.000 HD 
HETATM   13  H2  UNL     1      -7.678  11.955  70.337  1.00  0.00     0.000 HD 
BRANCH   9  14
HETATM   14  O   UNL     1     -10.430  11.814  69.075  1.00  0.00    -0.188 OA 
BRANCH  14  15
HETATM   15  C   UNL     1     -11.001  10.468  69.358  1.00  0.00    -0.250 C  
HETATM   16  C   UNL     1     -11.572  10.292  70.792  1.00  0.00    -0.355 C  
HETATM   17  N   UNL     1     -12.839  11.036  70.941  1.00  0.00    -0.327 NA 
HETATM   18  C   UNL     1     -11.869   8.816  71.129  1.00  0.00    -0.345 C  
HETATM   19  H2  UNL     1     -13.520  10.773  70.229  1.00  0.00     0.000 HD 
HETATM   20  H1  UNL     1     -13.213  10.921  71.883  1.00  0.00     0.000 HD 
HETATM   21  C   UNL     1     -10.646   7.905  70.943  1.00  0.00    -0.213 C  
HETATM   22  N   UNL     1     -10.920   6.563  71.469  1.00  0.00    -0.246 NA 
HETATM   23  C   UNL     1     -10.231   7.838  69.461  1.00  0.00    -0.207 C  
HETATM   24  C   UNL     1     -10.064   9.294  68.926  1.00  0.00    -0.195 C  
HETATM   25  O   UNL     1      -9.981   9.259  67.482  1.00  0.00    -0.178 OA 
HETATM   26  H1  UNL     1     -10.109   5.958  71.346  1.00  0.00     0.000 HD 
HETATM   27  H2  UNL     1     -11.761   6.159  71.057  1.00  0.00     0.000 HD 
HETATM   28  H   UNL     1      -9.411   8.545  67.219  1.00  0.00     0.000 HD 
BRANCH  23  29
HETATM   29  O   UNL     1      -8.920   7.213  69.341  1.00  0.00    -0.136 OA 
BRANCH  29  30
HETATM   30  C   UNL     1      -8.401   6.737  68.083  1.00  0.00    -0.118 C  
HETATM   31  O   UNL     1      -7.625   7.680  67.339  1.00  0.00    -0.103 OA 
HETATM   32  C   UNL     1      -7.026   7.085  66.177  1.00  0.00    -0.065 C  
HETATM   33  C   UNL     1      -8.067   6.556  65.154  1.00  0.00    -0.133 C  
HETATM   34  C   UNL     1      -8.965   5.506  65.864  1.00  0.00    -0.154 C  
HETATM   35  O   UNL     1      -8.872   7.656  64.702  1.00  0.00    -0.348 OA 
HETATM   36  C   UNL     1      -7.321   5.979  63.941  1.00  0.00    -0.066 C  
HETATM   37  H   UNL     1     -10.880   4.592  67.367  1.00  0.00     0.000 HD 
HETATM   38  H   UNL     1      -9.508   7.332  64.076  1.00  0.00     0.000 HD 
HETATM   39  C   UNL     1      -9.533   6.078  67.208  1.00  0.00    -0.114 C  
HETATM   40  O   UNL     1     -10.197   4.989  67.895  1.00  0.00    -0.148 OA 
BRANCH  34  41
HETATM   41  N   UNL     1      -9.999   4.771  65.074  1.00  0.00    -0.380 NA 
HETATM   42  C   UNL     1      -9.756   3.371  64.776  1.00  0.00    -0.152 C  
HETATM   43  H   UNL     1     -10.849   5.238  64.755  1.00  0.00     0.000 HD 
ENDBRANCH  34  41
ENDBRANCH  29  30
ENDBRANCH  23  29
ENDBRANCH  14  15
ENDBRANCH   9  14
ENDBRANCH   4   5
ENDBRANCH   2   4
TORSDOF 7
ENDMDL
MODEL      207
REMARK 921   NORMALIZED FREE ENERGY PREDICTED BY IDOCK:   -4.12 KCAL/MOL
REMARK 922        TOTAL FREE ENERGY PREDICTED BY IDOCK:   -7.52 KCAL/MOL
REMARK 923 INTER-LIGAND FREE ENERGY PREDICTED BY IDOCK:   -7.44 KCAL/MOL
REMARK 924 INTRA-LIGAND FREE ENERGY PREDICTED BY IDOCK:   -0.08 KCAL/MOL
REMARK 927      BINDING AFFINITY PREDICTED BY RF-SCORE:    0.00 PKD
ROOT
HETATM    1  C   UNL     1      -6.157   8.432  71.130  1.00  0.00    -0.037 C  
HETATM    2  N   UNL     1      -5.511   7.460  70.261  1.00  0.00    -0.023 NA 
HETATM    3  H   UNL     1      -5.395   6.569  70.743  1.00  0.00     0.000 HD 
ENDROOT
BRANCH   2   4
HETATM    4  C   UNL     1      -6.195   7.266  68.973  1.00  0.00    -0.035 C  
BRANCH   4   5
HETATM    5  C   UNL     1      -7.574   7.965  68.825  1.00  0.00    -0.100 C  
HETATM    6  C   UNL     1      -8.757   7.050  69.080  1.00  0.00    -0.128 C  
HETATM    7  C   UNL     1     -10.048   7.858  68.956  1.00  0.00    -0.204 C  
HETATM    8  C   UNL     1     -10.081   8.741  67.690  1.00  0.00    -0.216 C  
HETATM    9  C   UNL     1      -8.698   9.460  67.350  1.00  0.00    -0.125 C  
HETATM   10  N   UNL     1     -11.287   9.600  67.730  1.00  0.00    -0.439 NA 
HETATM   11  O   UNL     1      -7.674   8.478  67.476  1.00  0.00    -0.096 OA 
HETATM   12  H1  UNL     1     -11.309  10.183  66.893  1.00  0.00     0.000 HD 
HETATM   13  H2  UNL     1     -11.344  10.150  68.587  1.00  0.00     0.000 HD 
BRANCH   9  14
HETATM   14  O   UNL     1      -8.399  10.667  68.090  1.00  0.00    -0.115 OA 
BRANCH  14  15
HETATM   15  C   UNL     1      -8.202  11.939  67.340  1.00  0.00    -0.164 C  
HETATM   16  C   UNL     1      -7.305  12.985  68.059  1.00  0.00    -0.123 C  
HETATM   17  N   UNL     1      -5.890  12.562  68.029  1.00  0.00    -0.071 NA 
HETATM   18  C   UNL     1      -7.379  14.375  67.394  1.00  0.00    -0.167 C  
HETATM   19  H2  UNL     1      -5.569  12.378  67.079  1.00  0.00     0.000 HD 
HETATM   20  H1  UNL     1      -5.302  13.249  68.501  1.00  0.00     0.000 HD 
HETATM   21  C   UNL     1      -8.815  14.911  67.289  1.00  0.00    -0.201 C  
HETATM   22  N   UNL     1      -8.811  16.309  66.845  1.00  0.00    -0.200 NA 
HETATM   23  C   UNL     1      -9.658  14.038  66.340  1.00  0.00    -0.283 C  
HETATM   24  C   UNL     1      -9.533  12.549  66.793  1.00  0.00    -0.231 C  
HETATM   25  O   UNL     1     -10.055  11.694  65.750  1.00  0.00    -0.223 OA 
HETATM   26  H1  UNL     1      -9.763  16.665  66.775  1.00  0.00     0.000 HD 
HETATM   27  H2  UNL     1      -8.296  16.428  65.972  1.00  0.00     0.000 HD 
HETATM   28  H   UNL     1     -10.864  12.065  65.417  1.00  0.00     0.000 HD 
BRANCH  23  29
HETATM   29  O   UNL     1     -11.068  14.381  66.473  1.00  0.00    -0.317 OA 
BRANCH  29  30
HETATM   30  C   UNL     1     -11.677  14.670  67.748  1.00  0.00    -0.359 C  
HETATM   31  O   UNL     1     -11.272  15.897  68.361  1.00  0.00    -0.334 OA 
HETATM   32  C   UNL     1     -12.030  16.180  69.548  1.00  0.00    -0.061 C  
HETATM   33  C   UNL     1     -11.845  15.117  70.662  1.00  0.00    -0.325 C  
HETATM   34  C   UNL     1     -12.271  13.733  70.099  1.00  0.00    -0.356 C  
HETATM   35  O   UNL     1     -10.459  15.080  71.041  1.00  0.00    -0.482 OA 
HETATM   36  C   UNL     1     -12.666  15.537  71.891  1.00  0.00    -0.490 C  
HETATM   37  H   UNL     1     -12.072  11.502  68.778  1.00  0.00     0.000 HD 
HETATM   38  H   UNL     1     -10.346  14.429  71.723  1.00  0.00     0.000 HD 
HETATM   39  C   UNL     1     -11.558  13.446  68.732  1.00  0.00    -0.325 C  
HETATM   40  O   UNL     1     -12.144  12.240  68.185  1.00  0.00    -0.407 OA 
BRANCH  34  41
HETATM   41  N   UNL     1     -12.273  12.542  71.002  1.00  0.00    -0.394 NA 
HETATM   42  C   UNL     1     -13.327  12.449  71.997  1.00  0.00    -0.407 C  
HETATM   43  H   UNL     1     -11.559  11.818  70.921  1.00  0.00     0.000 HD 
ENDBRANCH  34  41
ENDBRANCH  29  30
ENDBRANCH  23  29
ENDBRANCH  14  15
ENDBRANCH   9  14
ENDBRANCH   4   5
ENDBRANCH   2   4
TORSDOF 7
ENDMDL
MODEL      208
REMARK 921   NORMALIZED FREE ENERGY PREDICTED BY IDOCK:   -4.12 KCAL/MOL
REMARK 922        TOTAL FREE ENERGY PREDICTED BY IDOCK:   -7.52 KCAL/MOL
REMARK 923 INTER-LIGAND FREE ENERGY PREDICTED BY IDOCK:   -6.99 KCAL/MOL
REMARK 924 INTRA-LIGAND FREE ENERGY PREDICTED BY IDOCK:   -0.53 KCAL/MOL
REMARK 927      BINDING AFFINITY PREDICTED BY RF-SCORE:    0.00 PKD
ROOT
HETATM    1  C   UNL     1      -7.880   3.337  67.926  1.00  0.00    -0.071 C  
HETATM    2  N   UNL     1      -7.610   3.838  69.266  1.00  0.00    -0.053 NA 
HETATM    3  H   UNL     1      -6.727   3.466  69.615  1.00  0.00     0.000 HD 
ENDROOT
BRANCH   2   4
HETATM    4  C   UNL     1      -7.630   5.304  69.369  1.00  0.00    -0.069 C  
BRANCH   4   5
HETATM    5  C   UNL     1      -8.898   5.921  70.020  1.00  0.00    -0.137 C  
HETATM    6  C   UNL     1      -9.690   4.943  70.869  1.00  0.00    -0.264 C  
HETATM    7  C   UNL     1     -10.878   5.675  71.493  1.00  0.00    -0.297 C  
HETATM    8  C   UNL     1     -11.654   6.534  70.472  1.00  0.00    -0.393 C  
HETATM    9  C   UNL     1     -10.732   7.325  69.439  1.00  0.00    -0.225 C  
HETATM   10  N   UNL     1     -12.684   7.324  71.187  1.00  0.00    -0.515 NA 
HETATM   11  O   UNL     1      -9.756   6.405  68.960  1.00  0.00    -0.134 OA 
HETATM   12  H1  UNL     1     -13.197   7.891  70.513  1.00  0.00     0.000 HD 
HETATM   13  H2  UNL     1     -12.289   7.883  71.943  1.00  0.00     0.000 HD 
BRANCH   9  14
HETATM   14  O   UNL     1     -10.143   8.559  69.912  1.00  0.00    -0.187 OA 
BRANCH  14  15
HETATM   15  C   UNL     1      -8.695   8.806  69.665  1.00  0.00    -0.136 C  
HETATM   16  C   UNL     1      -7.929   9.434  70.861  1.00  0.00    -0.052 C  
HETATM   17  N   UNL     1      -7.739   8.438  71.936  1.00  0.00    -0.117 NA 
HETATM   18  C   UNL     1      -6.529   9.942  70.460  1.00  0.00    -0.116 C  
HETATM   19  H2  UNL     1      -7.280   7.594  71.594  1.00  0.00     0.000 HD 
HETATM   20  H1  UNL     1      -7.236   8.850  72.721  1.00  0.00     0.000 HD 
HETATM   21  C   UNL     1      -6.569  10.938  69.291  1.00  0.00    -0.079 C  
HETATM   22  N   UNL     1      -5.248  11.544  69.087  1.00  0.00    -0.044 NA 
HETATM   23  C   UNL     1      -7.063  10.254  68.003  1.00  0.00    -0.083 C  
HETATM   24  C   UNL     1      -8.413   9.533  68.310  1.00  0.00    -0.119 C  
HETATM   25  O   UNL     1      -8.730   8.640  67.216  1.00  0.00    -0.127 OA 
HETATM   26  H1  UNL     1      -5.275  12.205  68.311  1.00  0.00     0.000 HD 
HETATM   27  H2  UNL     1      -4.524  10.838  68.958  1.00  0.00     0.000 HD 
HETATM   28  H   UNL     1      -8.558   9.082  66.393  1.00  0.00     0.000 HD 
BRANCH  23  29
HETATM   29  O   UNL     1      -7.367  11.260  66.992  1.00  0.00    -0.120 OA 
BRANCH  29  30
HETATM   30  C   UNL     1      -8.691  11.435  66.448  1.00  0.00    -0.185 C  
HETATM   31  O   UNL     1      -8.880  10.948  65.117  1.00  0.00    -0.197 OA 
HETATM   32  C   UNL     1     -10.254  11.026  64.707  1.00  0.00    -0.319 C  
HETATM   33  C   UNL     1     -10.799  12.478  64.662  1.00  0.00    -0.310 C  
HETATM   34  C   UNL     1     -10.648  13.104  66.076  1.00  0.00    -0.281 C  
HETATM   35  O   UNL     1     -10.028  13.233  63.714  1.00  0.00    -0.699 OA 
HETATM   36  C   UNL     1     -12.256  12.447  64.178  1.00  0.00    -0.558 C  
HETATM   37  H   UNL     1      -9.475  14.252  68.093  1.00  0.00     0.000 HD 
HETATM   38  H   UNL     1     -10.362  14.122  63.687  1.00  0.00     0.000 HD 
HETATM   39  C   UNL     1      -9.187  12.921  66.613  1.00  0.00    -0.221 C  
HETATM   40  O   UNL     1      -9.176  13.355  67.994  1.00  0.00    -0.195 OA 
BRANCH  34  41
HETATM   41  N   UNL     1     -11.182  14.477  66.332  1.00  0.00    -0.335 NA 
HETATM   42  C   UNL     1     -10.410  15.606  65.843  1.00  0.00    -0.350 C  
HETATM   43  H   UNL     1     -12.059  14.616  66.833  1.00  0.00     0.000 HD 
ENDBRANCH  34  41
ENDBRANCH  29  30
ENDBRANCH  23  29
ENDBRANCH  14  15
ENDBRANCH   9  14
ENDBRANCH   4   5
ENDBRANCH   2   4
TORSDOF 7
ENDMDL
MODEL      209
REMARK 921   NORMALIZED FREE ENERGY PREDICTED BY IDOCK:   -4.10 KCAL/MOL
REMARK 922        TOTAL FREE ENERGY PREDICTED BY IDOCK:   -7.49 KCAL/MOL
REMARK 923 INTER-LIGAND FREE ENERGY PREDICTED BY IDOCK:   -6.33 KCAL/MOL
REMARK 924 INTRA-LIGAND FREE ENERGY PREDICTED BY IDOCK:   -1.17 KCAL/MOL
REMARK 927      BINDING AFFINITY PREDICTED BY RF-SCORE:    0.00 PKD
ROOT
HETATM    1  C   UNL     1      -5.652  13.408  70.107  1.00  0.00    -0.126 C  
HETATM    2  N   UNL     1      -6.703  12.505  69.664  1.00  0.00    -0.338 NA 
HETATM    3  H   UNL     1      -6.836  12.578  68.656  1.00  0.00     0.000 HD 
ENDROOT
BRANCH   2   4
HETATM    4  C   UNL     1      -6.492  11.105  70.059  1.00  0.00    -0.133 C  
BRANCH   4   5
HETATM    5  C   UNL     1      -6.979  10.033  69.046  1.00  0.00    -0.056 C  
HETATM    6  C   UNL     1      -6.732   8.605  69.496  1.00  0.00    -0.040 C  
HETATM    7  C   UNL     1      -7.297   7.648  68.446  1.00  0.00    -0.095 C  
HETATM    8  C   UNL     1      -6.888   8.030  67.007  1.00  0.00    -0.073 C  
HETATM    9  C   UNL     1      -6.923   9.595  66.705  1.00  0.00    -0.085 C  
HETATM   10  N   UNL     1      -7.601   7.150  66.052  1.00  0.00    -0.086 NA 
HETATM   11  O   UNL     1      -6.280  10.246  67.797  1.00  0.00    -0.056 OA 
HETATM   12  H1  UNL     1      -7.331   7.402  65.101  1.00  0.00     0.000 HD 
HETATM   13  H2  UNL     1      -8.612   7.170  66.185  1.00  0.00     0.000 HD 
BRANCH   9  14
HETATM   14  O   UNL     1      -8.218  10.167  66.405  1.00  0.00    -0.118 OA 
BRANCH  14  15
HETATM   15  C   UNL     1      -8.769  11.212  67.312  1.00  0.00    -0.139 C  
HETATM   16  C   UNL     1     -10.214  10.940  67.814  1.00  0.00    -0.180 C  
HETATM   17  N   UNL     1     -10.221   9.848  68.809  1.00  0.00    -0.181 NA 
HETATM   18  C   UNL     1     -10.842  12.176  68.492  1.00  0.00    -0.267 C  
HETATM   19  H2  UNL     1      -9.581  10.034  69.581  1.00  0.00     0.000 HD 
HETATM   20  H1  UNL     1     -11.169   9.670  69.138  1.00  0.00     0.000 HD 
HETATM   21  C   UNL     1     -10.833  13.420  67.590  1.00  0.00    -0.259 C  
HETATM   22  N   UNL     1     -11.620  14.500  68.196  1.00  0.00    -0.314 NA 
HETATM   23  C   UNL     1      -9.391  13.884  67.308  1.00  0.00    -0.231 C  
HETATM   24  C   UNL     1      -8.574  12.666  66.773  1.00  0.00    -0.098 C  
HETATM   25  O   UNL     1      -7.165  12.997  66.798  1.00  0.00    -0.310 OA 
HETATM   26  H1  UNL     1     -11.614  15.325  67.598  1.00  0.00     0.000 HD 
HETATM   27  H2  UNL     1     -11.303  14.715  69.142  1.00  0.00     0.000 HD 
HETATM   28  H   UNL     1      -7.046  13.881  66.470  1.00  0.00     0.000 HD 
BRANCH  23  29
HETATM   29  O   UNL     1      -9.389  14.871  66.236  1.00  0.00    -0.286 OA 
BRANCH  29  30
HETATM   30  C   UNL     1      -8.662  16.113  66.330  1.00  0.00    -0.337 C  
HETATM   31  O   UNL     1      -7.278  15.993  66.671  1.00  0.00    -0.169 OA 
HETATM   32  C   UNL     1      -6.597  17.255  66.599  1.00  0.00    -0.232 C  
HETATM   33  C   UNL     1      -7.147  18.308  67.597  1.00  0.00    -0.201 C  
HETATM   34  C   UNL     1      -8.657  18.523  67.303  1.00  0.00    -0.262 C  
HETATM   35  O   UNL     1      -6.979  17.810  68.934  1.00  0.00    -0.237 OA 
HETATM   36  C   UNL     1      -6.325  19.599  67.461  1.00  0.00    -0.220 C  
HETATM   37  H   UNL     1     -11.213  18.044  67.338  1.00  0.00     0.000 HD 
HETATM   38  H   UNL     1      -7.316  18.455  69.545  1.00  0.00     0.000 HD 
HETATM   39  C   UNL     1      -9.413  17.151  67.246  1.00  0.00    -0.245 C  
HETATM   40  O   UNL     1     -10.760  17.418  66.786  1.00  0.00    -0.236 OA 
BRANCH  34  41
HETATM   41  N   UNL     1      -9.414  19.559  68.070  1.00  0.00    -0.327 NA 
HETATM   42  C   UNL     1      -9.908  20.714  67.341  1.00  0.00    -0.387 C  
HETATM   43  H   UNL     1      -9.579  19.458  69.072  1.00  0.00     0.000 HD 
ENDBRANCH  34  41
ENDBRANCH  29  30
ENDBRANCH  23  29
ENDBRANCH  14  15
ENDBRANCH   9  14
ENDBRANCH   4   5
ENDBRANCH   2   4
TORSDOF 7
ENDMDL
MODEL      210
REMARK 921   NORMALIZED FREE ENERGY PREDICTED BY IDOCK:   -4.10 KCAL/MOL
REMARK 922        TOTAL FREE ENERGY PREDICTED BY IDOCK:   -7.48 KCAL/MOL
REMARK 923 INTER-LIGAND FREE ENERGY PREDICTED BY IDOCK:   -6.73 KCAL/MOL
REMARK 924 INTRA-LIGAND FREE ENERGY PREDICTED BY IDOCK:   -0.76 KCAL/MOL
REMARK 927      BINDING AFFINITY PREDICTED BY RF-SCORE:    0.00 PKD
ROOT
HETATM    1  C   UNL     1      -9.835   4.406  73.705  1.00  0.00    -0.129 C  
HETATM    2  N   UNL     1     -10.994   5.279  73.809  1.00  0.00    -0.393 NA 
HETATM    3  H   UNL     1     -10.872   5.947  74.570  1.00  0.00     0.000 HD 
ENDROOT
BRANCH   2   4
HETATM    4  C   UNL     1     -11.329   5.976  72.558  1.00  0.00    -0.300 C  
BRANCH   4   5
HETATM    5  C   UNL     1     -10.231   6.916  71.991  1.00  0.00    -0.187 C  
HETATM    6  C   UNL     1      -9.456   7.671  73.056  1.00  0.00    -0.282 C  
HETATM    7  C   UNL     1      -8.378   8.518  72.382  1.00  0.00    -0.177 C  
HETATM    8  C   UNL     1      -8.915   9.322  71.179  1.00  0.00    -0.097 C  
HETATM    9  C   UNL     1      -9.941   8.523  70.256  1.00  0.00    -0.183 C  
HETATM   10  N   UNL     1      -7.781   9.987  70.495  1.00  0.00    -0.420 NA 
HETATM   11  O   UNL     1     -10.871   7.881  71.123  1.00  0.00    -0.230 OA 
HETATM   12  H1  UNL     1      -8.136  10.518  69.701  1.00  0.00     0.000 HD 
HETATM   13  H2  UNL     1      -7.050   9.328  70.226  1.00  0.00     0.000 HD 
BRANCH   9  14
HETATM   14  O   UNL     1      -9.366   7.611  69.290  1.00  0.00    -0.149 OA 
BRANCH  14  15
HETATM   15  C   UNL     1      -9.255   8.044  67.869  1.00  0.00    -0.131 C  
HETATM   16  C   UNL     1      -7.822   7.969  67.276  1.00  0.00    -0.109 C  
HETATM   17  N   UNL     1      -7.429   6.564  67.044  1.00  0.00    -0.086 NA 
HETATM   18  C   UNL     1      -7.708   8.703  65.924  1.00  0.00    -0.101 C  
HETATM   19  H2  UNL     1      -8.106   6.073  66.461  1.00  0.00     0.000 HD 
HETATM   20  H1  UNL     1      -6.488   6.515  66.655  1.00  0.00     0.000 HD 
HETATM   21  C   UNL     1      -8.159  10.169  66.000  1.00  0.00    -0.129 C  
HETATM   22  N   UNL     1      -7.839  10.872  64.753  1.00  0.00    -0.338 NA 
HETATM   23  C   UNL     1      -9.665  10.264  66.311  1.00  0.00    -0.209 C  
HETATM   24  C   UNL     1      -9.965   9.407  67.580  1.00  0.00    -0.190 C  
HETATM   25  O   UNL     1     -11.396   9.233  67.704  1.00  0.00    -0.372 OA 
HETATM   26  H1  UNL     1      -8.138  11.845  64.804  1.00  0.00     0.000 HD 
HETATM   27  H2  UNL     1      -8.229  10.397  63.939  1.00  0.00     0.000 HD 
HETATM   28  H   UNL     1     -11.828  10.061  67.528  1.00  0.00     0.000 HD 
BRANCH  23  29
HETATM   29  O   UNL     1     -10.013  11.635  66.661  1.00  0.00    -0.198 OA 
BRANCH  29  30
HETATM   30  C   UNL     1      -9.046  12.571  67.181  1.00  0.00    -0.205 C  
HETATM   31  O   UNL     1      -8.587  12.309  68.510  1.00  0.00    -0.150 OA 
HETATM   32  C   UNL     1      -7.524  13.195  68.895  1.00  0.00     0.011 C  
HETATM   33  C   UNL     1      -7.950  14.686  68.925  1.00  0.00    -0.149 C  
HETATM   34  C   UNL     1      -8.461  15.081  67.512  1.00  0.00    -0.174 C  
HETATM   35  O   UNL     1      -9.006  14.847  69.885  1.00  0.00    -0.437 OA 
HETATM   36  C   UNL     1      -6.753  15.534  69.383  1.00  0.00    -0.169 C  
HETATM   37  H   UNL     1     -10.111  15.280  65.513  1.00  0.00     0.000 HD 
HETATM   38  H   UNL     1      -9.266  15.761  69.903  1.00  0.00     0.000 HD 
HETATM   39  C   UNL     1      -9.533  14.058  67.003  1.00  0.00    -0.250 C  
HETATM   40  O   UNL     1      -9.818  14.383  65.620  1.00  0.00    -0.324 OA 
BRANCH  34  41
HETATM   41  N   UNL     1      -8.851  16.499  67.242  1.00  0.00    -0.189 NA 
HETATM   42  C   UNL     1      -8.113  17.222  66.222  1.00  0.00    -0.280 C  
HETATM   43  H   UNL     1      -9.612  16.943  67.758  1.00  0.00     0.000 HD 
ENDBRANCH  34  41
ENDBRANCH  29  30
ENDBRANCH  23  29
ENDBRANCH  14  15
ENDBRANCH   9  14
ENDBRANCH   4   5
ENDBRANCH   2   4
TORSDOF 7
ENDMDL
MODEL      211
REMARK 921   NORMALIZED FREE ENERGY PREDICTED BY IDOCK:   -4.10 KCAL/MOL
REMARK 922        TOTAL FREE ENERGY PREDICTED BY IDOCK:   -7.48 KCAL/MOL
REMARK 923 INTER-LIGAND FREE ENERGY PREDICTED BY IDOCK:   -8.34 KCAL/MOL
REMARK 924 INTRA-LIGAND FREE ENERGY PREDICTED BY IDOCK:    0.86 KCAL/MOL
REMARK 927      BINDING AFFINITY PREDICTED BY RF-SCORE:    0.00 PKD
ROOT
HETATM    1  C   UNL     1      -9.914  19.649  66.007  1.00  0.00    -0.422 C  
HETATM    2  N   UNL     1      -9.336  18.354  66.332  1.00  0.00    -0.386 NA 
HETATM    3  H   UNL     1      -8.544  18.463  66.965  1.00  0.00     0.000 HD 
ENDROOT
BRANCH   2   4
HETATM    4  C   UNL     1     -10.304  17.390  66.877  1.00  0.00    -0.317 C  
BRANCH   4   5
HETATM    5  C   UNL     1      -9.728  16.006  67.283  1.00  0.00    -0.232 C  
HETATM    6  C   UNL     1      -8.343  15.729  66.726  1.00  0.00    -0.309 C  
HETATM    7  C   UNL     1      -7.865  14.369  67.233  1.00  0.00    -0.188 C  
HETATM    8  C   UNL     1      -8.935  13.266  67.082  1.00  0.00    -0.229 C  
HETATM    9  C   UNL     1     -10.418  13.731  67.439  1.00  0.00    -0.256 C  
HETATM   10  N   UNL     1      -8.449  12.028  67.736  1.00  0.00    -0.148 NA 
HETATM   11  O   UNL     1     -10.629  14.985  66.796  1.00  0.00    -0.289 OA 
HETATM   12  H1  UNL     1      -9.155  11.300  67.637  1.00  0.00     0.000 HD 
HETATM   13  H2  UNL     1      -8.184  12.181  68.709  1.00  0.00     0.000 HD 
BRANCH   9  14
HETATM   14  O   UNL     1     -10.764  13.767  68.844  1.00  0.00    -0.248 OA 
BRANCH  14  15
HETATM   15  C   UNL     1     -11.791  12.818  69.355  1.00  0.00    -0.300 C  
HETATM   16  C   UNL     1     -12.337  13.151  70.771  1.00  0.00    -0.321 C  
HETATM   17  N   UNL     1     -13.224  14.331  70.720  1.00  0.00    -0.366 NA 
HETATM   18  C   UNL     1     -13.158  11.991  71.371  1.00  0.00    -0.295 C  
HETATM   19  H2  UNL     1     -13.977  14.211  70.043  1.00  0.00     0.000 HD 
HETATM   20  H1  UNL     1     -13.582  14.550  71.650  1.00  0.00     0.000 HD 
HETATM   21  C   UNL     1     -12.378  10.668  71.416  1.00  0.00    -0.350 C  
HETATM   22  N   UNL     1     -13.121   9.659  72.178  1.00  0.00    -0.430 NA 
HETATM   23  C   UNL     1     -12.069  10.164  69.994  1.00  0.00    -0.095 C  
HETATM   24  C   UNL     1     -11.382  11.317  69.197  1.00  0.00    -0.282 C  
HETATM   25  O   UNL     1     -11.367  10.974  67.791  1.00  0.00    -0.314 OA 
HETATM   26  H1  UNL     1     -12.603   8.781  72.208  1.00  0.00     0.000 HD 
HETATM   27  H2  UNL     1     -14.065   9.529  71.815  1.00  0.00     0.000 HD 
HETATM   28  H   UNL     1     -11.118  10.062  67.694  1.00  0.00     0.000 HD 
BRANCH  23  29
HETATM   29  O   UNL     1     -11.096   9.081  70.052  1.00  0.00    -0.239 OA 
BRANCH  29  30
HETATM   30  C   UNL     1     -11.130   8.064  71.074  1.00  0.00    -0.253 C  
HETATM   31  O   UNL     1     -10.437   8.381  72.284  1.00  0.00    -0.292 OA 
HETATM   32  C   UNL     1     -10.643   7.385  73.298  1.00  0.00    -0.392 C  
HETATM   33  C   UNL     1     -10.101   5.986  72.902  1.00  0.00    -0.182 C  
HETATM   34  C   UNL     1     -10.804   5.538  71.591  1.00  0.00    -0.204 C  
HETATM   35  O   UNL     1      -8.684   6.084  72.684  1.00  0.00    -0.122 OA 
HETATM   36  C   UNL     1     -10.339   5.014  74.068  1.00  0.00    -0.299 C  
HETATM   37  H   UNL     1     -11.289   5.400  69.040  1.00  0.00     0.000 HD 
HETATM   38  H   UNL     1      -8.353   5.227  72.442  1.00  0.00     0.000 HD 
HETATM   39  C   UNL     1     -10.711   6.659  70.500  1.00  0.00    -0.247 C  
HETATM   40  O   UNL     1     -11.542   6.248  69.387  1.00  0.00    -0.403 OA 
BRANCH  34  41
HETATM   41  N   UNL     1     -10.526   4.177  71.037  1.00  0.00     0.222 NA 
HETATM   42  C   UNL     1      -9.605   3.324  71.768  1.00  0.00    -0.156 C  
HETATM   43  H   UNL     1     -10.969   3.859  70.175  1.00  0.00     0.000 HD 
ENDBRANCH  34  41
ENDBRANCH  29  30
ENDBRANCH  23  29
ENDBRANCH  14  15
ENDBRANCH   9  14
ENDBRANCH   4   5
ENDBRANCH   2   4
TORSDOF 7
ENDMDL
MODEL      212
REMARK 921   NORMALIZED FREE ENERGY PREDICTED BY IDOCK:   -4.09 KCAL/MOL
REMARK 922        TOTAL FREE ENERGY PREDICTED BY IDOCK:   -7.47 KCAL/MOL
REMARK 923 INTER-LIGAND FREE ENERGY PREDICTED BY IDOCK:   -6.76 KCAL/MOL
REMARK 924 INTRA-LIGAND FREE ENERGY PREDICTED BY IDOCK:   -0.71 KCAL/MOL
REMARK 927      BINDING AFFINITY PREDICTED BY RF-SCORE:    0.00 PKD
ROOT
HETATM    1  C   UNL     1     -11.547  10.373  70.813  1.00  0.00    -0.358 C  
HETATM    2  N   UNL     1     -12.419  10.993  69.826  1.00  0.00    -0.310 NA 
HETATM    3  H   UNL     1     -13.384  11.004  70.158  1.00  0.00     0.000 HD 
ENDROOT
BRANCH   2   4
HETATM    4  C   UNL     1     -11.996  12.341  69.420  1.00  0.00    -0.259 C  
BRANCH   4   5
HETATM    5  C   UNL     1     -11.316  12.448  68.029  1.00  0.00    -0.287 C  
HETATM    6  C   UNL     1     -11.667  13.714  67.268  1.00  0.00    -0.416 C  
HETATM    7  C   UNL     1     -10.902  13.729  65.945  1.00  0.00    -0.283 C  
HETATM    8  C   UNL     1     -10.992  12.386  65.188  1.00  0.00    -0.302 C  
HETATM    9  C   UNL     1     -10.878  11.095  66.117  1.00  0.00    -0.185 C  
HETATM   10  N   UNL     1     -10.102  12.437  64.004  1.00  0.00    -0.537 NA 
HETATM   11  O   UNL     1     -11.731  11.310  67.238  1.00  0.00    -0.566 OA 
HETATM   12  H1  UNL     1     -10.162  11.550  63.504  1.00  0.00     0.000 HD 
HETATM   13  H2  UNL     1      -9.142  12.680  64.251  1.00  0.00     0.000 HD 
BRANCH   9  14
HETATM   14  O   UNL     1      -9.543  10.696  66.508  1.00  0.00    -0.172 OA 
BRANCH  14  15
HETATM   15  C   UNL     1      -9.319  10.194  67.892  1.00  0.00    -0.141 C  
HETATM   16  C   UNL     1      -7.981  10.647  68.539  1.00  0.00    -0.122 C  
HETATM   17  N   UNL     1      -8.037  12.079  68.898  1.00  0.00    -0.349 NA 
HETATM   18  C   UNL     1      -7.661   9.867  69.831  1.00  0.00    -0.177 C  
HETATM   19  H2  UNL     1      -8.837  12.289  69.495  1.00  0.00     0.000 HD 
HETATM   20  H1  UNL     1      -7.159  12.376  69.323  1.00  0.00     0.000 HD 
HETATM   21  C   UNL     1      -7.644   8.345  69.620  1.00  0.00    -0.089 C  
HETATM   22  N   UNL     1      -7.136   7.666  70.817  1.00  0.00    -0.053 NA 
HETATM   23  C   UNL     1      -9.047   7.826  69.250  1.00  0.00    -0.145 C  
HETATM   24  C   UNL     1      -9.582   8.660  68.045  1.00  0.00    -0.149 C  
HETATM   25  O   UNL     1     -10.997   8.403  67.885  1.00  0.00    -0.480 OA 
HETATM   26  H1  UNL     1      -7.125   6.656  70.677  1.00  0.00     0.000 HD 
HETATM   27  H2  UNL     1      -7.660   7.927  71.652  1.00  0.00     0.000 HD 
HETATM   28  H   UNL     1     -11.158   7.471  67.978  1.00  0.00     0.000 HD 
BRANCH  23  29
HETATM   29  O   UNL     1      -8.958   6.450  68.778  1.00  0.00    -0.127 OA 
BRANCH  29  30
HETATM   30  C   UNL     1      -9.316   6.068  67.434  1.00  0.00    -0.111 C  
HETATM   31  O   UNL     1     -10.314   5.050  67.328  1.00  0.00    -0.188 OA 
HETATM   32  C   UNL     1     -10.717   4.834  65.966  1.00  0.00    -0.158 C  
HETATM   33  C   UNL     1      -9.564   4.334  65.057  1.00  0.00    -0.177 C  
HETATM   34  C   UNL     1      -8.418   5.383  65.093  1.00  0.00    -0.150 C  
HETATM   35  O   UNL     1      -9.087   3.078  65.564  1.00  0.00    -0.144 OA 
HETATM   36  C   UNL     1     -10.113   4.102  63.641  1.00  0.00    -0.074 C  
HETATM   37  H   UNL     1      -6.339   6.653  66.002  1.00  0.00     0.000 HD 
HETATM   38  H   UNL     1      -8.381   2.772  65.007  1.00  0.00     0.000 HD 
HETATM   39  C   UNL     1      -8.039   5.741  66.571  1.00  0.00    -0.102 C  
HETATM   40  O   UNL     1      -7.109   6.850  66.522  1.00  0.00    -0.064 OA 
BRANCH  34  41
HETATM   41  N   UNL     1      -7.216   5.187  64.227  1.00  0.00    -0.053 NA 
HETATM   42  C   UNL     1      -6.216   4.228  64.664  1.00  0.00    -0.026 C  
HETATM   43  H   UNL     1      -7.101   5.709  63.359  1.00  0.00     0.000 HD 
ENDBRANCH  34  41
ENDBRANCH  29  30
ENDBRANCH  23  29
ENDBRANCH  14  15
ENDBRANCH   9  14
ENDBRANCH   4   5
ENDBRANCH   2   4
TORSDOF 7
ENDMDL
MODEL      213
REMARK 921   NORMALIZED FREE ENERGY PREDICTED BY IDOCK:   -4.08 KCAL/MOL
REMARK 922        TOTAL FREE ENERGY PREDICTED BY IDOCK:   -7.46 KCAL/MOL
REMARK 923 INTER-LIGAND FREE ENERGY PREDICTED BY IDOCK:   -6.36 KCAL/MOL
REMARK 924 INTRA-LIGAND FREE ENERGY PREDICTED BY IDOCK:   -1.11 KCAL/MOL
REMARK 927      BINDING AFFINITY PREDICTED BY RF-SCORE:    0.00 PKD
ROOT
HETATM    1  C   UNL     1      -8.474  16.877  68.085  1.00  0.00    -0.217 C  
HETATM    2  N   UNL     1      -9.858  16.835  67.637  1.00  0.00    -0.256 NA 
HETATM    3  H   UNL     1     -10.164  17.759  67.333  1.00  0.00     0.000 HD 
ENDROOT
BRANCH   2   4
HETATM    4  C   UNL     1     -10.115  15.835  66.591  1.00  0.00    -0.279 C  
BRANCH   4   5
HETATM    5  C   UNL     1     -10.788  14.518  67.062  1.00  0.00    -0.297 C  
HETATM    6  C   UNL     1     -11.701  14.689  68.263  1.00  0.00    -0.359 C  
HETATM    7  C   UNL     1     -12.341  13.342  68.599  1.00  0.00     0.052 C  
HETATM    8  C   UNL     1     -11.318  12.187  68.633  1.00  0.00    -0.280 C  
HETATM    9  C   UNL     1     -10.223  12.240  67.475  1.00  0.00    -0.204 C  
HETATM   10  N   UNL     1     -12.040  10.906  68.810  1.00  0.00    -0.763 NA 
HETATM   11  O   UNL     1      -9.744  13.581  67.414  1.00  0.00    -0.220 OA 
HETATM   12  H1  UNL     1     -11.364  10.142  68.833  1.00  0.00     0.000 HD 
HETATM   13  H2  UNL     1     -12.760  10.765  68.101  1.00  0.00     0.000 HD 
BRANCH   9  14
HETATM   14  O   UNL     1     -10.628  11.739  66.179  1.00  0.00    -0.243 OA 
BRANCH  14  15
HETATM   15  C   UNL     1      -9.599  11.589  65.113  1.00  0.00    -0.210 C  
HETATM   16  C   UNL     1     -10.147  11.090  63.747  1.00  0.00    -0.363 C  
HETATM   17  N   UNL     1     -10.915  12.158  63.075  1.00  0.00    -0.633 NA 
HETATM   18  C   UNL     1      -9.019  10.667  62.783  1.00  0.00    -0.290 C  
HETATM   19  H2  UNL     1     -10.368  13.013  62.975  1.00  0.00     0.000 HD 
HETATM   20  H1  UNL     1     -11.275  11.831  62.179  1.00  0.00     0.000 HD 
HETATM   21  C   UNL     1      -8.087   9.604  63.385  1.00  0.00    -0.151 C  
HETATM   22  N   UNL     1      -7.168   9.089  62.364  1.00  0.00    -0.099 NA 
HETATM   23  C   UNL     1      -7.309  10.173  64.586  1.00  0.00    -0.129 C  
HETATM   24  C   UNL     1      -8.329  10.808  65.583  1.00  0.00    -0.144 C  
HETATM   25  O   UNL     1      -7.609  11.609  66.548  1.00  0.00    -0.312 OA 
HETATM   26  H1  UNL     1      -6.549   8.384  62.764  1.00  0.00     0.000 HD 
HETATM   27  H2  UNL     1      -6.646   9.839  61.912  1.00  0.00     0.000 HD 
HETATM   28  H   UNL     1      -6.836  11.135  66.834  1.00  0.00     0.000 HD 
BRANCH  23  29
HETATM   29  O   UNL     1      -6.658   9.091  65.313  1.00  0.00    -0.067 OA 
BRANCH  29  30
HETATM   30  C   UNL     1      -7.391   7.982  65.870  1.00  0.00    -0.076 C  
HETATM   31  O   UNL     1      -7.574   8.012  67.288  1.00  0.00    -0.094 OA 
HETATM   32  C   UNL     1      -8.435   6.956  67.742  1.00  0.00    -0.123 C  
HETATM   33  C   UNL     1      -7.869   5.539  67.460  1.00  0.00    -0.101 C  
HETATM   34  C   UNL     1      -7.642   5.395  65.930  1.00  0.00    -0.083 C  
HETATM   35  O   UNL     1      -6.618   5.395  68.151  1.00  0.00    -0.046 OA 
HETATM   36  C   UNL     1      -8.847   4.494  68.017  1.00  0.00    -0.122 C  
HETATM   37  H   UNL     1      -6.455   5.664  63.632  1.00  0.00     0.000 HD 
HETATM   38  H   UNL     1      -6.272   4.527  67.979  1.00  0.00     0.000 HD 
HETATM   39  C   UNL     1      -6.812   6.603  65.375  1.00  0.00    -0.055 C  
HETATM   40  O   UNL     1      -6.805   6.496  63.930  1.00  0.00    -0.042 OA 
BRANCH  34  41
HETATM   41  N   UNL     1      -7.182   4.085  65.376  1.00  0.00    -0.067 NA 
HETATM   42  C   UNL     1      -7.948   3.504  64.287  1.00  0.00    -0.086 C  
HETATM   43  H   UNL     1      -6.358   3.615  65.751  1.00  0.00     0.000 HD 
ENDBRANCH  34  41
ENDBRANCH  29  30
ENDBRANCH  23  29
ENDBRANCH  14  15
ENDBRANCH   9  14
ENDBRANCH   4   5
ENDBRANCH   2   4
TORSDOF 7
ENDMDL
MODEL      214
REMARK 921   NORMALIZED FREE ENERGY PREDICTED BY IDOCK:   -4.07 KCAL/MOL
REMARK 922        TOTAL FREE ENERGY PREDICTED BY IDOCK:   -7.45 KCAL/MOL
REMARK 923 INTER-LIGAND FREE ENERGY PREDICTED BY IDOCK:   -6.63 KCAL/MOL
REMARK 924 INTRA-LIGAND FREE ENERGY PREDICTED BY IDOCK:   -0.82 KCAL/MOL
REMARK 927      BINDING AFFINITY PREDICTED BY RF-SCORE:    0.00 PKD
ROOT
HETATM    1  C   UNL     1     -10.710  18.370  67.680  1.00  0.00    -0.357 C  
HETATM    2  N   UNL     1      -9.960  19.303  66.853  1.00  0.00    -0.332 NA 
HETATM    3  H   UNL     1      -9.961  20.233  67.271  1.00  0.00     0.000 HD 
ENDROOT
BRANCH   2   4
HETATM    4  C   UNL     1      -8.586  18.868  66.562  1.00  0.00    -0.305 C  
BRANCH   4   5
HETATM    5  C   UNL     1      -8.042  17.707  67.438  1.00  0.00    -0.207 C  
HETATM    6  C   UNL     1      -6.587  17.871  67.842  1.00  0.00    -0.188 C  
HETATM    7  C   UNL     1      -6.184  16.700  68.738  1.00  0.00    -0.147 C  
HETATM    8  C   UNL     1      -6.624  15.334  68.170  1.00  0.00    -0.125 C  
HETATM    9  C   UNL     1      -8.080  15.326  67.520  1.00  0.00    -0.172 C  
HETATM   10  N   UNL     1      -6.334  14.278  69.169  1.00  0.00    -0.098 NA 
HETATM   11  O   UNL     1      -8.171  16.478  66.686  1.00  0.00    -0.211 OA 
HETATM   12  H1  UNL     1      -6.625  13.376  68.794  1.00  0.00     0.000 HD 
HETATM   13  H2  UNL     1      -6.758  14.475  70.076  1.00  0.00     0.000 HD 
BRANCH   9  14
HETATM   14  O   UNL     1      -9.196  15.217  68.435  1.00  0.00    -0.184 OA 
BRANCH  14  15
HETATM   15  C   UNL     1     -10.186  14.124  68.234  1.00  0.00    -0.243 C  
HETATM   16  C   UNL     1     -11.391  14.148  69.215  1.00  0.00    -0.281 C  
HETATM   17  N   UNL     1     -12.309  15.256  68.881  1.00  0.00    -0.604 NA 
HETATM   18  C   UNL     1     -12.214  12.844  69.165  1.00  0.00    -0.083 C  
HETATM   19  H2  UNL     1     -12.614  15.216  67.909  1.00  0.00     0.000 HD 
HETATM   20  H1  UNL     1     -13.099  15.272  69.525  1.00  0.00     0.000 HD 
HETATM   21  C   UNL     1     -11.363  11.591  69.422  1.00  0.00    -0.289 C  
HETATM   22  N   UNL     1     -12.220  10.410  69.569  1.00  0.00    -0.541 NA 
HETATM   23  C   UNL     1     -10.335  11.385  68.294  1.00  0.00    -0.194 C  
HETATM   24  C   UNL     1      -9.531  12.710  68.107  1.00  0.00    -0.218 C  
HETATM   25  O   UNL     1      -8.788  12.639  66.867  1.00  0.00    -0.210 OA 
HETATM   26  H1  UNL     1     -11.656   9.578  69.740  1.00  0.00     0.000 HD 
HETATM   27  H2  UNL     1     -12.841  10.289  68.769  1.00  0.00     0.000 HD 
HETATM   28  H   UNL     1      -8.390  11.780  66.790  1.00  0.00     0.000 HD 
BRANCH  23  29
HETATM   29  O   UNL     1      -9.360  10.376  68.690  1.00  0.00    -0.152 OA 
BRANCH  29  30
HETATM   30  C   UNL     1      -9.227   9.117  68.001  1.00  0.00    -0.134 C  
HETATM   31  O   UNL     1     -10.416   8.626  67.376  1.00  0.00    -0.263 OA 
HETATM   32  C   UNL     1     -10.164   7.449  66.592  1.00  0.00    -0.177 C  
HETATM   33  C   UNL     1      -9.652   6.250  67.433  1.00  0.00    -0.119 C  
HETATM   34  C   UNL     1      -8.344   6.677  68.154  1.00  0.00    -0.117 C  
HETATM   35  O   UNL     1     -10.652   5.907  68.406  1.00  0.00    -0.216 OA 
HETATM   36  C   UNL     1      -9.454   5.042  66.505  1.00  0.00    -0.151 C  
HETATM   37  H   UNL     1      -6.836   7.798  69.951  1.00  0.00     0.000 HD 
HETATM   38  H   UNL     1     -10.338   5.173  68.920  1.00  0.00     0.000 HD 
HETATM   39  C   UNL     1      -8.546   8.031  68.917  1.00  0.00    -0.131 C  
HETATM   40  O   UNL     1      -7.247   8.453  69.399  1.00  0.00    -0.057 OA 
BRANCH  34  41
HETATM   41  N   UNL     1      -7.591   5.671  68.965  1.00  0.00    -0.086 NA 
HETATM   42  C   UNL     1      -6.324   5.192  68.443  1.00  0.00    -0.036 C  
HETATM   43  H   UNL     1      -7.956   5.334  69.856  1.00  0.00     0.000 HD 
ENDBRANCH  34  41
ENDBRANCH  29  30
ENDBRANCH  23  29
ENDBRANCH  14  15
ENDBRANCH   9  14
ENDBRANCH   4   5
ENDBRANCH   2   4
TORSDOF 7
ENDMDL
MODEL      215
REMARK 921   NORMALIZED FREE ENERGY PREDICTED BY IDOCK:   -4.06 KCAL/MOL
REMARK 922        TOTAL FREE ENERGY PREDICTED BY IDOCK:   -7.43 KCAL/MOL
REMARK 923 INTER-LIGAND FREE ENERGY PREDICTED BY IDOCK:   -6.86 KCAL/MOL
REMARK 924 INTRA-LIGAND FREE ENERGY PREDICTED BY IDOCK:   -0.57 KCAL/MOL
REMARK 927      BINDING AFFINITY PREDICTED BY RF-SCORE:    0.00 PKD
ROOT
HETATM    1  C   UNL     1      -8.460   4.548  66.718  1.00  0.00    -0.105 C  
HETATM    2  N   UNL     1      -9.280   4.068  67.820  1.00  0.00    -0.146 NA 
HETATM    3  H   UNL     1      -8.710   3.920  68.653  1.00  0.00     0.000 HD 
ENDROOT
BRANCH   2   4
HETATM    4  C   UNL     1     -10.430   4.931  68.127  1.00  0.00     0.124 C  
BRANCH   4   5
HETATM    5  C   UNL     1     -10.304   5.798  69.410  1.00  0.00    -0.262 C  
HETATM    6  C   UNL     1     -10.178   4.989  70.688  1.00  0.00    -0.306 C  
HETATM    7  C   UNL     1     -10.010   5.947  71.868  1.00  0.00    -0.203 C  
HETATM    8  C   UNL     1     -11.030   7.105  71.847  1.00  0.00    -0.231 C  
HETATM    9  C   UNL     1     -11.300   7.721  70.401  1.00  0.00    -0.207 C  
HETATM   10  N   UNL     1     -10.698   8.062  72.929  1.00  0.00    -0.368 NA 
HETATM   11  O   UNL     1     -11.485   6.627  69.508  1.00  0.00    -0.320 OA 
HETATM   12  H1  UNL     1     -11.372   8.827  72.915  1.00  0.00     0.000 HD 
HETATM   13  H2  UNL     1      -9.735   8.393  72.873  1.00  0.00     0.000 HD 
BRANCH   9  14
HETATM   14  O   UNL     1     -10.326   8.674  69.913  1.00  0.00    -0.199 OA 
BRANCH  14  15
HETATM   15  C   UNL     1     -10.556   9.325  68.593  1.00  0.00    -0.187 C  
HETATM   16  C   UNL     1      -9.302   9.409  67.682  1.00  0.00    -0.127 C  
HETATM   17  N   UNL     1      -8.962   8.077  67.143  1.00  0.00    -0.133 NA 
HETATM   18  C   UNL     1      -9.515  10.347  66.475  1.00  0.00    -0.204 C  
HETATM   19  H2  UNL     1      -9.752   7.650  66.660  1.00  0.00     0.000 HD 
HETATM   20  H1  UNL     1      -8.138   8.132  66.544  1.00  0.00     0.000 HD 
HETATM   21  C   UNL     1      -9.950  11.761  66.889  1.00  0.00    -0.199 C  
HETATM   22  N   UNL     1      -9.937  12.662  65.730  1.00  0.00    -0.265 NA 
HETATM   23  C   UNL     1     -11.341  11.737  67.549  1.00  0.00    -0.310 C  
HETATM   24  C   UNL     1     -11.327  10.682  68.698  1.00  0.00    -0.281 C  
HETATM   25  O   UNL     1     -12.687  10.424  69.119  1.00  0.00    -0.547 OA 
HETATM   26  H1  UNL     1     -10.226  13.601  66.004  1.00  0.00     0.000 HD 
HETATM   27  H2  UNL     1     -10.504  12.300  64.963  1.00  0.00     0.000 HD 
HETATM   28  H   UNL     1     -13.156  11.249  69.183  1.00  0.00     0.000 HD 
BRANCH  23  29
HETATM   29  O   UNL     1     -11.610  13.020  68.185  1.00  0.00    -0.297 OA 
BRANCH  29  30
HETATM   30  C   UNL     1     -10.636  14.083  68.225  1.00  0.00    -0.249 C  
HETATM   31  O   UNL     1     -10.152  14.429  69.526  1.00  0.00    -0.020 OA 
HETATM   32  C   UNL     1      -9.085  15.388  69.465  1.00  0.00    -0.231 C  
HETATM   33  C   UNL     1      -9.513  16.744  68.844  1.00  0.00    -0.246 C  
HETATM   34  C   UNL     1     -10.051  16.481  67.410  1.00  0.00    -0.279 C  
HETATM   35  O   UNL     1     -10.552  17.315  69.655  1.00  0.00    -0.340 OA 
HETATM   36  C   UNL     1      -8.311  17.700  68.863  1.00  0.00    -0.139 C  
HETATM   37  H   UNL     1     -11.738  15.791  65.556  1.00  0.00     0.000 HD 
HETATM   38  H   UNL     1     -10.814  18.145  69.275  1.00  0.00     0.000 HD 
HETATM   39  C   UNL     1     -11.130  15.344  67.421  1.00  0.00    -0.311 C  
HETATM   40  O   UNL     1     -11.440  15.031  66.041  1.00  0.00    -0.321 OA 
BRANCH  34  41
HETATM   41  N   UNL     1     -10.450  17.639  66.553  1.00  0.00    -0.318 NA 
HETATM   42  C   UNL     1      -9.418  18.279  65.756  1.00  0.00     0.362 C  
HETATM   43  H   UNL     1     -11.415  17.968  66.528  1.00  0.00     0.000 HD 
ENDBRANCH  34  41
ENDBRANCH  29  30
ENDBRANCH  23  29
ENDBRANCH  14  15
ENDBRANCH   9  14
ENDBRANCH   4   5
ENDBRANCH   2   4
TORSDOF 7
ENDMDL
MODEL      216
REMARK 921   NORMALIZED FREE ENERGY PREDICTED BY IDOCK:   -4.06 KCAL/MOL
REMARK 922        TOTAL FREE ENERGY PREDICTED BY IDOCK:   -7.43 KCAL/MOL
REMARK 923 INTER-LIGAND FREE ENERGY PREDICTED BY IDOCK:   -8.99 KCAL/MOL
REMARK 924 INTRA-LIGAND FREE ENERGY PREDICTED BY IDOCK:    1.57 KCAL/MOL
REMARK 927      BINDING AFFINITY PREDICTED BY RF-SCORE:    0.00 PKD
ROOT
HETATM    1  C   UNL     1      -9.790  19.278  66.934  1.00  0.00    -0.342 C  
HETATM    2  N   UNL     1      -9.682  18.316  65.848  1.00  0.00    -0.507 NA 
HETATM    3  H   UNL     1      -9.048  18.660  65.126  1.00  0.00     0.000 HD 
ENDROOT
BRANCH   2   4
HETATM    4  C   UNL     1      -9.286  16.968  66.284  1.00  0.00    -0.248 C  
BRANCH   4   5
HETATM    5  C   UNL     1     -10.104  15.794  65.682  1.00  0.00    -0.371 C  
HETATM    6  C   UNL     1     -11.317  16.235  64.882  1.00  0.00    -0.161 C  
HETATM    7  C   UNL     1     -12.007  15.001  64.302  1.00  0.00    -0.310 C  
HETATM    8  C   UNL     1     -12.202  13.880  65.345  1.00  0.00    -0.444 C  
HETATM    9  C   UNL     1     -10.962  13.666  66.325  1.00  0.00    -0.299 C  
HETATM   10  N   UNL     1     -12.731  12.673  64.666  1.00  0.00    -0.704 NA 
HETATM   11  O   UNL     1     -10.556  14.957  66.772  1.00  0.00    -0.293 OA 
HETATM   12  H1  UNL     1     -12.860  11.933  65.355  1.00  0.00     0.000 HD 
HETATM   13  H2  UNL     1     -12.144  12.378  63.886  1.00  0.00     0.000 HD 
BRANCH   9  14
HETATM   14  O   UNL     1      -9.858  12.887  65.810  1.00  0.00    -0.264 OA 
BRANCH  14  15
HETATM   15  C   UNL     1      -9.642  11.510  66.335  1.00  0.00    -0.209 C  
HETATM   16  C   UNL     1     -10.312  10.384  65.501  1.00  0.00    -0.195 C  
HETATM   17  N   UNL     1      -9.591  10.182  64.227  1.00  0.00    -0.304 NA 
HETATM   18  C   UNL     1     -10.317   9.030  66.240  1.00  0.00    -0.130 C  
HETATM   19  H2  UNL     1      -8.599  10.002  64.378  1.00  0.00     0.000 HD 
HETATM   20  H1  UNL     1     -10.031   9.443  63.680  1.00  0.00     0.000 HD 
HETATM   21  C   UNL     1     -10.976   9.109  67.626  1.00  0.00     0.046 C  
HETATM   22  N   UNL     1     -11.139   7.767  68.195  1.00  0.00    -0.392 NA 
HETATM   23  C   UNL     1     -10.158  10.009  68.572  1.00  0.00    -0.169 C  
HETATM   24  C   UNL     1      -9.919  11.381  67.868  1.00  0.00    -0.177 C  
HETATM   25  O   UNL     1      -8.907  12.115  68.597  1.00  0.00    -0.344 OA 
HETATM   26  H1  UNL     1     -11.577   7.819  69.114  1.00  0.00     0.000 HD 
HETATM   27  H2  UNL     1     -10.256   7.257  68.223  1.00  0.00     0.000 HD 
HETATM   28  H   UNL     1      -9.075  12.037  69.529  1.00  0.00     0.000 HD 
BRANCH  23  29
HETATM   29  O   UNL     1     -10.934  10.302  69.770  1.00  0.00    -0.249 OA 
BRANCH  29  30
HETATM   30  C   UNL     1     -11.766  11.475  69.886  1.00  0.00    -0.343 C  
HETATM   31  O   UNL     1     -11.309  12.628  69.175  1.00  0.00    -0.267 OA 
HETATM   32  C   UNL     1     -12.264  13.700  69.221  1.00  0.00    -0.238 C  
HETATM   33  C   UNL     1     -12.533  14.220  70.658  1.00  0.00    -0.358 C  
HETATM   34  C   UNL     1     -13.049  13.036  71.521  1.00  0.00    -0.310 C  
HETATM   35  O   UNL     1     -11.304  14.721  71.207  1.00  0.00    -0.515 OA 
HETATM   36  C   UNL     1     -13.534  15.384  70.585  1.00  0.00    -0.213 C  
HETATM   37  H   UNL     1     -12.937  10.882  72.974  1.00  0.00     0.000 HD 
HETATM   38  H   UNL     1     -11.469  15.039  72.086  1.00  0.00     0.000 HD 
HETATM   39  C   UNL     1     -12.097  11.798  71.392  1.00  0.00     0.373 C  
HETATM   40  O   UNL     1     -12.738  10.687  72.065  1.00  0.00    -0.366 OA 
BRANCH  34  41
HETATM   41  N   UNL     1     -13.471  13.286  72.933  1.00  0.00    -0.607 NA 
HETATM   42  C   UNL     1     -13.034  14.520  73.562  1.00  0.00    -0.081 C  
HETATM   43  H   UNL     1     -14.047  12.612  73.438  1.00  0.00     0.000 HD 
ENDBRANCH  34  41
ENDBRANCH  29  30
ENDBRANCH  23  29
ENDBRANCH  14  15
ENDBRANCH   9  14
ENDBRANCH   4   5
ENDBRANCH   2   4
TORSDOF 7
ENDMDL
MODEL      217
REMARK 921   NORMALIZED FREE ENERGY PREDICTED BY IDOCK:   -4.04 KCAL/MOL
REMARK 922        TOTAL FREE ENERGY PREDICTED BY IDOCK:   -7.41 KCAL/MOL
REMARK 923 INTER-LIGAND FREE ENERGY PREDICTED BY IDOCK:   -7.27 KCAL/MOL
REMARK 924 INTRA-LIGAND FREE ENERGY PREDICTED BY IDOCK:   -0.14 KCAL/MOL
REMARK 927      BINDING AFFINITY PREDICTED BY RF-SCORE:    0.00 PKD
ROOT
HETATM    1  C   UNL     1      -6.800   1.468  68.288  1.00  0.00    -0.032 C  
HETATM    2  N   UNL     1      -7.094   2.834  68.692  1.00  0.00    -0.048 NA 
HETATM    3  H   UNL     1      -6.924   3.481  67.922  1.00  0.00     0.000 HD 
ENDROOT
BRANCH   2   4
HETATM    4  C   UNL     1      -8.451   3.017  69.230  1.00  0.00    -0.063 C  
BRANCH   4   5
HETATM    5  C   UNL     1      -9.304   4.125  68.555  1.00  0.00    -0.156 C  
HETATM    6  C   UNL     1      -9.342   4.035  67.040  1.00  0.00    -0.204 C  
HETATM    7  C   UNL     1     -10.249   5.140  66.498  1.00  0.00    -0.300 C  
HETATM    8  C   UNL     1      -9.954   6.518  67.129  1.00  0.00    -0.157 C  
HETATM    9  C   UNL     1      -9.660   6.477  68.696  1.00  0.00    -0.125 C  
HETATM   10  N   UNL     1     -10.972   7.490  66.667  1.00  0.00    -0.334 NA 
HETATM   11  O   UNL     1      -8.745   5.408  68.922  1.00  0.00    -0.098 OA 
HETATM   12  H1  UNL     1     -10.777   8.400  67.083  1.00  0.00     0.000 HD 
HETATM   13  H2  UNL     1     -11.924   7.173  66.853  1.00  0.00     0.000 HD 
BRANCH   9  14
HETATM   14  O   UNL     1     -10.812   6.411  69.568  1.00  0.00    -0.252 OA 
BRANCH  14  15
HETATM   15  C   UNL     1     -11.041   7.514  70.542  1.00  0.00    -0.259 C  
HETATM   16  C   UNL     1     -12.500   7.629  71.064  1.00  0.00    -0.178 C  
HETATM   17  N   UNL     1     -12.804   6.527  72.000  1.00  0.00    -0.490 NA 
HETATM   18  C   UNL     1     -12.750   8.950  71.821  1.00  0.00    -0.421 C  
HETATM   19  H2  UNL     1     -12.130   6.482  72.765  1.00  0.00     0.000 HD 
HETATM   20  H1  UNL     1     -13.761   6.602  72.342  1.00  0.00     0.000 HD 
HETATM   21  C   UNL     1     -12.401  10.191  70.985  1.00  0.00    -0.373 C  
HETATM   22  N   UNL     1     -12.848  11.411  71.666  1.00  0.00    -0.416 NA 
HETATM   23  C   UNL     1     -10.889  10.249  70.693  1.00  0.00    -0.140 C  
HETATM   24  C   UNL     1     -10.450   8.885  70.075  1.00  0.00    -0.213 C  
HETATM   25  O   UNL     1      -9.006   8.807  70.083  1.00  0.00    -0.150 OA 
HETATM   26  H1  UNL     1     -12.616  12.235  71.112  1.00  0.00     0.000 HD 
HETATM   27  H2  UNL     1     -12.475  11.475  72.614  1.00  0.00     0.000 HD 
HETATM   28  H   UNL     1      -8.646   9.640  69.799  1.00  0.00     0.000 HD 
BRANCH  23  29
HETATM   29  O   UNL     1     -10.620  11.256  69.675  1.00  0.00    -0.120 OA 
BRANCH  29  30
HETATM   30  C   UNL     1     -10.765  10.990  68.265  1.00  0.00    -0.196 C  
HETATM   31  O   UNL     1      -9.619  10.425  67.622  1.00  0.00    -0.147 OA 
HETATM   32  C   UNL     1      -9.894  10.056  66.262  1.00  0.00    -0.236 C  
HETATM   33  C   UNL     1     -10.281  11.261  65.365  1.00  0.00    -0.270 C  
HETATM   34  C   UNL     1     -11.535  11.947  65.974  1.00  0.00    -0.281 C  
HETATM   35  O   UNL     1      -9.185  12.189  65.340  1.00  0.00    -0.433 OA 
HETATM   36  C   UNL     1     -10.515  10.758  63.932  1.00  0.00    -0.251 C  
HETATM   37  H   UNL     1     -12.917  13.467  67.567  1.00  0.00     0.000 HD 
HETATM   38  H   UNL     1      -9.422  12.927  64.790  1.00  0.00     0.000 HD 
HETATM   39  C   UNL     1     -11.318  12.249  67.497  1.00  0.00    -0.325 C  
HETATM   40  O   UNL     1     -12.584  12.708  68.030  1.00  0.00     0.189 OA 
BRANCH  34  41
HETATM   41  N   UNL     1     -12.171  13.090  65.250  1.00  0.00    -0.440 NA 
HETATM   42  C   UNL     1     -11.460  14.356  65.226  1.00  0.00    -0.350 C  
HETATM   43  H   UNL     1     -13.074  12.983  64.789  1.00  0.00     0.000 HD 
ENDBRANCH  34  41
ENDBRANCH  29  30
ENDBRANCH  23  29
ENDBRANCH  14  15
ENDBRANCH   9  14
ENDBRANCH   4   5
ENDBRANCH   2   4
TORSDOF 7
ENDMDL
MODEL      218
REMARK 921   NORMALIZED FREE ENERGY PREDICTED BY IDOCK:   -4.03 KCAL/MOL
REMARK 922        TOTAL FREE ENERGY PREDICTED BY IDOCK:   -7.39 KCAL/MOL
REMARK 923 INTER-LIGAND FREE ENERGY PREDICTED BY IDOCK:   -6.16 KCAL/MOL
REMARK 924 INTRA-LIGAND FREE ENERGY PREDICTED BY IDOCK:   -1.23 KCAL/MOL
REMARK 927      BINDING AFFINITY PREDICTED BY RF-SCORE:    0.00 PKD
ROOT
HETATM    1  C   UNL     1      -9.533   2.863  72.336  1.00  0.00    -0.110 C  
HETATM    2  N   UNL     1     -10.435   3.144  73.442  1.00  0.00    -0.149 NA 
HETATM    3  H   UNL     1     -10.098   2.707  74.300  1.00  0.00     0.000 HD 
ENDROOT
BRANCH   2   4
HETATM    4  C   UNL     1     -10.685   4.578  73.657  1.00  0.00    -0.272 C  
BRANCH   4   5
HETATM    5  C   UNL     1      -9.854   5.550  72.776  1.00  0.00    -0.164 C  
HETATM    6  C   UNL     1      -9.392   6.798  73.506  1.00  0.00    -0.179 C  
HETATM    7  C   UNL     1      -8.547   7.646  72.556  1.00  0.00    -0.164 C  
HETATM    8  C   UNL     1      -9.203   7.825  71.170  1.00  0.00    -0.146 C  
HETATM    9  C   UNL     1      -9.903   6.511  70.597  1.00  0.00    -0.183 C  
HETATM   10  N   UNL     1      -8.253   8.521  70.271  1.00  0.00    -0.110 NA 
HETATM   11  O   UNL     1     -10.676   5.953  71.656  1.00  0.00    -0.236 OA 
HETATM   12  H1  UNL     1      -8.687   8.639  69.355  1.00  0.00     0.000 HD 
HETATM   13  H2  UNL     1      -7.352   8.046  70.214  1.00  0.00     0.000 HD 
BRANCH   9  14
HETATM   14  O   UNL     1      -9.035   5.536  69.974  1.00  0.00    -0.128 OA 
BRANCH  14  15
HETATM   15  C   UNL     1      -8.750   5.653  68.516  1.00  0.00    -0.110 C  
HETATM   16  C   UNL     1      -7.280   6.011  68.167  1.00  0.00    -0.080 C  
HETATM   17  N   UNL     1      -6.393   4.854  68.408  1.00  0.00    -0.035 NA 
HETATM   18  C   UNL     1      -7.109   6.414  66.688  1.00  0.00    -0.069 C  
HETATM   19  H2  UNL     1      -6.710   4.023  67.908  1.00  0.00     0.000 HD 
HETATM   20  H1  UNL     1      -5.428   5.089  68.179  1.00  0.00     0.000 HD 
HETATM   21  C   UNL     1      -8.035   7.568  66.273  1.00  0.00    -0.109 C  
HETATM   22  N   UNL     1      -7.690   8.047  64.930  1.00  0.00    -0.110 NA 
HETATM   23  C   UNL     1      -9.513   7.138  66.339  1.00  0.00    -0.123 C  
HETATM   24  C   UNL     1      -9.791   6.534  67.751  1.00  0.00    -0.123 C  
HETATM   25  O   UNL     1     -11.067   5.851  67.728  1.00  0.00    -0.329 OA 
HETATM   26  H1  UNL     1      -8.304   8.813  64.655  1.00  0.00     0.000 HD 
HETATM   27  H2  UNL     1      -7.697   7.291  64.245  1.00  0.00     0.000 HD 
HETATM   28  H   UNL     1     -11.699   6.387  67.263  1.00  0.00     0.000 HD 
BRANCH  23  29
HETATM   29  O   UNL     1     -10.374   8.308  66.226  1.00  0.00    -0.134 OA 
BRANCH  29  30
HETATM   30  C   UNL     1     -10.023   9.586  66.794  1.00  0.00    -0.233 C  
HETATM   31  O   UNL     1     -10.686   9.921  68.016  1.00  0.00    -0.224 OA 
HETATM   32  C   UNL     1     -10.175  11.135  68.588  1.00  0.00    -0.205 C  
HETATM   33  C   UNL     1     -10.389  12.378  67.684  1.00  0.00    -0.216 C  
HETATM   34  C   UNL     1      -9.692  12.120  66.320  1.00  0.00    -0.238 C  
HETATM   35  O   UNL     1     -11.799  12.565  67.481  1.00  0.00    -0.374 OA 
HETATM   36  C   UNL     1      -9.842  13.618  68.408  1.00  0.00    -0.223 C  
HETATM   37  H   UNL     1      -9.368  11.182  63.917  1.00  0.00     0.000 HD 
HETATM   38  H   UNL     1     -11.929  13.325  66.928  1.00  0.00     0.000 HD 
HETATM   39  C   UNL     1     -10.129  10.738  65.725  1.00  0.00    -0.261 C  
HETATM   40  O   UNL     1      -9.303  10.488  64.562  1.00  0.00    -0.209 OA 
BRANCH  34  41
HETATM   41  N   UNL     1      -9.671  13.204  65.291  1.00  0.00    -0.506 NA 
HETATM   42  C   UNL     1     -10.884  13.436  64.527  1.00  0.00    -0.406 C  
HETATM   43  H   UNL     1      -8.832  13.762  65.130  1.00  0.00     0.000 HD 
ENDBRANCH  34  41
ENDBRANCH  29  30
ENDBRANCH  23  29
ENDBRANCH  14  15
ENDBRANCH   9  14
ENDBRANCH   4   5
ENDBRANCH   2   4
TORSDOF 7
ENDMDL
MODEL      219
REMARK 921   NORMALIZED FREE ENERGY PREDICTED BY IDOCK:   -4.02 KCAL/MOL
REMARK 922        TOTAL FREE ENERGY PREDICTED BY IDOCK:   -7.38 KCAL/MOL
REMARK 923 INTER-LIGAND FREE ENERGY PREDICTED BY IDOCK:   -6.60 KCAL/MOL
REMARK 924 INTRA-LIGAND FREE ENERGY PREDICTED BY IDOCK:   -0.78 KCAL/MOL
REMARK 927      BINDING AFFINITY PREDICTED BY RF-SCORE:    0.00 PKD
ROOT
HETATM    1  C   UNL     1     -12.289  14.414  64.432  1.00  0.00    -0.403 C  
HETATM    2  N   UNL     1     -11.358  13.423  63.914  1.00  0.00    -0.585 NA 
HETATM    3  H   UNL     1     -10.410  13.799  63.892  1.00  0.00     0.000 HD 
ENDROOT
BRANCH   2   4
HETATM    4  C   UNL     1     -11.390  12.142  64.635  1.00  0.00    -0.326 C  
BRANCH   4   5
HETATM    5  C   UNL     1     -10.621  12.103  65.984  1.00  0.00    -0.257 C  
HETATM    6  C   UNL     1      -9.675  13.273  66.186  1.00  0.00    -0.258 C  
HETATM    7  C   UNL     1      -9.020  13.152  67.562  1.00  0.00    -0.197 C  
HETATM    8  C   UNL     1      -8.480  11.734  67.843  1.00  0.00    -0.154 C  
HETATM    9  C   UNL     1      -9.433  10.554  67.349  1.00  0.00    -0.153 C  
HETATM   10  N   UNL     1      -8.007  11.666  69.246  1.00  0.00    -0.348 NA 
HETATM   11  O   UNL     1      -9.850  10.880  66.027  1.00  0.00    -0.214 OA 
HETATM   12  H1  UNL     1      -7.650  10.729  69.432  1.00  0.00     0.000 HD 
HETATM   13  H2  UNL     1      -8.726  11.946  69.913  1.00  0.00     0.000 HD 
BRANCH   9  14
HETATM   14  O   UNL     1     -10.545  10.218  68.212  1.00  0.00    -0.193 OA 
BRANCH  14  15
HETATM   15  C   UNL     1     -10.516   8.926  68.952  1.00  0.00    -0.205 C  
HETATM   16  C   UNL     1      -9.856   8.995  70.356  1.00  0.00    -0.202 C  
HETATM   17  N   UNL     1     -10.735   9.703  71.309  1.00  0.00    -0.311 NA 
HETATM   18  C   UNL     1      -9.580   7.596  70.945  1.00  0.00    -0.167 C  
HETATM   19  H2  UNL     1     -11.665   9.285  71.348  1.00  0.00     0.000 HD 
HETATM   20  H1  UNL     1     -10.302   9.748  72.230  1.00  0.00     0.000 HD 
HETATM   21  C   UNL     1      -8.730   6.715  70.016  1.00  0.00    -0.141 C  
HETATM   22  N   UNL     1      -8.326   5.484  70.704  1.00  0.00    -0.115 NA 
HETATM   23  C   UNL     1      -9.491   6.392  68.717  1.00  0.00    -0.127 C  
HETATM   24  C   UNL     1      -9.994   7.730  68.090  1.00  0.00    -0.178 C  
HETATM   25  O   UNL     1     -10.960   7.432  67.055  1.00  0.00    -0.494 OA 
HETATM   26  H1  UNL     1      -7.762   4.899  70.088  1.00  0.00     0.000 HD 
HETATM   27  H2  UNL     1      -9.129   4.977  71.077  1.00  0.00     0.000 HD 
HETATM   28  H   UNL     1     -10.643   6.706  66.531  1.00  0.00     0.000 HD 
BRANCH  23  29
HETATM   29  O   UNL     1      -8.580   5.808  67.741  1.00  0.00    -0.104 OA 
BRANCH  29  30
HETATM   30  C   UNL     1      -9.034   5.277  66.479  1.00  0.00    -0.120 C  
HETATM   31  O   UNL     1     -10.316   4.644  66.501  1.00  0.00    -0.252 OA 
HETATM   32  C   UNL     1     -10.756   4.276  65.185  1.00  0.00    -0.105 C  
HETATM   33  C   UNL     1      -9.830   3.239  64.496  1.00  0.00    -0.145 C  
HETATM   34  C   UNL     1      -8.399   3.838  64.410  1.00  0.00    -0.094 C  
HETATM   35  O   UNL     1      -9.808   2.040  65.287  1.00  0.00    -0.331 OA 
HETATM   36  C   UNL     1     -10.414   2.892  63.118  1.00  0.00    -0.186 C  
HETATM   37  H   UNL     1      -6.022   4.527  65.206  1.00  0.00     0.000 HD 
HETATM   38  H   UNL     1      -9.241   1.406  64.865  1.00  0.00     0.000 HD 
HETATM   39  C   UNL     1      -7.935   4.370  65.809  1.00  0.00    -0.095 C  
HETATM   40  O   UNL     1      -6.685   5.075  65.610  1.00  0.00    -0.053 OA 
BRANCH  34  41
HETATM   41  N   UNL     1      -7.325   3.073  63.705  1.00  0.00    -0.056 NA 
HETATM   42  C   UNL     1      -6.782   3.640  62.483  1.00  0.00    -0.027 C  
HETATM   43  H   UNL     1      -6.985   2.184  64.070  1.00  0.00     0.000 HD 
ENDBRANCH  34  41
ENDBRANCH  29  30
ENDBRANCH  23  29
ENDBRANCH  14  15
ENDBRANCH   9  14
ENDBRANCH   4   5
ENDBRANCH   2   4
TORSDOF 7
ENDMDL
MODEL      220
REMARK 921   NORMALIZED FREE ENERGY PREDICTED BY IDOCK:   -4.01 KCAL/MOL
REMARK 922        TOTAL FREE ENERGY PREDICTED BY IDOCK:   -7.36 KCAL/MOL
REMARK 923 INTER-LIGAND FREE ENERGY PREDICTED BY IDOCK:   -6.36 KCAL/MOL
REMARK 924 INTRA-LIGAND FREE ENERGY PREDICTED BY IDOCK:   -0.99 KCAL/MOL
REMARK 927      BINDING AFFINITY PREDICTED BY RF-SCORE:    0.00 PKD
ROOT
HETATM    1  C   UNL     1     -11.488   9.997  70.263  1.00  0.00    -0.300 C  
HETATM    2  N   UNL     1     -11.644   8.832  71.121  1.00  0.00    -0.279 NA 
HETATM    3  H   UNL     1     -12.594   8.466  71.058  1.00  0.00     0.000 HD 
ENDROOT
BRANCH   2   4
HETATM    4  C   UNL     1     -10.662   7.768  70.865  1.00  0.00    -0.221 C  
BRANCH   4   5
HETATM    5  C   UNL     1     -10.542   7.295  69.391  1.00  0.00    -0.229 C  
HETATM    6  C   UNL     1     -10.999   5.865  69.166  1.00  0.00    -0.382 C  
HETATM    7  C   UNL     1     -10.883   5.534  67.678  1.00  0.00    -0.085 C  
HETATM    8  C   UNL     1      -9.527   5.960  67.075  1.00  0.00    -0.125 C  
HETATM    9  C   UNL     1      -8.994   7.375  67.583  1.00  0.00    -0.126 C  
HETATM   10  N   UNL     1      -9.560   5.746  65.609  1.00  0.00    -0.368 NA 
HETATM   11  O   UNL     1      -9.154   7.399  68.998  1.00  0.00    -0.135 OA 
HETATM   12  H1  UNL     1      -8.664   6.027  65.211  1.00  0.00     0.000 HD 
HETATM   13  H2  UNL     1     -10.347   6.220  65.166  1.00  0.00     0.000 HD 
BRANCH   9  14
HETATM   14  O   UNL     1      -9.557   8.544  66.943  1.00  0.00    -0.165 OA 
BRANCH  14  15
HETATM   15  C   UNL     1      -8.636   9.549  66.344  1.00  0.00    -0.134 C  
HETATM   16  C   UNL     1      -7.133   9.158  66.379  1.00  0.00    -0.084 C  
HETATM   17  N   UNL     1      -6.854   8.085  65.402  1.00  0.00    -0.061 NA 
HETATM   18  C   UNL     1      -6.210  10.342  66.029  1.00  0.00    -0.110 C  
HETATM   19  H2  UNL     1      -7.157   8.340  64.462  1.00  0.00     0.000 HD 
HETATM   20  H1  UNL     1      -5.868   7.828  65.425  1.00  0.00     0.000 HD 
HETATM   21  C   UNL     1      -6.445  11.567  66.926  1.00  0.00    -0.144 C  
HETATM   22  N   UNL     1      -5.411  12.582  66.692  1.00  0.00    -0.363 NA 
HETATM   23  C   UNL     1      -7.851  12.154  66.696  1.00  0.00     0.092 C  
HETATM   24  C   UNL     1      -8.898  11.007  66.845  1.00  0.00    -0.149 C  
HETATM   25  O   UNL     1     -10.173  11.463  66.334  1.00  0.00    -0.217 OA 
HETATM   26  H1  UNL     1      -5.568  13.395  67.287  1.00  0.00     0.000 HD 
HETATM   27  H2  UNL     1      -5.349  12.839  65.707  1.00  0.00     0.000 HD 
HETATM   28  H   UNL     1     -10.333  12.349  66.639  1.00  0.00     0.000 HD 
BRANCH  23  29
HETATM   29  O   UNL     1      -8.161  13.121  67.741  1.00  0.00    -0.141 OA 
BRANCH  29  30
HETATM   30  C   UNL     1      -8.765  14.400  67.458  1.00  0.00    -0.197 C  
HETATM   31  O   UNL     1      -7.891  15.528  67.547  1.00  0.00    -0.139 OA 
HETATM   32  C   UNL     1      -8.529  16.738  67.110  1.00  0.00    -0.186 C  
HETATM   33  C   UNL     1      -9.753  17.134  67.977  1.00  0.00    -0.274 C  
HETATM   34  C   UNL     1     -10.780  15.969  67.940  1.00  0.00    -0.316 C  
HETATM   35  O   UNL     1      -9.313  17.350  69.327  1.00  0.00    -0.067 OA 
HETATM   36  C   UNL     1     -10.331  18.454  67.445  1.00  0.00    -0.415 C  
HETATM   37  H   UNL     1     -11.855  13.681  68.549  1.00  0.00     0.000 HD 
HETATM   38  H   UNL     1     -10.062  17.592  69.858  1.00  0.00     0.000 HD 
HETATM   39  C   UNL     1     -10.088  14.606  68.287  1.00  0.00    -0.228 C  
HETATM   40  O   UNL     1     -11.057  13.557  68.049  1.00  0.00    -0.243 OA 
BRANCH  34  41
HETATM   41  N   UNL     1     -12.098  16.131  68.626  1.00  0.00    -0.247 NA 
HETATM   42  C   UNL     1     -12.255  15.532  69.940  1.00  0.00    -0.325 C  
HETATM   43  H   UNL     1     -12.862  16.645  68.186  1.00  0.00     0.000 HD 
ENDBRANCH  34  41
ENDBRANCH  29  30
ENDBRANCH  23  29
ENDBRANCH  14  15
ENDBRANCH   9  14
ENDBRANCH   4   5
ENDBRANCH   2   4
TORSDOF 7
ENDMDL
MODEL      221
REMARK 921   NORMALIZED FREE ENERGY PREDICTED BY IDOCK:   -3.99 KCAL/MOL
REMARK 922        TOTAL FREE ENERGY PREDICTED BY IDOCK:   -7.33 KCAL/MOL
REMARK 923 INTER-LIGAND FREE ENERGY PREDICTED BY IDOCK:   -8.43 KCAL/MOL
REMARK 924 INTRA-LIGAND FREE ENERGY PREDICTED BY IDOCK:    1.10 KCAL/MOL
REMARK 927      BINDING AFFINITY PREDICTED BY RF-SCORE:    0.00 PKD
ROOT
HETATM    1  C   UNL     1      -7.348  11.305  67.003  1.00  0.00    -0.136 C  
HETATM    2  N   UNL     1      -7.152  10.745  65.674  1.00  0.00    -0.330 NA 
HETATM    3  H   UNL     1      -6.640   9.865  65.728  1.00  0.00     0.000 HD 
ENDROOT
BRANCH   2   4
HETATM    4  C   UNL     1      -8.397  10.574  64.911  1.00  0.00    -0.135 C  
BRANCH   4   5
HETATM    5  C   UNL     1      -9.612  11.410  65.398  1.00  0.00    -0.228 C  
HETATM    6  C   UNL     1     -10.822  11.327  64.485  1.00  0.00    -0.354 C  
HETATM    7  C   UNL     1     -11.962  12.144  65.093  1.00  0.00    -0.324 C  
HETATM    8  C   UNL     1     -11.509  13.544  65.561  1.00  0.00    -0.304 C  
HETATM    9  C   UNL     1     -10.086  13.571  66.282  1.00  0.00    -0.298 C  
HETATM   10  N   UNL     1     -12.630  14.202  66.273  1.00  0.00    -0.501 NA 
HETATM   11  O   UNL     1      -9.199  12.794  65.483  1.00  0.00     0.131 OA 
HETATM   12  H1  UNL     1     -12.331  15.127  66.582  1.00  0.00     0.000 HD 
HETATM   13  H2  UNL     1     -12.990  13.634  67.040  1.00  0.00     0.000 HD 
BRANCH   9  14
HETATM   14  O   UNL     1     -10.060  13.182  67.675  1.00  0.00    -0.215 OA 
BRANCH  14  15
HETATM   15  C   UNL     1     -11.327  13.226  68.458  1.00  0.00    -0.284 C  
HETATM   16  C   UNL     1     -11.424  14.399  69.472  1.00  0.00    -0.288 C  
HETATM   17  N   UNL     1     -11.631  15.679  68.765  1.00  0.00    -0.370 NA 
HETATM   18  C   UNL     1     -12.601  14.227  70.455  1.00  0.00    -0.418 C  
HETATM   19  H2  UNL     1     -12.442  15.645  68.147  1.00  0.00     0.000 HD 
HETATM   20  H1  UNL     1     -11.695  16.449  69.431  1.00  0.00     0.000 HD 
HETATM   21  C   UNL     1     -12.555  12.891  71.212  1.00  0.00    -0.256 C  
HETATM   22  N   UNL     1     -13.567  12.867  72.274  1.00  0.00    -0.565 NA 
HETATM   23  C   UNL     1     -12.745  11.706  70.247  1.00  0.00     0.032 C  
HETATM   24  C   UNL     1     -11.718  11.846  69.080  1.00  0.00    -0.319 C  
HETATM   25  O   UNL     1     -12.082  10.932  68.020  1.00  0.00    -0.780 OA 
HETATM   26  H1  UNL     1     -13.537  11.981  72.777  1.00  0.00     0.000 HD 
HETATM   27  H2  UNL     1     -14.500  13.066  71.913  1.00  0.00     0.000 HD 
HETATM   28  H   UNL     1     -12.320  10.093  68.398  1.00  0.00     0.000 HD 
BRANCH  23  29
HETATM   29  O   UNL     1     -12.416  10.458  70.924  1.00  0.00    -0.321 OA 
BRANCH  29  30
HETATM   30  C   UNL     1     -11.111   9.850  70.836  1.00  0.00    -0.348 C  
HETATM   31  O   UNL     1     -10.179  10.513  69.977  1.00  0.00    -0.163 OA 
HETATM   32  C   UNL     1      -8.867   9.933  70.059  1.00  0.00    -0.160 C  
HETATM   33  C   UNL     1      -8.822   8.451  69.601  1.00  0.00    -0.141 C  
HETATM   34  C   UNL     1      -9.802   7.632  70.486  1.00  0.00    -0.183 C  
HETATM   35  O   UNL     1      -9.234   8.379  68.227  1.00  0.00    -0.135 OA 
HETATM   36  C   UNL     1      -7.373   7.947  69.694  1.00  0.00    -0.090 C  
HETATM   37  H   UNL     1     -12.069   6.672  71.321  1.00  0.00     0.000 HD 
HETATM   38  H   UNL     1      -9.205   7.471  67.947  1.00  0.00     0.000 HD 
HETATM   39  C   UNL     1     -11.214   8.310  70.525  1.00  0.00    -0.239 C  
HETATM   40  O   UNL     1     -12.007   7.601  71.508  1.00  0.00    -0.282 OA 
BRANCH  34  41
HETATM   41  N   UNL     1      -9.884   6.150  70.311  1.00  0.00    -0.167 NA 
HETATM   42  C   UNL     1     -10.638   5.643  69.178  1.00  0.00    -0.264 C  
HETATM   43  H   UNL     1      -9.426   5.516  70.967  1.00  0.00     0.000 HD 
ENDBRANCH  34  41
ENDBRANCH  29  30
ENDBRANCH  23  29
ENDBRANCH  14  15
ENDBRANCH   9  14
ENDBRANCH   4   5
ENDBRANCH   2   4
TORSDOF 7
ENDMDL
MODEL      222
REMARK 921   NORMALIZED FREE ENERGY PREDICTED BY IDOCK:   -3.96 KCAL/MOL
REMARK 922        TOTAL FREE ENERGY PREDICTED BY IDOCK:   -7.30 KCAL/MOL
REMARK 923 INTER-LIGAND FREE ENERGY PREDICTED BY IDOCK:   -6.25 KCAL/MOL
REMARK 924 INTRA-LIGAND FREE ENERGY PREDICTED BY IDOCK:   -1.04 KCAL/MOL
REMARK 927      BINDING AFFINITY PREDICTED BY RF-SCORE:    0.00 PKD
ROOT
HETATM    1  C   UNL     1     -12.275  10.521  70.327  1.00  0.00    -0.311 C  
HETATM    2  N   UNL     1     -10.950   9.947  70.508  1.00  0.00    -0.305 NA 
HETATM    3  H   UNL     1     -10.568  10.207  71.417  1.00  0.00     0.000 HD 
ENDROOT
BRANCH   2   4
HETATM    4  C   UNL     1     -10.902   8.489  70.325  1.00  0.00    -0.238 C  
BRANCH   4   5
HETATM    5  C   UNL     1      -9.568   7.918  69.772  1.00  0.00    -0.167 C  
HETATM    6  C   UNL     1      -8.583   7.504  70.850  1.00  0.00    -0.130 C  
HETATM    7  C   UNL     1      -7.338   6.914  70.187  1.00  0.00    -0.081 C  
HETATM    8  C   UNL     1      -6.810   7.784  69.026  1.00  0.00    -0.057 C  
HETATM    9  C   UNL     1      -7.948   8.401  68.094  1.00  0.00    -0.119 C  
HETATM   10  N   UNL     1      -5.707   7.067  68.346  1.00  0.00    -0.020 NA 
HETATM   11  O   UNL     1      -8.948   8.938  68.954  1.00  0.00    -0.136 OA 
HETATM   12  H1  UNL     1      -5.358   7.642  67.579  1.00  0.00     0.000 HD 
HETATM   13  H2  UNL     1      -5.982   6.134  68.037  1.00  0.00     0.000 HD 
BRANCH   9  14
HETATM   14  O   UNL     1      -8.500   7.526  67.083  1.00  0.00    -0.119 OA 
BRANCH  14  15
HETATM   15  C   UNL     1      -8.774   8.077  65.726  1.00  0.00    -0.146 C  
HETATM   16  C   UNL     1      -7.645   7.837  64.687  1.00  0.00    -0.113 C  
HETATM   17  N   UNL     1      -7.610   6.418  64.277  1.00  0.00    -0.092 NA 
HETATM   18  C   UNL     1      -7.839   8.675  63.406  1.00  0.00    -0.151 C  
HETATM   19  H2  UNL     1      -8.515   6.100  63.932  1.00  0.00     0.000 HD 
HETATM   20  H1  UNL     1      -6.868   6.261  63.595  1.00  0.00     0.000 HD 
HETATM   21  C   UNL     1      -7.968  10.179  63.692  1.00  0.00    -0.160 C  
HETATM   22  N   UNL     1      -7.942  10.944  62.440  1.00  0.00    -0.348 NA 
HETATM   23  C   UNL     1      -9.251  10.479  64.490  1.00  0.00    -0.240 C  
HETATM   24  C   UNL     1      -9.279   9.556  65.749  1.00  0.00    -0.211 C  
HETATM   25  O   UNL     1     -10.602   9.598  66.334  1.00  0.00    -0.150 OA 
HETATM   26  H1  UNL     1      -8.027  11.942  62.629  1.00  0.00     0.000 HD 
HETATM   27  H2  UNL     1      -8.652  10.620  61.783  1.00  0.00     0.000 HD 
HETATM   28  H   UNL     1     -10.909  10.498  66.348  1.00  0.00     0.000 HD 
BRANCH  23  29
HETATM   29  O   UNL     1      -9.214  11.845  64.994  1.00  0.00    -0.001 OA 
BRANCH  29  30
HETATM   30  C   UNL     1      -9.942  12.257  66.169  1.00  0.00    -0.243 C  
HETATM   31  O   UNL     1     -11.301  12.642  65.949  1.00  0.00    -0.304 OA 
HETATM   32  C   UNL     1     -11.994  12.895  67.181  1.00  0.00    -0.310 C  
HETATM   33  C   UNL     1     -11.391  14.071  67.994  1.00  0.00    -0.293 C  
HETATM   34  C   UNL     1      -9.902  13.746  68.299  1.00  0.00    -0.232 C  
HETATM   35  O   UNL     1     -11.474  15.269  67.206  1.00  0.00    -0.319 OA 
HETATM   36  C   UNL     1     -12.228  14.275  69.266  1.00  0.00    -0.289 C  
HETATM   37  H   UNL     1      -7.346  13.525  67.875  1.00  0.00     0.000 HD 
HETATM   38  H   UNL     1     -11.104  15.988  67.705  1.00  0.00     0.000 HD 
HETATM   39  C   UNL     1      -9.143  13.338  66.990  1.00  0.00    -0.232 C  
HETATM   40  O   UNL     1      -7.828  12.872  67.381  1.00  0.00    -0.165 OA 
BRANCH  34  41
HETATM   41  N   UNL     1      -9.107  14.681  69.153  1.00  0.00    -0.374 NA 
HETATM   42  C   UNL     1      -8.671  15.933  68.560  1.00  0.00    -0.194 C  
HETATM   43  H   UNL     1      -8.878  14.446  70.119  1.00  0.00     0.000 HD 
ENDBRANCH  34  41
ENDBRANCH  29  30
ENDBRANCH  23  29
ENDBRANCH  14  15
ENDBRANCH   9  14
ENDBRANCH   4   5
ENDBRANCH   2   4
TORSDOF 7
ENDMDL
MODEL      223
REMARK 921   NORMALIZED FREE ENERGY PREDICTED BY IDOCK:   -3.95 KCAL/MOL
REMARK 922        TOTAL FREE ENERGY PREDICTED BY IDOCK:   -7.27 KCAL/MOL
REMARK 923 INTER-LIGAND FREE ENERGY PREDICTED BY IDOCK:   -6.91 KCAL/MOL
REMARK 924 INTRA-LIGAND FREE ENERGY PREDICTED BY IDOCK:   -0.37 KCAL/MOL
REMARK 927      BINDING AFFINITY PREDICTED BY RF-SCORE:    0.00 PKD
ROOT
HETATM    1  C   UNL     1     -12.053  15.707  70.405  1.00  0.00    -0.394 C  
HETATM    2  N   UNL     1     -12.331  15.303  69.036  1.00  0.00    -0.602 NA 
HETATM    3  H   UNL     1     -11.889  15.943  68.376  1.00  0.00     0.000 HD 
ENDROOT
BRANCH   2   4
HETATM    4  C   UNL     1     -11.957  13.912  68.737  1.00  0.00    -0.358 C  
BRANCH   4   5
HETATM    5  C   UNL     1     -11.567  13.616  67.264  1.00  0.00    -0.356 C  
HETATM    6  C   UNL     1     -12.545  14.174  66.245  1.00  0.00    -0.297 C  
HETATM    7  C   UNL     1     -12.031  13.865  64.839  1.00  0.00    -0.412 C  
HETATM    8  C   UNL     1     -11.582  12.397  64.677  1.00  0.00    -0.343 C  
HETATM    9  C   UNL     1     -10.782  11.809  65.925  1.00  0.00    -0.282 C  
HETATM   10  N   UNL     1     -10.958  12.226  63.344  1.00  0.00    -0.602 NA 
HETATM   11  O   UNL     1     -11.503  12.181  67.096  1.00  0.00    -0.313 OA 
HETATM   12  H1  UNL     1     -10.661  11.256  63.237  1.00  0.00     0.000 HD 
HETATM   13  H2  UNL     1     -10.195  12.884  63.185  1.00  0.00     0.000 HD 
BRANCH   9  14
HETATM   14  O   UNL     1      -9.378  12.147  66.010  1.00  0.00    -0.232 OA 
BRANCH  14  15
HETATM   15  C   UNL     1      -8.417  11.115  66.489  1.00  0.00    -0.165 C  
HETATM   16  C   UNL     1      -8.021  10.052  65.427  1.00  0.00    -0.141 C  
HETATM   17  N   UNL     1      -7.125  10.643  64.412  1.00  0.00    -0.351 NA 
HETATM   18  C   UNL     1      -7.276   8.852  66.048  1.00  0.00    -0.089 C  
HETATM   19  H2  UNL     1      -6.306  11.078  64.836  1.00  0.00     0.000 HD 
HETATM   20  H1  UNL     1      -6.865   9.946  63.715  1.00  0.00     0.000 HD 
HETATM   21  C   UNL     1      -8.067   8.181  67.181  1.00  0.00    -0.116 C  
HETATM   22  N   UNL     1      -7.415   6.932  67.592  1.00  0.00    -0.096 NA 
HETATM   23  C   UNL     1      -8.228   9.135  68.379  1.00  0.00    -0.115 C  
HETATM   24  C   UNL     1      -8.819  10.485  67.862  1.00  0.00    -0.133 C  
HETATM   25  O   UNL     1      -8.688  11.484  68.900  1.00  0.00    -0.341 OA 
HETATM   26  H1  UNL     1      -7.940   6.486  68.344  1.00  0.00     0.000 HD 
HETATM   27  H2  UNL     1      -6.439   7.081  67.847  1.00  0.00     0.000 HD 
HETATM   28  H   UNL     1      -8.932  11.101  69.735  1.00  0.00     0.000 HD 
BRANCH  23  29
HETATM   29  O   UNL     1      -9.210   8.598  69.312  1.00  0.00    -0.148 OA 
BRANCH  29  30
HETATM   30  C   UNL     1      -8.832   7.917  70.526  1.00  0.00    -0.141 C  
HETATM   31  O   UNL     1      -7.995   8.659  71.416  1.00  0.00    -0.118 OA 
HETATM   32  C   UNL     1      -7.787   7.970  72.658  1.00  0.00    -0.126 C  
HETATM   33  C   UNL     1      -7.057   6.612  72.492  1.00  0.00    -0.073 C  
HETATM   34  C   UNL     1      -7.896   5.714  71.541  1.00  0.00    -0.112 C  
HETATM   35  O   UNL     1      -5.762   6.850  71.916  1.00  0.00    -0.036 OA 
HETATM   36  C   UNL     1      -6.855   5.983  73.879  1.00  0.00    -0.080 C  
HETATM   37  H   UNL     1      -8.835   4.795  69.298  1.00  0.00     0.000 HD 
HETATM   38  H   UNL     1      -5.315   6.018  71.815  1.00  0.00     0.000 HD 
HETATM   39  C   UNL     1      -8.253   6.483  70.223  1.00  0.00    -0.126 C  
HETATM   40  O   UNL     1      -9.185   5.659  69.481  1.00  0.00    -0.126 OA 
BRANCH  34  41
HETATM   41  N   UNL     1      -7.458   4.309  71.281  1.00  0.00    -0.057 NA 
HETATM   42  C   UNL     1      -6.356   4.103  70.359  1.00  0.00    -0.027 C  
HETATM   43  H   UNL     1      -7.919   3.521  71.737  1.00  0.00     0.000 HD 
ENDBRANCH  34  41
ENDBRANCH  29  30
ENDBRANCH  23  29
ENDBRANCH  14  15
ENDBRANCH   9  14
ENDBRANCH   4   5
ENDBRANCH   2   4
TORSDOF 7
ENDMDL
MODEL      224
REMARK 921   NORMALIZED FREE ENERGY PREDICTED BY IDOCK:   -3.90 KCAL/MOL
REMARK 922        TOTAL FREE ENERGY PREDICTED BY IDOCK:   -7.21 KCAL/MOL
REMARK 923 INTER-LIGAND FREE ENERGY PREDICTED BY IDOCK:   -5.88 KCAL/MOL
REMARK 924 INTRA-LIGAND FREE ENERGY PREDICTED BY IDOCK:   -1.33 KCAL/MOL
REMARK 927      BINDING AFFINITY PREDICTED BY RF-SCORE:    0.00 PKD
ROOT
HETATM    1  C   UNL     1     -10.651   7.230  69.822  1.00  0.00    -0.235 C  
HETATM    2  N   UNL     1      -9.972   6.405  70.809  1.00  0.00    -0.184 NA 
HETATM    3  H   UNL     1     -10.189   6.724  71.753  1.00  0.00     0.000 HD 
ENDROOT
BRANCH   2   4
HETATM    4  C   UNL     1     -10.248   4.967  70.674  1.00  0.00    -0.211 C  
BRANCH   4   5
HETATM    5  C   UNL     1      -9.657   4.279  69.413  1.00  0.00    -0.197 C  
HETATM    6  C   UNL     1      -9.308   2.816  69.618  1.00  0.00    -0.198 C  
HETATM    7  C   UNL     1      -8.789   2.239  68.301  1.00  0.00    -0.152 C  
HETATM    8  C   UNL     1      -7.733   3.143  67.628  1.00  0.00    -0.068 C  
HETATM    9  C   UNL     1      -8.059   4.703  67.699  1.00  0.00    -0.100 C  
HETATM   10  N   UNL     1      -7.402   2.590  66.294  1.00  0.00    -0.065 NA 
HETATM   11  O   UNL     1      -8.453   4.987  69.038  1.00  0.00    -0.083 OA 
HETATM   12  H1  UNL     1      -6.705   3.187  65.850  1.00  0.00     0.000 HD 
HETATM   13  H2  UNL     1      -8.229   2.460  65.711  1.00  0.00     0.000 HD 
BRANCH   9  14
HETATM   14  O   UNL     1      -9.001   5.211  66.725  1.00  0.00    -0.114 OA 
BRANCH  14  15
HETATM   15  C   UNL     1      -8.557   6.274  65.782  1.00  0.00    -0.150 C  
HETATM   16  C   UNL     1      -7.085   6.144  65.301  1.00  0.00    -0.064 C  
HETATM   17  N   UNL     1      -6.947   5.021  64.351  1.00  0.00    -0.048 NA 
HETATM   18  C   UNL     1      -6.589   7.414  64.579  1.00  0.00    -0.040 C  
HETATM   19  H2  UNL     1      -7.595   5.105  63.568  1.00  0.00     0.000 HD 
HETATM   20  H1  UNL     1      -5.981   4.936  64.036  1.00  0.00     0.000 HD 
HETATM   21  C   UNL     1      -6.745   8.683  65.431  1.00  0.00    -0.067 C  
HETATM   22  N   UNL     1      -6.075   9.819  64.788  1.00  0.00    -0.086 NA 
HETATM   23  C   UNL     1      -8.232   8.996  65.684  1.00  0.00    -0.119 C  
HETATM   24  C   UNL     1      -8.917   7.718  66.261  1.00  0.00    -0.174 C  
HETATM   25  O   UNL     1     -10.353   7.890  66.213  1.00  0.00    -0.461 OA 
HETATM   26  H1  UNL     1      -6.178  10.662  65.353  1.00  0.00     0.000 HD 
HETATM   27  H2  UNL     1      -6.403   9.961  63.833  1.00  0.00     0.000 HD 
HETATM   28  H   UNL     1     -10.572   8.768  66.504  1.00  0.00     0.000 HD 
BRANCH  23  29
HETATM   29  O   UNL     1      -8.355  10.018  66.715  1.00  0.00    -0.124 OA 
BRANCH  29  30
HETATM   30  C   UNL     1      -9.421  10.990  66.718  1.00  0.00    -0.182 C  
HETATM   31  O   UNL     1      -9.430  11.899  65.613  1.00  0.00    -0.228 OA 
HETATM   32  C   UNL     1     -10.599  12.733  65.614  1.00  0.00    -0.275 C  
HETATM   33  C   UNL     1     -10.698  13.649  66.862  1.00  0.00    -0.275 C  
HETATM   34  C   UNL     1     -10.706  12.753  68.131  1.00  0.00    -0.226 C  
HETATM   35  O   UNL     1      -9.555  14.519  66.890  1.00  0.00    -0.232 OA 
HETATM   36  C   UNL     1     -11.959  14.519  66.740  1.00  0.00    -0.364 C  
HETATM   37  H   UNL     1      -9.753  11.272  70.044  1.00  0.00     0.000 HD 
HETATM   38  H   UNL     1      -9.617  15.079  67.654  1.00  0.00     0.000 HD 
HETATM   39  C   UNL     1      -9.513  11.737  68.102  1.00  0.00    -0.193 C  
HETATM   40  O   UNL     1      -9.697  10.822  69.209  1.00  0.00    -0.198 OA 
BRANCH  34  41
HETATM   41  N   UNL     1     -10.886  13.384  69.474  1.00  0.00    -0.449 NA 
HETATM   42  C   UNL     1     -12.050  13.000  70.253  1.00  0.00    -0.314 C  
HETATM   43  H   UNL     1     -10.212  14.061  69.832  1.00  0.00     0.000 HD 
ENDBRANCH  34  41
ENDBRANCH  29  30
ENDBRANCH  23  29
ENDBRANCH  14  15
ENDBRANCH   9  14
ENDBRANCH   4   5
ENDBRANCH   2   4
TORSDOF 7
ENDMDL
MODEL      225
REMARK 921   NORMALIZED FREE ENERGY PREDICTED BY IDOCK:   -3.89 KCAL/MOL
REMARK 922        TOTAL FREE ENERGY PREDICTED BY IDOCK:   -7.19 KCAL/MOL
REMARK 923 INTER-LIGAND FREE ENERGY PREDICTED BY IDOCK:   -7.64 KCAL/MOL
REMARK 924 INTRA-LIGAND FREE ENERGY PREDICTED BY IDOCK:    0.45 KCAL/MOL
REMARK 927      BINDING AFFINITY PREDICTED BY RF-SCORE:    0.00 PKD
ROOT
HETATM    1  C   UNL     1     -11.157   8.466  70.259  1.00  0.00    -0.213 C  
HETATM    2  N   UNL     1     -11.805   7.167  70.162  1.00  0.00    -0.566 NA 
HETATM    3  H   UNL     1     -12.655   7.232  69.602  1.00  0.00     0.000 HD 
ENDROOT
BRANCH   2   4
HETATM    4  C   UNL     1     -10.929   6.102  69.652  1.00  0.00    -0.389 C  
BRANCH   4   5
HETATM    5  C   UNL     1     -10.513   6.222  68.161  1.00  0.00    -0.226 C  
HETATM    6  C   UNL     1     -10.450   4.893  67.430  1.00  0.00    -0.066 C  
HETATM    7  C   UNL     1     -10.083   5.144  65.968  1.00  0.00    -0.197 C  
HETATM    8  C   UNL     1      -8.887   6.108  65.810  1.00  0.00    -0.124 C  
HETATM    9  C   UNL     1      -8.901   7.347  66.814  1.00  0.00    -0.137 C  
HETATM   10  N   UNL     1      -8.700   6.416  64.373  1.00  0.00    -0.302 NA 
HETATM   11  O   UNL     1      -9.203   6.833  68.108  1.00  0.00    -0.124 OA 
HETATM   12  H1  UNL     1      -7.910   7.053  64.269  1.00  0.00     0.000 HD 
HETATM   13  H2  UNL     1      -9.550   6.778  63.940  1.00  0.00     0.000 HD 
BRANCH   9  14
HETATM   14  O   UNL     1      -9.748   8.463  66.452  1.00  0.00    -0.233 OA 
BRANCH  14  15
HETATM   15  C   UNL     1      -9.116   9.775  66.141  1.00  0.00    -0.161 C  
HETATM   16  C   UNL     1      -7.808  10.069  66.926  1.00  0.00    -0.106 C  
HETATM   17  N   UNL     1      -6.700   9.235  66.418  1.00  0.00    -0.071 NA 
HETATM   18  C   UNL     1      -7.365  11.541  66.797  1.00  0.00    -0.111 C  
HETATM   19  H2  UNL     1      -6.571   9.347  65.413  1.00  0.00     0.000 HD 
HETATM   20  H1  UNL     1      -5.841   9.428  66.934  1.00  0.00     0.000 HD 
HETATM   21  C   UNL     1      -8.459  12.533  67.224  1.00  0.00    -0.185 C  
HETATM   22  N   UNL     1      -7.922  13.897  67.280  1.00  0.00    -0.304 NA 
HETATM   23  C   UNL     1      -9.669  12.459  66.273  1.00  0.00    -0.246 C  
HETATM   24  C   UNL     1     -10.124  10.970  66.164  1.00  0.00    -0.237 C  
HETATM   25  O   UNL     1     -11.043  10.838  65.055  1.00  0.00     0.012 OA 
HETATM   26  H1  UNL     1      -8.648  14.555  67.563  1.00  0.00     0.000 HD 
HETATM   27  H2  UNL     1      -7.486  14.169  66.399  1.00  0.00     0.000 HD 
HETATM   28  H   UNL     1     -11.656  11.564  65.069  1.00  0.00     0.000 HD 
BRANCH  23  29
HETATM   29  O   UNL     1     -10.795  13.182  66.847  1.00  0.00    -0.262 OA 
BRANCH  29  30
HETATM   30  C   UNL     1     -10.981  14.600  66.660  1.00  0.00    -0.323 C  
HETATM   31  O   UNL     1     -10.663  15.097  65.357  1.00  0.00    -0.327 OA 
HETATM   32  C   UNL     1     -11.013  16.482  65.211  1.00  0.00    -0.162 C  
HETATM   33  C   UNL     1     -10.237  17.417  66.176  1.00  0.00    -0.328 C  
HETATM   34  C   UNL     1     -10.524  16.966  67.635  1.00  0.00    -0.332 C  
HETATM   35  O   UNL     1      -8.832  17.302  65.901  1.00  0.00    -0.528 OA 
HETATM   36  C   UNL     1     -10.660  18.869  65.908  1.00  0.00    -0.438 C  
HETATM   37  H   UNL     1     -10.317  15.553  69.807  1.00  0.00     0.000 HD 
HETATM   38  H   UNL     1      -8.357  17.875  66.492  1.00  0.00     0.000 HD 
HETATM   39  C   UNL     1     -10.276  15.427  67.800  1.00  0.00    -0.241 C  
HETATM   40  O   UNL     1     -10.742  15.054  69.120  1.00  0.00    -0.231 OA 
BRANCH  34  41
HETATM   41  N   UNL     1      -9.965  17.760  68.772  1.00  0.00    -0.364 NA 
HETATM   42  C   UNL     1      -8.521  17.861  68.881  1.00  0.00    -0.120 C  
HETATM   43  H   UNL     1     -10.579  18.215  69.448  1.00  0.00     0.000 HD 
ENDBRANCH  34  41
ENDBRANCH  29  30
ENDBRANCH  23  29
ENDBRANCH  14  15
ENDBRANCH   9  14
ENDBRANCH   4   5
ENDBRANCH   2   4
TORSDOF 7
ENDMDL
MODEL      226
REMARK 921   NORMALIZED FREE ENERGY PREDICTED BY IDOCK:   -3.88 KCAL/MOL
REMARK 922        TOTAL FREE ENERGY PREDICTED BY IDOCK:   -7.18 KCAL/MOL
REMARK 923 INTER-LIGAND FREE ENERGY PREDICTED BY IDOCK:   -7.43 KCAL/MOL
REMARK 924 INTRA-LIGAND FREE ENERGY PREDICTED BY IDOCK:    0.25 KCAL/MOL
REMARK 927      BINDING AFFINITY PREDICTED BY RF-SCORE:    0.00 PKD
ROOT
HETATM    1  C   UNL     1     -12.071  13.415  70.497  1.00  0.00    -0.323 C  
HETATM    2  N   UNL     1     -11.115  14.203  69.733  1.00  0.00    -0.445 NA 
HETATM    3  H   UNL     1     -10.774  13.672  68.931  1.00  0.00     0.000 HD 
ENDROOT
BRANCH   2   4
HETATM    4  C   UNL     1     -11.630  15.512  69.305  1.00  0.00    -0.357 C  
BRANCH   4   5
HETATM    5  C   UNL     1     -10.638  16.404  68.510  1.00  0.00    -0.304 C  
HETATM    6  C   UNL     1     -10.292  17.709  69.205  1.00  0.00    -0.202 C  
HETATM    7  C   UNL     1      -9.275  18.471  68.355  1.00  0.00    -0.347 C  
HETATM    8  C   UNL     1      -9.669  18.533  66.864  1.00  0.00    -0.322 C  
HETATM    9  C   UNL     1     -10.279  17.177  66.286  1.00  0.00    -0.334 C  
HETATM   10  N   UNL     1      -8.562  19.147  66.095  1.00  0.00    -0.442 NA 
HETATM   11  O   UNL     1     -11.238  16.713  67.231  1.00  0.00    -0.035 OA 
HETATM   12  H1  UNL     1      -8.823  19.188  65.110  1.00  0.00     0.000 HD 
HETATM   13  H2  UNL     1      -7.674  18.667  66.242  1.00  0.00     0.000 HD 
BRANCH   9  14
HETATM   14  O   UNL     1      -9.331  16.150  65.912  1.00  0.00    -0.325 OA 
BRANCH  14  15
HETATM   15  C   UNL     1      -8.805  15.239  66.966  1.00  0.00    -0.237 C  
HETATM   16  C   UNL     1      -7.285  15.383  67.252  1.00  0.00    -0.194 C  
HETATM   17  N   UNL     1      -7.011  16.640  67.979  1.00  0.00    -0.144 NA 
HETATM   18  C   UNL     1      -6.739  14.229  68.118  1.00  0.00    -0.129 C  
HETATM   19  H2  UNL     1      -7.565  16.713  68.832  1.00  0.00     0.000 HD 
HETATM   20  H1  UNL     1      -6.013  16.734  68.166  1.00  0.00     0.000 HD 
HETATM   21  C   UNL     1      -7.023  12.844  67.515  1.00  0.00    -0.149 C  
HETATM   22  N   UNL     1      -6.309  11.802  68.262  1.00  0.00    -0.049 NA 
HETATM   23  C   UNL     1      -8.536  12.558  67.485  1.00  0.00    -0.177 C  
HETATM   24  C   UNL     1      -9.253  13.752  66.780  1.00  0.00    -0.244 C  
HETATM   25  O   UNL     1     -10.677  13.652  67.015  1.00  0.00    -0.275 OA 
HETATM   26  H1  UNL     1      -6.497  10.884  67.862  1.00  0.00     0.000 HD 
HETATM   27  H2  UNL     1      -6.527  11.834  69.258  1.00  0.00     0.000 HD 
HETATM   28  H   UNL     1     -10.949  12.748  66.902  1.00  0.00     0.000 HD 
BRANCH  23  29
HETATM   29  O   UNL     1      -8.802  11.387  66.660  1.00  0.00    -0.171 OA 
BRANCH  29  30
HETATM   30  C   UNL     1      -9.586  10.271  67.131  1.00  0.00    -0.168 C  
HETATM   31  O   UNL     1      -9.669  10.130  68.551  1.00  0.00    -0.147 OA 
HETATM   32  C   UNL     1     -10.582   9.091  68.936  1.00  0.00    -0.180 C  
HETATM   33  C   UNL     1     -10.156   7.685  68.437  1.00  0.00    -0.186 C  
HETATM   34  C   UNL     1     -10.046   7.724  66.888  1.00  0.00    -0.286 C  
HETATM   35  O   UNL     1      -8.878   7.359  69.006  1.00  0.00    -0.133 OA 
HETATM   36  C   UNL     1     -11.178   6.651  68.934  1.00  0.00    -0.273 C  
HETATM   37  H   UNL     1      -8.999   8.202  64.556  1.00  0.00     0.000 HD 
HETATM   38  H   UNL     1      -8.618   6.499  68.700  1.00  0.00     0.000 HD 
HETATM   39  C   UNL     1      -9.158   8.930  66.424  1.00  0.00    -0.174 C  
HETATM   40  O   UNL     1      -9.258   9.011  64.982  1.00  0.00    -0.178 OA 
BRANCH  34  41
HETATM   41  N   UNL     1      -9.735   6.467  66.141  1.00  0.00    -0.385 NA 
HETATM   42  C   UNL     1      -8.409   5.897  66.298  1.00  0.00    -0.117 C  
HETATM   43  H   UNL     1     -10.432   6.024  65.542  1.00  0.00     0.000 HD 
ENDBRANCH  34  41
ENDBRANCH  29  30
ENDBRANCH  23  29
ENDBRANCH  14  15
ENDBRANCH   9  14
ENDBRANCH   4   5
ENDBRANCH   2   4
TORSDOF 7
ENDMDL
MODEL      227
REMARK 921   NORMALIZED FREE ENERGY PREDICTED BY IDOCK:   -3.88 KCAL/MOL
REMARK 922        TOTAL FREE ENERGY PREDICTED BY IDOCK:   -7.18 KCAL/MOL
REMARK 923 INTER-LIGAND FREE ENERGY PREDICTED BY IDOCK:   -6.35 KCAL/MOL
REMARK 924 INTRA-LIGAND FREE ENERGY PREDICTED BY IDOCK:   -0.83 KCAL/MOL
REMARK 927      BINDING AFFINITY PREDICTED BY RF-SCORE:    0.00 PKD
ROOT
HETATM    1  C   UNL     1     -12.490  11.862  70.787  1.00  0.00    -0.291 C  
HETATM    2  N   UNL     1     -11.481  12.733  70.203  1.00  0.00    -0.519 NA 
HETATM    3  H   UNL     1     -10.544  12.393  70.421  1.00  0.00     0.000 HD 
ENDROOT
BRANCH   2   4
HETATM    4  C   UNL     1     -11.633  12.934  68.754  1.00  0.00    -0.311 C  
BRANCH   4   5
HETATM    5  C   UNL     1     -10.917  14.179  68.163  1.00  0.00    -0.249 C  
HETATM    6  C   UNL     1     -11.607  15.493  68.479  1.00  0.00    -0.379 C  
HETATM    7  C   UNL     1     -10.786  16.641  67.892  1.00  0.00    -0.344 C  
HETATM    8  C   UNL     1     -10.362  16.385  66.430  1.00  0.00    -0.313 C  
HETATM    9  C   UNL     1      -9.900  14.888  66.129  1.00  0.00    -0.308 C  
HETATM   10  N   UNL     1      -9.447  17.465  65.995  1.00  0.00    -0.509 NA 
HETATM   11  O   UNL     1     -10.864  14.025  66.726  1.00  0.00    -0.290 OA 
HETATM   12  H1  UNL     1      -9.167  17.296  65.029  1.00  0.00     0.000 HD 
HETATM   13  H2  UNL     1      -8.646  17.570  66.618  1.00  0.00     0.000 HD 
BRANCH   9  14
HETATM   14  O   UNL     1      -8.545  14.543  66.500  1.00  0.00    -0.136 OA 
BRANCH  14  15
HETATM   15  C   UNL     1      -8.329  13.552  67.591  1.00  0.00    -0.179 C  
HETATM   16  C   UNL     1      -7.324  14.001  68.688  1.00  0.00    -0.120 C  
HETATM   17  N   UNL     1      -7.922  15.047  69.542  1.00  0.00    -0.355 NA 
HETATM   18  C   UNL     1      -6.910  12.839  69.615  1.00  0.00     0.178 C  
HETATM   19  H2  UNL     1      -8.811  14.748  69.942  1.00  0.00     0.000 HD 
HETATM   20  H1  UNL     1      -7.263  15.342  70.261  1.00  0.00     0.000 HD 
HETATM   21  C   UNL     1      -6.335  11.639  68.847  1.00  0.00    -0.062 C  
HETATM   22  N   UNL     1      -5.770  10.656  69.778  1.00  0.00    -0.045 NA 
HETATM   23  C   UNL     1      -7.410  10.992  67.953  1.00  0.00    -0.092 C  
HETATM   24  C   UNL     1      -8.054  12.105  67.067  1.00  0.00    -0.154 C  
HETATM   25  O   UNL     1      -9.258  11.583  66.457  1.00  0.00    -0.183 OA 
HETATM   26  H1  UNL     1      -5.388   9.860  69.269  1.00  0.00     0.000 HD 
HETATM   27  H2  UNL     1      -6.450  10.366  70.481  1.00  0.00     0.000 HD 
HETATM   28  H   UNL     1      -9.091  10.703  66.139  1.00  0.00     0.000 HD 
BRANCH  23  29
HETATM   29  O   UNL     1      -6.788  10.053  67.029  1.00  0.00    -0.084 OA 
BRANCH  29  30
HETATM   30  C   UNL     1      -7.334   8.744  66.772  1.00  0.00    -0.082 C  
HETATM   31  O   UNL     1      -8.146   8.633  65.600  1.00  0.00    -0.100 OA 
HETATM   32  C   UNL     1      -8.527   7.274  65.337  1.00  0.00    -0.087 C  
HETATM   33  C   UNL     1      -9.395   6.652  66.462  1.00  0.00    -0.159 C  
HETATM   34  C   UNL     1      -8.595   6.712  67.792  1.00  0.00    -0.121 C  
HETATM   35  O   UNL     1     -10.605   7.416  66.589  1.00  0.00    -0.492 OA 
HETATM   36  C   UNL     1      -9.775   5.218  66.060  1.00  0.00    -0.159 C  
HETATM   37  H   UNL     1      -7.599   7.740  69.962  1.00  0.00     0.000 HD 
HETATM   38  H   UNL     1     -11.136   7.034  67.278  1.00  0.00     0.000 HD 
HETATM   39  C   UNL     1      -8.050   8.159  68.048  1.00  0.00    -0.128 C  
HETATM   40  O   UNL     1      -7.167   8.092  69.193  1.00  0.00    -0.069 OA 
BRANCH  34  41
HETATM   41  N   UNL     1      -9.172   6.093  69.025  1.00  0.00    -0.126 NA 
HETATM   42  C   UNL     1      -8.824   4.713  69.316  1.00  0.00    -0.089 C  
HETATM   43  H   UNL     1      -9.788   6.623  69.641  1.00  0.00     0.000 HD 
ENDBRANCH  34  41
ENDBRANCH  29  30
ENDBRANCH  23  29
ENDBRANCH  14  15
ENDBRANCH   9  14
ENDBRANCH   4   5
ENDBRANCH   2   4
TORSDOF 7
ENDMDL
MODEL      228
REMARK 921   NORMALIZED FREE ENERGY PREDICTED BY IDOCK:   -3.87 KCAL/MOL
REMARK 922        TOTAL FREE ENERGY PREDICTED BY IDOCK:   -7.16 KCAL/MOL
REMARK 923 INTER-LIGAND FREE ENERGY PREDICTED BY IDOCK:   -6.23 KCAL/MOL
REMARK 924 INTRA-LIGAND FREE ENERGY PREDICTED BY IDOCK:   -0.93 KCAL/MOL
REMARK 927      BINDING AFFINITY PREDICTED BY RF-SCORE:    0.00 PKD
ROOT
HETATM    1  C   UNL     1      -5.695   4.603  70.451  1.00  0.00    -0.016 C  
HETATM    2  N   UNL     1      -6.988   4.832  69.823  1.00  0.00    -0.051 NA 
HETATM    3  H   UNL     1      -6.947   5.640  69.202  1.00  0.00     0.000 HD 
ENDROOT
BRANCH   2   4
HETATM    4  C   UNL     1      -7.521   3.660  69.113  1.00  0.00    -0.053 C  
BRANCH   4   5
HETATM    5  C   UNL     1      -8.297   3.958  67.801  1.00  0.00    -0.093 C  
HETATM    6  C   UNL     1      -8.733   2.713  67.049  1.00  0.00    -0.137 C  
HETATM    7  C   UNL     1      -9.526   3.131  65.811  1.00  0.00    -0.056 C  
HETATM    8  C   UNL     1      -8.833   4.252  65.007  1.00  0.00    -0.136 C  
HETATM    9  C   UNL     1      -8.165   5.391  65.903  1.00  0.00    -0.119 C  
HETATM   10  N   UNL     1      -9.737   4.700  63.923  1.00  0.00    -0.357 NA 
HETATM   11  O   UNL     1      -7.437   4.736  66.937  1.00  0.00    -0.084 OA 
HETATM   12  H1  UNL     1      -9.278   5.441  63.392  1.00  0.00     0.000 HD 
HETATM   13  H2  UNL     1     -10.652   4.984  64.273  1.00  0.00     0.000 HD 
BRANCH   9  14
HETATM   14  O   UNL     1      -9.052   6.413  66.414  1.00  0.00    -0.148 OA 
BRANCH  14  15
HETATM   15  C   UNL     1      -8.508   7.777  66.665  1.00  0.00    -0.129 C  
HETATM   16  C   UNL     1      -7.612   7.898  67.928  1.00  0.00    -0.109 C  
HETATM   17  N   UNL     1      -6.306   7.246  67.701  1.00  0.00    -0.046 NA 
HETATM   18  C   UNL     1      -7.328   9.366  68.308  1.00  0.00    -0.078 C  
HETATM   19  H2  UNL     1      -5.840   7.610  66.870  1.00  0.00     0.000 HD 
HETATM   20  H1  UNL     1      -5.718   7.325  68.530  1.00  0.00     0.000 HD 
HETATM   21  C   UNL     1      -8.609  10.190  68.503  1.00  0.00    -0.118 C  
HETATM   22  N   UNL     1      -8.292  11.509  69.060  1.00  0.00    -0.368 NA 
HETATM   23  C   UNL     1      -9.382  10.327  67.177  1.00  0.00    -0.153 C  
HETATM   24  C   UNL     1      -9.591   8.902  66.575  1.00  0.00    -0.232 C  
HETATM   25  O   UNL     1     -10.031   9.030  65.203  1.00  0.00    -0.289 OA 
HETATM   26  H1  UNL     1      -9.142  12.057  69.190  1.00  0.00     0.000 HD 
HETATM   27  H2  UNL     1      -7.605  12.005  68.492  1.00  0.00     0.000 HD 
HETATM   28  H   UNL     1     -10.689   9.713  65.148  1.00  0.00     0.000 HD 
BRANCH  23  29
HETATM   29  O   UNL     1     -10.716  10.854  67.433  1.00  0.00    -0.223 OA 
BRANCH  29  30
HETATM   30  C   UNL     1     -10.959  12.253  67.687  1.00  0.00    -0.244 C  
HETATM   31  O   UNL     1      -9.978  13.154  67.169  1.00  0.00    -0.230 OA 
HETATM   32  C   UNL     1     -10.368  14.527  67.336  1.00  0.00    -0.252 C  
HETATM   33  C   UNL     1     -10.523  14.944  68.822  1.00  0.00    -0.242 C  
HETATM   34  C   UNL     1     -11.586  14.024  69.484  1.00  0.00    -0.295 C  
HETATM   35  O   UNL     1      -9.258  14.778  69.484  1.00  0.00    -0.405 OA 
HETATM   36  C   UNL     1     -10.902  16.431  68.883  1.00  0.00    -0.334 C  
HETATM   37  H   UNL     1     -12.568  11.896  70.610  1.00  0.00     0.000 HD 
HETATM   38  H   UNL     1      -9.354  15.033  70.393  1.00  0.00     0.000 HD 
HETATM   39  C   UNL     1     -11.262  12.515  69.211  1.00  0.00    -0.194 C  
HETATM   40  O   UNL     1     -12.386  11.738  69.691  1.00  0.00    -0.198 OA 
BRANCH  34  41
HETATM   41  N   UNL     1     -11.992  14.273  70.901  1.00  0.00    -0.409 NA 
HETATM   42  C   UNL     1     -13.211  15.028  71.132  1.00  0.00    -0.434 C  
HETATM   43  H   UNL     1     -11.432  13.923  71.678  1.00  0.00     0.000 HD 
ENDBRANCH  34  41
ENDBRANCH  29  30
ENDBRANCH  23  29
ENDBRANCH  14  15
ENDBRANCH   9  14
ENDBRANCH   4   5
ENDBRANCH   2   4
TORSDOF 7
ENDMDL
MODEL      229
REMARK 921   NORMALIZED FREE ENERGY PREDICTED BY IDOCK:   -3.86 KCAL/MOL
REMARK 922        TOTAL FREE ENERGY PREDICTED BY IDOCK:   -7.15 KCAL/MOL
REMARK 923 INTER-LIGAND FREE ENERGY PREDICTED BY IDOCK:   -7.05 KCAL/MOL
REMARK 924 INTRA-LIGAND FREE ENERGY PREDICTED BY IDOCK:   -0.10 KCAL/MOL
REMARK 927      BINDING AFFINITY PREDICTED BY RF-SCORE:    0.00 PKD
ROOT
HETATM    1  C   UNL     1      -6.870  19.475  65.547  1.00  0.00    -0.285 C  
HETATM    2  N   UNL     1      -5.875  19.455  66.608  1.00  0.00    -0.166 NA 
HETATM    3  H   UNL     1      -5.361  20.335  66.635  1.00  0.00     0.000 HD 
ENDROOT
BRANCH   2   4
HETATM    4  C   UNL     1      -6.426  19.138  67.934  1.00  0.00    -0.226 C  
BRANCH   4   5
HETATM    5  C   UNL     1      -6.331  17.650  68.370  1.00  0.00    -0.187 C  
HETATM    6  C   UNL     1      -5.888  17.459  69.810  1.00  0.00    -0.244 C  
HETATM    7  C   UNL     1      -5.883  15.965  70.134  1.00  0.00    -0.157 C  
HETATM    8  C   UNL     1      -5.183  15.120  69.048  1.00  0.00    -0.098 C  
HETATM    9  C   UNL     1      -5.503  15.572  67.552  1.00  0.00     0.014 C  
HETATM   10  N   UNL     1      -5.359  13.684  69.363  1.00  0.00    -0.082 NA 
HETATM   11  O   UNL     1      -5.376  16.990  67.507  1.00  0.00    -0.116 OA 
HETATM   12  H1  UNL     1      -4.897  13.126  68.646  1.00  0.00     0.000 HD 
HETATM   13  H2  UNL     1      -6.340  13.429  69.480  1.00  0.00     0.000 HD 
BRANCH   9  14
HETATM   14  O   UNL     1      -6.756  15.111  66.993  1.00  0.00    -0.235 OA 
BRANCH  14  15
HETATM   15  C   UNL     1      -7.375  13.873  67.540  1.00  0.00    -0.166 C  
HETATM   16  C   UNL     1      -7.103  12.588  66.711  1.00  0.00     0.349 C  
HETATM   17  N   UNL     1      -5.702  12.150  66.877  1.00  0.00    -0.371 NA 
HETATM   18  C   UNL     1      -8.001  11.410  67.142  1.00  0.00    -0.156 C  
HETATM   19  H2  UNL     1      -5.458  12.026  67.860  1.00  0.00     0.000 HD 
HETATM   20  H1  UNL     1      -5.523  11.307  66.333  1.00  0.00     0.000 HD 
HETATM   21  C   UNL     1      -9.498  11.751  67.090  1.00  0.00    -0.175 C  
HETATM   22  N   UNL     1     -10.308  10.547  67.306  1.00  0.00    -0.215 NA 
HETATM   23  C   UNL     1      -9.850  12.840  68.121  1.00  0.00    -0.226 C  
HETATM   24  C   UNL     1      -8.883  14.048  67.916  1.00  0.00    -0.185 C  
HETATM   25  O   UNL     1      -8.989  14.934  69.055  1.00  0.00    -0.194 OA 
HETATM   26  H1  UNL     1     -11.301  10.773  67.271  1.00  0.00     0.000 HD 
HETATM   27  H2  UNL     1     -10.057  10.072  68.173  1.00  0.00     0.000 HD 
HETATM   28  H   UNL     1      -9.905  15.041  69.284  1.00  0.00     0.000 HD 
BRANCH  23  29
HETATM   29  O   UNL     1     -11.190  13.351  67.865  1.00  0.00    -0.254 OA 
BRANCH  29  30
HETATM   30  C   UNL     1     -12.087  13.738  68.927  1.00  0.00    -0.313 C  
HETATM   31  O   UNL     1     -11.946  15.082  69.394  1.00  0.00    -0.308 OA 
HETATM   32  C   UNL     1     -12.967  15.431  70.342  1.00  0.00    -0.253 C  
HETATM   33  C   UNL     1     -12.924  14.571  71.633  1.00  0.00    -0.337 C  
HETATM   34  C   UNL     1     -13.081  13.078  71.236  1.00  0.00    -0.179 C  
HETATM   35  O   UNL     1     -11.657  14.771  72.280  1.00  0.00    -0.336 OA 
HETATM   36  C   UNL     1     -14.029  15.053  72.586  1.00  0.00    -0.491 C  
HETATM   37  H   UNL     1     -12.384  10.726  70.374  1.00  0.00     0.000 HD 
HETATM   38  H   UNL     1     -11.631  14.245  73.070  1.00  0.00     0.000 HD 
HETATM   39  C   UNL     1     -12.065  12.694  70.106  1.00  0.00    -0.294 C  
HETATM   40  O   UNL     1     -12.397  11.355  69.663  1.00  0.00    -0.259 OA 
BRANCH  34  41
HETATM   41  N   UNL     1     -13.163  12.038  72.307  1.00  0.00    -0.487 NA 
HETATM   42  C   UNL     1     -13.278  10.650  71.896  1.00  0.00    -0.423 C  
HETATM   43  H   UNL     1     -13.138  12.295  73.294  1.00  0.00     0.000 HD 
ENDBRANCH  34  41
ENDBRANCH  29  30
ENDBRANCH  23  29
ENDBRANCH  14  15
ENDBRANCH   9  14
ENDBRANCH   4   5
ENDBRANCH   2   4
TORSDOF 7
ENDMDL
MODEL      230
REMARK 921   NORMALIZED FREE ENERGY PREDICTED BY IDOCK:   -3.85 KCAL/MOL
REMARK 922        TOTAL FREE ENERGY PREDICTED BY IDOCK:   -7.13 KCAL/MOL
REMARK 923 INTER-LIGAND FREE ENERGY PREDICTED BY IDOCK:   -6.44 KCAL/MOL
REMARK 924 INTRA-LIGAND FREE ENERGY PREDICTED BY IDOCK:   -0.69 KCAL/MOL
REMARK 927      BINDING AFFINITY PREDICTED BY RF-SCORE:    0.00 PKD
ROOT
HETATM    1  C   UNL     1      -9.755  15.222  68.866  1.00  0.00    -0.220 C  
HETATM    2  N   UNL     1     -10.508  16.236  68.144  1.00  0.00    -0.277 NA 
HETATM    3  H   UNL     1      -9.877  16.863  67.645  1.00  0.00     0.000 HD 
ENDROOT
BRANCH   2   4
HETATM    4  C   UNL     1     -11.522  15.687  67.231  1.00  0.00    -0.037 C  
BRANCH   4   5
HETATM    5  C   UNL     1     -11.126  14.387  66.481  1.00  0.00    -0.331 C  
HETATM    6  C   UNL     1     -10.903  14.580  64.992  1.00  0.00    -0.425 C  
HETATM    7  C   UNL     1     -10.471  13.249  64.377  1.00  0.00    -0.424 C  
HETATM    8  C   UNL     1     -11.360  12.068  64.823  1.00  0.00    -0.313 C  
HETATM    9  C   UNL     1     -11.768  12.095  66.365  1.00  0.00    -0.324 C  
HETATM   10  N   UNL     1     -10.781  10.805  64.309  1.00  0.00    -0.359 NA 
HETATM   11  O   UNL     1     -12.190  13.423  66.662  1.00  0.00    -0.388 OA 
HETATM   12  H1  UNL     1     -11.368  10.025  64.604  1.00  0.00     0.000 HD 
HETATM   13  H2  UNL     1      -9.806  10.683  64.586  1.00  0.00     0.000 HD 
BRANCH   9  14
HETATM   14  O   UNL     1     -10.782  11.607  67.303  1.00  0.00    -0.217 OA 
BRANCH  14  15
HETATM   15  C   UNL     1     -11.103  10.406  68.124  1.00  0.00    -0.285 C  
HETATM   16  C   UNL     1     -10.992  10.618  69.659  1.00  0.00    -0.278 C  
HETATM   17  N   UNL     1     -12.110  11.449  70.150  1.00  0.00    -0.344 NA 
HETATM   18  C   UNL     1     -11.036   9.289  70.440  1.00  0.00    -0.300 C  
HETATM   19  H2  UNL     1     -13.016  11.061  69.886  1.00  0.00     0.000 HD 
HETATM   20  H1  UNL     1     -12.037  11.589  71.157  1.00  0.00     0.000 HD 
HETATM   21  C   UNL     1      -9.965   8.289  69.977  1.00  0.00    -0.188 C  
HETATM   22  N   UNL     1      -9.915   7.135  70.881  1.00  0.00    -0.189 NA 
HETATM   23  C   UNL     1     -10.224   7.839  68.527  1.00  0.00    -0.204 C  
HETATM   24  C   UNL     1     -10.381   9.109  67.634  1.00  0.00    -0.255 C  
HETATM   25  O   UNL     1     -10.925   8.718  66.351  1.00  0.00     0.225 OA 
HETATM   26  H1  UNL     1      -9.204   6.471  70.575  1.00  0.00     0.000 HD 
HETATM   27  H2  UNL     1     -10.829   6.692  70.982  1.00  0.00     0.000 HD 
HETATM   28  H   UNL     1     -10.486   7.930  66.052  1.00  0.00     0.000 HD 
BRANCH  23  29
HETATM   29  O   UNL     1      -9.060   7.128  68.014  1.00  0.00    -0.133 OA 
BRANCH  29  30
HETATM   30  C   UNL     1      -7.943   7.809  67.407  1.00  0.00    -0.119 C  
HETATM   31  O   UNL     1      -7.788   9.184  67.768  1.00  0.00    -0.099 OA 
HETATM   32  C   UNL     1      -6.575   9.744  67.241  1.00  0.00    -0.070 C  
HETATM   33  C   UNL     1      -6.526   9.749  65.690  1.00  0.00    -0.082 C  
HETATM   34  C   UNL     1      -6.677   8.287  65.188  1.00  0.00    -0.055 C  
HETATM   35  O   UNL     1      -7.614  10.547  65.195  1.00  0.00    -0.243 OA 
HETATM   36  C   UNL     1      -5.210  10.401  65.238  1.00  0.00    -0.102 C  
HETATM   37  H   UNL     1      -7.873   6.072  64.538  1.00  0.00     0.000 HD 
HETATM   38  H   UNL     1      -7.583  10.550  64.246  1.00  0.00     0.000 HD 
HETATM   39  C   UNL     1      -7.922   7.599  65.846  1.00  0.00    -0.116 C  
HETATM   40  O   UNL     1      -7.885   6.198  65.479  1.00  0.00    -0.092 OA 
BRANCH  34  41
HETATM   41  N   UNL     1      -6.573   7.999  63.724  1.00  0.00    -0.066 NA 
HETATM   42  C   UNL     1      -7.701   8.357  62.882  1.00  0.00    -0.127 C  
HETATM   43  H   UNL     1      -5.737   7.565  63.331  1.00  0.00     0.000 HD 
ENDBRANCH  34  41
ENDBRANCH  29  30
ENDBRANCH  23  29
ENDBRANCH  14  15
ENDBRANCH   9  14
ENDBRANCH   4   5
ENDBRANCH   2   4
TORSDOF 7
ENDMDL
MODEL      231
REMARK 921   NORMALIZED FREE ENERGY PREDICTED BY IDOCK:   -3.84 KCAL/MOL
REMARK 922        TOTAL FREE ENERGY PREDICTED BY IDOCK:   -7.12 KCAL/MOL
REMARK 923 INTER-LIGAND FREE ENERGY PREDICTED BY IDOCK:   -6.20 KCAL/MOL
REMARK 924 INTRA-LIGAND FREE ENERGY PREDICTED BY IDOCK:   -0.93 KCAL/MOL
REMARK 927      BINDING AFFINITY PREDICTED BY RF-SCORE:    0.00 PKD
ROOT
HETATM    1  C   UNL     1     -11.493  10.233  70.768  1.00  0.00    -0.351 C  
HETATM    2  N   UNL     1     -12.355  11.208  70.118  1.00  0.00    -0.305 NA 
HETATM    3  H   UNL     1     -13.252  11.270  70.599  1.00  0.00     0.000 HD 
ENDROOT
BRANCH   2   4
HETATM    4  C   UNL     1     -11.748  12.540  69.980  1.00  0.00    -0.221 C  
BRANCH   4   5
HETATM    5  C   UNL     1     -11.526  13.037  68.525  1.00  0.00    -0.304 C  
HETATM    6  C   UNL     1     -12.376  14.236  68.148  1.00  0.00    -0.005 C  
HETATM    7  C   UNL     1     -12.033  14.662  66.721  1.00  0.00    -0.297 C  
HETATM    8  C   UNL     1     -11.991  13.472  65.737  1.00  0.00    -0.403 C  
HETATM    9  C   UNL     1     -11.308  12.155  66.323  1.00  0.00    -0.357 C  
HETATM   10  N   UNL     1     -11.502  13.949  64.422  1.00  0.00    -0.485 NA 
HETATM   11  O   UNL     1     -11.846  11.950  67.626  1.00  0.00    -0.534 OA 
HETATM   12  H1  UNL     1     -11.475  13.163  63.773  1.00  0.00     0.000 HD 
HETATM   13  H2  UNL     1     -10.603  14.426  64.492  1.00  0.00     0.000 HD 
BRANCH   9  14
HETATM   14  O   UNL     1      -9.862  12.116  66.310  1.00  0.00    -0.224 OA 
BRANCH  14  15
HETATM   15  C   UNL     1      -9.156  11.265  67.307  1.00  0.00    -0.156 C  
HETATM   16  C   UNL     1      -7.828  11.862  67.848  1.00  0.00    -0.138 C  
HETATM   17  N   UNL     1      -8.101  12.987  68.766  1.00  0.00    -0.341 NA 
HETATM   18  C   UNL     1      -6.997  10.826  68.633  1.00  0.00    -0.070 C  
HETATM   19  H2  UNL     1      -8.730  12.716  69.521  1.00  0.00     0.000 HD 
HETATM   20  H1  UNL     1      -7.229  13.379  69.120  1.00  0.00     0.000 HD 
HETATM   21  C   UNL     1      -6.700   9.558  67.819  1.00  0.00    -0.067 C  
HETATM   22  N   UNL     1      -5.741   8.704  68.528  1.00  0.00    -0.037 NA 
HETATM   23  C   UNL     1      -7.997   8.787  67.510  1.00  0.00    -0.102 C  
HETATM   24  C   UNL     1      -9.018   9.773  66.861  1.00  0.00    -0.138 C  
HETATM   25  O   UNL     1     -10.327   9.156  66.851  1.00  0.00    -0.254 OA 
HETATM   26  H1  UNL     1      -5.544   7.862  67.988  1.00  0.00     0.000 HD 
HETATM   27  H2  UNL     1      -6.057   8.483  69.473  1.00  0.00     0.000 HD 
HETATM   28  H   UNL     1     -10.243   8.249  66.579  1.00  0.00     0.000 HD 
BRANCH  23  29
HETATM   29  O   UNL     1      -7.737   7.761  66.509  1.00  0.00    -0.093 OA 
BRANCH  29  30
HETATM   30  C   UNL     1      -7.709   6.355  66.831  1.00  0.00    -0.100 C  
HETATM   31  O   UNL     1      -6.423   5.734  66.771  1.00  0.00    -0.047 OA 
HETATM   32  C   UNL     1      -6.458   4.379  67.245  1.00  0.00    -0.042 C  
HETATM   33  C   UNL     1      -7.369   3.454  66.395  1.00  0.00    -0.075 C  
HETATM   34  C   UNL     1      -8.808   4.039  66.403  1.00  0.00    -0.121 C  
HETATM   35  O   UNL     1      -6.867   3.421  65.050  1.00  0.00    -0.043 OA 
HETATM   36  C   UNL     1      -7.302   2.030  66.967  1.00  0.00    -0.060 C  
HETATM   37  H   UNL     1     -10.785   5.589  65.733  1.00  0.00     0.000 HD 
HETATM   38  H   UNL     1      -7.425   2.854  64.530  1.00  0.00     0.000 HD 
HETATM   39  C   UNL     1      -8.794   5.557  66.014  1.00  0.00    -0.147 C  
HETATM   40  O   UNL     1     -10.131   6.070  66.226  1.00  0.00    -0.118 OA 
BRANCH  34  41
HETATM   41  N   UNL     1      -9.910   3.287  65.727  1.00  0.00    -0.398 NA 
HETATM   42  C   UNL     1      -9.955   3.312  64.276  1.00  0.00    -0.166 C  
HETATM   43  H   UNL     1     -10.606   2.773  66.268  1.00  0.00     0.000 HD 
ENDBRANCH  34  41
ENDBRANCH  29  30
ENDBRANCH  23  29
ENDBRANCH  14  15
ENDBRANCH   9  14
ENDBRANCH   4   5
ENDBRANCH   2   4
TORSDOF 7
ENDMDL
MODEL      232
REMARK 921   NORMALIZED FREE ENERGY PREDICTED BY IDOCK:   -3.82 KCAL/MOL
REMARK 922        TOTAL FREE ENERGY PREDICTED BY IDOCK:   -7.09 KCAL/MOL
REMARK 923 INTER-LIGAND FREE ENERGY PREDICTED BY IDOCK:   -6.21 KCAL/MOL
REMARK 924 INTRA-LIGAND FREE ENERGY PREDICTED BY IDOCK:   -0.89 KCAL/MOL
REMARK 927      BINDING AFFINITY PREDICTED BY RF-SCORE:    0.00 PKD
ROOT
HETATM    1  C   UNL     1     -12.654   8.971  71.519  1.00  0.00    -0.338 C  
HETATM    2  N   UNL     1     -11.553   8.025  71.621  1.00  0.00    -0.264 NA 
HETATM    3  H   UNL     1     -10.995   8.213  72.453  1.00  0.00     0.000 HD 
ENDROOT
BRANCH   2   4
HETATM    4  C   UNL     1     -11.975   6.616  71.588  1.00  0.00    -0.347 C  
BRANCH   4   5
HETATM    5  C   UNL     1     -10.898   5.597  71.125  1.00  0.00    -0.218 C  
HETATM    6  C   UNL     1     -10.089   4.999  72.262  1.00  0.00    -0.245 C  
HETATM    7  C   UNL     1      -9.104   3.980  71.690  1.00  0.00    -0.174 C  
HETATM    8  C   UNL     1      -8.335   4.516  70.463  1.00  0.00    -0.078 C  
HETATM    9  C   UNL     1      -9.223   5.368  69.448  1.00  0.00    -0.117 C  
HETATM   10  N   UNL     1      -7.525   3.419  69.882  1.00  0.00    -0.044 NA 
HETATM   11  O   UNL     1      -9.991   6.278  70.228  1.00  0.00    -0.169 OA 
HETATM   12  H1  UNL     1      -7.017   3.773  69.072  1.00  0.00     0.000 HD 
HETATM   13  H2  UNL     1      -8.087   2.597  69.659  1.00  0.00     0.000 HD 
BRANCH   9  14
HETATM   14  O   UNL     1     -10.035   4.618  68.514  1.00  0.00    -0.136 OA 
BRANCH  14  15
HETATM   15  C   UNL     1      -9.953   4.948  67.064  1.00  0.00    -0.208 C  
HETATM   16  C   UNL     1      -8.972   4.062  66.249  1.00  0.00    -0.127 C  
HETATM   17  N   UNL     1      -9.526   2.704  66.070  1.00  0.00    -0.374 NA 
HETATM   18  C   UNL     1      -8.699   4.630  64.841  1.00  0.00    -0.145 C  
HETATM   19  H2  UNL     1     -10.455   2.726  65.650  1.00  0.00     0.000 HD 
HETATM   20  H1  UNL     1      -8.882   2.122  65.536  1.00  0.00     0.000 HD 
HETATM   21  C   UNL     1      -8.185   6.077  64.871  1.00  0.00    -0.130 C  
HETATM   22  N   UNL     1      -7.747   6.495  63.534  1.00  0.00    -0.102 NA 
HETATM   23  C   UNL     1      -9.262   7.032  65.418  1.00  0.00     0.454 C  
HETATM   24  C   UNL     1      -9.770   6.476  66.786  1.00  0.00    -0.164 C  
HETATM   25  O   UNL     1     -10.980   7.176  67.159  1.00  0.00    -0.476 OA 
HETATM   26  H1  UNL     1      -7.406   7.456  63.554  1.00  0.00     0.000 HD 
HETATM   27  H2  UNL     1      -8.482   6.369  62.838  1.00  0.00     0.000 HD 
HETATM   28  H   UNL     1     -10.869   8.105  66.990  1.00  0.00     0.000 HD 
BRANCH  23  29
HETATM   29  O   UNL     1      -8.672   8.332  65.708  1.00  0.00    -0.155 OA 
BRANCH  29  30
HETATM   30  C   UNL     1      -9.467   9.483  66.059  1.00  0.00    -0.233 C  
HETATM   31  O   UNL     1      -9.997  10.226  64.959  1.00  0.00    -0.306 OA 
HETATM   32  C   UNL     1     -10.893  11.262  65.392  1.00  0.00    -0.188 C  
HETATM   33  C   UNL     1     -10.208  12.333  66.282  1.00  0.00    -0.229 C  
HETATM   34  C   UNL     1      -9.601  11.626  67.525  1.00  0.00    -0.171 C  
HETATM   35  O   UNL     1      -9.163  12.964  65.524  1.00  0.00    -0.422 OA 
HETATM   36  C   UNL     1     -11.244  13.405  66.654  1.00  0.00    -0.330 C  
HETATM   37  H   UNL     1      -7.895  10.249  68.922  1.00  0.00     0.000 HD 
HETATM   38  H   UNL     1      -8.744  13.619  66.069  1.00  0.00     0.000 HD 
HETATM   39  C   UNL     1      -8.718  10.405  67.093  1.00  0.00    -0.129 C  
HETATM   40  O   UNL     1      -8.347   9.693  68.299  1.00  0.00    -0.115 OA 
BRANCH  34  41
HETATM   41  N   UNL     1      -8.957  12.447  68.595  1.00  0.00    -0.384 NA 
HETATM   42  C   UNL     1      -7.707  13.114  68.275  1.00  0.00    -0.141 C  
HETATM   43  H   UNL     1      -9.381  12.535  69.518  1.00  0.00     0.000 HD 
ENDBRANCH  34  41
ENDBRANCH  29  30
ENDBRANCH  23  29
ENDBRANCH  14  15
ENDBRANCH   9  14
ENDBRANCH   4   5
ENDBRANCH   2   4
TORSDOF 7
ENDMDL
MODEL      233
REMARK 921   NORMALIZED FREE ENERGY PREDICTED BY IDOCK:   -3.81 KCAL/MOL
REMARK 922        TOTAL FREE ENERGY PREDICTED BY IDOCK:   -7.09 KCAL/MOL
REMARK 923 INTER-LIGAND FREE ENERGY PREDICTED BY IDOCK:   -7.07 KCAL/MOL
REMARK 924 INTRA-LIGAND FREE ENERGY PREDICTED BY IDOCK:   -0.01 KCAL/MOL
REMARK 927      BINDING AFFINITY PREDICTED BY RF-SCORE:    0.00 PKD
ROOT
HETATM    1  C   UNL     1      -9.338   3.038  68.546  1.00  0.00    -0.180 C  
HETATM    2  N   UNL     1      -9.129   3.376  69.946  1.00  0.00    -0.112 NA 
HETATM    3  H   UNL     1      -8.586   2.650  70.412  1.00  0.00     0.000 HD 
ENDROOT
BRANCH   2   4
HETATM    4  C   UNL     1      -8.514   4.696  70.153  1.00  0.00    -0.074 C  
BRANCH   4   5
HETATM    5  C   UNL     1      -9.282   5.661  71.097  1.00  0.00    -0.149 C  
HETATM    6  C   UNL     1      -9.921   4.975  72.291  1.00  0.00    -0.233 C  
HETATM    7  C   UNL     1     -10.599   6.028  73.167  1.00  0.00    -0.268 C  
HETATM    8  C   UNL     1     -11.468   7.011  72.353  1.00  0.00    -0.261 C  
HETATM    9  C   UNL     1     -10.822   7.474  70.970  1.00  0.00    -0.235 C  
HETATM   10  N   UNL     1     -11.957   8.082  73.253  1.00  0.00    -0.426 NA 
HETATM   11  O   UNL     1     -10.326   6.304  70.328  1.00  0.00    -0.188 OA 
HETATM   12  H1  UNL     1     -12.531   8.732  72.715  1.00  0.00     0.000 HD 
HETATM   13  H2  UNL     1     -11.198   8.552  73.746  1.00  0.00     0.000 HD 
BRANCH   9  14
HETATM   14  O   UNL     1      -9.832   8.528  71.040  1.00  0.00    -0.175 OA 
BRANCH  14  15
HETATM   15  C   UNL     1      -9.439   9.230  69.787  1.00  0.00    -0.191 C  
HETATM   16  C   UNL     1      -8.004   9.822  69.795  1.00  0.00    -0.164 C  
HETATM   17  N   UNL     1      -6.997   8.745  69.695  1.00  0.00    -0.049 NA 
HETATM   18  C   UNL     1      -7.759  10.784  68.614  1.00  0.00    -0.114 C  
HETATM   19  H2  UNL     1      -7.157   8.151  68.881  1.00  0.00     0.000 HD 
HETATM   20  H1  UNL     1      -6.055   9.134  69.701  1.00  0.00     0.000 HD 
HETATM   21  C   UNL     1      -8.788  11.923  68.550  1.00  0.00    -0.108 C  
HETATM   22  N   UNL     1      -8.392  12.917  67.546  1.00  0.00    -0.171 NA 
HETATM   23  C   UNL     1     -10.196  11.375  68.254  1.00  0.00    -0.193 C  
HETATM   24  C   UNL     1     -10.516  10.245  69.282  1.00  0.00    -0.228 C  
HETATM   25  O   UNL     1     -11.684   9.518  68.836  1.00  0.00    -0.246 OA 
HETATM   26  H1  UNL     1      -9.075  13.673  67.503  1.00  0.00     0.000 HD 
HETATM   27  H2  UNL     1      -8.240  12.491  66.631  1.00  0.00     0.000 HD 
HETATM   28  H   UNL     1     -12.338  10.135  68.529  1.00  0.00     0.000 HD 
BRANCH  23  29
HETATM   29  O   UNL     1     -11.191  12.416  68.479  1.00  0.00    -0.239 OA 
BRANCH  29  30
HETATM   30  C   UNL     1     -11.318  13.565  67.616  1.00  0.00    -0.296 C  
HETATM   31  O   UNL     1     -10.919  13.363  66.258  1.00  0.00    -0.286 OA 
HETATM   32  C   UNL     1     -11.214  14.503  65.436  1.00  0.00    -0.342 C  
HETATM   33  C   UNL     1     -10.455  15.785  65.870  1.00  0.00    -0.352 C  
HETATM   34  C   UNL     1     -10.829  16.103  67.344  1.00  0.00    -0.265 C  
HETATM   35  O   UNL     1      -9.042  15.542  65.770  1.00  0.00    -0.368 OA 
HETATM   36  C   UNL     1     -10.814  16.925  64.906  1.00  0.00    -0.012 C  
HETATM   37  H   UNL     1     -10.776  15.925  69.938  1.00  0.00     0.000 HD 
HETATM   38  H   UNL     1      -8.578  16.327  66.036  1.00  0.00     0.000 HD 
HETATM   39  C   UNL     1     -10.642  14.838  68.251  1.00  0.00    -0.241 C  
HETATM   40  O   UNL     1     -11.184  15.157  69.555  1.00  0.00    -0.242 OA 
BRANCH  34  41
HETATM   41  N   UNL     1     -10.299  17.346  67.984  1.00  0.00    -0.345 NA 
HETATM   42  C   UNL     1     -10.864  18.617  67.564  1.00  0.00    -0.317 C  
HETATM   43  H   UNL     1      -9.566  17.303  68.692  1.00  0.00     0.000 HD 
ENDBRANCH  34  41
ENDBRANCH  29  30
ENDBRANCH  23  29
ENDBRANCH  14  15
ENDBRANCH   9  14
ENDBRANCH   4   5
ENDBRANCH   2   4
TORSDOF 7
ENDMDL
MODEL      234
REMARK 921   NORMALIZED FREE ENERGY PREDICTED BY IDOCK:   -3.81 KCAL/MOL
REMARK 922        TOTAL FREE ENERGY PREDICTED BY IDOCK:   -7.08 KCAL/MOL
REMARK 923 INTER-LIGAND FREE ENERGY PREDICTED BY IDOCK:   -6.75 KCAL/MOL
REMARK 924 INTRA-LIGAND FREE ENERGY PREDICTED BY IDOCK:   -0.33 KCAL/MOL
REMARK 927      BINDING AFFINITY PREDICTED BY RF-SCORE:    0.00 PKD
ROOT
HETATM    1  C   UNL     1      -8.633   9.363  65.967  1.00  0.00    -0.142 C  
HETATM    2  N   UNL     1      -8.354  10.402  66.946  1.00  0.00    -0.123 NA 
HETATM    3  H   UNL     1      -7.694  10.067  67.647  1.00  0.00     0.000 HD 
ENDROOT
BRANCH   2   4
HETATM    4  C   UNL     1      -7.885  11.665  66.357  1.00  0.00     0.035 C  
BRANCH   4   5
HETATM    5  C   UNL     1      -7.004  12.556  67.274  1.00  0.00    -0.112 C  
HETATM    6  C   UNL     1      -6.106  11.772  68.214  1.00  0.00    -0.049 C  
HETATM    7  C   UNL     1      -5.256  12.751  69.024  1.00  0.00    -0.067 C  
HETATM    8  C   UNL     1      -6.084  13.910  69.620  1.00  0.00    -0.119 C  
HETATM    9  C   UNL     1      -7.196  14.499  68.639  1.00  0.00    -0.124 C  
HETATM   10  N   UNL     1      -5.166  14.886  70.250  1.00  0.00    -0.107 NA 
HETATM   11  O   UNL     1      -7.881  13.388  68.068  1.00  0.00    -0.121 OA 
HETATM   12  H1  UNL     1      -5.713  15.652  70.644  1.00  0.00     0.000 HD 
HETATM   13  H2  UNL     1      -4.446  15.215  69.606  1.00  0.00     0.000 HD 
BRANCH   9  14
HETATM   14  O   UNL     1      -6.741  15.441  67.639  1.00  0.00    -0.146 OA 
BRANCH  14  15
HETATM   15  C   UNL     1      -7.327  16.810  67.622  1.00  0.00    -0.146 C  
HETATM   16  C   UNL     1      -7.213  17.583  68.964  1.00  0.00    -0.215 C  
HETATM   17  N   UNL     1      -5.819  18.011  69.199  1.00  0.00    -0.208 NA 
HETATM   18  C   UNL     1      -8.088  18.854  68.986  1.00  0.00    -0.205 C  
HETATM   19  H2  UNL     1      -5.452  18.554  68.417  1.00  0.00     0.000 HD 
HETATM   20  H1  UNL     1      -5.744  18.519  70.080  1.00  0.00     0.000 HD 
HETATM   21  C   UNL     1      -9.566  18.565  68.679  1.00  0.00    -0.352 C  
HETATM   22  N   UNL     1     -10.382  19.761  68.915  1.00  0.00    -0.594 NA 
HETATM   23  C   UNL     1      -9.739  18.059  67.235  1.00  0.00    -0.297 C  
HETATM   24  C   UNL     1      -8.765  16.861  67.009  1.00  0.00    -0.209 C  
HETATM   25  O   UNL     1      -8.687  16.577  65.592  1.00  0.00    -0.401 OA 
HETATM   26  H1  UNL     1     -11.363  19.570  68.712  1.00  0.00     0.000 HD 
HETATM   27  H2  UNL     1     -10.036  20.565  68.391  1.00  0.00     0.000 HD 
HETATM   28  H   UNL     1      -9.561  16.608  65.219  1.00  0.00     0.000 HD 
BRANCH  23  29
HETATM   29  O   UNL     1     -11.082  17.525  67.054  1.00  0.00    -0.012 OA 
BRANCH  29  30
HETATM   30  C   UNL     1     -11.606  16.457  67.870  1.00  0.00     0.132 C  
HETATM   31  O   UNL     1     -11.180  16.456  69.235  1.00  0.00    -0.315 OA 
HETATM   32  C   UNL     1     -11.857  15.455  70.009  1.00  0.00    -0.343 C  
HETATM   33  C   UNL     1     -11.578  14.009  69.521  1.00  0.00    -0.295 C  
HETATM   34  C   UNL     1     -12.020  13.896  68.036  1.00  0.00    -0.355 C  
HETATM   35  O   UNL     1     -10.169  13.748  69.629  1.00  0.00    -0.263 OA 
HETATM   36  C   UNL     1     -12.318  13.023  70.439  1.00  0.00    -0.351 C  
HETATM   37  H   UNL     1     -11.877  14.147  65.452  1.00  0.00     0.000 HD 
HETATM   38  H   UNL     1      -9.998  12.863  69.331  1.00  0.00     0.000 HD 
HETATM   39  C   UNL     1     -11.399  15.055  67.182  1.00  0.00    -0.320 C  
HETATM   40  O   UNL     1     -12.002  14.992  65.867  1.00  0.00    -0.131 OA 
BRANCH  34  41
HETATM   41  N   UNL     1     -11.940  12.573  67.345  1.00  0.00    -0.488 NA 
HETATM   42  C   UNL     1     -11.465  11.435  68.113  1.00  0.00    -0.305 C  
HETATM   43  H   UNL     1     -12.212  12.472  66.367  1.00  0.00     0.000 HD 
ENDBRANCH  34  41
ENDBRANCH  29  30
ENDBRANCH  23  29
ENDBRANCH  14  15
ENDBRANCH   9  14
ENDBRANCH   4   5
ENDBRANCH   2   4
TORSDOF 7
ENDMDL
MODEL      235
REMARK 921   NORMALIZED FREE ENERGY PREDICTED BY IDOCK:   -3.80 KCAL/MOL
REMARK 922        TOTAL FREE ENERGY PREDICTED BY IDOCK:   -7.06 KCAL/MOL
REMARK 923 INTER-LIGAND FREE ENERGY PREDICTED BY IDOCK:   -6.69 KCAL/MOL
REMARK 924 INTRA-LIGAND FREE ENERGY PREDICTED BY IDOCK:   -0.38 KCAL/MOL
REMARK 927      BINDING AFFINITY PREDICTED BY RF-SCORE:    0.00 PKD
ROOT
HETATM    1  C   UNL     1     -11.290   2.890  73.659  1.00  0.00    -0.155 C  
HETATM    2  N   UNL     1     -10.411   3.910  74.212  1.00  0.00    -0.205 NA 
HETATM    3  H   UNL     1     -10.711   4.170  75.151  1.00  0.00     0.000 HD 
ENDROOT
BRANCH   2   4
HETATM    4  C   UNL     1      -8.989   3.536  74.208  1.00  0.00    -0.086 C  
BRANCH   4   5
HETATM    5  C   UNL     1      -8.043   4.476  73.412  1.00  0.00    -0.095 C  
HETATM    6  C   UNL     1      -6.609   3.984  73.336  1.00  0.00    -0.042 C  
HETATM    7  C   UNL     1      -5.792   4.961  72.490  1.00  0.00    -0.017 C  
HETATM    8  C   UNL     1      -6.027   6.435  72.885  1.00  0.00    -0.042 C  
HETATM    9  C   UNL     1      -7.546   6.797  73.210  1.00  0.00    -0.089 C  
HETATM   10  N   UNL     1      -5.323   7.312  71.921  1.00  0.00    -0.036 NA 
HETATM   11  O   UNL     1      -8.048   5.770  74.059  1.00  0.00    -0.109 OA 
HETATM   12  H1  UNL     1      -5.478   8.286  72.182  1.00  0.00     0.000 HD 
HETATM   13  H2  UNL     1      -5.591   7.122  70.955  1.00  0.00     0.000 HD 
BRANCH   9  14
HETATM   14  O   UNL     1      -8.407   7.046  72.074  1.00  0.00    -0.105 OA 
BRANCH  14  15
HETATM   15  C   UNL     1      -9.523   8.022  72.218  1.00  0.00    -0.209 C  
HETATM   16  C   UNL     1     -10.864   7.411  72.708  1.00  0.00    -0.326 C  
HETATM   17  N   UNL     1     -10.779   7.055  74.140  1.00  0.00    -0.522 NA 
HETATM   18  C   UNL     1     -12.047   8.389  72.552  1.00  0.00    -0.403 C  
HETATM   19  H2  UNL     1     -10.494   7.850  74.712  1.00  0.00     0.000 HD 
HETATM   20  H1  UNL     1     -11.660   6.654  74.461  1.00  0.00     0.000 HD 
HETATM   21  C   UNL     1     -12.208   8.903  71.113  1.00  0.00    -0.255 C  
HETATM   22  N   UNL     1     -13.459   9.658  70.975  1.00  0.00    -0.560 NA 
HETATM   23  C   UNL     1     -11.000   9.764  70.699  1.00  0.00    -0.331 C  
HETATM   24  C   UNL     1      -9.695   8.953  70.974  1.00  0.00    -0.252 C  
HETATM   25  O   UNL     1      -8.559   9.845  70.886  1.00  0.00    -0.339 OA 
HETATM   26  H1  UNL     1     -13.567  10.000  70.021  1.00  0.00     0.000 HD 
HETATM   27  H2  UNL     1     -13.523  10.413  71.658  1.00  0.00     0.000 HD 
HETATM   28  H   UNL     1      -8.664  10.411  70.130  1.00  0.00     0.000 HD 
BRANCH  23  29
HETATM   29  O   UNL     1     -11.030  10.001  69.261  1.00  0.00    -0.223 OA 
BRANCH  29  30
HETATM   30  C   UNL     1      -9.850   9.910  68.437  1.00  0.00    -0.151 C  
HETATM   31  O   UNL     1      -9.031  11.081  68.401  1.00  0.00    -0.145 OA 
HETATM   32  C   UNL     1      -7.808  10.858  67.681  1.00  0.00    -0.113 C  
HETATM   33  C   UNL     1      -8.032  10.502  66.187  1.00  0.00    -0.147 C  
HETATM   34  C   UNL     1      -8.912   9.224  66.112  1.00  0.00    -0.165 C  
HETATM   35  O   UNL     1      -8.709  11.595  65.547  1.00  0.00    -0.400 OA 
HETATM   36  C   UNL     1      -6.664  10.323  65.509  1.00  0.00    -0.128 C  
HETATM   37  H   UNL     1     -11.072   7.778  66.153  1.00  0.00     0.000 HD 
HETATM   38  H   UNL     1      -8.845  11.377  64.633  1.00  0.00     0.000 HD 
HETATM   39  C   UNL     1     -10.198   9.382  66.994  1.00  0.00    -0.255 C  
HETATM   40  O   UNL     1     -10.863   8.096  67.023  1.00  0.00    -0.265 OA 
BRANCH  34  41
HETATM   41  N   UNL     1      -9.205   8.611  64.780  1.00  0.00    -0.353 NA 
HETATM   42  C   UNL     1      -8.211   8.763  63.732  1.00  0.00    -0.163 C  
HETATM   43  H   UNL     1     -10.074   8.104  64.614  1.00  0.00     0.000 HD 
ENDBRANCH  34  41
ENDBRANCH  29  30
ENDBRANCH  23  29
ENDBRANCH  14  15
ENDBRANCH   9  14
ENDBRANCH   4   5
ENDBRANCH   2   4
TORSDOF 7
ENDMDL
MODEL      236
REMARK 921   NORMALIZED FREE ENERGY PREDICTED BY IDOCK:   -3.78 KCAL/MOL
REMARK 922        TOTAL FREE ENERGY PREDICTED BY IDOCK:   -7.03 KCAL/MOL
REMARK 923 INTER-LIGAND FREE ENERGY PREDICTED BY IDOCK:   -5.70 KCAL/MOL
REMARK 924 INTRA-LIGAND FREE ENERGY PREDICTED BY IDOCK:   -1.33 KCAL/MOL
REMARK 927      BINDING AFFINITY PREDICTED BY RF-SCORE:    0.00 PKD
ROOT
HETATM    1  C   UNL     1      -9.565  17.680  67.956  1.00  0.00    -0.289 C  
HETATM    2  N   UNL     1      -8.785  18.858  67.608  1.00  0.00    -0.285 NA 
HETATM    3  H   UNL     1      -9.119  19.673  68.122  1.00  0.00     0.000 HD 
ENDROOT
BRANCH   2   4
HETATM    4  C   UNL     1      -7.336  18.689  67.793  1.00  0.00    -0.229 C  
BRANCH   4   5
HETATM    5  C   UNL     1      -6.888  17.363  68.467  1.00  0.00    -0.203 C  
HETATM    6  C   UNL     1      -5.671  17.509  69.362  1.00  0.00    -0.212 C  
HETATM    7  C   UNL     1      -5.360  16.158  70.004  1.00  0.00    -0.154 C  
HETATM    8  C   UNL     1      -5.370  14.996  68.987  1.00  0.00    -0.097 C  
HETATM    9  C   UNL     1      -6.543  15.073  67.909  1.00  0.00    -0.158 C  
HETATM   10  N   UNL     1      -5.216  13.714  69.714  1.00  0.00    -0.085 NA 
HETATM   11  O   UNL     1      -6.576  16.412  67.423  1.00  0.00    -0.140 OA 
HETATM   12  H1  UNL     1      -5.223  12.947  69.042  1.00  0.00     0.000 HD 
HETATM   13  H2  UNL     1      -5.918  13.596  70.445  1.00  0.00     0.000 HD 
BRANCH   9  14
HETATM   14  O   UNL     1      -7.845  14.608  68.336  1.00  0.00    -0.118 OA 
BRANCH  14  15
HETATM   15  C   UNL     1      -8.416  13.388  67.700  1.00  0.00    -0.187 C  
HETATM   16  C   UNL     1      -9.796  13.595  67.018  1.00  0.00    -0.251 C  
HETATM   17  N   UNL     1      -9.646  14.368  65.768  1.00  0.00    -0.512 NA 
HETATM   18  C   UNL     1     -10.474  12.260  66.648  1.00  0.00    -0.247 C  
HETATM   19  H2  UNL     1      -8.972  13.939  65.135  1.00  0.00     0.000 HD 
HETATM   20  H1  UNL     1     -10.552  14.505  65.321  1.00  0.00     0.000 HD 
HETATM   21  C   UNL     1     -10.628  11.316  67.850  1.00  0.00    -0.194 C  
HETATM   22  N   UNL     1     -11.457  10.159  67.493  1.00  0.00    -0.480 NA 
HETATM   23  C   UNL     1      -9.252  10.863  68.374  1.00  0.00    -0.168 C  
HETATM   24  C   UNL     1      -8.377  12.130  68.629  1.00  0.00    -0.016 C  
HETATM   25  O   UNL     1      -7.002  11.723  68.819  1.00  0.00    -0.089 OA 
HETATM   26  H1  UNL     1     -11.559   9.532  68.290  1.00  0.00     0.000 HD 
HETATM   27  H2  UNL     1     -11.094   9.673  66.672  1.00  0.00     0.000 HD 
HETATM   28  H   UNL     1      -6.977  10.958  69.383  1.00  0.00     0.000 HD 
BRANCH  23  29
HETATM   29  O   UNL     1      -9.403  10.212  69.668  1.00  0.00    -0.218 OA 
BRANCH  29  30
HETATM   30  C   UNL     1      -8.546   9.135  70.098  1.00  0.00    -0.182 C  
HETATM   31  O   UNL     1      -7.443   8.844  69.237  1.00  0.00    -0.072 OA 
HETATM   32  C   UNL     1      -6.561   7.864  69.807  1.00  0.00    -0.034 C  
HETATM   33  C   UNL     1      -7.239   6.488  70.037  1.00  0.00    -0.080 C  
HETATM   34  C   UNL     1      -8.458   6.691  70.978  1.00  0.00    -0.129 C  
HETATM   35  O   UNL     1      -7.684   5.974  68.771  1.00  0.00    -0.092 OA 
HETATM   36  C   UNL     1      -6.200   5.512  70.611  1.00  0.00    -0.026 C  
HETATM   37  H   UNL     1     -10.879   7.322  71.687  1.00  0.00     0.000 HD 
HETATM   38  H   UNL     1      -8.099   5.132  68.912  1.00  0.00     0.000 HD 
HETATM   39  C   UNL     1      -9.379   7.846  70.454  1.00  0.00    -0.159 C  
HETATM   40  O   UNL     1     -10.377   8.099  71.472  1.00  0.00    -0.196 OA 
BRANCH  34  41
HETATM   41  N   UNL     1      -9.240   5.501  71.434  1.00  0.00    -0.145 NA 
HETATM   42  C   UNL     1     -10.265   4.983  70.545  1.00  0.00    -0.246 C  
HETATM   43  H   UNL     1      -9.059   5.068  72.340  1.00  0.00     0.000 HD 
ENDBRANCH  34  41
ENDBRANCH  29  30
ENDBRANCH  23  29
ENDBRANCH  14  15
ENDBRANCH   9  14
ENDBRANCH   4   5
ENDBRANCH   2   4
TORSDOF 7
ENDMDL
MODEL      237
REMARK 921   NORMALIZED FREE ENERGY PREDICTED BY IDOCK:   -3.77 KCAL/MOL
REMARK 922        TOTAL FREE ENERGY PREDICTED BY IDOCK:   -7.02 KCAL/MOL
REMARK 923 INTER-LIGAND FREE ENERGY PREDICTED BY IDOCK:   -7.59 KCAL/MOL
REMARK 924 INTRA-LIGAND FREE ENERGY PREDICTED BY IDOCK:    0.57 KCAL/MOL
REMARK 927      BINDING AFFINITY PREDICTED BY RF-SCORE:    0.00 PKD
ROOT
HETATM    1  C   UNL     1      -6.686  20.186  68.853  1.00  0.00    -0.263 C  
HETATM    2  N   UNL     1      -5.568  19.279  68.640  1.00  0.00    -0.202 NA 
HETATM    3  H   UNL     1      -4.742  19.606  69.141  1.00  0.00     0.000 HD 
ENDROOT
BRANCH   2   4
HETATM    4  C   UNL     1      -5.863  17.880  68.983  1.00  0.00    -0.210 C  
BRANCH   4   5
HETATM    5  C   UNL     1      -7.061  17.236  68.235  1.00  0.00    -0.197 C  
HETATM    6  C   UNL     1      -7.108  17.563  66.753  1.00  0.00    -0.246 C  
HETATM    7  C   UNL     1      -8.293  16.834  66.120  1.00  0.00    -0.301 C  
HETATM    8  C   UNL     1      -9.595  16.994  66.933  1.00  0.00    -0.257 C  
HETATM    9  C   UNL     1      -9.403  16.900  68.513  1.00  0.00    -0.259 C  
HETATM   10  N   UNL     1     -10.646  16.135  66.337  1.00  0.00    -0.297 NA 
HETATM   11  O   UNL     1      -8.281  17.713  68.846  1.00  0.00    -0.250 OA 
HETATM   12  H1  UNL     1     -11.506  16.241  66.874  1.00  0.00     0.000 HD 
HETATM   13  H2  UNL     1     -10.354  15.161  66.260  1.00  0.00     0.000 HD 
BRANCH   9  14
HETATM   14  O   UNL     1      -9.306  15.570  69.075  1.00  0.00    -0.201 OA 
BRANCH  14  15
HETATM   15  C   UNL     1     -10.429  14.615  68.858  1.00  0.00    -0.248 C  
HETATM   16  C   UNL     1     -11.312  14.355  70.109  1.00  0.00    -0.165 C  
HETATM   17  N   UNL     1     -12.159  15.530  70.399  1.00  0.00    -0.366 NA 
HETATM   18  C   UNL     1     -12.257  13.150  69.919  1.00  0.00    -0.293 C  
HETATM   19  H2  UNL     1     -12.718  15.804  69.592  1.00  0.00     0.000 HD 
HETATM   20  H1  UNL     1     -12.738  15.360  71.221  1.00  0.00     0.000 HD 
HETATM   21  C   UNL     1     -11.512  11.863  69.536  1.00  0.00    -0.288 C  
HETATM   22  N   UNL     1     -12.422  10.712  69.572  1.00  0.00    -0.638 NA 
HETATM   23  C   UNL     1     -10.856  12.000  68.149  1.00  0.00    -0.221 C  
HETATM   24  C   UNL     1      -9.992  13.300  68.135  1.00  0.00    -0.234 C  
HETATM   25  O   UNL     1      -9.625  13.607  66.769  1.00  0.00    -0.258 OA 
HETATM   26  H1  UNL     1     -11.927   9.857  69.317  1.00  0.00     0.000 HD 
HETATM   27  H2  UNL     1     -13.245  10.862  68.988  1.00  0.00     0.000 HD 
HETATM   28  H   UNL     1      -9.359  12.807  66.330  1.00  0.00     0.000 HD 
BRANCH  23  29
HETATM   29  O   UNL     1      -9.928  10.898  67.928  1.00  0.00    -0.171 OA 
BRANCH  29  30
HETATM   30  C   UNL     1     -10.235   9.540  68.304  1.00  0.00    -0.193 C  
HETATM   31  O   UNL     1      -9.911   9.184  69.651  1.00  0.00    -0.169 OA 
HETATM   32  C   UNL     1     -10.381   7.869  69.986  1.00  0.00    -0.221 C  
HETATM   33  C   UNL     1      -9.735   6.749  69.129  1.00  0.00    -0.146 C  
HETATM   34  C   UNL     1     -10.039   7.037  67.633  1.00  0.00    -0.172 C  
HETATM   35  O   UNL     1      -8.315   6.761  69.346  1.00  0.00    -0.129 OA 
HETATM   36  C   UNL     1     -10.278   5.390  69.596  1.00  0.00    -0.345 C  
HETATM   37  H   UNL     1      -9.792   8.137  65.290  1.00  0.00     0.000 HD 
HETATM   38  H   UNL     1      -7.920   6.076  68.821  1.00  0.00     0.000 HD 
HETATM   39  C   UNL     1      -9.657   8.511  67.261  1.00  0.00    -0.171 C  
HETATM   40  O   UNL     1     -10.141   8.757  65.919  1.00  0.00    -0.152 OA 
BRANCH  34  41
HETATM   41  N   UNL     1      -9.603   6.055  66.593  1.00  0.00    -0.151 NA 
HETATM   42  C   UNL     1     -10.614   5.187  66.015  1.00  0.00    -0.182 C  
HETATM   43  H   UNL     1      -8.628   5.998  66.299  1.00  0.00     0.000 HD 
ENDBRANCH  34  41
ENDBRANCH  29  30
ENDBRANCH  23  29
ENDBRANCH  14  15
ENDBRANCH   9  14
ENDBRANCH   4   5
ENDBRANCH   2   4
TORSDOF 7
ENDMDL
MODEL      238
REMARK 921   NORMALIZED FREE ENERGY PREDICTED BY IDOCK:   -3.77 KCAL/MOL
REMARK 922        TOTAL FREE ENERGY PREDICTED BY IDOCK:   -7.02 KCAL/MOL
REMARK 923 INTER-LIGAND FREE ENERGY PREDICTED BY IDOCK:   -6.12 KCAL/MOL
REMARK 924 INTRA-LIGAND FREE ENERGY PREDICTED BY IDOCK:   -0.90 KCAL/MOL
REMARK 927      BINDING AFFINITY PREDICTED BY RF-SCORE:    0.00 PKD
ROOT
HETATM    1  C   UNL     1     -10.539   1.489  73.339  1.00  0.00    -0.108 C  
HETATM    2  N   UNL     1      -9.789   2.732  73.440  1.00  0.00    -0.100 NA 
HETATM    3  H   UNL     1      -9.926   3.160  74.355  1.00  0.00     0.000 HD 
ENDROOT
BRANCH   2   4
HETATM    4  C   UNL     1      -8.356   2.588  73.146  1.00  0.00    -0.070 C  
BRANCH   4   5
HETATM    5  C   UNL     1      -7.698   3.770  72.383  1.00  0.00    -0.068 C  
HETATM    6  C   UNL     1      -6.212   3.586  72.129  1.00  0.00    -0.014 C  
HETATM    7  C   UNL     1      -5.692   4.782  71.331  1.00  0.00    -0.012 C  
HETATM    8  C   UNL     1      -6.162   6.135  71.908  1.00  0.00    -0.042 C  
HETATM    9  C   UNL     1      -7.679   6.152  72.401  1.00  0.00    -0.100 C  
HETATM   10  N   UNL     1      -5.746   7.223  70.992  1.00  0.00    -0.031 NA 
HETATM   11  O   UNL     1      -7.882   4.970  73.169  1.00  0.00    -0.098 OA 
HETATM   12  H1  UNL     1      -6.056   8.116  71.373  1.00  0.00     0.000 HD 
HETATM   13  H2  UNL     1      -6.074   7.073  70.038  1.00  0.00     0.000 HD 
BRANCH   9  14
HETATM   14  O   UNL     1      -8.688   6.326  71.379  1.00  0.00    -0.134 OA 
BRANCH  14  15
HETATM   15  C   UNL     1      -9.593   7.507  71.456  1.00  0.00    -0.154 C  
HETATM   16  C   UNL     1     -11.066   7.224  71.053  1.00  0.00    -0.258 C  
HETATM   17  N   UNL     1     -11.747   6.434  72.099  1.00  0.00    -0.316 NA 
HETATM   18  C   UNL     1     -11.880   8.520  70.859  1.00  0.00    -0.243 C  
HETATM   19  H2  UNL     1     -11.684   6.881  73.013  1.00  0.00     0.000 HD 
HETATM   20  H1  UNL     1     -12.714   6.248  71.834  1.00  0.00     0.000 HD 
HETATM   21  C   UNL     1     -11.241   9.480  69.844  1.00  0.00    -0.178 C  
HETATM   22  N   UNL     1     -12.151  10.591  69.544  1.00  0.00    -0.515 NA 
HETATM   23  C   UNL     1      -9.888  10.004  70.359  1.00  0.00    -0.008 C  
HETATM   24  C   UNL     1      -9.006   8.783  70.769  1.00  0.00    -0.192 C  
HETATM   25  O   UNL     1      -7.872   9.256  71.533  1.00  0.00    -0.336 OA 
HETATM   26  H1  UNL     1     -11.728  11.228  68.870  1.00  0.00     0.000 HD 
HETATM   27  H2  UNL     1     -12.448  11.077  70.390  1.00  0.00     0.000 HD 
HETATM   28  H   UNL     1      -7.516  10.031  71.116  1.00  0.00     0.000 HD 
BRANCH  23  29
HETATM   29  O   UNL     1      -9.172  10.673  69.280  1.00  0.00    -0.178 OA 
BRANCH  29  30
HETATM   30  C   UNL     1      -9.609  10.612  67.907  1.00  0.00    -0.162 C  
HETATM   31  O   UNL     1      -9.099   9.515  67.145  1.00  0.00    -0.133 OA 
HETATM   32  C   UNL     1      -9.694   9.445  65.840  1.00  0.00    -0.285 C  
HETATM   33  C   UNL     1      -9.398  10.690  64.963  1.00  0.00    -0.217 C  
HETATM   34  C   UNL     1      -9.928  11.950  65.702  1.00  0.00    -0.241 C  
HETATM   35  O   UNL     1      -7.978  10.798  64.777  1.00  0.00    -0.353 OA 
HETATM   36  C   UNL     1     -10.048  10.492  63.585  1.00  0.00    -0.219 C  
HETATM   37  H   UNL     1      -9.954  13.912  67.409  1.00  0.00     0.000 HD 
HETATM   38  H   UNL     1      -7.798  11.560  64.240  1.00  0.00     0.000 HD 
HETATM   39  C   UNL     1      -9.400  11.992  67.177  1.00  0.00    -0.187 C  
HETATM   40  O   UNL     1     -10.080  13.080  67.849  1.00  0.00    -0.222 OA 
BRANCH  34  41
HETATM   41  N   UNL     1      -9.848  13.283  65.030  1.00  0.00    -0.559 NA 
HETATM   42  C   UNL     1     -11.095  13.946  64.692  1.00  0.00    -0.385 C  
HETATM   43  H   UNL     1      -8.948  13.712  64.815  1.00  0.00     0.000 HD 
ENDBRANCH  34  41
ENDBRANCH  29  30
ENDBRANCH  23  29
ENDBRANCH  14  15
ENDBRANCH   9  14
ENDBRANCH   4   5
ENDBRANCH   2   4
TORSDOF 7
ENDMDL
MODEL      239
REMARK 921   NORMALIZED FREE ENERGY PREDICTED BY IDOCK:   -3.76 KCAL/MOL
REMARK 922        TOTAL FREE ENERGY PREDICTED BY IDOCK:   -7.00 KCAL/MOL
REMARK 923 INTER-LIGAND FREE ENERGY PREDICTED BY IDOCK:   -6.40 KCAL/MOL
REMARK 924 INTRA-LIGAND FREE ENERGY PREDICTED BY IDOCK:   -0.60 KCAL/MOL
REMARK 927      BINDING AFFINITY PREDICTED BY RF-SCORE:    0.00 PKD
ROOT
HETATM    1  C   UNL     1      -9.207  18.144  68.442  1.00  0.00    -0.306 C  
HETATM    2  N   UNL     1      -8.313  17.552  67.458  1.00  0.00    -0.213 NA 
HETATM    3  H   UNL     1      -7.504  18.153  67.301  1.00  0.00     0.000 HD 
ENDROOT
BRANCH   2   4
HETATM    4  C   UNL     1      -7.885  16.184  67.790  1.00  0.00    -0.143 C  
BRANCH   4   5
HETATM    5  C   UNL     1      -8.454  15.058  66.885  1.00  0.00    -0.236 C  
HETATM    6  C   UNL     1      -9.697  15.458  66.112  1.00  0.00    -0.347 C  
HETATM    7  C   UNL     1     -10.129  14.291  65.224  1.00  0.00    -0.378 C  
HETATM    8  C   UNL     1     -10.154  12.944  65.978  1.00  0.00    -0.285 C  
HETATM    9  C   UNL     1      -8.931  12.726  66.979  1.00  0.00    -0.221 C  
HETATM   10  N   UNL     1     -10.429  11.854  65.013  1.00  0.00    -0.277 NA 
HETATM   11  O   UNL     1      -8.783  13.929  67.727  1.00  0.00    -0.166 OA 
HETATM   12  H1  UNL     1     -10.445  10.965  65.511  1.00  0.00     0.000 HD 
HETATM   13  H2  UNL     1      -9.770  11.850  64.234  1.00  0.00     0.000 HD 
BRANCH   9  14
HETATM   14  O   UNL     1      -7.685  12.285  66.391  1.00  0.00     0.203 OA 
BRANCH  14  15
HETATM   15  C   UNL     1      -7.432  10.823  66.255  1.00  0.00    -0.138 C  
HETATM   16  C   UNL     1      -7.294  10.320  64.792  1.00  0.00    -0.099 C  
HETATM   17  N   UNL     1      -6.008  10.758  64.212  1.00  0.00    -0.375 NA 
HETATM   18  C   UNL     1      -7.336   8.781  64.695  1.00  0.00    -0.098 C  
HETATM   19  H2  UNL     1      -5.216  10.472  64.787  1.00  0.00     0.000 HD 
HETATM   20  H1  UNL     1      -5.918  10.428  63.251  1.00  0.00     0.000 HD 
HETATM   21  C   UNL     1      -8.596   8.177  65.332  1.00  0.00    -0.129 C  
HETATM   22  N   UNL     1      -8.688   6.744  65.033  1.00  0.00    -0.354 NA 
HETATM   23  C   UNL     1      -8.613   8.421  66.853  1.00  0.00    -0.125 C  
HETATM   24  C   UNL     1      -8.398   9.944  67.114  1.00  0.00    -0.121 C  
HETATM   25  O   UNL     1      -8.103  10.146  68.517  1.00  0.00    -0.100 OA 
HETATM   26  H1  UNL     1      -9.525   6.343  65.456  1.00  0.00     0.000 HD 
HETATM   27  H2  UNL     1      -7.844   6.243  65.313  1.00  0.00     0.000 HD 
HETATM   28  H   UNL     1      -8.691   9.611  69.039  1.00  0.00     0.000 HD 
BRANCH  23  29
HETATM   29  O   UNL     1      -9.929   8.103  67.392  1.00  0.00    -0.173 OA 
BRANCH  29  30
HETATM   30  C   UNL     1     -10.247   8.244  68.792  1.00  0.00    -0.210 C  
HETATM   31  O   UNL     1     -10.395   7.021  69.518  1.00  0.00    -0.199 OA 
HETATM   32  C   UNL     1     -10.564   7.250  70.926  1.00  0.00    -0.220 C  
HETATM   33  C   UNL     1     -11.846   8.053  71.267  1.00  0.00    -0.294 C  
HETATM   34  C   UNL     1     -11.782   9.419  70.529  1.00  0.00    -0.198 C  
HETATM   35  O   UNL     1     -12.991   7.312  70.816  1.00  0.00    -0.604 OA 
HETATM   36  C   UNL     1     -11.945   8.206  72.793  1.00  0.00    -0.252 C  
HETATM   37  H   UNL     1     -11.978  11.109  68.563  1.00  0.00     0.000 HD 
HETATM   38  H   UNL     1     -13.775   7.804  71.026  1.00  0.00     0.000 HD 
HETATM   39  C   UNL     1     -11.469   9.214  69.007  1.00  0.00     0.517 C  
HETATM   40  O   UNL     1     -11.241  10.524  68.433  1.00  0.00    -0.264 OA 
BRANCH  34  41
HETATM   41  N   UNL     1     -12.861  10.429  70.759  1.00  0.00    -0.404 NA 
HETATM   42  C   UNL     1     -12.575  11.531  71.660  1.00  0.00    -0.194 C  
HETATM   43  H   UNL     1     -13.767  10.345  70.298  1.00  0.00     0.000 HD 
ENDBRANCH  34  41
ENDBRANCH  29  30
ENDBRANCH  23  29
ENDBRANCH  14  15
ENDBRANCH   9  14
ENDBRANCH   4   5
ENDBRANCH   2   4
TORSDOF 7
ENDMDL
MODEL      240
REMARK 921   NORMALIZED FREE ENERGY PREDICTED BY IDOCK:   -3.75 KCAL/MOL
REMARK 922        TOTAL FREE ENERGY PREDICTED BY IDOCK:   -7.00 KCAL/MOL
REMARK 923 INTER-LIGAND FREE ENERGY PREDICTED BY IDOCK:   -5.96 KCAL/MOL
REMARK 924 INTRA-LIGAND FREE ENERGY PREDICTED BY IDOCK:   -1.04 KCAL/MOL
REMARK 927      BINDING AFFINITY PREDICTED BY RF-SCORE:    0.00 PKD
ROOT
HETATM    1  C   UNL     1      -8.800   3.484  65.885  1.00  0.00    -0.128 C  
HETATM    2  N   UNL     1      -9.335   2.624  66.930  1.00  0.00    -0.368 NA 
HETATM    3  H   UNL     1      -8.760   1.788  67.036  1.00  0.00     0.000 HD 
ENDROOT
BRANCH   2   4
HETATM    4  C   UNL     1      -9.510   3.299  68.225  1.00  0.00    -0.152 C  
BRANCH   4   5
HETATM    5  C   UNL     1      -8.494   4.429  68.543  1.00  0.00    -0.092 C  
HETATM    6  C   UNL     1      -7.915   4.358  69.945  1.00  0.00    -0.056 C  
HETATM    7  C   UNL     1      -6.896   5.484  70.121  1.00  0.00    -0.052 C  
HETATM    8  C   UNL     1      -7.424   6.849  69.629  1.00  0.00    -0.099 C  
HETATM    9  C   UNL     1      -8.257   6.783  68.270  1.00  0.00    -0.115 C  
HETATM   10  N   UNL     1      -6.327   7.843  69.691  1.00  0.00    -0.033 NA 
HETATM   11  O   UNL     1      -9.171   5.698  68.393  1.00  0.00    -0.116 OA 
HETATM   12  H1  UNL     1      -6.675   8.744  69.366  1.00  0.00     0.000 HD 
HETATM   13  H2  UNL     1      -5.498   7.539  69.178  1.00  0.00     0.000 HD 
BRANCH   9  14
HETATM   14  O   UNL     1      -7.491   6.725  67.044  1.00  0.00    -0.084 OA 
BRANCH  14  15
HETATM   15  C   UNL     1      -7.996   7.451  65.846  1.00  0.00    -0.118 C  
HETATM   16  C   UNL     1      -6.895   8.128  64.984  1.00  0.00    -0.062 C  
HETATM   17  N   UNL     1      -6.122   7.113  64.240  1.00  0.00    -0.037 NA 
HETATM   18  C   UNL     1      -7.481   9.105  63.944  1.00  0.00    -0.110 C  
HETATM   19  H2  UNL     1      -6.726   6.512  63.679  1.00  0.00     0.000 HD 
HETATM   20  H1  UNL     1      -5.399   7.557  63.674  1.00  0.00     0.000 HD 
HETATM   21  C   UNL     1      -8.378  10.181  64.576  1.00  0.00    -0.167 C  
HETATM   22  N   UNL     1      -8.738  11.198  63.582  1.00  0.00    -0.394 NA 
HETATM   23  C   UNL     1      -9.638   9.551  65.198  1.00  0.00    -0.200 C  
HETATM   24  C   UNL     1      -9.197   8.402  66.158  1.00  0.00    -0.205 C  
HETATM   25  O   UNL     1     -10.355   7.607  66.505  1.00  0.00    -0.476 OA 
HETATM   26  H1  UNL     1      -9.333  11.912  64.001  1.00  0.00     0.000 HD 
HETATM   27  H2  UNL     1      -9.169  10.784  62.755  1.00  0.00     0.000 HD 
HETATM   28  H   UNL     1     -11.085   8.185  66.695  1.00  0.00     0.000 HD 
BRANCH  23  29
HETATM   29  O   UNL     1     -10.323  10.530  66.031  1.00  0.00    -0.248 OA 
BRANCH  29  30
HETATM   30  C   UNL     1      -9.652  11.681  66.584  1.00  0.00    -0.204 C  
HETATM   31  O   UNL     1      -9.220  11.551  67.941  1.00  0.00    -0.157 OA 
HETATM   32  C   UNL     1      -8.436  12.677  68.365  1.00  0.00    -0.121 C  
HETATM   33  C   UNL     1      -9.220  14.015  68.340  1.00  0.00    -0.196 C  
HETATM   34  C   UNL     1      -9.729  14.261  66.893  1.00  0.00    -0.264 C  
HETATM   35  O   UNL     1     -10.337  13.914  69.236  1.00  0.00    -0.427 OA 
HETATM   36  C   UNL     1      -8.301  15.138  68.845  1.00  0.00    -0.190 C  
HETATM   37  H   UNL     1     -11.257  14.027  64.802  1.00  0.00     0.000 HD 
HETATM   38  H   UNL     1     -10.817  14.734  69.221  1.00  0.00     0.000 HD 
HETATM   39  C   UNL     1     -10.482  12.998  66.347  1.00  0.00    -0.276 C  
HETATM   40  O   UNL     1     -10.756  13.232  64.944  1.00  0.00    -0.313 OA 
BRANCH  34  41
HETATM   41  N   UNL     1     -10.444  15.534  66.572  1.00  0.00    -0.294 NA 
HETATM   42  C   UNL     1      -9.747  16.515  65.758  1.00  0.00    -0.202 C  
HETATM   43  H   UNL     1     -11.389  15.707  66.913  1.00  0.00     0.000 HD 
ENDBRANCH  34  41
ENDBRANCH  29  30
ENDBRANCH  23  29
ENDBRANCH  14  15
ENDBRANCH   9  14
ENDBRANCH   4   5
ENDBRANCH   2   4
TORSDOF 7
ENDMDL
MODEL      241
REMARK 921   NORMALIZED FREE ENERGY PREDICTED BY IDOCK:   -3.74 KCAL/MOL
REMARK 922        TOTAL FREE ENERGY PREDICTED BY IDOCK:   -6.99 KCAL/MOL
REMARK 923 INTER-LIGAND FREE ENERGY PREDICTED BY IDOCK:   -5.88 KCAL/MOL
REMARK 924 INTRA-LIGAND FREE ENERGY PREDICTED BY IDOCK:   -1.11 KCAL/MOL
REMARK 927      BINDING AFFINITY PREDICTED BY RF-SCORE:    0.00 PKD
ROOT
HETATM    1  C   UNL     1      -8.699   5.029  72.925  1.00  0.00    -0.118 C  
HETATM    2  N   UNL     1      -8.744   6.383  72.395  1.00  0.00    -0.121 NA 
HETATM    3  H   UNL     1      -7.836   6.649  72.014  1.00  0.00     0.000 HD 
ENDROOT
BRANCH   2   4
HETATM    4  C   UNL     1      -9.805   6.598  71.400  1.00  0.00    -0.179 C  
BRANCH   4   5
HETATM    5  C   UNL     1     -10.616   7.915  71.546  1.00  0.00    -0.222 C  
HETATM    6  C   UNL     1     -11.717   7.847  72.589  1.00  0.00    -0.398 C  
HETATM    7  C   UNL     1     -12.404   9.209  72.677  1.00  0.00    -0.063 C  
HETATM    8  C   UNL     1     -12.761   9.788  71.291  1.00  0.00    -0.369 C  
HETATM    9  C   UNL     1     -11.640   9.573  70.177  1.00  0.00    -0.111 C  
HETATM   10  N   UNL     1     -13.277  11.167  71.461  1.00  0.00    -0.350 NA 
HETATM   11  O   UNL     1     -11.218   8.216  70.266  1.00  0.00    -0.253 OA 
HETATM   12  H1  UNL     1     -13.513  11.549  70.545  1.00  0.00     0.000 HD 
HETATM   13  H2  UNL     1     -12.629  11.763  71.975  1.00  0.00     0.000 HD 
BRANCH   9  14
HETATM   14  O   UNL     1     -10.529  10.500  70.192  1.00  0.00    -0.207 OA 
BRANCH  14  15
HETATM   15  C   UNL     1     -10.182  11.226  68.938  1.00  0.00    -0.180 C  
HETATM   16  C   UNL     1     -11.393  11.845  68.188  1.00  0.00    -0.288 C  
HETATM   17  N   UNL     1     -11.907  13.023  68.916  1.00  0.00    -0.317 NA 
HETATM   18  C   UNL     1     -11.024  12.314  66.766  1.00  0.00    -0.321 C  
HETATM   19  H2  UNL     1     -11.175  13.712  69.087  1.00  0.00     0.000 HD 
HETATM   20  H1  UNL     1     -12.702  13.429  68.423  1.00  0.00     0.000 HD 
HETATM   21  C   UNL     1     -10.402  11.199  65.912  1.00  0.00    -0.259 C  
HETATM   22  N   UNL     1     -10.263  11.635  64.518  1.00  0.00    -0.274 NA 
HETATM   23  C   UNL     1      -9.042  10.761  66.487  1.00  0.00    -0.165 C  
HETATM   24  C   UNL     1      -9.229  10.418  67.998  1.00  0.00    -0.140 C  
HETATM   25  O   UNL     1      -7.928  10.307  68.621  1.00  0.00    -0.100 OA 
HETATM   26  H1  UNL     1      -9.850  10.895  63.951  1.00  0.00     0.000 HD 
HETATM   27  H2  UNL     1      -9.737  12.507  64.445  1.00  0.00     0.000 HD 
HETATM   28  H   UNL     1      -7.349   9.815  68.050  1.00  0.00     0.000 HD 
BRANCH  23  29
HETATM   29  O   UNL     1      -8.607   9.526  65.846  1.00  0.00    -0.125 OA 
BRANCH  29  30
HETATM   30  C   UNL     1      -8.224   8.357  66.598  1.00  0.00    -0.105 C  
HETATM   31  O   UNL     1      -6.888   7.895  66.384  1.00  0.00    -0.060 OA 
HETATM   32  C   UNL     1      -6.541   6.822  67.274  1.00  0.00    -0.054 C  
HETATM   33  C   UNL     1      -7.419   5.557  67.081  1.00  0.00    -0.084 C  
HETATM   34  C   UNL     1      -8.905   5.950  67.305  1.00  0.00    -0.106 C  
HETATM   35  O   UNL     1      -7.241   5.071  65.741  1.00  0.00    -0.069 OA 
HETATM   36  C   UNL     1      -6.938   4.468  68.053  1.00  0.00    -0.056 C  
HETATM   37  H   UNL     1     -11.252   6.920  66.750  1.00  0.00     0.000 HD 
HETATM   38  H   UNL     1      -7.778   4.296  65.624  1.00  0.00     0.000 HD 
HETATM   39  C   UNL     1      -9.285   7.202  66.442  1.00  0.00    -0.157 C  
HETATM   40  O   UNL     1     -10.613   7.616  66.844  1.00  0.00    -0.341 OA 
BRANCH  34  41
HETATM   41  N   UNL     1      -9.958   4.889  67.266  1.00  0.00    -0.186 NA 
HETATM   42  C   UNL     1     -10.417   4.439  65.963  1.00  0.00    -0.099 C  
HETATM   43  H   UNL     1     -10.341   4.495  68.125  1.00  0.00     0.000 HD 
ENDBRANCH  34  41
ENDBRANCH  29  30
ENDBRANCH  23  29
ENDBRANCH  14  15
ENDBRANCH   9  14
ENDBRANCH   4   5
ENDBRANCH   2   4
TORSDOF 7
ENDMDL
MODEL      242
REMARK 921   NORMALIZED FREE ENERGY PREDICTED BY IDOCK:   -3.73 KCAL/MOL
REMARK 922        TOTAL FREE ENERGY PREDICTED BY IDOCK:   -6.97 KCAL/MOL
REMARK 923 INTER-LIGAND FREE ENERGY PREDICTED BY IDOCK:   -8.14 KCAL/MOL
REMARK 924 INTRA-LIGAND FREE ENERGY PREDICTED BY IDOCK:    1.17 KCAL/MOL
REMARK 927      BINDING AFFINITY PREDICTED BY RF-SCORE:    0.00 PKD
ROOT
HETATM    1  C   UNL     1      -8.817   7.425  74.363  1.00  0.00    -0.178 C  
HETATM    2  N   UNL     1      -9.977   6.724  73.834  1.00  0.00    -0.276 NA 
HETATM    3  H   UNL     1     -10.379   6.111  74.543  1.00  0.00     0.000 HD 
ENDROOT
BRANCH   2   4
HETATM    4  C   UNL     1     -11.006   7.614  73.275  1.00  0.00    -0.274 C  
BRANCH   4   5
HETATM    5  C   UNL     1     -11.221   7.521  71.740  1.00  0.00    -0.246 C  
HETATM    6  C   UNL     1     -11.136   6.108  71.191  1.00  0.00    -0.360 C  
HETATM    7  C   UNL     1     -11.414   6.139  69.689  1.00  0.00    -0.332 C  
HETATM    8  C   UNL     1     -10.621   7.243  68.957  1.00  0.00    -0.201 C  
HETATM    9  C   UNL     1     -10.538   8.628  69.744  1.00  0.00    -0.224 C  
HETATM   10  N   UNL     1     -11.064   7.304  67.545  1.00  0.00    -0.562 NA 
HETATM   11  O   UNL     1     -10.204   8.323  71.095  1.00  0.00    -0.191 OA 
HETATM   12  H1  UNL     1     -10.540   8.033  67.062  1.00  0.00     0.000 HD 
HETATM   13  H2  UNL     1     -12.073   7.431  67.460  1.00  0.00     0.000 HD 
BRANCH   9  14
HETATM   14  O   UNL     1     -11.690   9.498  69.643  1.00  0.00     0.034 OA 
BRANCH  14  15
HETATM   15  C   UNL     1     -11.594  10.885  70.179  1.00  0.00    -0.338 C  
HETATM   16  C   UNL     1     -12.905  11.433  70.804  1.00  0.00    -0.167 C  
HETATM   17  N   UNL     1     -13.173  10.781  72.103  1.00  0.00    -0.591 NA 
HETATM   18  C   UNL     1     -12.840  12.953  71.064  1.00  0.00    -0.268 C  
HETATM   19  H2  UNL     1     -12.383  10.870  72.741  1.00  0.00     0.000 HD 
HETATM   20  H1  UNL     1     -14.034  11.142  72.513  1.00  0.00     0.000 HD 
HETATM   21  C   UNL     1     -12.492  13.759  69.803  1.00  0.00    -0.162 C  
HETATM   22  N   UNL     1     -12.647  15.196  70.052  1.00  0.00    -0.574 NA 
HETATM   23  C   UNL     1     -11.065  13.436  69.321  1.00  0.00    -0.164 C  
HETATM   24  C   UNL     1     -10.926  11.888  69.182  1.00  0.00    -0.198 C  
HETATM   25  O   UNL     1      -9.526  11.552  69.035  1.00  0.00    -0.400 OA 
HETATM   26  H1  UNL     1     -12.416  15.731  69.216  1.00  0.00     0.000 HD 
HETATM   27  H2  UNL     1     -12.102  15.501  70.859  1.00  0.00     0.000 HD 
HETATM   28  H   UNL     1      -9.121  12.162  68.430  1.00  0.00     0.000 HD 
BRANCH  23  29
HETATM   29  O   UNL     1     -10.858  13.979  67.985  1.00  0.00    -0.239 OA 
BRANCH  29  30
HETATM   30  C   UNL     1     -10.525  13.148  66.854  1.00  0.00    -0.256 C  
HETATM   31  O   UNL     1     -11.490  12.148  66.517  1.00  0.00    -0.344 OA 
HETATM   32  C   UNL     1     -11.154  11.466  65.299  1.00  0.00    -0.129 C  
HETATM   33  C   UNL     1      -9.813  10.689  65.382  1.00  0.00    -0.267 C  
HETATM   34  C   UNL     1      -8.683  11.695  65.736  1.00  0.00     0.060 C  
HETATM   35  O   UNL     1      -9.917   9.694  66.412  1.00  0.00    -0.223 OA 
HETATM   36  C   UNL     1      -9.573   9.971  64.045  1.00  0.00    -0.243 C  
HETATM   37  H   UNL     1      -7.191  13.221  67.222  1.00  0.00     0.000 HD 
HETATM   38  H   UNL     1      -9.096   9.219  66.462  1.00  0.00     0.000 HD 
HETATM   39  C   UNL     1      -9.074  12.551  66.989  1.00  0.00    -0.213 C  
HETATM   40  O   UNL     1      -8.066  13.581  67.140  1.00  0.00    -0.163 OA 
BRANCH  34  41
HETATM   41  N   UNL     1      -7.267  11.219  65.789  1.00  0.00    -0.357 NA 
HETATM   42  C   UNL     1      -6.677  10.994  67.097  1.00  0.00    -0.096 C  
HETATM   43  H   UNL     1      -6.733  11.056  64.935  1.00  0.00     0.000 HD 
ENDBRANCH  34  41
ENDBRANCH  29  30
ENDBRANCH  23  29
ENDBRANCH  14  15
ENDBRANCH   9  14
ENDBRANCH   4   5
ENDBRANCH   2   4
TORSDOF 7
ENDMDL
MODEL      243
REMARK 921   NORMALIZED FREE ENERGY PREDICTED BY IDOCK:   -3.71 KCAL/MOL
REMARK 922        TOTAL FREE ENERGY PREDICTED BY IDOCK:   -6.94 KCAL/MOL
REMARK 923 INTER-LIGAND FREE ENERGY PREDICTED BY IDOCK:   -6.56 KCAL/MOL
REMARK 924 INTRA-LIGAND FREE ENERGY PREDICTED BY IDOCK:   -0.38 KCAL/MOL
REMARK 927      BINDING AFFINITY PREDICTED BY RF-SCORE:    0.00 PKD
ROOT
HETATM    1  C   UNL     1      -6.065   9.704  64.759  1.00  0.00    -0.085 C  
HETATM    2  N   UNL     1      -5.964   8.463  65.511  1.00  0.00    -0.044 NA 
HETATM    3  H   UNL     1      -5.476   7.752  64.966  1.00  0.00     0.000 HD 
ENDROOT
BRANCH   2   4
HETATM    4  C   UNL     1      -5.341   8.617  66.834  1.00  0.00    -0.036 C  
BRANCH   4   5
HETATM    5  C   UNL     1      -6.289   9.060  67.982  1.00  0.00    -0.055 C  
HETATM    6  C   UNL     1      -5.566   9.573  69.213  1.00  0.00    -0.035 C  
HETATM    7  C   UNL     1      -6.598  10.024  70.246  1.00  0.00    -0.127 C  
HETATM    8  C   UNL     1      -7.726   8.990  70.454  1.00  0.00    -0.108 C  
HETATM    9  C   UNL     1      -8.244   8.300  69.112  1.00  0.00    -0.121 C  
HETATM   10  N   UNL     1      -8.756   9.569  71.346  1.00  0.00    -0.263 NA 
HETATM   11  O   UNL     1      -7.091   7.919  68.366  1.00  0.00    -0.076 OA 
HETATM   12  H1  UNL     1      -9.501   8.886  71.483  1.00  0.00     0.000 HD 
HETATM   13  H2  UNL     1      -9.109  10.463  71.004  1.00  0.00     0.000 HD 
BRANCH   9  14
HETATM   14  O   UNL     1      -9.189   9.056  68.320  1.00  0.00    -0.136 OA 
BRANCH  14  15
HETATM   15  C   UNL     1      -9.682  10.361  68.842  1.00  0.00    -0.198 C  
HETATM   16  C   UNL     1     -11.175  10.368  69.271  1.00  0.00    -0.248 C  
HETATM   17  N   UNL     1     -11.357   9.616  70.529  1.00  0.00    -0.277 NA 
HETATM   18  C   UNL     1     -11.710  11.795  69.513  1.00  0.00    -0.408 C  
HETATM   19  H2  UNL     1     -10.748   9.964  71.270  1.00  0.00     0.000 HD 
HETATM   20  H1  UNL     1     -12.337   9.620  70.811  1.00  0.00     0.000 HD 
HETATM   21  C   UNL     1     -11.516  12.718  68.300  1.00  0.00    -0.314 C  
HETATM   22  N   UNL     1     -12.220  13.988  68.503  1.00  0.00    -0.537 NA 
HETATM   23  C   UNL     1     -10.019  12.958  68.026  1.00  0.00    -0.236 C  
HETATM   24  C   UNL     1      -9.303  11.575  67.932  1.00  0.00    -0.171 C  
HETATM   25  O   UNL     1      -7.872  11.780  67.986  1.00  0.00    -0.118 OA 
HETATM   26  H1  UNL     1     -12.092  14.601  67.698  1.00  0.00     0.000 HD 
HETATM   27  H2  UNL     1     -11.940  14.442  69.373  1.00  0.00     0.000 HD 
HETATM   28  H   UNL     1      -7.641  12.518  67.433  1.00  0.00     0.000 HD 
BRANCH  23  29
HETATM   29  O   UNL     1      -9.849  13.588  66.723  1.00  0.00    -0.251 OA 
BRANCH  29  30
HETATM   30  C   UNL     1      -9.175  14.853  66.557  1.00  0.00    -0.285 C  
HETATM   31  O   UNL     1      -7.886  14.950  67.168  1.00  0.00    -0.200 OA 
HETATM   32  C   UNL     1      -7.225  16.180  66.833  1.00  0.00    -0.205 C  
HETATM   33  C   UNL     1      -7.981  17.439  67.333  1.00  0.00    -0.198 C  
HETATM   34  C   UNL     1      -9.405  17.437  66.714  1.00  0.00    -0.268 C  
HETATM   35  O   UNL     1      -8.075  17.383  68.766  1.00  0.00    -0.269 OA 
HETATM   36  C   UNL     1      -7.170  18.688  66.955  1.00  0.00    -0.217 C  
HETATM   37  H   UNL     1     -11.908  16.794  66.425  1.00  0.00     0.000 HD 
HETATM   38  H   UNL     1      -8.537  18.154  69.072  1.00  0.00     0.000 HD 
HETATM   39  C   UNL     1     -10.111  16.057  66.949  1.00  0.00    -0.265 C  
HETATM   40  O   UNL     1     -11.344  16.068  66.188  1.00  0.00     0.054 OA 
BRANCH  34  41
HETATM   41  N   UNL     1     -10.317  18.594  66.966  1.00  0.00    -0.384 NA 
HETATM   42  C   UNL     1     -10.598  19.489  65.857  1.00  0.00    -0.476 C  
HETATM   43  H   UNL     1     -10.729  18.750  67.886  1.00  0.00     0.000 HD 
ENDBRANCH  34  41
ENDBRANCH  29  30
ENDBRANCH  23  29
ENDBRANCH  14  15
ENDBRANCH   9  14
ENDBRANCH   4   5
ENDBRANCH   2   4
TORSDOF 7
ENDMDL
MODEL      244
REMARK 921   NORMALIZED FREE ENERGY PREDICTED BY IDOCK:   -3.70 KCAL/MOL
REMARK 922        TOTAL FREE ENERGY PREDICTED BY IDOCK:   -6.92 KCAL/MOL
REMARK 923 INTER-LIGAND FREE ENERGY PREDICTED BY IDOCK:   -6.64 KCAL/MOL
REMARK 924 INTRA-LIGAND FREE ENERGY PREDICTED BY IDOCK:   -0.28 KCAL/MOL
REMARK 927      BINDING AFFINITY PREDICTED BY RF-SCORE:    0.00 PKD
ROOT
HETATM    1  C   UNL     1      -6.927   3.121  72.939  1.00  0.00    -0.038 C  
HETATM    2  N   UNL     1      -8.133   3.778  72.459  1.00  0.00    -0.080 NA 
HETATM    3  H   UNL     1      -7.896   4.594  71.894  1.00  0.00     0.000 HD 
ENDROOT
BRANCH   2   4
HETATM    4  C   UNL     1      -9.044   2.887  71.724  1.00  0.00    -0.096 C  
BRANCH   4   5
HETATM    5  C   UNL     1      -9.113   3.105  70.188  1.00  0.00    -0.122 C  
HETATM    6  C   UNL     1      -9.053   1.821  69.382  1.00  0.00    -0.158 C  
HETATM    7  C   UNL     1      -9.181   2.159  67.897  1.00  0.00    -0.233 C  
HETATM    8  C   UNL     1      -8.261   3.322  67.467  1.00  0.00    -0.081 C  
HETATM    9  C   UNL     1      -8.180   4.522  68.515  1.00  0.00    -0.082 C  
HETATM   10  N   UNL     1      -8.561   3.684  66.062  1.00  0.00    -0.111 NA 
HETATM   11  O   UNL     1      -7.996   3.940  69.803  1.00  0.00    -0.055 OA 
HETATM   12  H1  UNL     1      -7.954   4.452  65.778  1.00  0.00     0.000 HD 
HETATM   13  H2  UNL     1      -9.549   3.897  65.918  1.00  0.00     0.000 HD 
BRANCH   9  14
HETATM   14  O   UNL     1      -9.268   5.476  68.491  1.00  0.00    -0.115 OA 
BRANCH  14  15
HETATM   15  C   UNL     1      -8.974   6.893  68.139  1.00  0.00    -0.123 C  
HETATM   16  C   UNL     1      -7.731   7.495  68.852  1.00  0.00    -0.115 C  
HETATM   17  N   UNL     1      -6.487   6.931  68.289  1.00  0.00    -0.047 NA 
HETATM   18  C   UNL     1      -7.649   9.027  68.692  1.00  0.00    -0.092 C  
HETATM   19  H2  UNL     1      -6.439   7.052  67.278  1.00  0.00     0.000 HD 
HETATM   20  H1  UNL     1      -5.672   7.326  68.757  1.00  0.00     0.000 HD 
HETATM   21  C   UNL     1      -8.919   9.746  69.172  1.00  0.00    -0.161 C  
HETATM   22  N   UNL     1      -8.711  11.198  69.192  1.00  0.00    -0.378 NA 
HETATM   23  C   UNL     1     -10.126   9.378  68.288  1.00  0.00    -0.183 C  
HETATM   24  C   UNL     1     -10.229   7.822  68.211  1.00  0.00    -0.201 C  
HETATM   25  O   UNL     1     -11.148   7.462  67.154  1.00  0.00    -0.557 OA 
HETATM   26  H1  UNL     1      -9.554  11.676  69.511  1.00  0.00     0.000 HD 
HETATM   27  H2  UNL     1      -8.396  11.549  68.288  1.00  0.00     0.000 HD 
HETATM   28  H   UNL     1     -11.911   8.027  67.197  1.00  0.00     0.000 HD 
BRANCH  23  29
HETATM   29  O   UNL     1     -11.359   9.831  68.919  1.00  0.00    -0.092 OA 
BRANCH  29  30
HETATM   30  C   UNL     1     -11.763  11.216  68.921  1.00  0.00    -0.337 C  
HETATM   31  O   UNL     1     -11.115  12.049  67.957  1.00  0.00    -0.213 OA 
HETATM   32  C   UNL     1     -11.677  13.371  67.925  1.00  0.00    -0.361 C  
HETATM   33  C   UNL     1     -11.516  14.138  69.263  1.00  0.00    -0.292 C  
HETATM   34  C   UNL     1     -12.202  13.315  70.389  1.00  0.00    -0.332 C  
HETATM   35  O   UNL     1     -10.115  14.279  69.551  1.00  0.00    -0.424 OA 
HETATM   36  C   UNL     1     -12.115  15.544  69.105  1.00  0.00    -0.266 C  
HETATM   37  H   UNL     1     -12.487  11.460  72.187  1.00  0.00     0.000 HD 
HETATM   38  H   UNL     1     -10.017  14.749  70.370  1.00  0.00     0.000 HD 
HETATM   39  C   UNL     1     -11.706  11.828  70.370  1.00  0.00    -0.160 C  
HETATM   40  O   UNL     1     -12.522  11.090  71.313  1.00  0.00    -0.370 OA 
BRANCH  34  41
HETATM   41  N   UNL     1     -12.269  13.877  71.772  1.00  0.00    -0.204 NA 
HETATM   42  C   UNL     1     -13.576  13.982  72.398  1.00  0.00    -0.557 C  
HETATM   43  H   UNL     1     -11.425  14.177  72.260  1.00  0.00     0.000 HD 
ENDBRANCH  34  41
ENDBRANCH  29  30
ENDBRANCH  23  29
ENDBRANCH  14  15
ENDBRANCH   9  14
ENDBRANCH   4   5
ENDBRANCH   2   4
TORSDOF 7
ENDMDL
MODEL      245
REMARK 921   NORMALIZED FREE ENERGY PREDICTED BY IDOCK:   -3.66 KCAL/MOL
REMARK 922        TOTAL FREE ENERGY PREDICTED BY IDOCK:   -6.87 KCAL/MOL
REMARK 923 INTER-LIGAND FREE ENERGY PREDICTED BY IDOCK:   -7.38 KCAL/MOL
REMARK 924 INTRA-LIGAND FREE ENERGY PREDICTED BY IDOCK:    0.51 KCAL/MOL
REMARK 927      BINDING AFFINITY PREDICTED BY RF-SCORE:    0.00 PKD
ROOT
HETATM    1  C   UNL     1      -6.325   7.608  66.320  1.00  0.00    -0.045 C  
HETATM    2  N   UNL     1      -7.644   7.006  66.438  1.00  0.00    -0.086 NA 
HETATM    3  H   UNL     1      -7.925   6.581  65.554  1.00  0.00     0.000 HD 
ENDROOT
BRANCH   2   4
HETATM    4  C   UNL     1      -7.761   6.036  67.538  1.00  0.00    -0.097 C  
BRANCH   4   5
HETATM    5  C   UNL     1      -8.856   6.339  68.596  1.00  0.00    -0.119 C  
HETATM    6  C   UNL     1      -9.264   5.132  69.421  1.00  0.00    -0.155 C  
HETATM    7  C   UNL     1     -10.303   5.564  70.455  1.00  0.00    -0.342 C  
HETATM    8  C   UNL     1     -11.426   6.432  69.847  1.00  0.00    -0.415 C  
HETATM    9  C   UNL     1     -10.925   7.506  68.779  1.00  0.00     0.084 C  
HETATM   10  N   UNL     1     -12.296   6.932  70.938  1.00  0.00    -0.488 NA 
HETATM   11  O   UNL     1     -10.025   6.834  67.902  1.00  0.00    -0.133 OA 
HETATM   12  H1  UNL     1     -13.037   7.506  70.536  1.00  0.00     0.000 HD 
HETATM   13  H2  UNL     1     -11.770   7.428  71.658  1.00  0.00     0.000 HD 
BRANCH   9  14
HETATM   14  O   UNL     1     -10.369   8.733  69.308  1.00  0.00    -0.207 OA 
BRANCH  14  15
HETATM   15  C   UNL     1      -9.178   9.328  68.641  1.00  0.00    -0.135 C  
HETATM   16  C   UNL     1      -8.264  10.170  69.573  1.00  0.00    -0.168 C  
HETATM   17  N   UNL     1      -7.509   9.291  70.490  1.00  0.00    -0.115 NA 
HETATM   18  C   UNL     1      -7.230  11.001  68.785  1.00  0.00    -0.091 C  
HETATM   19  H2  UNL     1      -6.982   8.579  69.985  1.00  0.00     0.000 HD 
HETATM   20  H1  UNL     1      -6.909   9.844  71.102  1.00  0.00     0.000 HD 
HETATM   21  C   UNL     1      -7.876  11.914  67.733  1.00  0.00    -0.138 C  
HETATM   22  N   UNL     1      -6.878  12.826  67.162  1.00  0.00    -0.354 NA 
HETATM   23  C   UNL     1      -8.555  11.084  66.627  1.00  0.00    -0.157 C  
HETATM   24  C   UNL     1      -9.518  10.056  67.300  1.00  0.00    -0.154 C  
HETATM   25  O   UNL     1      -9.922   9.075  66.315  1.00  0.00    -0.280 OA 
HETATM   26  H1  UNL     1      -7.307  13.433  66.463  1.00  0.00     0.000 HD 
HETATM   27  H2  UNL     1      -6.076  12.322  66.785  1.00  0.00     0.000 HD 
HETATM   28  H   UNL     1     -10.129   9.518  65.500  1.00  0.00     0.000 HD 
BRANCH  23  29
HETATM   29  O   UNL     1      -9.396  11.945  65.806  1.00  0.00    -0.226 OA 
BRANCH  29  30
HETATM   30  C   UNL     1      -9.872  13.227  66.265  1.00  0.00    -0.285 C  
HETATM   31  O   UNL     1      -8.859  14.199  66.539  1.00  0.00    -0.173 OA 
HETATM   32  C   UNL     1      -9.419  15.485  66.847  1.00  0.00    -0.228 C  
HETATM   33  C   UNL     1     -10.300  15.481  68.124  1.00  0.00    -0.237 C  
HETATM   34  C   UNL     1     -11.450  14.455  67.925  1.00  0.00    -0.321 C  
HETATM   35  O   UNL     1      -9.490  15.091  69.244  1.00  0.00    -0.267 OA 
HETATM   36  C   UNL     1     -10.812  16.907  68.377  1.00  0.00    -0.347 C  
HETATM   37  H   UNL     1     -12.626  12.138  67.840  1.00  0.00     0.000 HD 
HETATM   38  H   UNL     1     -10.030  15.089  70.025  1.00  0.00     0.000 HD 
HETATM   39  C   UNL     1     -10.884  13.069  67.461  1.00  0.00    -0.247 C  
HETATM   40  O   UNL     1     -12.016  12.233  67.119  1.00  0.00    -0.564 OA 
BRANCH  34  41
HETATM   41  N   UNL     1     -12.502  14.319  68.979  1.00  0.00    -0.538 NA 
HETATM   42  C   UNL     1     -12.105  13.770  70.264  1.00  0.00    -0.355 C  
HETATM   43  H   UNL     1     -13.465  14.602  68.801  1.00  0.00     0.000 HD 
ENDBRANCH  34  41
ENDBRANCH  29  30
ENDBRANCH  23  29
ENDBRANCH  14  15
ENDBRANCH   9  14
ENDBRANCH   4   5
ENDBRANCH   2   4
TORSDOF 7
ENDMDL
MODEL      246
REMARK 921   NORMALIZED FREE ENERGY PREDICTED BY IDOCK:   -3.61 KCAL/MOL
REMARK 922        TOTAL FREE ENERGY PREDICTED BY IDOCK:   -6.80 KCAL/MOL
REMARK 923 INTER-LIGAND FREE ENERGY PREDICTED BY IDOCK:   -5.23 KCAL/MOL
REMARK 924 INTRA-LIGAND FREE ENERGY PREDICTED BY IDOCK:   -1.57 KCAL/MOL
REMARK 927      BINDING AFFINITY PREDICTED BY RF-SCORE:    0.00 PKD
ROOT
HETATM    1  C   UNL     1     -12.278   8.756  71.541  1.00  0.00    -0.327 C  
HETATM    2  N   UNL     1     -12.212   7.999  72.782  1.00  0.00    -0.614 NA 
HETATM    3  H   UNL     1     -12.976   7.325  72.831  1.00  0.00     0.000 HD 
ENDROOT
BRANCH   2   4
HETATM    4  C   UNL     1     -10.920   7.333  73.005  1.00  0.00    -0.344 C  
BRANCH   4   5
HETATM    5  C   UNL     1     -10.841   5.844  72.573  1.00  0.00    -0.247 C  
HETATM    6  C   UNL     1     -11.119   4.862  73.698  1.00  0.00    -0.370 C  
HETATM    7  C   UNL     1     -11.064   3.439  73.142  1.00  0.00    -0.171 C  
HETATM    8  C   UNL     1      -9.821   3.190  72.260  1.00  0.00    -0.163 C  
HETATM    9  C   UNL     1      -9.446   4.400  71.291  1.00  0.00    -0.157 C  
HETATM   10  N   UNL     1      -9.927   1.848  71.642  1.00  0.00    -0.152 NA 
HETATM   11  O   UNL     1      -9.510   5.593  72.067  1.00  0.00    -0.150 OA 
HETATM   12  H1  UNL     1      -9.106   1.684  71.060  1.00  0.00     0.000 HD 
HETATM   13  H2  UNL     1     -10.799   1.726  71.126  1.00  0.00     0.000 HD 
BRANCH   9  14
HETATM   14  O   UNL     1     -10.202   4.500  70.061  1.00  0.00    -0.210 OA 
BRANCH  14  15
HETATM   15  C   UNL     1      -9.478   4.798  68.794  1.00  0.00    -0.148 C  
HETATM   16  C   UNL     1      -8.714   3.592  68.183  1.00  0.00    -0.106 C  
HETATM   17  N   UNL     1      -9.661   2.620  67.599  1.00  0.00    -0.372 NA 
HETATM   18  C   UNL     1      -7.748   4.018  67.057  1.00  0.00    -0.085 C  
HETATM   19  H2  UNL     1     -10.282   3.058  66.919  1.00  0.00     0.000 HD 
HETATM   20  H1  UNL     1      -9.159   1.828  67.198  1.00  0.00     0.000 HD 
HETATM   21  C   UNL     1      -6.745   5.092  67.507  1.00  0.00    -0.055 C  
HETATM   22  N   UNL     1      -5.727   5.309  66.473  1.00  0.00    -0.017 NA 
HETATM   23  C   UNL     1      -7.467   6.408  67.851  1.00  0.00    -0.094 C  
HETATM   24  C   UNL     1      -8.610   6.097  68.867  1.00  0.00    -0.121 C  
HETATM   25  O   UNL     1      -9.483   7.247  68.961  1.00  0.00    -0.148 OA 
HETATM   26  H1  UNL     1      -5.062   6.022  66.771  1.00  0.00     0.000 HD 
HETATM   27  H2  UNL     1      -6.146   5.536  65.571  1.00  0.00     0.000 HD 
HETATM   28  H   UNL     1      -8.956   8.036  69.005  1.00  0.00     0.000 HD 
BRANCH  23  29
HETATM   29  O   UNL     1      -6.553   7.310  68.540  1.00  0.00    -0.042 OA 
BRANCH  29  30
HETATM   30  C   UNL     1      -6.489   8.721  68.246  1.00  0.00    -0.060 C  
HETATM   31  O   UNL     1      -7.437   9.538  68.938  1.00  0.00    -0.072 OA 
HETATM   32  C   UNL     1      -7.212  10.937  68.704  1.00  0.00    -0.088 C  
HETATM   33  C   UNL     1      -7.372  11.343  67.215  1.00  0.00    -0.130 C  
HETATM   34  C   UNL     1      -6.369  10.513  66.368  1.00  0.00    -0.100 C  
HETATM   35  O   UNL     1      -8.716  11.053  66.798  1.00  0.00    -0.144 OA 
HETATM   36  C   UNL     1      -7.148  12.858  67.087  1.00  0.00     0.028 C  
HETATM   37  H   UNL     1      -5.419   8.465  65.077  1.00  0.00     0.000 HD 
HETATM   38  H   UNL     1      -8.813  11.302  65.886  1.00  0.00     0.000 HD 
HETATM   39  C   UNL     1      -6.497   8.985  66.694  1.00  0.00    -0.067 C  
HETATM   40  O   UNL     1      -5.414   8.306  66.014  1.00  0.00    -0.028 OA 
BRANCH  34  41
HETATM   41  N   UNL     1      -6.254  10.775  64.901  1.00  0.00    -0.374 NA 
HETATM   42  C   UNL     1      -7.226  10.148  64.022  1.00  0.00    -0.106 C  
HETATM   43  H   UNL     1      -5.517  11.376  64.529  1.00  0.00     0.000 HD 
ENDBRANCH  34  41
ENDBRANCH  29  30
ENDBRANCH  23  29
ENDBRANCH  14  15
ENDBRANCH   9  14
ENDBRANCH   4   5
ENDBRANCH   2   4
TORSDOF 7
ENDMDL
MODEL      247
REMARK 921   NORMALIZED FREE ENERGY PREDICTED BY IDOCK:   -3.61 KCAL/MOL
REMARK 922        TOTAL FREE ENERGY PREDICTED BY IDOCK:   -6.80 KCAL/MOL
REMARK 923 INTER-LIGAND FREE ENERGY PREDICTED BY IDOCK:   -6.40 KCAL/MOL
REMARK 924 INTRA-LIGAND FREE ENERGY PREDICTED BY IDOCK:   -0.40 KCAL/MOL
REMARK 927      BINDING AFFINITY PREDICTED BY RF-SCORE:    0.00 PKD
ROOT
HETATM    1  C   UNL     1      -6.249  10.243  70.077  1.00  0.00    -0.088 C  
HETATM    2  N   UNL     1      -5.896   9.207  69.118  1.00  0.00    -0.036 NA 
HETATM    3  H   UNL     1      -6.493   8.389  69.237  1.00  0.00     0.000 HD 
ENDROOT
BRANCH   2   4
HETATM    4  C   UNL     1      -5.912   9.660  67.719  1.00  0.00    -0.051 C  
BRANCH   4   5
HETATM    5  C   UNL     1      -6.595   8.703  66.705  1.00  0.00    -0.060 C  
HETATM    6  C   UNL     1      -6.137   7.260  66.815  1.00  0.00    -0.042 C  
HETATM    7  C   UNL     1      -6.912   6.412  65.807  1.00  0.00    -0.061 C  
HETATM    8  C   UNL     1      -6.956   7.047  64.401  1.00  0.00    -0.055 C  
HETATM    9  C   UNL     1      -7.178   8.627  64.396  1.00  0.00    -0.097 C  
HETATM   10  N   UNL     1      -7.851   6.245  63.535  1.00  0.00    -0.112 NA 
HETATM   11  O   UNL     1      -6.296   9.176  65.371  1.00  0.00    -0.063 OA 
HETATM   12  H1  UNL     1      -7.879   6.664  62.606  1.00  0.00     0.000 HD 
HETATM   13  H2  UNL     1      -8.781   6.131  63.938  1.00  0.00     0.000 HD 
BRANCH   9  14
HETATM   14  O   UNL     1      -8.540   9.088  64.561  1.00  0.00    -0.176 OA 
BRANCH  14  15
HETATM   15  C   UNL     1      -8.983   9.553  65.905  1.00  0.00    -0.173 C  
HETATM   16  C   UNL     1     -10.205   8.790  66.486  1.00  0.00    -0.244 C  
HETATM   17  N   UNL     1      -9.813   7.430  66.911  1.00  0.00    -0.199 NA 
HETATM   18  C   UNL     1     -10.805   9.496  67.720  1.00  0.00    -0.258 C  
HETATM   19  H2  UNL     1      -9.031   7.448  67.566  1.00  0.00     0.000 HD 
HETATM   20  H1  UNL     1     -10.615   6.929  67.293  1.00  0.00     0.000 HD 
HETATM   21  C   UNL     1     -11.192  10.956  67.441  1.00  0.00    -0.273 C  
HETATM   22  N   UNL     1     -11.941  11.514  68.572  1.00  0.00    -0.529 NA 
HETATM   23  C   UNL     1      -9.945  11.807  67.137  1.00  0.00    -0.203 C  
HETATM   24  C   UNL     1      -9.129  11.106  66.005  1.00  0.00    -0.203 C  
HETATM   25  O   UNL     1      -7.819  11.713  65.924  1.00  0.00    -0.355 OA 
HETATM   26  H1  UNL     1     -12.199  12.483  68.387  1.00  0.00     0.000 HD 
HETATM   27  H2  UNL     1     -11.430  11.419  69.449  1.00  0.00     0.000 HD 
HETATM   28  H   UNL     1      -7.907  12.657  65.985  1.00  0.00     0.000 HD 
BRANCH  23  29
HETATM   29  O   UNL     1     -10.346  13.101  66.600  1.00  0.00    -0.258 OA 
BRANCH  29  30
HETATM   30  C   UNL     1     -10.241  14.321  67.361  1.00  0.00    -0.247 C  
HETATM   31  O   UNL     1     -11.419  15.130  67.397  1.00  0.00    -0.332 OA 
HETATM   32  C   UNL     1     -11.278  16.245  68.291  1.00  0.00    -0.324 C  
HETATM   33  C   UNL     1     -10.153  17.228  67.872  1.00  0.00    -0.317 C  
HETATM   34  C   UNL     1      -8.813  16.446  67.812  1.00  0.00    -0.189 C  
HETATM   35  O   UNL     1     -10.464  17.760  66.574  1.00  0.00    -0.345 OA 
HETATM   36  C   UNL     1     -10.117  18.395  68.871  1.00  0.00    -0.352 C  
HETATM   37  H   UNL     1      -6.974  14.884  66.843  1.00  0.00     0.000 HD 
HETATM   38  H   UNL     1      -9.775  18.362  66.319  1.00  0.00     0.000 HD 
HETATM   39  C   UNL     1      -8.965  15.148  66.947  1.00  0.00    -0.252 C  
HETATM   40  O   UNL     1      -7.743  14.385  67.093  1.00  0.00    -0.171 OA 
BRANCH  34  41
HETATM   41  N   UNL     1      -7.546  17.182  67.517  1.00  0.00    -0.167 NA 
HETATM   42  C   UNL     1      -6.530  17.225  68.554  1.00  0.00    -0.170 C  
HETATM   43  H   UNL     1      -7.400  17.640  66.616  1.00  0.00     0.000 HD 
ENDBRANCH  34  41
ENDBRANCH  29  30
ENDBRANCH  23  29
ENDBRANCH  14  15
ENDBRANCH   9  14
ENDBRANCH   4   5
ENDBRANCH   2   4
TORSDOF 7
ENDMDL
MODEL      248
REMARK 921   NORMALIZED FREE ENERGY PREDICTED BY IDOCK:   -3.58 KCAL/MOL
REMARK 922        TOTAL FREE ENERGY PREDICTED BY IDOCK:   -6.76 KCAL/MOL
REMARK 923 INTER-LIGAND FREE ENERGY PREDICTED BY IDOCK:   -7.39 KCAL/MOL
REMARK 924 INTRA-LIGAND FREE ENERGY PREDICTED BY IDOCK:    0.63 KCAL/MOL
REMARK 927      BINDING AFFINITY PREDICTED BY RF-SCORE:    0.00 PKD
ROOT
HETATM    1  C   UNL     1     -11.201  11.612  63.554  1.00  0.00    -0.373 C  
HETATM    2  N   UNL     1      -9.921  10.957  63.335  1.00  0.00    -0.358 NA 
HETATM    3  H   UNL     1      -9.152  11.596  63.537  1.00  0.00     0.000 HD 
ENDROOT
BRANCH   2   4
HETATM    4  C   UNL     1      -9.759   9.702  64.084  1.00  0.00     0.338 C  
BRANCH   4   5
HETATM    5  C   UNL     1      -9.390   9.850  65.585  1.00  0.00    -0.214 C  
HETATM    6  C   UNL     1      -8.022   9.294  65.940  1.00  0.00    -0.106 C  
HETATM    7  C   UNL     1      -7.753   9.544  67.423  1.00  0.00    -0.095 C  
HETATM    8  C   UNL     1      -8.945   9.148  68.321  1.00  0.00    -0.129 C  
HETATM    9  C   UNL     1     -10.374   9.540  67.732  1.00  0.00    -0.239 C  
HETATM   10  N   UNL     1      -8.661   9.565  69.715  1.00  0.00    -0.173 NA 
HETATM   11  O   UNL     1     -10.384   9.145  66.363  1.00  0.00    -0.258 OA 
HETATM   12  H1  UNL     1      -9.448   9.303  70.308  1.00  0.00     0.000 HD 
HETATM   13  H2  UNL     1      -8.435  10.557  69.785  1.00  0.00     0.000 HD 
BRANCH   9  14
HETATM   14  O   UNL     1     -10.793  10.913  67.914  1.00  0.00    -0.207 OA 
BRANCH  14  15
HETATM   15  C   UNL     1     -11.067  11.405  69.293  1.00  0.00    -0.254 C  
HETATM   16  C   UNL     1     -12.278  10.732  69.995  1.00  0.00    -0.334 C  
HETATM   17  N   UNL     1     -11.947   9.345  70.384  1.00  0.00    -0.469 NA 
HETATM   18  C   UNL     1     -12.700  11.476  71.279  1.00  0.00    -0.469 C  
HETATM   19  H2  UNL     1     -11.106   9.304  70.959  1.00  0.00     0.000 HD 
HETATM   20  H1  UNL     1     -12.742   8.904  70.845  1.00  0.00     0.000 HD 
HETATM   21  C   UNL     1     -13.005  12.962  71.034  1.00  0.00    -0.098 C  
HETATM   22  N   UNL     1     -13.596  13.569  72.231  1.00  0.00    -0.548 NA 
HETATM   23  C   UNL     1     -11.734  13.720  70.605  1.00  0.00    -0.081 C  
HETATM   24  C   UNL     1     -11.088  12.964  69.402  1.00  0.00    -0.068 C  
HETATM   25  O   UNL     1      -9.750  13.474  69.189  1.00  0.00    -0.395 OA 
HETATM   26  H1  UNL     1     -13.798  14.555  72.069  1.00  0.00     0.000 HD 
HETATM   27  H2  UNL     1     -13.009  13.433  73.054  1.00  0.00     0.000 HD 
HETATM   28  H   UNL     1      -9.763  14.422  69.255  1.00  0.00     0.000 HD 
BRANCH  23  29
HETATM   29  O   UNL     1     -12.090  15.041  70.105  1.00  0.00    -0.292 OA 
BRANCH  29  30
HETATM   30  C   UNL     1     -11.148  15.887  69.415  1.00  0.00    -0.322 C  
HETATM   31  O   UNL     1     -10.866  17.140  70.044  1.00  0.00    -0.031 OA 
HETATM   32  C   UNL     1      -9.815  17.853  69.374  1.00  0.00     0.087 C  
HETATM   33  C   UNL     1     -10.167  18.232  67.911  1.00  0.00    -0.384 C  
HETATM   34  C   UNL     1     -10.483  16.928  67.128  1.00  0.00    -0.296 C  
HETATM   35  O   UNL     1     -11.322  19.085  67.918  1.00  0.00    -0.122 OA 
HETATM   36  C   UNL     1      -8.994  19.019  67.307  1.00  0.00    -0.308 C  
HETATM   37  H   UNL     1     -11.868  14.892  66.293  1.00  0.00     0.000 HD 
HETATM   38  H   UNL     1     -11.537  19.316  67.023  1.00  0.00     0.000 HD 
HETATM   39  C   UNL     1     -11.535  16.058  67.897  1.00  0.00    -0.140 C  
HETATM   40  O   UNL     1     -11.634  14.789  67.208  1.00  0.00    -0.370 OA 
BRANCH  34  41
HETATM   41  N   UNL     1     -10.767  17.003  65.662  1.00  0.00    -0.398 NA 
HETATM   42  C   UNL     1     -10.554  15.805  64.869  1.00  0.00    -0.284 C  
HETATM   43  H   UNL     1     -11.100  17.867  65.234  1.00  0.00     0.000 HD 
ENDBRANCH  34  41
ENDBRANCH  29  30
ENDBRANCH  23  29
ENDBRANCH  14  15
ENDBRANCH   9  14
ENDBRANCH   4   5
ENDBRANCH   2   4
TORSDOF 7
ENDMDL
MODEL      249
REMARK 921   NORMALIZED FREE ENERGY PREDICTED BY IDOCK:   -3.51 KCAL/MOL
REMARK 922        TOTAL FREE ENERGY PREDICTED BY IDOCK:   -6.66 KCAL/MOL
REMARK 923 INTER-LIGAND FREE ENERGY PREDICTED BY IDOCK:   -5.17 KCAL/MOL
REMARK 924 INTRA-LIGAND FREE ENERGY PREDICTED BY IDOCK:   -1.49 KCAL/MOL
REMARK 927      BINDING AFFINITY PREDICTED BY RF-SCORE:    0.00 PKD
ROOT
HETATM    1  C   UNL     1     -10.408   4.481  65.608  1.00  0.00    -0.247 C  
HETATM    2  N   UNL     1      -9.428   3.823  66.459  1.00  0.00    -0.210 NA 
HETATM    3  H   UNL     1      -9.146   2.930  66.056  1.00  0.00     0.000 HD 
ENDROOT
BRANCH   2   4
HETATM    4  C   UNL     1      -8.250   4.650  66.760  1.00  0.00    -0.106 C  
BRANCH   4   5
HETATM    5  C   UNL     1      -7.673   5.466  65.571  1.00  0.00    -0.091 C  
HETATM    6  C   UNL     1      -6.819   4.647  64.621  1.00  0.00    -0.045 C  
HETATM    7  C   UNL     1      -6.354   5.542  63.472  1.00  0.00    -0.022 C  
HETATM    8  C   UNL     1      -5.792   6.896  63.959  1.00  0.00    -0.032 C  
HETATM    9  C   UNL     1      -6.613   7.559  65.155  1.00  0.00    -0.044 C  
HETATM   10  N   UNL     1      -5.513   7.755  62.785  1.00  0.00    -0.050 NA 
HETATM   11  O   UNL     1      -6.859   6.533  66.112  1.00  0.00    -0.054 OA 
HETATM   12  H1  UNL     1      -5.143   8.649  63.107  1.00  0.00     0.000 HD 
HETATM   13  H2  UNL     1      -6.330   7.868  62.183  1.00  0.00     0.000 HD 
BRANCH   9  14
HETATM   14  O   UNL     1      -7.816   8.276  64.793  1.00  0.00    -0.113 OA 
BRANCH  14  15
HETATM   15  C   UNL     1      -8.092   9.590  65.439  1.00  0.00    -0.125 C  
HETATM   16  C   UNL     1      -6.831  10.345  65.942  1.00  0.00    -0.131 C  
HETATM   17  N   UNL     1      -6.063  10.888  64.803  1.00  0.00    -0.363 NA 
HETATM   18  C   UNL     1      -7.186  11.534  66.859  1.00  0.00    -0.137 C  
HETATM   19  H2  UNL     1      -6.641  11.474  64.201  1.00  0.00     0.000 HD 
HETATM   20  H1  UNL     1      -5.235  11.383  65.134  1.00  0.00     0.000 HD 
HETATM   21  C   UNL     1      -8.056  11.124  68.057  1.00  0.00    -0.123 C  
HETATM   22  N   UNL     1      -8.190  12.240  69.000  1.00  0.00    -0.334 NA 
HETATM   23  C   UNL     1      -9.439  10.632  67.590  1.00  0.00    -0.153 C  
HETATM   24  C   UNL     1      -9.233   9.527  66.507  1.00  0.00    -0.160 C  
HETATM   25  O   UNL     1     -10.493   9.278  65.842  1.00  0.00    -0.175 OA 
HETATM   26  H1  UNL     1      -8.767  11.968  69.796  1.00  0.00     0.000 HD 
HETATM   27  H2  UNL     1      -8.545  13.081  68.544  1.00  0.00     0.000 HD 
HETATM   28  H   UNL     1     -11.187   9.240  66.491  1.00  0.00     0.000 HD 
BRANCH  23  29
HETATM   29  O   UNL     1     -10.135   9.986  68.696  1.00  0.00    -0.160 OA 
BRANCH  29  30
HETATM   30  C   UNL     1      -9.801   8.659  69.150  1.00  0.00    -0.185 C  
HETATM   31  O   UNL     1     -10.783   7.653  68.891  1.00  0.00    -0.188 OA 
HETATM   32  C   UNL     1     -10.313   6.341  69.241  1.00  0.00    -0.218 C  
HETATM   33  C   UNL     1      -9.996   6.186  70.752  1.00  0.00    -0.189 C  
HETATM   34  C   UNL     1      -8.921   7.237  71.140  1.00  0.00    -0.147 C  
HETATM   35  O   UNL     1     -11.198   6.421  71.503  1.00  0.00    -0.261 OA 
HETATM   36  C   UNL     1      -9.541   4.742  71.017  1.00  0.00    -0.242 C  
HETATM   37  H   UNL     1      -7.939   9.554  71.793  1.00  0.00     0.000 HD 
HETATM   38  H   UNL     1     -11.004   6.325  72.428  1.00  0.00     0.000 HD 
HETATM   39  C   UNL     1      -9.342   8.667  70.657  1.00  0.00    -0.185 C  
HETATM   40  O   UNL     1      -8.215   9.549  70.885  1.00  0.00    -0.291 OA 
BRANCH  34  41
HETATM   41  N   UNL     1      -8.368   7.243  72.529  1.00  0.00    -0.106 NA 
HETATM   42  C   UNL     1      -9.198   7.796  73.585  1.00  0.00    -0.284 C  
HETATM   43  H   UNL     1      -7.439   6.872  72.728  1.00  0.00     0.000 HD 
ENDBRANCH  34  41
ENDBRANCH  29  30
ENDBRANCH  23  29
ENDBRANCH  14  15
ENDBRANCH   9  14
ENDBRANCH   4   5
ENDBRANCH   2   4
TORSDOF 7
ENDMDL
MODEL      250
REMARK 921   NORMALIZED FREE ENERGY PREDICTED BY IDOCK:   -3.50 KCAL/MOL
REMARK 922        TOTAL FREE ENERGY PREDICTED BY IDOCK:   -6.65 KCAL/MOL
REMARK 923 INTER-LIGAND FREE ENERGY PREDICTED BY IDOCK:   -6.41 KCAL/MOL
REMARK 924 INTRA-LIGAND FREE ENERGY PREDICTED BY IDOCK:   -0.24 KCAL/MOL
REMARK 927      BINDING AFFINITY PREDICTED BY RF-SCORE:    0.00 PKD
ROOT
HETATM    1  C   UNL     1      -7.273  10.292  65.245  1.00  0.00    -0.134 C  
HETATM    2  N   UNL     1      -6.851  10.673  63.906  1.00  0.00    -0.346 NA 
HETATM    3  H   UNL     1      -6.295   9.931  63.481  1.00  0.00     0.000 HD 
ENDROOT
BRANCH   2   4
HETATM    4  C   UNL     1      -7.959  11.061  63.020  1.00  0.00     0.213 C  
BRANCH   4   5
HETATM    5  C   UNL     1      -9.289  11.443  63.725  1.00  0.00    -0.101 C  
HETATM    6  C   UNL     1     -10.522  10.834  63.083  1.00  0.00     0.060 C  
HETATM    7  C   UNL     1     -11.755  11.238  63.891  1.00  0.00     0.155 C  
HETATM    8  C   UNL     1     -11.786  12.746  64.220  1.00  0.00    -0.396 C  
HETATM    9  C   UNL     1     -10.374  13.361  64.631  1.00  0.00    -0.381 C  
HETATM   10  N   UNL     1     -12.923  13.019  65.129  1.00  0.00    -0.764 NA 
HETATM   11  O   UNL     1      -9.419  12.883  63.688  1.00  0.00     0.264 OA 
HETATM   12  H1  UNL     1     -12.944  14.016  65.347  1.00  0.00     0.000 HD 
HETATM   13  H2  UNL     1     -12.898  12.440  65.969  1.00  0.00     0.000 HD 
BRANCH   9  14
HETATM   14  O   UNL     1      -9.951  13.151  65.999  1.00  0.00    -0.278 OA 
BRANCH  14  15
HETATM   15  C   UNL     1     -10.926  12.589  66.975  1.00  0.00    -0.267 C  
HETATM   16  C   UNL     1     -11.393  13.583  68.073  1.00  0.00    -0.285 C  
HETATM   17  N   UNL     1     -12.306  14.595  67.503  1.00  0.00    -0.536 NA 
HETATM   18  C   UNL     1     -12.153  12.879  69.217  1.00  0.00    -0.234 C  
HETATM   19  H2  UNL     1     -13.095  14.166  67.021  1.00  0.00     0.000 HD 
HETATM   20  H1  UNL     1     -12.612  15.247  68.225  1.00  0.00     0.000 HD 
HETATM   21  C   UNL     1     -11.344  11.741  69.858  1.00  0.00    -0.121 C  
HETATM   22  N   UNL     1     -12.019  11.246  71.063  1.00  0.00    -0.304 NA 
HETATM   23  C   UNL     1     -11.110  10.598  68.853  1.00  0.00    -0.261 C  
HETATM   24  C   UNL     1     -10.496  11.200  67.550  1.00  0.00    -0.204 C  
HETATM   25  O   UNL     1     -10.559  10.209  66.498  1.00  0.00    -0.189 OA 
HETATM   26  H1  UNL     1     -11.483  10.491  71.489  1.00  0.00     0.000 HD 
HETATM   27  H2  UNL     1     -12.981  10.966  70.870  1.00  0.00     0.000 HD 
HETATM   28  H   UNL     1     -10.298   9.365  66.847  1.00  0.00     0.000 HD 
BRANCH  23  29
HETATM   29  O   UNL     1     -10.114   9.673  69.376  1.00  0.00    -0.181 OA 
BRANCH  29  30
HETATM   30  C   UNL     1     -10.450   8.606  70.287  1.00  0.00    -0.210 C  
HETATM   31  O   UNL     1     -10.450   8.956  71.673  1.00  0.00    -0.284 OA 
HETATM   32  C   UNL     1     -10.936   7.884  72.497  1.00  0.00    -0.350 C  
HETATM   33  C   UNL     1     -10.057   6.608  72.425  1.00  0.00    -0.167 C  
HETATM   34  C   UNL     1      -9.999   6.133  70.947  1.00  0.00    -0.185 C  
HETATM   35  O   UNL     1      -8.734   6.930  72.883  1.00  0.00    -0.123 OA 
HETATM   36  C   UNL     1     -10.645   5.546  73.368  1.00  0.00    -0.293 C  
HETATM   37  H   UNL     1      -9.231   6.068  68.463  1.00  0.00     0.000 HD 
HETATM   38  H   UNL     1      -8.197   6.148  72.839  1.00  0.00     0.000 HD 
HETATM   39  C   UNL     1      -9.596   7.315  69.999  1.00  0.00    -0.167 C  
HETATM   40  O   UNL     1      -9.747   6.847  68.637  1.00  0.00    -0.136 OA 
BRANCH  34  41
HETATM   41  N   UNL     1      -9.285   4.863  70.611  1.00  0.00    -0.130 NA 
HETATM   42  C   UNL     1      -7.834   4.866  70.673  1.00  0.00    -0.070 C  
HETATM   43  H   UNL     1      -9.800   4.023  70.348  1.00  0.00     0.000 HD 
ENDBRANCH  34  41
ENDBRANCH  29  30
ENDBRANCH  23  29
ENDBRANCH  14  15
ENDBRANCH   9  14
ENDBRANCH   4   5
ENDBRANCH   2   4
TORSDOF 7
ENDMDL
MODEL      251
REMARK 921   NORMALIZED FREE ENERGY PREDICTED BY IDOCK:   -3.49 KCAL/MOL
REMARK 922        TOTAL FREE ENERGY PREDICTED BY IDOCK:   -6.62 KCAL/MOL
REMARK 923 INTER-LIGAND FREE ENERGY PREDICTED BY IDOCK:   -5.27 KCAL/MOL
REMARK 924 INTRA-LIGAND FREE ENERGY PREDICTED BY IDOCK:   -1.35 KCAL/MOL
REMARK 927      BINDING AFFINITY PREDICTED BY RF-SCORE:    0.00 PKD
ROOT
HETATM    1  C   UNL     1     -11.191   7.390  72.717  1.00  0.00    -0.332 C  
HETATM    2  N   UNL     1     -10.084   6.845  73.488  1.00  0.00    -0.257 NA 
HETATM    3  H   UNL     1      -9.869   7.449  74.282  1.00  0.00     0.000 HD 
ENDROOT
BRANCH   2   4
HETATM    4  C   UNL     1     -10.293   5.460  73.934  1.00  0.00    -0.259 C  
BRANCH   4   5
HETATM    5  C   UNL     1     -10.273   4.379  72.820  1.00  0.00    -0.176 C  
HETATM    6  C   UNL     1     -10.112   2.962  73.340  1.00  0.00    -0.188 C  
HETATM    7  C   UNL     1     -10.158   1.990  72.162  1.00  0.00    -0.232 C  
HETATM    8  C   UNL     1      -9.258   2.431  70.988  1.00  0.00    -0.129 C  
HETATM    9  C   UNL     1      -9.290   3.996  70.683  1.00  0.00    -0.146 C  
HETATM   10  N   UNL     1      -9.481   1.523  69.839  1.00  0.00    -0.094 NA 
HETATM   11  O   UNL     1      -9.167   4.668  71.934  1.00  0.00    -0.131 OA 
HETATM   12  H1  UNL     1      -8.886   1.815  69.063  1.00  0.00     0.000 HD 
HETATM   13  H2  UNL     1     -10.465   1.467  69.573  1.00  0.00     0.000 HD 
BRANCH   9  14
HETATM   14  O   UNL     1     -10.409   4.480  69.905  1.00  0.00    -0.130 OA 
BRANCH  14  15
HETATM   15  C   UNL     1     -10.140   5.211  68.636  1.00  0.00    -0.150 C  
HETATM   16  C   UNL     1      -9.116   4.523  67.693  1.00  0.00    -0.122 C  
HETATM   17  N   UNL     1      -9.713   3.328  67.062  1.00  0.00    -0.382 NA 
HETATM   18  C   UNL     1      -8.650   5.453  66.553  1.00  0.00    -0.116 C  
HETATM   19  H2  UNL     1     -10.583   3.549  66.579  1.00  0.00     0.000 HD 
HETATM   20  H1  UNL     1      -9.041   2.876  66.444  1.00  0.00     0.000 HD 
HETATM   21  C   UNL     1      -8.070   6.780  67.066  1.00  0.00    -0.109 C  
HETATM   22  N   UNL     1      -7.457   7.532  65.966  1.00  0.00    -0.081 NA 
HETATM   23  C   UNL     1      -9.155   7.620  67.766  1.00  0.00    -0.130 C  
HETATM   24  C   UNL     1      -9.848   6.733  68.848  1.00  0.00    -0.145 C  
HETATM   25  O   UNL     1     -11.057   7.392  69.293  1.00  0.00    -0.423 OA 
HETATM   26  H1  UNL     1      -7.071   8.413  66.306  1.00  0.00     0.000 HD 
HETATM   27  H2  UNL     1      -8.110   7.676  65.195  1.00  0.00     0.000 HD 
HETATM   28  H   UNL     1     -10.879   8.316  69.422  1.00  0.00     0.000 HD 
BRANCH  23  29
HETATM   29  O   UNL     1      -8.537   8.724  68.489  1.00  0.00    -0.132 OA 
BRANCH  29  30
HETATM   30  C   UNL     1      -8.994  10.086  68.357  1.00  0.00    -0.121 C  
HETATM   31  O   UNL     1      -9.515  10.441  67.074  1.00  0.00    -0.159 OA 
HETATM   32  C   UNL     1     -10.080  11.761  67.070  1.00  0.00    -0.209 C  
HETATM   33  C   UNL     1      -9.043  12.873  67.382  1.00  0.00    -0.197 C  
HETATM   34  C   UNL     1      -8.418  12.586  68.774  1.00  0.00     0.155 C  
HETATM   35  O   UNL     1      -8.019  12.846  66.375  1.00  0.00    -0.177 OA 
HETATM   36  C   UNL     1      -9.745  14.238  67.314  1.00  0.00    -0.234 C  
HETATM   37  H   UNL     1      -6.856  11.480  70.535  1.00  0.00     0.000 HD 
HETATM   38  H   UNL     1      -7.385  13.527  66.566  1.00  0.00     0.000 HD 
HETATM   39  C   UNL     1      -7.905  11.108  68.859  1.00  0.00    -0.131 C  
HETATM   40  O   UNL     1      -7.513  10.864  70.232  1.00  0.00     0.060 OA 
BRANCH  34  41
HETATM   41  N   UNL     1      -7.446  13.561  69.358  1.00  0.00    -0.307 NA 
HETATM   42  C   UNL     1      -6.072  13.508  68.892  1.00  0.00    -0.089 C  
HETATM   43  H   UNL     1      -7.740  14.242  70.059  1.00  0.00     0.000 HD 
ENDBRANCH  34  41
ENDBRANCH  29  30
ENDBRANCH  23  29
ENDBRANCH  14  15
ENDBRANCH   9  14
ENDBRANCH   4   5
ENDBRANCH   2   4
TORSDOF 7
ENDMDL
MODEL      252
REMARK 921   NORMALIZED FREE ENERGY PREDICTED BY IDOCK:   -3.49 KCAL/MOL
REMARK 922        TOTAL FREE ENERGY PREDICTED BY IDOCK:   -6.62 KCAL/MOL
REMARK 923 INTER-LIGAND FREE ENERGY PREDICTED BY IDOCK:   -6.36 KCAL/MOL
REMARK 924 INTRA-LIGAND FREE ENERGY PREDICTED BY IDOCK:   -0.26 KCAL/MOL
REMARK 927      BINDING AFFINITY PREDICTED BY RF-SCORE:    0.00 PKD
ROOT
HETATM    1  C   UNL     1     -12.385  12.198  70.791  1.00  0.00    -0.297 C  
HETATM    2  N   UNL     1     -11.563  13.258  70.225  1.00  0.00    -0.529 NA 
HETATM    3  H   UNL     1     -10.574  13.066  70.384  1.00  0.00     0.000 HD 
ENDROOT
BRANCH   2   4
HETATM    4  C   UNL     1     -11.818  13.513  68.800  1.00  0.00    -0.355 C  
BRANCH   4   5
HETATM    5  C   UNL     1     -11.075  14.730  68.186  1.00  0.00    -0.278 C  
HETATM    6  C   UNL     1     -11.654  16.073  68.592  1.00  0.00    -0.343 C  
HETATM    7  C   UNL     1     -10.812  17.187  67.970  1.00  0.00    -0.317 C  
HETATM    8  C   UNL     1     -10.523  16.952  66.472  1.00  0.00    -0.253 C  
HETATM    9  C   UNL     1     -10.181  15.440  66.095  1.00  0.00    -0.308 C  
HETATM   10  N   UNL     1      -9.580  17.989  65.992  1.00  0.00    -0.524 NA 
HETATM   11  O   UNL     1     -11.146  14.619  66.745  1.00  0.00    -0.320 OA 
HETATM   12  H1  UNL     1      -9.389  17.833  65.002  1.00  0.00     0.000 HD 
HETATM   13  H2  UNL     1      -8.727  18.026  66.550  1.00  0.00     0.000 HD 
BRANCH   9  14
HETATM   14  O   UNL     1      -8.825  15.003  66.346  1.00  0.00    -0.273 OA 
BRANCH  14  15
HETATM   15  C   UNL     1      -8.528  14.265  67.605  1.00  0.00    -0.180 C  
HETATM   16  C   UNL     1      -7.439  14.918  68.500  1.00  0.00    -0.118 C  
HETATM   17  N   UNL     1      -7.964  16.136  69.151  1.00  0.00    -0.236 NA 
HETATM   18  C   UNL     1      -6.960  13.974  69.622  1.00  0.00     0.036 C  
HETATM   19  H2  UNL     1      -8.820  15.949  69.672  1.00  0.00     0.000 HD 
HETATM   20  H1  UNL     1      -7.249  16.564  69.738  1.00  0.00     0.000 HD 
HETATM   21  C   UNL     1      -6.452  12.625  69.091  1.00  0.00    -0.106 C  
HETATM   22  N   UNL     1      -5.821  11.853  70.167  1.00  0.00    -0.145 NA 
HETATM   23  C   UNL     1      -7.597  11.824  68.441  1.00  0.00    -0.123 C  
HETATM   24  C   UNL     1      -8.303  12.734  67.387  1.00  0.00    -0.189 C  
HETATM   25  O   UNL     1      -9.553  12.119  66.997  1.00  0.00    -0.197 OA 
HETATM   26  H1  UNL     1      -5.484  10.957  69.814  1.00  0.00     0.000 HD 
HETATM   27  H2  UNL     1      -6.445  11.735  70.965  1.00  0.00     0.000 HD 
HETATM   28  H   UNL     1      -9.416  11.188  66.864  1.00  0.00     0.000 HD 
BRANCH  23  29
HETATM   29  O   UNL     1      -7.053  10.695  67.698  1.00  0.00    -0.081 OA 
BRANCH  29  30
HETATM   30  C   UNL     1      -7.504   9.341  67.907  1.00  0.00    -0.084 C  
HETATM   31  O   UNL     1      -6.634   8.514  68.684  1.00  0.00    -0.053 OA 
HETATM   32  C   UNL     1      -7.222   7.235  68.969  1.00  0.00    -0.089 C  
HETATM   33  C   UNL     1      -7.510   6.396  67.696  1.00  0.00    -0.093 C  
HETATM   34  C   UNL     1      -8.466   7.207  66.778  1.00  0.00    -0.121 C  
HETATM   35  O   UNL     1      -6.271   6.152  67.012  1.00  0.00    -0.027 OA 
HETATM   36  C   UNL     1      -8.099   5.041  68.118  1.00  0.00    -0.086 C  
HETATM   37  H   UNL     1      -9.194   8.990  65.031  1.00  0.00     0.000 HD 
HETATM   38  H   UNL     1      -6.448   5.638  66.233  1.00  0.00     0.000 HD 
HETATM   39  C   UNL     1      -7.918   8.658  66.550  1.00  0.00    -0.099 C  
HETATM   40  O   UNL     1      -8.945   9.402  65.850  1.00  0.00    -0.156 OA 
BRANCH  34  41
HETATM   41  N   UNL     1      -8.976   6.585  65.517  1.00  0.00    -0.365 NA 
HETATM   42  C   UNL     1      -8.112   6.616  64.350  1.00  0.00    -0.055 C  
HETATM   43  H   UNL     1      -9.899   6.154  65.479  1.00  0.00     0.000 HD 
ENDBRANCH  34  41
ENDBRANCH  29  30
ENDBRANCH  23  29
ENDBRANCH  14  15
ENDBRANCH   9  14
ENDBRANCH   4   5
ENDBRANCH   2   4
TORSDOF 7
ENDMDL
MODEL      253
REMARK 921   NORMALIZED FREE ENERGY PREDICTED BY IDOCK:   -3.47 KCAL/MOL
REMARK 922        TOTAL FREE ENERGY PREDICTED BY IDOCK:   -6.60 KCAL/MOL
REMARK 923 INTER-LIGAND FREE ENERGY PREDICTED BY IDOCK:   -5.17 KCAL/MOL
REMARK 924 INTRA-LIGAND FREE ENERGY PREDICTED BY IDOCK:   -1.44 KCAL/MOL
REMARK 927      BINDING AFFINITY PREDICTED BY RF-SCORE:    0.00 PKD
ROOT
HETATM    1  C   UNL     1      -5.151  14.796  72.676  1.00  0.00    -0.160 C  
HETATM    2  N   UNL     1      -5.154  13.895  71.533  1.00  0.00    -0.141 NA 
HETATM    3  H   UNL     1      -5.111  12.924  71.842  1.00  0.00     0.000 HD 
ENDROOT
BRANCH   2   4
HETATM    4  C   UNL     1      -6.287  14.098  70.618  1.00  0.00    -0.053 C  
BRANCH   4   5
HETATM    5  C   UNL     1      -6.899  12.811  70.001  1.00  0.00     0.533 C  
HETATM    6  C   UNL     1      -5.972  11.610  70.039  1.00  0.00    -0.152 C  
HETATM    7  C   UNL     1      -6.700  10.400  69.454  1.00  0.00    -0.069 C  
HETATM    8  C   UNL     1      -7.412  10.718  68.122  1.00  0.00    -0.091 C  
HETATM    9  C   UNL     1      -8.143  12.135  68.085  1.00  0.00    -0.161 C  
HETATM   10  N   UNL     1      -8.215   9.542  67.709  1.00  0.00    -0.113 NA 
HETATM   11  O   UNL     1      -7.231  13.089  68.621  1.00  0.00    -0.098 OA 
HETATM   12  H1  UNL     1      -8.685   9.752  66.829  1.00  0.00     0.000 HD 
HETATM   13  H2  UNL     1      -8.866   9.243  68.435  1.00  0.00     0.000 HD 
BRANCH   9  14
HETATM   14  O   UNL     1      -9.446  12.206  68.708  1.00  0.00    -0.090 OA 
BRANCH  14  15
HETATM   15  C   UNL     1     -10.613  12.638  67.889  1.00  0.00    -0.220 C  
HETATM   16  C   UNL     1     -10.568  12.184  66.404  1.00  0.00    -0.241 C  
HETATM   17  N   UNL     1     -10.828  10.734  66.297  1.00  0.00    -0.134 NA 
HETATM   18  C   UNL     1     -11.626  12.901  65.540  1.00  0.00    -0.395 C  
HETATM   19  H2  UNL     1     -11.705  10.472  66.747  1.00  0.00     0.000 HD 
HETATM   20  H1  UNL     1     -10.799  10.436  65.322  1.00  0.00     0.000 HD 
HETATM   21  C   UNL     1     -11.521  14.432  65.616  1.00  0.00    -0.336 C  
HETATM   22  N   UNL     1     -12.405  15.058  64.626  1.00  0.00    -0.296 NA 
HETATM   23  C   UNL     1     -11.846  14.935  67.036  1.00  0.00    -0.199 C  
HETATM   24  C   UNL     1     -10.958  14.154  68.054  1.00  0.00    -0.255 C  
HETATM   25  O   UNL     1     -11.461  14.384  69.391  1.00  0.00    -0.258 OA 
HETATM   26  H1  UNL     1     -12.335  16.074  64.676  1.00  0.00     0.000 HD 
HETATM   27  H2  UNL     1     -13.369  14.738  64.723  1.00  0.00     0.000 HD 
HETATM   28  H   UNL     1     -11.672  15.305  69.492  1.00  0.00     0.000 HD 
BRANCH  23  29
HETATM   29  O   UNL     1     -11.468  16.336  67.164  1.00  0.00     0.116 OA 
BRANCH  29  30
HETATM   30  C   UNL     1     -10.142  16.746  67.556  1.00  0.00    -0.276 C  
HETATM   31  O   UNL     1      -9.866  16.687  68.957  1.00  0.00    -0.256 OA 
HETATM   32  C   UNL     1      -8.488  16.969  69.246  1.00  0.00     0.114 C  
HETATM   33  C   UNL     1      -8.054  18.400  68.832  1.00  0.00    -0.172 C  
HETATM   34  C   UNL     1      -8.305  18.569  67.308  1.00  0.00    -0.253 C  
HETATM   35  O   UNL     1      -8.845  19.352  69.561  1.00  0.00    -0.018 OA 
HETATM   36  C   UNL     1      -6.582  18.604  69.219  1.00  0.00    -0.278 C  
HETATM   37  H   UNL     1      -9.636  18.992  65.115  1.00  0.00     0.000 HD 
HETATM   38  H   UNL     1      -8.579  20.228  69.308  1.00  0.00     0.000 HD 
HETATM   39  C   UNL     1      -9.767  18.144  66.935  1.00  0.00    -0.318 C  
HETATM   40  O   UNL     1      -9.862  18.149  65.490  1.00  0.00    -0.352 OA 
BRANCH  34  41
HETATM   41  N   UNL     1      -7.887  19.834  66.631  1.00  0.00    -0.283 NA 
HETATM   42  C   UNL     1      -6.725  19.786  65.762  1.00  0.00    -0.259 C  
HETATM   43  H   UNL     1      -8.402  20.703  66.775  1.00  0.00     0.000 HD 
ENDBRANCH  34  41
ENDBRANCH  29  30
ENDBRANCH  23  29
ENDBRANCH  14  15
ENDBRANCH   9  14
ENDBRANCH   4   5
ENDBRANCH   2   4
TORSDOF 7
ENDMDL
MODEL      254
REMARK 921   NORMALIZED FREE ENERGY PREDICTED BY IDOCK:   -3.46 KCAL/MOL
REMARK 922        TOTAL FREE ENERGY PREDICTED BY IDOCK:   -6.58 KCAL/MOL
REMARK 923 INTER-LIGAND FREE ENERGY PREDICTED BY IDOCK:   -6.11 KCAL/MOL
REMARK 924 INTRA-LIGAND FREE ENERGY PREDICTED BY IDOCK:   -0.47 KCAL/MOL
REMARK 927      BINDING AFFINITY PREDICTED BY RF-SCORE:    0.00 PKD
ROOT
HETATM    1  C   UNL     1     -12.644   6.906  70.877  1.00  0.00    -0.201 C  
HETATM    2  N   UNL     1     -12.745   7.258  72.286  1.00  0.00    -0.512 NA 
HETATM    3  H   UNL     1     -12.835   6.419  72.859  1.00  0.00     0.000 HD 
ENDROOT
BRANCH   2   4
HETATM    4  C   UNL     1     -11.640   8.099  72.770  1.00  0.00    -0.304 C  
BRANCH   4   5
HETATM    5  C   UNL     1     -10.260   7.398  72.898  1.00  0.00    -0.261 C  
HETATM    6  C   UNL     1     -10.056   6.678  74.218  1.00  0.00    -0.378 C  
HETATM    7  C   UNL     1      -8.692   5.989  74.205  1.00  0.00    -0.119 C  
HETATM    8  C   UNL     1      -7.560   6.914  73.708  1.00  0.00    -0.083 C  
HETATM    9  C   UNL     1      -7.958   7.838  72.470  1.00  0.00    -0.113 C  
HETATM   10  N   UNL     1      -6.312   6.127  73.580  1.00  0.00    -0.064 NA 
HETATM   11  O   UNL     1      -9.231   8.406  72.764  1.00  0.00    -0.260 OA 
HETATM   12  H1  UNL     1      -5.565   6.738  73.252  1.00  0.00     0.000 HD 
HETATM   13  H2  UNL     1      -6.430   5.306  72.985  1.00  0.00     0.000 HD 
BRANCH   9  14
HETATM   14  O   UNL     1      -7.918   7.218  71.163  1.00  0.00    -0.099 OA 
BRANCH  14  15
HETATM   15  C   UNL     1      -8.970   7.569  70.168  1.00  0.00    -0.147 C  
HETATM   16  C   UNL     1      -9.147   6.541  69.018  1.00  0.00    -0.132 C  
HETATM   17  N   UNL     1      -9.805   5.315  69.516  1.00  0.00    -0.180 NA 
HETATM   18  C   UNL     1     -10.019   7.089  67.870  1.00  0.00    -0.183 C  
HETATM   19  H2  UNL     1     -10.690   5.521  69.980  1.00  0.00     0.000 HD 
HETATM   20  H1  UNL     1      -9.921   4.639  68.761  1.00  0.00     0.000 HD 
HETATM   21  C   UNL     1      -9.489   8.414  67.300  1.00  0.00    -0.154 C  
HETATM   22  N   UNL     1     -10.226   8.783  66.086  1.00  0.00    -0.381 NA 
HETATM   23  C   UNL     1      -9.571   9.536  68.353  1.00  0.00    -0.142 C  
HETATM   24  C   UNL     1      -8.871   9.044  69.658  1.00  0.00    -0.145 C  
HETATM   25  O   UNL     1      -9.204   9.945  70.740  1.00  0.00    -0.322 OA 
HETATM   26  H1  UNL     1      -9.875   9.663  65.708  1.00  0.00     0.000 HD 
HETATM   27  H2  UNL     1     -11.233   8.815  66.249  1.00  0.00     0.000 HD 
HETATM   28  H   UNL     1      -9.144  10.841  70.430  1.00  0.00     0.000 HD 
BRANCH  23  29
HETATM   29  O   UNL     1      -8.812  10.695  67.902  1.00  0.00    -0.129 OA 
BRANCH  29  30
HETATM   30  C   UNL     1      -9.440  11.949  67.565  1.00  0.00    -0.176 C  
HETATM   31  O   UNL     1     -10.705  11.848  66.906  1.00  0.00    -0.228 OA 
HETATM   32  C   UNL     1     -11.328  13.131  66.739  1.00  0.00    -0.316 C  
HETATM   33  C   UNL     1     -10.508  14.100  65.846  1.00  0.00    -0.306 C  
HETATM   34  C   UNL     1      -9.105  14.289  66.485  1.00  0.00    -0.185 C  
HETATM   35  O   UNL     1     -10.372  13.520  64.539  1.00  0.00    -0.478 OA 
HETATM   36  C   UNL     1     -11.282  15.420  65.707  1.00  0.00    -0.196 C  
HETATM   37  H   UNL     1      -6.639  13.735  67.098  1.00  0.00     0.000 HD 
HETATM   38  H   UNL     1      -9.870  14.114  63.993  1.00  0.00     0.000 HD 
HETATM   39  C   UNL     1      -8.446  12.903  66.801  1.00  0.00    -0.013 C  
HETATM   40  O   UNL     1      -7.239  13.160  67.558  1.00  0.00    -0.146 OA 
BRANCH  34  41
HETATM   41  N   UNL     1      -8.141  15.251  65.867  1.00  0.00     0.552 NA 
HETATM   42  C   UNL     1      -7.923  16.518  66.542  1.00  0.00    -0.310 C  
HETATM   43  H   UNL     1      -7.653  15.024  65.001  1.00  0.00     0.000 HD 
ENDBRANCH  34  41
ENDBRANCH  29  30
ENDBRANCH  23  29
ENDBRANCH  14  15
ENDBRANCH   9  14
ENDBRANCH   4   5
ENDBRANCH   2   4
TORSDOF 7
ENDMDL
MODEL      255
REMARK 921   NORMALIZED FREE ENERGY PREDICTED BY IDOCK:   -3.45 KCAL/MOL
REMARK 922        TOTAL FREE ENERGY PREDICTED BY IDOCK:   -6.57 KCAL/MOL
REMARK 923 INTER-LIGAND FREE ENERGY PREDICTED BY IDOCK:   -5.22 KCAL/MOL
REMARK 924 INTRA-LIGAND FREE ENERGY PREDICTED BY IDOCK:   -1.35 KCAL/MOL
REMARK 927      BINDING AFFINITY PREDICTED BY RF-SCORE:    0.00 PKD
ROOT
HETATM    1  C   UNL     1     -13.677   9.290  71.722  1.00  0.00    -0.377 C  
HETATM    2  N   UNL     1     -13.064   8.252  72.536  1.00  0.00    -0.589 NA 
HETATM    3  H   UNL     1     -13.248   7.331  72.140  1.00  0.00     0.000 HD 
ENDROOT
BRANCH   2   4
HETATM    4  C   UNL     1     -11.622   8.442  72.757  1.00  0.00    -0.174 C  
BRANCH   4   5
HETATM    5  C   UNL     1     -10.784   7.145  72.917  1.00  0.00    -0.302 C  
HETATM    6  C   UNL     1     -10.221   6.945  74.312  1.00  0.00    -0.242 C  
HETATM    7  C   UNL     1      -9.464   5.618  74.358  1.00  0.00    -0.149 C  
HETATM    8  C   UNL     1      -8.504   5.436  73.162  1.00  0.00    -0.118 C  
HETATM    9  C   UNL     1      -9.092   5.928  71.763  1.00  0.00    -0.142 C  
HETATM   10  N   UNL     1      -7.933   4.070  73.202  1.00  0.00    -0.087 NA 
HETATM   11  O   UNL     1      -9.680   7.207  71.983  1.00  0.00    -0.158 OA 
HETATM   12  H1  UNL     1      -7.299   3.950  72.412  1.00  0.00     0.000 HD 
HETATM   13  H2  UNL     1      -8.654   3.348  73.233  1.00  0.00     0.000 HD 
BRANCH   9  14
HETATM   14  O   UNL     1      -9.987   5.018  71.083  1.00  0.00    -0.186 OA 
BRANCH  14  15
HETATM   15  C   UNL     1      -9.769   4.743  69.635  1.00  0.00    -0.202 C  
HETATM   16  C   UNL     1      -8.797   3.569  69.335  1.00  0.00    -0.095 C  
HETATM   17  N   UNL     1      -9.435   2.274  69.648  1.00  0.00    -0.090 NA 
HETATM   18  C   UNL     1      -8.375   3.521  67.852  1.00  0.00    -0.095 C  
HETATM   19  H2  UNL     1     -10.325   2.162  69.161  1.00  0.00     0.000 HD 
HETATM   20  H1  UNL     1      -8.797   1.503  69.451  1.00  0.00     0.000 HD 
HETATM   21  C   UNL     1      -7.757   4.841  67.365  1.00  0.00    -0.090 C  
HETATM   22  N   UNL     1      -7.188   4.678  66.023  1.00  0.00    -0.075 NA 
HETATM   23  C   UNL     1      -8.800   5.975  67.384  1.00  0.00    -0.106 C  
HETATM   24  C   UNL     1      -9.451   6.027  68.802  1.00  0.00    -0.125 C  
HETATM   25  O   UNL     1     -10.631   6.863  68.748  1.00  0.00    -0.202 OA 
HETATM   26  H1  UNL     1      -6.778   5.554  65.699  1.00  0.00     0.000 HD 
HETATM   27  H2  UNL     1      -7.874   4.314  65.362  1.00  0.00     0.000 HD 
HETATM   28  H   UNL     1     -10.438   7.643  68.241  1.00  0.00     0.000 HD 
BRANCH  23  29
HETATM   29  O   UNL     1      -8.138   7.260  67.199  1.00  0.00    -0.111 OA 
BRANCH  29  30
HETATM   30  C   UNL     1      -8.448   8.139  66.099  1.00  0.00    -0.136 C  
HETATM   31  O   UNL     1      -7.428   8.266  65.104  1.00  0.00    -0.078 OA 
HETATM   32  C   UNL     1      -7.871   9.037  63.977  1.00  0.00    -0.133 C  
HETATM   33  C   UNL     1      -8.234  10.502  64.340  1.00  0.00    -0.068 C  
HETATM   34  C   UNL     1      -9.352  10.479  65.418  1.00  0.00    -0.211 C  
HETATM   35  O   UNL     1      -7.066  11.150  64.867  1.00  0.00    -0.129 OA 
HETATM   36  C   UNL     1      -8.656  11.240  63.061  1.00  0.00     0.019 C  
HETATM   37  H   UNL     1     -10.423  10.268  67.778  1.00  0.00     0.000 HD 
HETATM   38  H   UNL     1      -7.288  12.047  65.089  1.00  0.00     0.000 HD 
HETATM   39  C   UNL     1      -8.957   9.540  66.609  1.00  0.00    -0.146 C  
HETATM   40  O   UNL     1     -10.116   9.424  67.470  1.00  0.00    -0.187 OA 
BRANCH  34  41
HETATM   41  N   UNL     1      -9.951  11.768  65.882  1.00  0.00    -0.229 NA 
HETATM   42  C   UNL     1      -9.255  12.501  66.924  1.00  0.00    -0.211 C  
HETATM   43  H   UNL     1     -10.820  12.120  65.479  1.00  0.00     0.000 HD 
ENDBRANCH  34  41
ENDBRANCH  29  30
ENDBRANCH  23  29
ENDBRANCH  14  15
ENDBRANCH   9  14
ENDBRANCH   4   5
ENDBRANCH   2   4
TORSDOF 7
ENDMDL
MODEL      256
REMARK 921   NORMALIZED FREE ENERGY PREDICTED BY IDOCK:   -3.45 KCAL/MOL
REMARK 922        TOTAL FREE ENERGY PREDICTED BY IDOCK:   -6.57 KCAL/MOL
REMARK 923 INTER-LIGAND FREE ENERGY PREDICTED BY IDOCK:   -6.87 KCAL/MOL
REMARK 924 INTRA-LIGAND FREE ENERGY PREDICTED BY IDOCK:    0.30 KCAL/MOL
REMARK 927      BINDING AFFINITY PREDICTED BY RF-SCORE:    0.00 PKD
ROOT
HETATM    1  C   UNL     1     -12.234  13.695  70.882  1.00  0.00    -0.328 C  
HETATM    2  N   UNL     1     -12.822  13.862  69.562  1.00  0.00    -0.118 NA 
HETATM    3  H   UNL     1     -13.755  14.266  69.633  1.00  0.00     0.000 HD 
ENDROOT
BRANCH   2   4
HETATM    4  C   UNL     1     -11.990  14.644  68.635  1.00  0.00    -0.270 C  
BRANCH   4   5
HETATM    5  C   UNL     1     -11.561  13.917  67.331  1.00  0.00    -0.368 C  
HETATM    6  C   UNL     1     -12.651  13.854  66.276  1.00  0.00    -0.376 C  
HETATM    7  C   UNL     1     -12.097  13.166  65.028  1.00  0.00    -0.458 C  
HETATM    8  C   UNL     1     -11.334  11.864  65.353  1.00  0.00    -0.277 C  
HETATM    9  C   UNL     1     -10.408  11.947  66.650  1.00  0.00    -0.211 C  
HETATM   10  N   UNL     1     -10.702  11.350  64.115  1.00  0.00    -0.352 NA 
HETATM   11  O   UNL     1     -11.180  12.565  67.675  1.00  0.00    -0.250 OA 
HETATM   12  H1  UNL     1     -10.198  10.490  64.330  1.00  0.00     0.000 HD 
HETATM   13  H2  UNL     1     -10.107  12.046  63.665  1.00  0.00     0.000 HD 
BRANCH   9  14
HETATM   14  O   UNL     1      -9.114  12.571  66.480  1.00  0.00    -0.226 OA 
BRANCH  14  15
HETATM   15  C   UNL     1      -7.963  12.070  67.282  1.00  0.00    -0.174 C  
HETATM   16  C   UNL     1      -8.315  10.941  68.290  1.00  0.00    -0.129 C  
HETATM   17  N   UNL     1      -8.576   9.673  67.578  1.00  0.00    -0.125 NA 
HETATM   18  C   UNL     1      -7.174  10.673  69.292  1.00  0.00    -0.113 C  
HETATM   19  H2  UNL     1      -7.798   9.411  66.972  1.00  0.00     0.000 HD 
HETATM   20  H1  UNL     1      -8.807   8.933  68.239  1.00  0.00     0.000 HD 
HETATM   21  C   UNL     1      -6.744  11.934  70.058  1.00  0.00     0.239 C  
HETATM   22  N   UNL     1      -5.810  11.588  71.135  1.00  0.00    -0.406 NA 
HETATM   23  C   UNL     1      -6.120  12.970  69.104  1.00  0.00    -0.095 C  
HETATM   24  C   UNL     1      -7.108  13.213  67.920  1.00  0.00    -0.129 C  
HETATM   25  O   UNL     1      -6.419  13.933  66.871  1.00  0.00    -0.230 OA 
HETATM   26  H1  UNL     1      -5.525  12.424  71.643  1.00  0.00     0.000 HD 
HETATM   27  H2  UNL     1      -5.007  11.064  70.787  1.00  0.00     0.000 HD 
HETATM   28  H   UNL     1      -5.899  14.628  67.259  1.00  0.00     0.000 HD 
BRANCH  23  29
HETATM   29  O   UNL     1      -5.985  14.252  69.784  1.00  0.00    -0.104 OA 
BRANCH  29  30
HETATM   30  C   UNL     1      -6.996  15.278  69.709  1.00  0.00    -0.168 C  
HETATM   31  O   UNL     1      -8.276  14.850  69.237  1.00  0.00    -0.172 OA 
HETATM   32  C   UNL     1      -9.259  15.892  69.332  1.00  0.00    -0.235 C  
HETATM   33  C   UNL     1      -8.926  17.132  68.460  1.00  0.00    -0.265 C  
HETATM   34  C   UNL     1      -7.544  17.687  68.902  1.00  0.00    -0.219 C  
HETATM   35  O   UNL     1      -8.867  16.726  67.083  1.00  0.00    -0.193 OA 
HETATM   36  C   UNL     1     -10.056  18.161  68.608  1.00  0.00    -0.406 C  
HETATM   37  H   UNL     1      -4.955  17.861  69.065  1.00  0.00     0.000 HD 
HETATM   38  H   UNL     1      -8.663  17.485  66.550  1.00  0.00     0.000 HD 
HETATM   39  C   UNL     1      -6.470  16.546  68.935  1.00  0.00    -0.163 C  
HETATM   40  O   UNL     1      -5.271  17.097  69.532  1.00  0.00    -0.150 OA 
BRANCH  34  41
HETATM   41  N   UNL     1      -7.023  18.942  68.278  1.00  0.00    -0.243 NA 
HETATM   42  C   UNL     1      -6.996  20.143  69.093  1.00  0.00    -0.152 C  
HETATM   43  H   UNL     1      -6.697  18.953  67.311  1.00  0.00     0.000 HD 
ENDBRANCH  34  41
ENDBRANCH  29  30
ENDBRANCH  23  29
ENDBRANCH  14  15
ENDBRANCH   9  14
ENDBRANCH   4   5
ENDBRANCH   2   4
TORSDOF 7
ENDMDL
MODEL      257
REMARK 921   NORMALIZED FREE ENERGY PREDICTED BY IDOCK:   -3.43 KCAL/MOL
REMARK 922        TOTAL FREE ENERGY PREDICTED BY IDOCK:   -6.54 KCAL/MOL
REMARK 923 INTER-LIGAND FREE ENERGY PREDICTED BY IDOCK:   -5.91 KCAL/MOL
REMARK 924 INTRA-LIGAND FREE ENERGY PREDICTED BY IDOCK:   -0.63 KCAL/MOL
REMARK 927      BINDING AFFINITY PREDICTED BY RF-SCORE:    0.00 PKD
ROOT
HETATM    1  C   UNL     1     -11.830   7.180  71.857  1.00  0.00    -0.300 C  
HETATM    2  N   UNL     1     -11.779   8.587  72.225  1.00  0.00    -0.371 NA 
HETATM    3  H   UNL     1     -10.879   8.992  71.967  1.00  0.00     0.000 HD 
ENDROOT
BRANCH   2   4
HETATM    4  C   UNL     1     -12.884   9.387  71.677  1.00  0.00    -0.378 C  
BRANCH   4   5
HETATM    5  C   UNL     1     -12.496  10.777  71.105  1.00  0.00    -0.414 C  
HETATM    6  C   UNL     1     -13.053  11.946  71.897  1.00  0.00    -0.474 C  
HETATM    7  C   UNL     1     -12.564  13.251  71.271  1.00  0.00    -0.398 C  
HETATM    8  C   UNL     1     -12.731  13.277  69.736  1.00  0.00     0.317 C  
HETATM    9  C   UNL     1     -12.372  11.904  69.009  1.00  0.00     0.149 C  
HETATM   10  N   UNL     1     -12.094  14.503  69.200  1.00  0.00    -0.483 NA 
HETATM   11  O   UNL     1     -12.999  10.862  69.751  1.00  0.00    -0.121 OA 
HETATM   12  H1  UNL     1     -12.205  14.520  68.187  1.00  0.00     0.000 HD 
HETATM   13  H2  UNL     1     -11.118  14.589  69.485  1.00  0.00     0.000 HD 
BRANCH   9  14
HETATM   14  O   UNL     1     -10.968  11.646  68.774  1.00  0.00    -0.202 OA 
BRANCH  14  15
HETATM   15  C   UNL     1     -10.393  11.963  67.437  1.00  0.00    -0.207 C  
HETATM   16  C   UNL     1     -11.396  11.857  66.256  1.00  0.00    -0.334 C  
HETATM   17  N   UNL     1     -12.354  12.981  66.286  1.00  0.00    -0.452 NA 
HETATM   18  C   UNL     1     -10.693  11.897  64.883  1.00  0.00    -0.350 C  
HETATM   19  H2  UNL     1     -11.879  13.884  66.300  1.00  0.00     0.000 HD 
HETATM   20  H1  UNL     1     -13.013  12.911  65.511  1.00  0.00     0.000 HD 
HETATM   21  C   UNL     1      -9.607  10.819  64.738  1.00  0.00    -0.262 C  
HETATM   22  N   UNL     1      -9.118  10.765  63.356  1.00  0.00    -0.218 NA 
HETATM   23  C   UNL     1      -8.448  11.072  65.720  1.00  0.00    -0.119 C  
HETATM   24  C   UNL     1      -9.039  11.233  67.155  1.00  0.00    -0.157 C  
HETATM   25  O   UNL     1      -8.018  11.772  68.028  1.00  0.00    -0.125 OA 
HETATM   26  H1  UNL     1      -8.398  10.050  63.259  1.00  0.00     0.000 HD 
HETATM   27  H2  UNL     1      -8.793  11.677  63.033  1.00  0.00     0.000 HD 
HETATM   28  H   UNL     1      -7.195  11.328  67.857  1.00  0.00     0.000 HD 
BRANCH  23  29
HETATM   29  O   UNL     1      -7.579   9.903  65.773  1.00  0.00    -0.104 OA 
BRANCH  29  30
HETATM   30  C   UNL     1      -7.575   8.991  66.890  1.00  0.00    -0.094 C  
HETATM   31  O   UNL     1      -6.322   8.842  67.561  1.00  0.00    -0.055 OA 
HETATM   32  C   UNL     1      -6.438   8.036  68.744  1.00  0.00    -0.049 C  
HETATM   33  C   UNL     1      -6.890   6.581  68.453  1.00  0.00    -0.071 C  
HETATM   34  C   UNL     1      -8.263   6.628  67.726  1.00  0.00    -0.119 C  
HETATM   35  O   UNL     1      -5.914   5.954  67.605  1.00  0.00    -0.016 OA 
HETATM   36  C   UNL     1      -6.944   5.804  69.777  1.00  0.00    -0.066 C  
HETATM   37  H   UNL     1      -9.943   6.899  65.760  1.00  0.00     0.000 HD 
HETATM   38  H   UNL     1      -6.191   5.063  67.427  1.00  0.00     0.000 HD 
HETATM   39  C   UNL     1      -8.209   7.603  66.500  1.00  0.00    -0.125 C  
HETATM   40  O   UNL     1      -9.560   7.736  65.996  1.00  0.00    -0.087 OA 
BRANCH  34  41
HETATM   41  N   UNL     1      -8.969   5.349  67.408  1.00  0.00    -0.109 NA 
HETATM   42  C   UNL     1      -8.671   4.708  66.139  1.00  0.00    -0.114 C  
HETATM   43  H   UNL     1      -9.638   4.941  68.061  1.00  0.00     0.000 HD 
ENDBRANCH  34  41
ENDBRANCH  29  30
ENDBRANCH  23  29
ENDBRANCH  14  15
ENDBRANCH   9  14
ENDBRANCH   4   5
ENDBRANCH   2   4
TORSDOF 7
ENDMDL
MODEL      258
REMARK 921   NORMALIZED FREE ENERGY PREDICTED BY IDOCK:   -3.41 KCAL/MOL
REMARK 922        TOTAL FREE ENERGY PREDICTED BY IDOCK:   -6.51 KCAL/MOL
REMARK 923 INTER-LIGAND FREE ENERGY PREDICTED BY IDOCK:   -6.15 KCAL/MOL
REMARK 924 INTRA-LIGAND FREE ENERGY PREDICTED BY IDOCK:   -0.36 KCAL/MOL
REMARK 927      BINDING AFFINITY PREDICTED BY RF-SCORE:    0.00 PKD
ROOT
HETATM    1  C   UNL     1     -10.357  20.453  69.767  1.00  0.00     0.482 C  
HETATM    2  N   UNL     1     -10.361  19.391  68.772  1.00  0.00    -0.539 NA 
HETATM    3  H   UNL     1     -10.348  19.783  67.830  1.00  0.00     0.000 HD 
ENDROOT
BRANCH   2   4
HETATM    4  C   UNL     1      -9.276  18.413  68.941  1.00  0.00    -0.178 C  
BRANCH   4   5
HETATM    5  C   UNL     1      -9.274  17.223  67.943  1.00  0.00    -0.247 C  
HETATM    6  C   UNL     1      -8.227  17.339  66.850  1.00  0.00    -0.256 C  
HETATM    7  C   UNL     1      -8.289  16.093  65.967  1.00  0.00    -0.050 C  
HETATM    8  C   UNL     1      -9.730  15.729  65.548  1.00  0.00    -0.220 C  
HETATM    9  C   UNL     1     -10.816  15.896  66.703  1.00  0.00    -0.213 C  
HETATM   10  N   UNL     1      -9.712  14.432  64.831  1.00  0.00    -0.407 NA 
HETATM   11  O   UNL     1     -10.579  17.158  67.321  1.00  0.00    -0.325 OA 
HETATM   12  H1  UNL     1     -10.664  14.192  64.554  1.00  0.00     0.000 HD 
HETATM   13  H2  UNL     1      -9.269  13.693  65.377  1.00  0.00     0.000 HD 
BRANCH   9  14
HETATM   14  O   UNL     1     -10.907  14.819  67.665  1.00  0.00    -0.272 OA 
BRANCH  14  15
HETATM   15  C   UNL     1     -10.647  13.425  67.210  1.00  0.00    -0.255 C  
HETATM   16  C   UNL     1     -11.912  12.635  66.776  1.00  0.00    -0.292 C  
HETATM   17  N   UNL     1     -12.414  13.134  65.479  1.00  0.00    -0.470 NA 
HETATM   18  C   UNL     1     -11.634  11.128  66.606  1.00  0.00     0.243 C  
HETATM   19  H2  UNL     1     -11.691  13.115  64.760  1.00  0.00     0.000 HD 
HETATM   20  H1  UNL     1     -13.245  12.616  65.194  1.00  0.00     0.000 HD 
HETATM   21  C   UNL     1     -11.032  10.487  67.866  1.00  0.00    -0.295 C  
HETATM   22  N   UNL     1     -10.981   9.027  67.726  1.00  0.00    -0.496 NA 
HETATM   23  C   UNL     1      -9.632  11.059  68.159  1.00  0.00    -0.171 C  
HETATM   24  C   UNL     1      -9.728  12.617  68.184  1.00  0.00    -0.219 C  
HETATM   25  O   UNL     1      -8.392  13.172  68.147  1.00  0.00    -0.148 OA 
HETATM   26  H1  UNL     1     -10.582   8.602  68.563  1.00  0.00     0.000 HD 
HETATM   27  H2  UNL     1     -10.482   8.745  66.883  1.00  0.00     0.000 HD 
HETATM   28  H   UNL     1      -7.833  12.681  68.738  1.00  0.00     0.000 HD 
BRANCH  23  29
HETATM   29  O   UNL     1      -9.203  10.662  69.494  1.00  0.00    -0.115 OA 
BRANCH  29  30
HETATM   30  C   UNL     1      -8.589   9.385  69.761  1.00  0.00    -0.175 C  
HETATM   31  O   UNL     1      -8.176   8.645  68.609  1.00  0.00    -0.118 OA 
HETATM   32  C   UNL     1      -7.445   7.461  68.964  1.00  0.00    -0.100 C  
HETATM   33  C   UNL     1      -8.282   6.448  69.788  1.00  0.00    -0.126 C  
HETATM   34  C   UNL     1      -8.776   7.153  71.081  1.00  0.00    -0.133 C  
HETATM   35  O   UNL     1      -9.410   6.031  69.001  1.00  0.00    -0.124 OA 
HETATM   36  C   UNL     1      -7.418   5.211  70.078  1.00  0.00    -0.063 C  
HETATM   37  H   UNL     1     -10.258   8.673  72.583  1.00  0.00     0.000 HD 
HETATM   38  H   UNL     1      -9.922   5.411  69.506  1.00  0.00     0.000 HD 
HETATM   39  C   UNL     1      -9.467   8.518  70.739  1.00  0.00    -0.178 C  
HETATM   40  O   UNL     1      -9.727   9.196  71.993  1.00  0.00    -0.283 OA 
BRANCH  34  41
HETATM   41  N   UNL     1      -9.536   6.368  72.101  1.00  0.00    -0.150 NA 
HETATM   42  C   UNL     1     -10.969   6.220  71.912  1.00  0.00    -0.256 C  
HETATM   43  H   UNL     1      -9.064   5.950  72.903  1.00  0.00     0.000 HD 
ENDBRANCH  34  41
ENDBRANCH  29  30
ENDBRANCH  23  29
ENDBRANCH  14  15
ENDBRANCH   9  14
ENDBRANCH   4   5
ENDBRANCH   2   4
TORSDOF 7
ENDMDL
MODEL      259
REMARK 921   NORMALIZED FREE ENERGY PREDICTED BY IDOCK:   -3.40 KCAL/MOL
REMARK 922        TOTAL FREE ENERGY PREDICTED BY IDOCK:   -6.50 KCAL/MOL
REMARK 923 INTER-LIGAND FREE ENERGY PREDICTED BY IDOCK:   -6.74 KCAL/MOL
REMARK 924 INTRA-LIGAND FREE ENERGY PREDICTED BY IDOCK:    0.25 KCAL/MOL
REMARK 927      BINDING AFFINITY PREDICTED BY RF-SCORE:    0.00 PKD
ROOT
HETATM    1  C   UNL     1      -6.928   5.241  66.871  1.00  0.00    -0.065 C  
HETATM    2  N   UNL     1      -6.854   6.653  67.214  1.00  0.00    -0.070 NA 
HETATM    3  H   UNL     1      -6.182   7.132  66.614  1.00  0.00     0.000 HD 
ENDROOT
BRANCH   2   4
HETATM    4  C   UNL     1      -8.153   7.341  67.188  1.00  0.00    -0.114 C  
BRANCH   4   5
HETATM    5  C   UNL     1      -8.403   8.272  65.970  1.00  0.00    -0.128 C  
HETATM    6  C   UNL     1      -7.312   8.212  64.916  1.00  0.00    -0.087 C  
HETATM    7  C   UNL     1      -7.694   9.126  63.752  1.00  0.00    -0.119 C  
HETATM    8  C   UNL     1      -8.168  10.520  64.218  1.00  0.00    -0.062 C  
HETATM    9  C   UNL     1      -9.105  10.501  65.508  1.00  0.00    -0.186 C  
HETATM   10  N   UNL     1      -8.662  11.280  63.046  1.00  0.00    -0.481 NA 
HETATM   11  O   UNL     1      -8.494   9.631  66.457  1.00  0.00    -0.122 OA 
HETATM   12  H1  UNL     1      -8.975  12.200  63.354  1.00  0.00     0.000 HD 
HETATM   13  H2  UNL     1      -9.385  10.776  62.533  1.00  0.00     0.000 HD 
BRANCH   9  14
HETATM   14  O   UNL     1     -10.500  10.185  65.289  1.00  0.00    -0.193 OA 
BRANCH  14  15
HETATM   15  C   UNL     1     -11.485  11.299  65.207  1.00  0.00     0.196 C  
HETATM   16  C   UNL     1     -11.433  12.119  63.889  1.00  0.00    -0.440 C  
HETATM   17  N   UNL     1     -11.989  11.334  62.767  1.00  0.00    -0.440 NA 
HETATM   18  C   UNL     1     -12.248  13.425  63.977  1.00  0.00    -0.466 C  
HETATM   19  H2  UNL     1     -12.931  11.000  62.968  1.00  0.00     0.000 HD 
HETATM   20  H1  UNL     1     -11.954  11.872  61.902  1.00  0.00     0.000 HD 
HETATM   21  C   UNL     1     -11.824  14.315  65.155  1.00  0.00    -0.384 C  
HETATM   22  N   UNL     1     -12.479  15.625  65.073  1.00  0.00     0.574 NA 
HETATM   23  C   UNL     1     -12.135  13.630  66.500  1.00  0.00    -0.423 C  
HETATM   24  C   UNL     1     -11.510  12.200  66.485  1.00  0.00    -0.369 C  
HETATM   25  O   UNL     1     -12.047  11.439  67.593  1.00  0.00    -0.630 OA 
HETATM   26  H1  UNL     1     -12.198  16.215  65.855  1.00  0.00     0.000 HD 
HETATM   27  H2  UNL     1     -13.494  15.537  65.010  1.00  0.00     0.000 HD 
HETATM   28  H   UNL     1     -12.061  11.987  68.369  1.00  0.00     0.000 HD 
BRANCH  23  29
HETATM   29  O   UNL     1     -11.475  14.345  67.585  1.00  0.00    -0.311 OA 
BRANCH  29  30
HETATM   30  C   UNL     1     -10.367  15.240  67.360  1.00  0.00    -0.256 C  
HETATM   31  O   UNL     1      -9.701  15.095  66.103  1.00  0.00    -0.269 OA 
HETATM   32  C   UNL     1      -8.710  16.115  65.898  1.00  0.00    -0.091 C  
HETATM   33  C   UNL     1      -7.565  16.075  66.944  1.00  0.00    -0.233 C  
HETATM   34  C   UNL     1      -8.184  16.237  68.359  1.00  0.00    -0.185 C  
HETATM   35  O   UNL     1      -6.896  14.807  66.849  1.00  0.00    -0.294 OA 
HETATM   36  C   UNL     1      -6.549  17.178  66.609  1.00  0.00    -0.272 C  
HETATM   37  H   UNL     1      -9.393  15.548  70.556  1.00  0.00     0.000 HD 
HETATM   38  H   UNL     1      -6.194  14.783  67.489  1.00  0.00     0.000 HD 
HETATM   39  C   UNL     1      -9.360  15.222  68.571  1.00  0.00    -0.200 C  
HETATM   40  O   UNL     1     -10.000  15.559  69.825  1.00  0.00    -0.274 OA 
BRANCH  34  41
HETATM   41  N   UNL     1      -7.283  16.322  69.549  1.00  0.00    -0.183 NA 
HETATM   42  C   UNL     1      -6.510  15.143  69.899  1.00  0.00    -0.171 C  
HETATM   43  H   UNL     1      -7.213  17.180  70.097  1.00  0.00     0.000 HD 
ENDBRANCH  34  41
ENDBRANCH  29  30
ENDBRANCH  23  29
ENDBRANCH  14  15
ENDBRANCH   9  14
ENDBRANCH   4   5
ENDBRANCH   2   4
TORSDOF 7
ENDMDL
MODEL      260
REMARK 921   NORMALIZED FREE ENERGY PREDICTED BY IDOCK:   -3.38 KCAL/MOL
REMARK 922        TOTAL FREE ENERGY PREDICTED BY IDOCK:   -6.48 KCAL/MOL
REMARK 923 INTER-LIGAND FREE ENERGY PREDICTED BY IDOCK:   -7.56 KCAL/MOL
REMARK 924 INTRA-LIGAND FREE ENERGY PREDICTED BY IDOCK:    1.08 KCAL/MOL
REMARK 927      BINDING AFFINITY PREDICTED BY RF-SCORE:    0.00 PKD
ROOT
HETATM    1  C   UNL     1      -9.971  11.016  69.684  1.00  0.00     0.246 C  
HETATM    2  N   UNL     1     -10.176   9.844  70.522  1.00  0.00    -0.370 NA 
HETATM    3  H   UNL     1     -11.172   9.651  70.629  1.00  0.00     0.000 HD 
ENDROOT
BRANCH   2   4
HETATM    4  C   UNL     1      -9.464   8.646  70.055  1.00  0.00    -0.166 C  
BRANCH   4   5
HETATM    5  C   UNL     1      -9.349   8.482  68.515  1.00  0.00    -0.138 C  
HETATM    6  C   UNL     1      -9.953   7.194  67.986  1.00  0.00    -0.184 C  
HETATM    7  C   UNL     1      -9.825   7.172  66.463  1.00  0.00    -0.189 C  
HETATM    8  C   UNL     1      -8.412   7.555  65.977  1.00  0.00    -0.148 C  
HETATM    9  C   UNL     1      -7.742   8.762  66.778  1.00  0.00    -0.094 C  
HETATM   10  N   UNL     1      -8.420   7.660  64.499  1.00  0.00    -0.372 NA 
HETATM   11  O   UNL     1      -7.945   8.506  68.164  1.00  0.00    -0.108 OA 
HETATM   12  H1  UNL     1      -7.486   7.913  64.177  1.00  0.00     0.000 HD 
HETATM   13  H2  UNL     1      -9.135   8.303  64.159  1.00  0.00     0.000 HD 
BRANCH   9  14
HETATM   14  O   UNL     1      -8.151  10.096  66.396  1.00  0.00    -0.117 OA 
BRANCH  14  15
HETATM   15  C   UNL     1      -9.192  10.256  65.343  1.00  0.00    -0.193 C  
HETATM   16  C   UNL     1      -8.670  10.821  63.994  1.00  0.00    -0.071 C  
HETATM   17  N   UNL     1      -7.875   9.802  63.277  1.00  0.00    -0.132 NA 
HETATM   18  C   UNL     1      -9.817  11.246  63.053  1.00  0.00    -0.370 C  
HETATM   19  H2  UNL     1      -8.398   8.936  63.148  1.00  0.00     0.000 HD 
HETATM   20  H1  UNL     1      -7.533  10.173  62.392  1.00  0.00     0.000 HD 
HETATM   21  C   UNL     1     -10.775  12.257  63.701  1.00  0.00    -0.467 C  
HETATM   22  N   UNL     1     -11.717  12.783  62.706  1.00  0.00    -0.550 NA 
HETATM   23  C   UNL     1     -11.527  11.621  64.885  1.00  0.00    -0.136 C  
HETATM   24  C   UNL     1     -10.481  10.980  65.850  1.00  0.00    -0.240 C  
HETATM   25  O   UNL     1     -11.171  10.122  66.790  1.00  0.00    -0.010 OA 
HETATM   26  H1  UNL     1     -12.353  13.454  63.136  1.00  0.00     0.000 HD 
HETATM   27  H2  UNL     1     -12.221  12.035  62.229  1.00  0.00     0.000 HD 
HETATM   28  H   UNL     1     -11.954  10.562  67.098  1.00  0.00     0.000 HD 
BRANCH  23  29
HETATM   29  O   UNL     1     -12.205  12.655  65.656  1.00  0.00    -0.512 OA 
BRANCH  29  30
HETATM   30  C   UNL     1     -11.549  13.874  66.060  1.00  0.00    -0.349 C  
HETATM   31  O   UNL     1     -10.513  14.335  65.189  1.00  0.00    -0.360 OA 
HETATM   32  C   UNL     1     -10.014  15.624  65.582  1.00  0.00    -0.354 C  
HETATM   33  C   UNL     1      -9.359  15.625  66.988  1.00  0.00    -0.226 C  
HETATM   34  C   UNL     1     -10.413  15.144  68.023  1.00  0.00    -0.247 C  
HETATM   35  O   UNL     1      -8.242  14.721  66.979  1.00  0.00    -0.223 OA 
HETATM   36  C   UNL     1      -8.831  17.036  67.289  1.00  0.00    -0.221 C  
HETATM   37  H   UNL     1     -11.880  13.476  69.374  1.00  0.00     0.000 HD 
HETATM   38  H   UNL     1      -7.841  14.722  67.840  1.00  0.00     0.000 HD 
HETATM   39  C   UNL     1     -11.074  13.801  67.560  1.00  0.00    -0.278 C  
HETATM   40  O   UNL     1     -12.166  13.520  68.470  1.00  0.00    -0.320 OA 
BRANCH  34  41
HETATM   41  N   UNL     1     -10.065  15.137  69.477  1.00  0.00    -0.323 NA 
HETATM   42  C   UNL     1     -11.100  15.515  70.423  1.00  0.00    -0.337 C  
HETATM   43  H   UNL     1      -9.131  14.876  69.793  1.00  0.00     0.000 HD 
ENDBRANCH  34  41
ENDBRANCH  29  30
ENDBRANCH  23  29
ENDBRANCH  14  15
ENDBRANCH   9  14
ENDBRANCH   4   5
ENDBRANCH   2   4
TORSDOF 7
ENDMDL
MODEL      261
REMARK 921   NORMALIZED FREE ENERGY PREDICTED BY IDOCK:   -3.29 KCAL/MOL
REMARK 922        TOTAL FREE ENERGY PREDICTED BY IDOCK:   -6.34 KCAL/MOL
REMARK 923 INTER-LIGAND FREE ENERGY PREDICTED BY IDOCK:   -5.84 KCAL/MOL
REMARK 924 INTRA-LIGAND FREE ENERGY PREDICTED BY IDOCK:   -0.50 KCAL/MOL
REMARK 927      BINDING AFFINITY PREDICTED BY RF-SCORE:    0.00 PKD
ROOT
HETATM    1  C   UNL     1      -6.739  10.455  68.119  1.00  0.00    -0.061 C  
HETATM    2  N   UNL     1      -6.082  11.086  66.984  1.00  0.00    -0.072 NA 
HETATM    3  H   UNL     1      -5.269  10.543  66.693  1.00  0.00     0.000 HD 
ENDROOT
BRANCH   2   4
HETATM    4  C   UNL     1      -6.974  11.334  65.842  1.00  0.00     0.222 C  
BRANCH   4   5
HETATM    5  C   UNL     1      -8.474  11.542  66.186  1.00  0.00    -0.060 C  
HETATM    6  C   UNL     1      -9.413  11.278  65.023  1.00  0.00    -0.237 C  
HETATM    7  C   UNL     1     -10.855  11.464  65.495  1.00  0.00    -0.282 C  
HETATM    8  C   UNL     1     -11.056  12.766  66.301  1.00  0.00    -0.288 C  
HETATM    9  C   UNL     1      -9.874  13.102  67.318  1.00  0.00    -0.232 C  
HETATM   10  N   UNL     1     -12.433  12.788  66.848  1.00  0.00    -0.185 NA 
HETATM   11  O   UNL     1      -8.650  12.912  66.613  1.00  0.00    -0.121 OA 
HETATM   12  H1  UNL     1     -12.566  13.648  67.381  1.00  0.00     0.000 HD 
HETATM   13  H2  UNL     1     -12.647  11.955  67.397  1.00  0.00     0.000 HD 
BRANCH   9  14
HETATM   14  O   UNL     1      -9.895  12.405  68.586  1.00  0.00    -0.178 OA 
BRANCH  14  15
HETATM   15  C   UNL     1     -11.208  12.025  69.176  1.00  0.00    -0.246 C  
HETATM   16  C   UNL     1     -11.730  12.990  70.277  1.00  0.00    -0.114 C  
HETATM   17  N   UNL     1     -12.187  14.261  69.678  1.00  0.00    -0.403 NA 
HETATM   18  C   UNL     1     -12.923  12.400  71.057  1.00  0.00    -0.151 C  
HETATM   19  H2  UNL     1     -12.883  14.107  68.948  1.00  0.00     0.000 HD 
HETATM   20  H1  UNL     1     -12.529  14.894  70.400  1.00  0.00     0.000 HD 
HETATM   21  C   UNL     1     -12.611  11.029  71.676  1.00  0.00    -0.297 C  
HETATM   22  N   UNL     1     -13.695  10.611  72.572  1.00  0.00    -0.295 NA 
HETATM   23  C   UNL     1     -12.367   9.974  70.581  1.00  0.00    -0.253 C  
HETATM   24  C   UNL     1     -11.288  10.521  69.596  1.00  0.00    -0.281 C  
HETATM   25  O   UNL     1     -11.272   9.695  68.408  1.00  0.00    -0.487 OA 
HETATM   26  H1  UNL     1     -13.489   9.701  72.983  1.00  0.00     0.000 HD 
HETATM   27  H2  UNL     1     -14.600  10.617  72.100  1.00  0.00     0.000 HD 
HETATM   28  H   UNL     1     -11.320   8.781  68.662  1.00  0.00     0.000 HD 
BRANCH  23  29
HETATM   29  O   UNL     1     -11.798   8.769  71.171  1.00  0.00    -0.287 OA 
BRANCH  29  30
HETATM   30  C   UNL     1     -10.481   8.743  71.758  1.00  0.00    -0.346 C  
HETATM   31  O   UNL     1      -9.395   8.926  70.846  1.00  0.00    -0.194 OA 
HETATM   32  C   UNL     1      -8.135   9.033  71.526  1.00  0.00     0.016 C  
HETATM   33  C   UNL     1      -7.755   7.755  72.320  1.00  0.00    -0.099 C  
HETATM   34  C   UNL     1      -8.876   7.469  73.357  1.00  0.00    -0.192 C  
HETATM   35  O   UNL     1      -7.651   6.655  71.403  1.00  0.00    -0.090 OA 
HETATM   36  C   UNL     1      -6.380   7.967  72.972  1.00  0.00    -0.070 C  
HETATM   37  H   UNL     1     -11.159   6.623  74.269  1.00  0.00     0.000 HD 
HETATM   38  H   UNL     1      -7.418   5.873  71.889  1.00  0.00     0.000 HD 
HETATM   39  C   UNL     1     -10.284   7.473  72.669  1.00  0.00    -0.245 C  
HETATM   40  O   UNL     1     -11.278   7.389  73.720  1.00  0.00    -0.074 OA 
BRANCH  34  41
HETATM   41  N   UNL     1      -8.714   6.336  74.319  1.00  0.00    -0.122 NA 
HETATM   42  C   UNL     1      -9.134   5.015  73.886  1.00  0.00    -0.112 C  
HETATM   43  H   UNL     1      -8.321   6.487  75.249  1.00  0.00     0.000 HD 
ENDBRANCH  34  41
ENDBRANCH  29  30
ENDBRANCH  23  29
ENDBRANCH  14  15
ENDBRANCH   9  14
ENDBRANCH   4   5
ENDBRANCH   2   4
TORSDOF 7
ENDMDL
MODEL      262
REMARK 921   NORMALIZED FREE ENERGY PREDICTED BY IDOCK:   -3.29 KCAL/MOL
REMARK 922        TOTAL FREE ENERGY PREDICTED BY IDOCK:   -6.34 KCAL/MOL
REMARK 923 INTER-LIGAND FREE ENERGY PREDICTED BY IDOCK:   -6.34 KCAL/MOL
REMARK 924 INTRA-LIGAND FREE ENERGY PREDICTED BY IDOCK:    0.00 KCAL/MOL
REMARK 927      BINDING AFFINITY PREDICTED BY RF-SCORE:    0.00 PKD
ROOT
HETATM    1  C   UNL     1      -9.099   5.773  65.633  1.00  0.00    -0.071 C  
HETATM    2  N   UNL     1     -10.094   5.458  66.648  1.00  0.00    -0.193 NA 
HETATM    3  H   UNL     1     -10.976   5.186  66.213  1.00  0.00     0.000 HD 
ENDROOT
BRANCH   2   4
HETATM    4  C   UNL     1      -9.658   4.438  67.613  1.00  0.00    -0.166 C  
BRANCH   4   5
HETATM    5  C   UNL     1      -9.337   4.951  69.043  1.00  0.00    -0.129 C  
HETATM    6  C   UNL     1      -9.031   3.846  70.038  1.00  0.00    -0.165 C  
HETATM    7  C   UNL     1      -8.682   4.474  71.388  1.00  0.00    -0.140 C  
HETATM    8  C   UNL     1      -9.684   5.569  71.814  1.00  0.00    -0.163 C  
HETATM    9  C   UNL     1     -10.158   6.527  70.630  1.00  0.00    -0.185 C  
HETATM   10  N   UNL     1      -9.187   6.226  73.045  1.00  0.00    -0.133 NA 
HETATM   11  O   UNL     1     -10.483   5.692  69.522  1.00  0.00    -0.248 OA 
HETATM   12  H1  UNL     1      -9.849   6.949  73.327  1.00  0.00     0.000 HD 
HETATM   13  H2  UNL     1      -8.240   6.588  72.937  1.00  0.00     0.000 HD 
BRANCH   9  14
HETATM   14  O   UNL     1      -9.258   7.600  70.268  1.00  0.00    -0.156 OA 
BRANCH  14  15
HETATM   15  C   UNL     1      -8.945   7.822  68.828  1.00  0.00    -0.141 C  
HETATM   16  C   UNL     1      -7.491   8.284  68.542  1.00  0.00    -0.095 C  
HETATM   17  N   UNL     1      -6.543   7.168  68.739  1.00  0.00    -0.042 NA 
HETATM   18  C   UNL     1      -7.308   8.785  67.094  1.00  0.00    -0.080 C  
HETATM   19  H2  UNL     1      -6.798   6.352  68.182  1.00  0.00     0.000 HD 
HETATM   20  H1  UNL     1      -5.588   7.472  68.551  1.00  0.00     0.000 HD 
HETATM   21  C   UNL     1      -8.290   9.907  66.723  1.00  0.00    -0.125 C  
HETATM   22  N   UNL     1      -7.941  10.485  65.421  1.00  0.00    -0.204 NA 
HETATM   23  C   UNL     1      -9.741   9.390  66.722  1.00  0.00    -0.198 C  
HETATM   24  C   UNL     1     -10.018   8.686  68.088  1.00  0.00    -0.178 C  
HETATM   25  O   UNL     1     -11.249   7.933  67.989  1.00  0.00    -0.350 OA 
HETATM   26  H1  UNL     1      -8.593  11.230  65.174  1.00  0.00     0.000 HD 
HETATM   27  H2  UNL     1      -7.887   9.773  64.692  1.00  0.00     0.000 HD 
HETATM   28  H   UNL     1     -11.901   8.459  67.539  1.00  0.00     0.000 HD 
BRANCH  23  29
HETATM   29  O   UNL     1     -10.667  10.512  66.654  1.00  0.00    -0.224 OA 
BRANCH  29  30
HETATM   30  C   UNL     1     -10.223  11.884  66.674  1.00  0.00    -0.208 C  
HETATM   31  O   UNL     1     -10.394  12.570  67.917  1.00  0.00    -0.206 OA 
HETATM   32  C   UNL     1      -9.796  13.876  67.896  1.00  0.00    -0.228 C  
HETATM   33  C   UNL     1     -10.431  14.825  66.846  1.00  0.00    -0.277 C  
HETATM   34  C   UNL     1     -10.288  14.173  65.443  1.00  0.00    -0.365 C  
HETATM   35  O   UNL     1     -11.822  14.999  67.160  1.00  0.00    -0.288 OA 
HETATM   36  C   UNL     1      -9.744  16.196  66.937  1.00  0.00    -0.246 C  
HETATM   37  H   UNL     1     -10.834  12.592  63.452  1.00  0.00     0.000 HD 
HETATM   38  H   UNL     1     -12.210  15.581  66.517  1.00  0.00     0.000 HD 
HETATM   39  C   UNL     1     -10.815  12.696  65.460  1.00  0.00    -0.279 C  
HETATM   40  O   UNL     1     -10.477  12.102  64.183  1.00  0.00    -0.307 OA 
BRANCH  34  41
HETATM   41  N   UNL     1     -10.742  14.926  64.234  1.00  0.00    -0.408 NA 
HETATM   42  C   UNL     1     -11.564  16.105  64.439  1.00  0.00    -0.146 C  
HETATM   43  H   UNL     1     -10.482  14.621  63.295  1.00  0.00     0.000 HD 
ENDBRANCH  34  41
ENDBRANCH  29  30
ENDBRANCH  23  29
ENDBRANCH  14  15
ENDBRANCH   9  14
ENDBRANCH   4   5
ENDBRANCH   2   4
TORSDOF 7
ENDMDL
MODEL      263
REMARK 921   NORMALIZED FREE ENERGY PREDICTED BY IDOCK:   -3.28 KCAL/MOL
REMARK 922        TOTAL FREE ENERGY PREDICTED BY IDOCK:   -6.33 KCAL/MOL
REMARK 923 INTER-LIGAND FREE ENERGY PREDICTED BY IDOCK:   -6.23 KCAL/MOL
REMARK 924 INTRA-LIGAND FREE ENERGY PREDICTED BY IDOCK:   -0.10 KCAL/MOL
REMARK 927      BINDING AFFINITY PREDICTED BY RF-SCORE:    0.00 PKD
ROOT
HETATM    1  C   UNL     1      -9.939  19.281  68.742  1.00  0.00    -0.440 C  
HETATM    2  N   UNL     1      -9.309  18.491  67.696  1.00  0.00    -0.279 NA 
HETATM    3  H   UNL     1      -8.563  19.022  67.246  1.00  0.00     0.000 HD 
ENDROOT
BRANCH   2   4
HETATM    4  C   UNL     1      -8.811  17.185  68.153  1.00  0.00    -0.237 C  
BRANCH   4   5
HETATM    5  C   UNL     1      -9.719  15.965  67.841  1.00  0.00    -0.216 C  
HETATM    6  C   UNL     1     -11.154  16.132  68.307  1.00  0.00    -0.348 C  
HETATM    7  C   UNL     1     -11.956  14.896  67.899  1.00  0.00    -0.206 C  
HETATM    8  C   UNL     1     -11.237  13.575  68.246  1.00  0.00    -0.274 C  
HETATM    9  C   UNL     1      -9.666  13.587  67.968  1.00  0.00    -0.228 C  
HETATM   10  N   UNL     1     -12.005  12.442  67.680  1.00  0.00    -0.481 NA 
HETATM   11  O   UNL     1      -9.157  14.807  68.499  1.00  0.00    -0.175 OA 
HETATM   12  H1  UNL     1     -11.530  11.570  67.909  1.00  0.00     0.000 HD 
HETATM   13  H2  UNL     1     -12.167  12.544  66.678  1.00  0.00     0.000 HD 
BRANCH   9  14
HETATM   14  O   UNL     1      -9.250  13.364  66.600  1.00  0.00    -0.251 OA 
BRANCH  14  15
HETATM   15  C   UNL     1      -8.980  11.971  66.148  1.00  0.00    -0.079 C  
HETATM   16  C   UNL     1     -10.059  11.373  65.204  1.00  0.00    -0.271 C  
HETATM   17  N   UNL     1      -9.978  11.991  63.865  1.00  0.00    -0.485 NA 
HETATM   18  C   UNL     1      -9.893   9.851  65.013  1.00  0.00    -0.323 C  
HETATM   19  H2  UNL     1      -9.042  11.913  63.468  1.00  0.00     0.000 HD 
HETATM   20  H1  UNL     1     -10.686  11.599  63.246  1.00  0.00     0.000 HD 
HETATM   21  C   UNL     1      -9.884   9.080  66.342  1.00  0.00    -0.286 C  
HETATM   22  N   UNL     1      -9.932   7.634  66.098  1.00  0.00    -0.440 NA 
HETATM   23  C   UNL     1      -8.649   9.452  67.184  1.00  0.00    -0.128 C  
HETATM   24  C   UNL     1      -8.587  11.007  67.315  1.00  0.00    -0.130 C  
HETATM   25  O   UNL     1      -7.289  11.385  67.827  1.00  0.00    -0.090 OA 
HETATM   26  H1  UNL     1      -9.926   7.122  66.979  1.00  0.00     0.000 HD 
HETATM   27  H2  UNL     1      -9.182   7.329  65.477  1.00  0.00     0.000 HD 
HETATM   28  H   UNL     1      -7.050  10.799  68.536  1.00  0.00     0.000 HD 
BRANCH  23  29
HETATM   29  O   UNL     1      -8.802   8.941  68.540  1.00  0.00    -0.133 OA 
BRANCH  29  30
HETATM   30  C   UNL     1      -8.447   7.592  68.903  1.00  0.00    -0.129 C  
HETATM   31  O   UNL     1      -8.690   7.235  70.266  1.00  0.00    -0.144 OA 
HETATM   32  C   UNL     1      -8.449   5.839  70.508  1.00  0.00    -0.127 C  
HETATM   33  C   UNL     1      -6.975   5.421  70.261  1.00  0.00    -0.060 C  
HETATM   34  C   UNL     1      -6.607   5.759  68.790  1.00  0.00    -0.051 C  
HETATM   35  O   UNL     1      -6.128   6.160  71.155  1.00  0.00    -0.032 OA 
HETATM   36  C   UNL     1      -6.824   3.926  70.583  1.00  0.00    -0.033 C  
HETATM   37  H   UNL     1      -5.898   7.214  66.755  1.00  0.00     0.000 HD 
HETATM   38  H   UNL     1      -5.226   5.902  71.003  1.00  0.00     0.000 HD 
HETATM   39  C   UNL     1      -6.978   7.243  68.451  1.00  0.00    -0.079 C  
HETATM   40  O   UNL     1      -6.783   7.423  67.027  1.00  0.00    -0.064 OA 
BRANCH  34  41
HETATM   41  N   UNL     1      -5.263   5.372  68.262  1.00  0.00    -0.003 NA 
HETATM   42  C   UNL     1      -5.211   4.382  67.201  1.00  0.00    -0.012 C  
HETATM   43  H   UNL     1      -4.410   5.791  68.635  1.00  0.00     0.000 HD 
ENDBRANCH  34  41
ENDBRANCH  29  30
ENDBRANCH  23  29
ENDBRANCH  14  15
ENDBRANCH   9  14
ENDBRANCH   4   5
ENDBRANCH   2   4
TORSDOF 7
ENDMDL
MODEL      264
REMARK 921   NORMALIZED FREE ENERGY PREDICTED BY IDOCK:   -3.25 KCAL/MOL
REMARK 922        TOTAL FREE ENERGY PREDICTED BY IDOCK:   -6.29 KCAL/MOL
REMARK 923 INTER-LIGAND FREE ENERGY PREDICTED BY IDOCK:   -6.56 KCAL/MOL
REMARK 924 INTRA-LIGAND FREE ENERGY PREDICTED BY IDOCK:    0.27 KCAL/MOL
REMARK 927      BINDING AFFINITY PREDICTED BY RF-SCORE:    0.00 PKD
ROOT
HETATM    1  C   UNL     1     -13.091   7.140  70.923  1.00  0.00    -0.006 C  
HETATM    2  N   UNL     1     -12.482   7.294  72.235  1.00  0.00    -0.508 NA 
HETATM    3  H   UNL     1     -13.079   6.891  72.957  1.00  0.00     0.000 HD 
ENDROOT
BRANCH   2   4
HETATM    4  C   UNL     1     -11.119   6.749  72.327  1.00  0.00    -0.251 C  
BRANCH   4   5
HETATM    5  C   UNL     1     -10.309   6.723  71.003  1.00  0.00    -0.206 C  
HETATM    6  C   UNL     1      -9.800   5.345  70.619  1.00  0.00    -0.254 C  
HETATM    7  C   UNL     1      -9.067   5.439  69.282  1.00  0.00    -0.133 C  
HETATM    8  C   UNL     1      -8.067   6.615  69.230  1.00  0.00    -0.116 C  
HETATM    9  C   UNL     1      -8.595   7.961  69.903  1.00  0.00    -0.139 C  
HETATM   10  N   UNL     1      -7.521   6.726  67.857  1.00  0.00    -0.096 NA 
HETATM   11  O   UNL     1      -9.171   7.603  71.156  1.00  0.00    -0.146 OA 
HETATM   12  H1  UNL     1      -6.861   7.502  67.823  1.00  0.00     0.000 HD 
HETATM   13  H2  UNL     1      -8.254   6.809  67.153  1.00  0.00     0.000 HD 
BRANCH   9  14
HETATM   14  O   UNL     1      -9.480   8.779  69.102  1.00  0.00    -0.155 OA 
BRANCH  14  15
HETATM   15  C   UNL     1      -9.793  10.161  69.562  1.00  0.00    -0.232 C  
HETATM   16  C   UNL     1     -11.309  10.478  69.685  1.00  0.00    -0.281 C  
HETATM   17  N   UNL     1     -11.890   9.787  70.854  1.00  0.00    -0.313 NA 
HETATM   18  C   UNL     1     -11.581  11.986  69.866  1.00  0.00    -0.315 C  
HETATM   19  H2  UNL     1     -11.387  10.007  71.713  1.00  0.00     0.000 HD 
HETATM   20  H1  UNL     1     -12.885   9.995  70.935  1.00  0.00     0.000 HD 
HETATM   21  C   UNL     1     -10.962  12.842  68.750  1.00  0.00    -0.250 C  
HETATM   22  N   UNL     1     -11.420  14.231  68.855  1.00  0.00    -0.267 NA 
HETATM   23  C   UNL     1      -9.424  12.767  68.789  1.00  0.00     0.124 C  
HETATM   24  C   UNL     1      -9.000  11.265  68.790  1.00  0.00    -0.111 C  
HETATM   25  O   UNL     1      -7.598  11.172  69.136  1.00  0.00    -0.166 OA 
HETATM   26  H1  UNL     1     -11.010  14.800  68.114  1.00  0.00     0.000 HD 
HETATM   27  H2  UNL     1     -11.236  14.623  69.779  1.00  0.00     0.000 HD 
HETATM   28  H   UNL     1      -7.115  11.843  68.667  1.00  0.00     0.000 HD 
BRANCH  23  29
HETATM   29  O   UNL     1      -8.869  13.341  67.570  1.00  0.00    -0.184 OA 
BRANCH  29  30
HETATM   30  C   UNL     1      -9.571  13.307  66.310  1.00  0.00    -0.235 C  
HETATM   31  O   UNL     1     -10.786  14.059  66.260  1.00  0.00    -0.285 OA 
HETATM   32  C   UNL     1     -11.342  14.094  64.936  1.00  0.00    -0.365 C  
HETATM   33  C   UNL     1     -11.738  12.692  64.400  1.00  0.00    -0.369 C  
HETATM   34  C   UNL     1     -10.474  11.789  64.403  1.00  0.00    -0.311 C  
HETATM   35  O   UNL     1     -12.737  12.131  65.267  1.00  0.00    -0.430 OA 
HETATM   36  C   UNL     1     -12.352  12.851  63.001  1.00  0.00    -0.036 C  
HETATM   37  H   UNL     1      -8.625  10.231  65.361  1.00  0.00     0.000 HD 
HETATM   38  H   UNL     1     -12.979  11.274  64.938  1.00  0.00     0.000 HD 
HETATM   39  C   UNL     1      -9.765  11.829  65.800  1.00  0.00    -0.237 C  
HETATM   40  O   UNL     1      -8.508  11.123  65.668  1.00  0.00    -0.145 OA 
BRANCH  34  41
HETATM   41  N   UNL     1     -10.560  10.404  63.847  1.00  0.00    -0.305 NA 
HETATM   42  C   UNL     1      -9.825  10.117  62.628  1.00  0.00     0.163 C  
HETATM   43  H   UNL     1     -11.117   9.685  64.309  1.00  0.00     0.000 HD 
ENDBRANCH  34  41
ENDBRANCH  29  30
ENDBRANCH  23  29
ENDBRANCH  14  15
ENDBRANCH   9  14
ENDBRANCH   4   5
ENDBRANCH   2   4
TORSDOF 7
ENDMDL
MODEL      265
REMARK 921   NORMALIZED FREE ENERGY PREDICTED BY IDOCK:   -3.20 KCAL/MOL
REMARK 922        TOTAL FREE ENERGY PREDICTED BY IDOCK:   -6.23 KCAL/MOL
REMARK 923 INTER-LIGAND FREE ENERGY PREDICTED BY IDOCK:   -5.48 KCAL/MOL
REMARK 924 INTRA-LIGAND FREE ENERGY PREDICTED BY IDOCK:   -0.74 KCAL/MOL
REMARK 927      BINDING AFFINITY PREDICTED BY RF-SCORE:    0.00 PKD
ROOT
HETATM    1  C   UNL     1      -9.159   4.018  65.720  1.00  0.00    -0.142 C  
HETATM    2  N   UNL     1     -10.047   4.050  66.872  1.00  0.00    -0.283 NA 
HETATM    3  H   UNL     1      -9.582   3.663  67.693  1.00  0.00     0.000 HD 
ENDROOT
BRANCH   2   4
HETATM    4  C   UNL     1     -10.592   5.383  67.167  1.00  0.00    -0.201 C  
BRANCH   4   5
HETATM    5  C   UNL     1     -10.127   6.027  68.501  1.00  0.00    -0.161 C  
HETATM    6  C   UNL     1     -10.267   5.114  69.706  1.00  0.00    -0.357 C  
HETATM    7  C   UNL     1      -9.732   5.836  70.942  1.00  0.00    -0.218 C  
HETATM    8  C   UNL     1     -10.265   7.279  71.068  1.00  0.00    -0.192 C  
HETATM    9  C   UNL     1     -10.333   8.081  69.691  1.00  0.00    -0.220 C  
HETATM   10  N   UNL     1      -9.580   7.951  72.198  1.00  0.00    -0.181 NA 
HETATM   11  O   UNL     1     -10.925   7.211  68.730  1.00  0.00    -0.156 OA 
HETATM   12  H1  UNL     1      -9.932   8.905  72.281  1.00  0.00     0.000 HD 
HETATM   13  H2  UNL     1      -8.564   7.919  72.111  1.00  0.00     0.000 HD 
BRANCH   9  14
HETATM   14  O   UNL     1      -9.094   8.661  69.220  1.00  0.00    -0.147 OA 
BRANCH  14  15
HETATM   15  C   UNL     1      -8.790   8.622  67.762  1.00  0.00    -0.136 C  
HETATM   16  C   UNL     1      -7.281   8.498  67.415  1.00  0.00    -0.084 C  
HETATM   17  N   UNL     1      -6.790   7.138  67.716  1.00  0.00    -0.071 NA 
HETATM   18  C   UNL     1      -6.999   8.764  65.922  1.00  0.00    -0.076 C  
HETATM   19  H2  UNL     1      -7.346   6.422  67.248  1.00  0.00     0.000 HD 
HETATM   20  H1  UNL     1      -5.799   7.057  67.488  1.00  0.00     0.000 HD 
HETATM   21  C   UNL     1      -7.528  10.127  65.449  1.00  0.00    -0.144 C  
HETATM   22  N   UNL     1      -7.056  10.417  64.090  1.00  0.00    -0.322 NA 
HETATM   23  C   UNL     1      -9.066  10.172  65.515  1.00  0.00    -0.178 C  
HETATM   24  C   UNL     1      -9.513   9.744  66.948  1.00  0.00    -0.160 C  
HETATM   25  O   UNL     1     -10.937   9.483  66.939  1.00  0.00    -0.115 OA 
HETATM   26  H1  UNL     1      -7.407  11.321  63.776  1.00  0.00     0.000 HD 
HETATM   27  H2  UNL     1      -7.294   9.670  63.438  1.00  0.00     0.000 HD 
HETATM   28  H   UNL     1     -11.376  10.165  66.444  1.00  0.00     0.000 HD 
BRANCH  23  29
HETATM   29  O   UNL     1      -9.530  11.542  65.342  1.00  0.00    -0.224 OA 
BRANCH  29  30
HETATM   30  C   UNL     1     -10.172  12.282  66.400  1.00  0.00    -0.225 C  
HETATM   31  O   UNL     1     -11.600  12.328  66.343  1.00  0.00    -0.366 OA 
HETATM   32  C   UNL     1     -12.165  12.953  67.505  1.00  0.00    -0.018 C  
HETATM   33  C   UNL     1     -11.742  14.437  67.670  1.00  0.00    -0.391 C  
HETATM   34  C   UNL     1     -10.192  14.500  67.755  1.00  0.00    -0.226 C  
HETATM   35  O   UNL     1     -12.196  15.177  66.526  1.00  0.00     0.045 OA 
HETATM   36  C   UNL     1     -12.429  15.013  68.917  1.00  0.00     0.109 C  
HETATM   37  H   UNL     1      -7.730  14.523  66.918  1.00  0.00     0.000 HD 
HETATM   38  H   UNL     1     -11.937  16.085  66.628  1.00  0.00     0.000 HD 
HETATM   39  C   UNL     1      -9.538  13.714  66.567  1.00  0.00    -0.286 C  
HETATM   40  O   UNL     1      -8.112  13.659  66.818  1.00  0.00     0.032 OA 
BRANCH  34  41
HETATM   41  N   UNL     1      -9.523  15.814  68.006  1.00  0.00    -0.201 NA 
HETATM   42  C   UNL     1      -9.046  16.084  69.351  1.00  0.00    -0.189 C  
HETATM   43  H   UNL     1      -9.406  16.497  67.257  1.00  0.00     0.000 HD 
ENDBRANCH  34  41
ENDBRANCH  29  30
ENDBRANCH  23  29
ENDBRANCH  14  15
ENDBRANCH   9  14
ENDBRANCH   4   5
ENDBRANCH   2   4
TORSDOF 7
ENDMDL
MODEL      266
REMARK 921   NORMALIZED FREE ENERGY PREDICTED BY IDOCK:   -3.16 KCAL/MOL
REMARK 922        TOTAL FREE ENERGY PREDICTED BY IDOCK:   -6.16 KCAL/MOL
REMARK 923 INTER-LIGAND FREE ENERGY PREDICTED BY IDOCK:   -7.28 KCAL/MOL
REMARK 924 INTRA-LIGAND FREE ENERGY PREDICTED BY IDOCK:    1.12 KCAL/MOL
REMARK 927      BINDING AFFINITY PREDICTED BY RF-SCORE:    0.00 PKD
ROOT
HETATM    1  C   UNL     1     -11.820  11.446  70.012  1.00  0.00    -0.359 C  
HETATM    2  N   UNL     1     -11.529  12.732  69.396  1.00  0.00    -0.373 NA 
HETATM    3  H   UNL     1     -11.368  13.443  70.110  1.00  0.00     0.000 HD 
ENDROOT
BRANCH   2   4
HETATM    4  C   UNL     1     -10.412  12.695  68.441  1.00  0.00    -0.238 C  
BRANCH   4   5
HETATM    5  C   UNL     1     -10.768  13.034  66.968  1.00  0.00    -0.258 C  
HETATM    6  C   UNL     1     -10.242  14.380  66.503  1.00  0.00    -0.276 C  
HETATM    7  C   UNL     1     -10.609  14.577  65.032  1.00  0.00    -0.458 C  
HETATM    8  C   UNL     1     -12.086  14.240  64.734  1.00  0.00    -0.446 C  
HETATM    9  C   UNL     1     -12.632  12.944  65.487  1.00  0.00    -0.296 C  
HETATM   10  N   UNL     1     -12.312  14.307  63.272  1.00  0.00    -1.092 NA 
HETATM   11  O   UNL     1     -12.209  13.040  66.844  1.00  0.00    -0.352 OA 
HETATM   12  H1  UNL     1     -13.288  14.085  63.075  1.00  0.00     0.000 HD 
HETATM   13  H2  UNL     1     -11.667  13.713  62.751  1.00  0.00     0.000 HD 
BRANCH   9  14
HETATM   14  O   UNL     1     -12.302  11.666  64.895  1.00  0.00    -0.095 OA 
BRANCH  14  15
HETATM   15  C   UNL     1     -10.883  11.213  64.905  1.00  0.00    -0.190 C  
HETATM   16  C   UNL     1     -10.245  11.040  63.500  1.00  0.00    -0.365 C  
HETATM   17  N   UNL     1      -9.986  12.357  62.882  1.00  0.00    -0.359 NA 
HETATM   18  C   UNL     1      -8.897  10.291  63.556  1.00  0.00    -0.232 C  
HETATM   19  H2  UNL     1      -9.419  12.953  63.484  1.00  0.00     0.000 HD 
HETATM   20  H1  UNL     1      -9.567  12.242  61.959  1.00  0.00     0.000 HD 
HETATM   21  C   UNL     1      -9.003   8.923  64.248  1.00  0.00     0.138 C  
HETATM   22  N   UNL     1      -7.754   8.170  64.092  1.00  0.00    -0.129 NA 
HETATM   23  C   UNL     1      -9.362   9.087  65.737  1.00  0.00    -0.236 C  
HETATM   24  C   UNL     1     -10.630   9.990  65.846  1.00  0.00     0.071 C  
HETATM   25  O   UNL     1     -10.797  10.406  67.222  1.00  0.00    -0.276 OA 
HETATM   26  H1  UNL     1      -7.824   7.262  64.551  1.00  0.00     0.000 HD 
HETATM   27  H2  UNL     1      -6.948   8.701  64.422  1.00  0.00     0.000 HD 
HETATM   28  H   UNL     1     -10.643   9.662  67.793  1.00  0.00     0.000 HD 
BRANCH  23  29
HETATM   29  O   UNL     1      -9.736   7.798  66.302  1.00  0.00    -0.176 OA 
BRANCH  29  30
HETATM   30  C   UNL     1      -8.928   7.118  67.284  1.00  0.00    -0.123 C  
HETATM   31  O   UNL     1      -7.586   6.829  66.885  1.00  0.00    -0.088 OA 
HETATM   32  C   UNL     1      -6.809   6.288  67.965  1.00  0.00    -0.070 C  
HETATM   33  C   UNL     1      -7.351   4.934  68.493  1.00  0.00    -0.066 C  
HETATM   34  C   UNL     1      -8.816   5.140  68.967  1.00  0.00    -0.092 C  
HETATM   35  O   UNL     1      -7.318   3.974  67.424  1.00  0.00    -0.067 OA 
HETATM   36  C   UNL     1      -6.428   4.432  69.614  1.00  0.00    -0.032 C  
HETATM   37  H   UNL     1     -11.395   5.408  68.781  1.00  0.00     0.000 HD 
HETATM   38  H   UNL     1      -7.650   3.145  67.747  1.00  0.00     0.000 HD 
HETATM   39  C   UNL     1      -9.665   5.849  67.856  1.00  0.00    -0.119 C  
HETATM   40  O   UNL     1     -10.951   6.174  68.437  1.00  0.00    -0.297 OA 
BRANCH  34  41
HETATM   41  N   UNL     1      -9.548   4.005  69.606  1.00  0.00    -0.196 NA 
HETATM   42  C   UNL     1      -9.928   4.144  71.001  1.00  0.00    -0.136 C  
HETATM   43  H   UNL     1      -9.773   3.160  69.080  1.00  0.00     0.000 HD 
ENDBRANCH  34  41
ENDBRANCH  29  30
ENDBRANCH  23  29
ENDBRANCH  14  15
ENDBRANCH   9  14
ENDBRANCH   4   5
ENDBRANCH   2   4
TORSDOF 7
ENDMDL
MODEL      267
REMARK 921   NORMALIZED FREE ENERGY PREDICTED BY IDOCK:   -3.15 KCAL/MOL
REMARK 922        TOTAL FREE ENERGY PREDICTED BY IDOCK:   -6.15 KCAL/MOL
REMARK 923 INTER-LIGAND FREE ENERGY PREDICTED BY IDOCK:   -7.42 KCAL/MOL
REMARK 924 INTRA-LIGAND FREE ENERGY PREDICTED BY IDOCK:    1.27 KCAL/MOL
REMARK 927      BINDING AFFINITY PREDICTED BY RF-SCORE:    0.00 PKD
ROOT
HETATM    1  C   UNL     1      -6.152  10.152  65.514  1.00  0.00    -0.099 C  
HETATM    2  N   UNL     1      -7.398   9.582  65.025  1.00  0.00    -0.106 NA 
HETATM    3  H   UNL     1      -7.473   9.697  64.014  1.00  0.00     0.000 HD 
ENDROOT
BRANCH   2   4
HETATM    4  C   UNL     1      -7.598   8.175  65.402  1.00  0.00    -0.089 C  
BRANCH   4   5
HETATM    5  C   UNL     1      -8.483   7.927  66.654  1.00  0.00    -0.131 C  
HETATM    6  C   UNL     1      -8.213   6.603  67.346  1.00  0.00    -0.121 C  
HETATM    7  C   UNL     1      -9.103   6.498  68.584  1.00  0.00    -0.128 C  
HETATM    8  C   UNL     1     -10.573   6.873  68.298  1.00  0.00    -0.215 C  
HETATM    9  C   UNL     1     -10.757   8.131  67.334  1.00  0.00    -0.177 C  
HETATM   10  N   UNL     1     -11.324   6.895  69.574  1.00  0.00    -0.529 NA 
HETATM   11  O   UNL     1      -9.868   7.951  66.236  1.00  0.00    -0.182 OA 
HETATM   12  H1  UNL     1     -12.295   7.143  69.385  1.00  0.00     0.000 HD 
HETATM   13  H2  UNL     1     -10.896   7.509  70.267  1.00  0.00     0.000 HD 
BRANCH   9  14
HETATM   14  O   UNL     1     -10.624   9.437  67.944  1.00  0.00    -0.237 OA 
BRANCH  14  15
HETATM   15  C   UNL     1      -9.623  10.391  67.389  1.00  0.00    -0.154 C  
HETATM   16  C   UNL     1      -8.752  11.112  68.454  1.00  0.00    -0.157 C  
HETATM   17  N   UNL     1      -7.770  10.176  69.040  1.00  0.00    -0.091 NA 
HETATM   18  C   UNL     1      -7.956  12.292  67.859  1.00  0.00    -0.152 C  
HETATM   19  H2  UNL     1      -7.199   9.728  68.324  1.00  0.00     0.000 HD 
HETATM   20  H1  UNL     1      -7.198  10.650  69.739  1.00  0.00     0.000 HD 
HETATM   21  C   UNL     1      -8.852  13.315  67.144  1.00  0.00    -0.222 C  
HETATM   22  N   UNL     1      -8.081  14.509  66.782  1.00  0.00    -0.361 NA 
HETATM   23  C   UNL     1      -9.515  12.693  65.901  1.00  0.00    -0.089 C  
HETATM   24  C   UNL     1     -10.223  11.369  66.327  1.00  0.00    -0.233 C  
HETATM   25  O   UNL     1     -10.578  10.621  65.140  1.00  0.00    -0.242 OA 
HETATM   26  H1  UNL     1      -8.675  15.189  66.308  1.00  0.00     0.000 HD 
HETATM   27  H2  UNL     1      -7.257  14.274  66.228  1.00  0.00     0.000 HD 
HETATM   28  H   UNL     1     -10.943  11.216  64.494  1.00  0.00     0.000 HD 
BRANCH  23  29
HETATM   29  O   UNL     1     -10.567  13.571  65.408  1.00  0.00    -0.288 OA 
BRANCH  29  30
HETATM   30  C   UNL     1     -10.781  14.895  65.937  1.00  0.00    -0.323 C  
HETATM   31  O   UNL     1      -9.805  15.873  65.568  1.00  0.00    -0.363 OA 
HETATM   32  C   UNL     1     -10.169  17.189  66.012  1.00  0.00    -0.321 C  
HETATM   33  C   UNL     1     -10.267  17.311  67.555  1.00  0.00    -0.328 C  
HETATM   34  C   UNL     1     -11.320  16.289  68.064  1.00  0.00    -0.205 C  
HETATM   35  O   UNL     1      -8.984  17.010  68.126  1.00  0.00    -0.215 OA 
HETATM   36  C   UNL     1     -10.623  18.762  67.917  1.00  0.00    -0.406 C  
HETATM   37  H   UNL     1     -12.295  13.991  68.791  1.00  0.00     0.000 HD 
HETATM   38  H   UNL     1      -9.044  17.085  69.071  1.00  0.00     0.000 HD 
HETATM   39  C   UNL     1     -11.028  14.859  67.492  1.00  0.00    -0.302 C  
HETATM   40  O   UNL     1     -12.147  14.013  67.853  1.00  0.00    -0.363 OA 
BRANCH  34  41
HETATM   41  N   UNL     1     -11.675  16.261  69.516  1.00  0.00    -0.278 NA 
HETATM   42  C   UNL     1     -10.847  15.461  70.400  1.00  0.00    -0.308 C  
HETATM   43  H   UNL     1     -12.473  16.788  69.873  1.00  0.00     0.000 HD 
ENDBRANCH  34  41
ENDBRANCH  29  30
ENDBRANCH  23  29
ENDBRANCH  14  15
ENDBRANCH   9  14
ENDBRANCH   4   5
ENDBRANCH   2   4
TORSDOF 7
ENDMDL
MODEL      268
REMARK 921   NORMALIZED FREE ENERGY PREDICTED BY IDOCK:   -3.14 KCAL/MOL
REMARK 922        TOTAL FREE ENERGY PREDICTED BY IDOCK:   -6.14 KCAL/MOL
REMARK 923 INTER-LIGAND FREE ENERGY PREDICTED BY IDOCK:   -5.48 KCAL/MOL
REMARK 924 INTRA-LIGAND FREE ENERGY PREDICTED BY IDOCK:   -0.66 KCAL/MOL
REMARK 927      BINDING AFFINITY PREDICTED BY RF-SCORE:    0.00 PKD
ROOT
HETATM    1  C   UNL     1      -8.835   8.588  72.000  1.00  0.00    -0.216 C  
HETATM    2  N   UNL     1      -7.805   8.205  72.953  1.00  0.00    -0.145 NA 
HETATM    3  H   UNL     1      -8.217   8.005  73.864  1.00  0.00     0.000 HD 
ENDROOT
BRANCH   2   4
HETATM    4  C   UNL     1      -6.967   7.083  72.506  1.00  0.00    -0.065 C  
BRANCH   4   5
HETATM    5  C   UNL     1      -7.117   6.677  71.015  1.00  0.00    -0.072 C  
HETATM    6  C   UNL     1      -7.390   5.198  70.805  1.00  0.00    -0.069 C  
HETATM    7  C   UNL     1      -7.569   4.932  69.310  1.00  0.00    -0.060 C  
HETATM    8  C   UNL     1      -6.468   5.589  68.450  1.00  0.00    -0.039 C  
HETATM    9  C   UNL     1      -6.055   7.057  68.916  1.00  0.00    -0.027 C  
HETATM   10  N   UNL     1      -6.803   5.413  67.018  1.00  0.00    -0.062 NA 
HETATM   11  O   UNL     1      -5.888   7.016  70.331  1.00  0.00    -0.023 OA 
HETATM   12  H1  UNL     1      -6.076   5.848  66.450  1.00  0.00     0.000 HD 
HETATM   13  H2  UNL     1      -7.734   5.765  66.791  1.00  0.00     0.000 HD 
BRANCH   9  14
HETATM   14  O   UNL     1      -6.921   8.137  68.494  1.00  0.00    -0.068 OA 
BRANCH  14  15
HETATM   15  C   UNL     1      -7.390   8.171  67.081  1.00  0.00    -0.088 C  
HETATM   16  C   UNL     1      -6.411   8.853  66.086  1.00  0.00    -0.064 C  
HETATM   17  N   UNL     1      -5.236   7.990  65.842  1.00  0.00    -0.025 NA 
HETATM   18  C   UNL     1      -7.064   9.130  64.716  1.00  0.00    -0.096 C  
HETATM   19  H2  UNL     1      -5.508   7.059  65.527  1.00  0.00     0.000 HD 
HETATM   20  H1  UNL     1      -4.593   8.438  65.189  1.00  0.00     0.000 HD 
HETATM   21  C   UNL     1      -8.350   9.962  64.827  1.00  0.00    -0.160 C  
HETATM   22  N   UNL     1      -8.814  10.371  63.496  1.00  0.00    -0.194 NA 
HETATM   23  C   UNL     1      -9.448   9.180  65.573  1.00  0.00    -0.206 C  
HETATM   24  C   UNL     1      -8.862   8.675  66.929  1.00  0.00    -0.132 C  
HETATM   25  O   UNL     1      -9.762   7.691  67.493  1.00  0.00    -0.143 OA 
HETATM   26  H1  UNL     1      -9.668  10.923  63.569  1.00  0.00     0.000 HD 
HETATM   27  H2  UNL     1      -8.932   9.571  62.874  1.00  0.00     0.000 HD 
HETATM   28  H   UNL     1     -10.657   7.997  67.401  1.00  0.00     0.000 HD 
BRANCH  23  29
HETATM   29  O   UNL     1     -10.546  10.074  65.918  1.00  0.00    -0.100 OA 
BRANCH  29  30
HETATM   30  C   UNL     1     -10.345  11.475  66.195  1.00  0.00    -0.245 C  
HETATM   31  O   UNL     1     -10.342  11.836  67.579  1.00  0.00    -0.192 OA 
HETATM   32  C   UNL     1      -9.992  13.215  67.774  1.00  0.00    -0.227 C  
HETATM   33  C   UNL     1     -10.998  14.201  67.124  1.00  0.00    -0.299 C  
HETATM   34  C   UNL     1     -11.070  13.899  65.602  1.00  0.00    -0.298 C  
HETATM   35  O   UNL     1     -12.290  14.003  67.719  1.00  0.00    -0.516 OA 
HETATM   36  C   UNL     1     -10.548  15.639  67.425  1.00  0.00    -0.301 C  
HETATM   37  H   UNL     1     -11.781  12.685  63.415  1.00  0.00     0.000 HD 
HETATM   38  H   UNL     1     -12.906  14.607  67.322  1.00  0.00     0.000 HD 
HETATM   39  C   UNL     1     -11.324  12.373  65.349  1.00  0.00    -0.337 C  
HETATM   40  O   UNL     1     -11.190  12.143  63.925  1.00  0.00    -0.345 OA 
BRANCH  34  41
HETATM   41  N   UNL     1     -11.906  14.770  64.720  1.00  0.00    -0.423 NA 
HETATM   42  C   UNL     1     -11.389  16.085  64.380  1.00  0.00    -0.245 C  
HETATM   43  H   UNL     1     -12.809  14.451  64.368  1.00  0.00     0.000 HD 
ENDBRANCH  34  41
ENDBRANCH  29  30
ENDBRANCH  23  29
ENDBRANCH  14  15
ENDBRANCH   9  14
ENDBRANCH   4   5
ENDBRANCH   2   4
TORSDOF 7
ENDMDL
MODEL      269
REMARK 921   NORMALIZED FREE ENERGY PREDICTED BY IDOCK:   -3.14 KCAL/MOL
REMARK 922        TOTAL FREE ENERGY PREDICTED BY IDOCK:   -6.13 KCAL/MOL
REMARK 923 INTER-LIGAND FREE ENERGY PREDICTED BY IDOCK:   -7.09 KCAL/MOL
REMARK 924 INTRA-LIGAND FREE ENERGY PREDICTED BY IDOCK:    0.95 KCAL/MOL
REMARK 927      BINDING AFFINITY PREDICTED BY RF-SCORE:    0.00 PKD
ROOT
HETATM    1  C   UNL     1      -9.436   4.672  72.108  1.00  0.00    -0.140 C  
HETATM    2  N   UNL     1      -8.864   6.010  72.112  1.00  0.00    -0.136 NA 
HETATM    3  H   UNL     1      -8.004   6.033  71.564  1.00  0.00     0.000 HD 
ENDROOT
BRANCH   2   4
HETATM    4  C   UNL     1      -9.793   7.057  71.663  1.00  0.00    -0.163 C  
BRANCH   4   5
HETATM    5  C   UNL     1      -9.915   7.241  70.126  1.00  0.00    -0.184 C  
HETATM    6  C   UNL     1     -10.733   6.163  69.439  1.00  0.00    -0.385 C  
HETATM    7  C   UNL     1     -10.823   6.479  67.947  1.00  0.00    -0.383 C  
HETATM    8  C   UNL     1      -9.456   6.846  67.330  1.00  0.00    -0.132 C  
HETATM    9  C   UNL     1      -8.545   7.777  68.251  1.00  0.00    -0.124 C  
HETATM   10  N   UNL     1      -9.659   7.287  65.930  1.00  0.00    -0.388 NA 
HETATM   11  O   UNL     1      -8.581   7.229  69.565  1.00  0.00    -0.133 OA 
HETATM   12  H1  UNL     1      -8.756   7.529  65.523  1.00  0.00     0.000 HD 
HETATM   13  H2  UNL     1     -10.334   8.048  65.857  1.00  0.00     0.000 HD 
BRANCH   9  14
HETATM   14  O   UNL     1      -8.845   9.193  68.235  1.00  0.00    -0.129 OA 
BRANCH  14  15
HETATM   15  C   UNL     1      -9.400   9.797  66.992  1.00  0.00    -0.147 C  
HETATM   16  C   UNL     1      -8.346  10.460  66.064  1.00  0.00    -0.149 C  
HETATM   17  N   UNL     1      -7.529   9.431  65.389  1.00  0.00    -0.097 NA 
HETATM   18  C   UNL     1      -8.994  11.321  64.961  1.00  0.00    -0.015 C  
HETATM   19  H2  UNL     1      -8.106   8.758  64.885  1.00  0.00     0.000 HD 
HETATM   20  H1  UNL     1      -6.836   9.866  64.780  1.00  0.00     0.000 HD 
HETATM   21  C   UNL     1      -9.938  12.396  65.521  1.00  0.00    -0.243 C  
HETATM   22  N   UNL     1     -10.363  13.312  64.457  1.00  0.00    -0.527 NA 
HETATM   23  C   UNL     1     -11.157  11.752  66.208  1.00  0.00    -0.311 C  
HETATM   24  C   UNL     1     -10.646  10.706  67.248  1.00  0.00    -0.263 C  
HETATM   25  O   UNL     1     -11.757   9.882  67.672  1.00  0.00    -0.351 OA 
HETATM   26  H1  UNL     1     -10.989  14.026  64.829  1.00  0.00     0.000 HD 
HETATM   27  H2  UNL     1     -10.780  12.813  63.671  1.00  0.00     0.000 HD 
HETATM   28  H   UNL     1     -12.514  10.434  67.828  1.00  0.00     0.000 HD 
BRANCH  23  29
HETATM   29  O   UNL     1     -11.883  12.757  66.974  1.00  0.00    -0.372 OA 
BRANCH  29  30
HETATM   30  C   UNL     1     -11.280  14.000  67.387  1.00  0.00    -0.311 C  
HETATM   31  O   UNL     1     -11.155  14.995  66.368  1.00  0.00    -0.335 OA 
HETATM   32  C   UNL     1     -10.683  16.246  66.893  1.00  0.00    -0.217 C  
HETATM   33  C   UNL     1      -9.264  16.154  67.513  1.00  0.00    -0.208 C  
HETATM   34  C   UNL     1      -9.291  15.097  68.651  1.00  0.00    -0.199 C  
HETATM   35  O   UNL     1      -8.339  15.745  66.493  1.00  0.00    -0.272 OA 
HETATM   36  C   UNL     1      -8.847  17.549  68.005  1.00  0.00    -0.258 C  
HETATM   37  H   UNL     1      -9.265  12.745  69.758  1.00  0.00     0.000 HD 
HETATM   38  H   UNL     1      -7.470  15.690  66.873  1.00  0.00     0.000 HD 
HETATM   39  C   UNL     1      -9.922  13.754  68.147  1.00  0.00    -0.242 C  
HETATM   40  O   UNL     1     -10.084  12.893  69.300  1.00  0.00     0.236 OA 
BRANCH  34  41
HETATM   41  N   UNL     1      -8.065  14.877  69.477  1.00  0.00    -0.398 NA 
HETATM   42  C   UNL     1      -6.988  14.095  68.895  1.00  0.00    -0.109 C  
HETATM   43  H   UNL     1      -7.987  15.264  70.418  1.00  0.00     0.000 HD 
ENDBRANCH  34  41
ENDBRANCH  29  30
ENDBRANCH  23  29
ENDBRANCH  14  15
ENDBRANCH   9  14
ENDBRANCH   4   5
ENDBRANCH   2   4
TORSDOF 7
ENDMDL
MODEL      270
REMARK 921   NORMALIZED FREE ENERGY PREDICTED BY IDOCK:   -3.09 KCAL/MOL
REMARK 922        TOTAL FREE ENERGY PREDICTED BY IDOCK:   -6.07 KCAL/MOL
REMARK 923 INTER-LIGAND FREE ENERGY PREDICTED BY IDOCK:   -6.57 KCAL/MOL
REMARK 924 INTRA-LIGAND FREE ENERGY PREDICTED BY IDOCK:    0.50 KCAL/MOL
REMARK 927      BINDING AFFINITY PREDICTED BY RF-SCORE:    0.00 PKD
ROOT
HETATM    1  C   UNL     1     -14.026  10.260  71.586  1.00  0.00     0.308 C  
HETATM    2  N   UNL     1     -13.052  11.118  72.243  1.00  0.00    -0.454 NA 
HETATM    3  H   UNL     1     -12.112  10.922  71.898  1.00  0.00     0.000 HD 
ENDROOT
BRANCH   2   4
HETATM    4  C   UNL     1     -13.354  12.553  72.134  1.00  0.00    -0.435 C  
BRANCH   4   5
HETATM    5  C   UNL     1     -12.474  13.358  71.138  1.00  0.00    -0.327 C  
HETATM    6  C   UNL     1     -12.651  14.862  71.239  1.00  0.00    -0.402 C  
HETATM    7  C   UNL     1     -11.702  15.542  70.252  1.00  0.00    -0.367 C  
HETATM    8  C   UNL     1     -11.746  14.905  68.846  1.00  0.00    -0.315 C  
HETATM    9  C   UNL     1     -11.829  13.312  68.846  1.00  0.00    -0.327 C  
HETATM   10  N   UNL     1     -10.692  15.518  68.005  1.00  0.00    -0.274 NA 
HETATM   11  O   UNL     1     -12.824  12.946  69.797  1.00  0.00     0.318 OA 
HETATM   12  H1  UNL     1     -10.720  15.098  67.076  1.00  0.00     0.000 HD 
HETATM   13  H2  UNL     1      -9.767  15.454  68.431  1.00  0.00     0.000 HD 
BRANCH   9  14
HETATM   14  O   UNL     1     -10.585  12.600  69.045  1.00  0.00    -0.164 OA 
BRANCH  14  15
HETATM   15  C   UNL     1      -9.746  12.273  67.859  1.00  0.00    -0.202 C  
HETATM   16  C   UNL     1     -10.537  11.761  66.624  1.00  0.00    -0.240 C  
HETATM   17  N   UNL     1     -11.281  12.868  65.990  1.00  0.00    -0.285 NA 
HETATM   18  C   UNL     1      -9.613  11.157  65.545  1.00  0.00    -0.263 C  
HETATM   19  H2  UNL     1     -10.670  13.648  65.751  1.00  0.00     0.000 HD 
HETATM   20  H1  UNL     1     -11.801  12.531  65.179  1.00  0.00     0.000 HD 
HETATM   21  C   UNL     1      -8.717  10.033  66.088  1.00  0.00    -0.140 C  
HETATM   22  N   UNL     1      -8.016   9.359  64.990  1.00  0.00    -0.113 NA 
HETATM   23  C   UNL     1      -7.716  10.580  67.123  1.00  0.00    -0.101 C  
HETATM   24  C   UNL     1      -8.508  11.382  68.203  1.00  0.00    -0.152 C  
HETATM   25  O   UNL     1      -7.574  12.153  68.997  1.00  0.00    -0.295 OA 
HETATM   26  H1  UNL     1      -7.422   8.613  65.350  1.00  0.00     0.000 HD 
HETATM   27  H2  UNL     1      -7.492  10.018  64.414  1.00  0.00     0.000 HD 
HETATM   28  H   UNL     1      -6.821  11.611  69.206  1.00  0.00     0.000 HD 
BRANCH  23  29
HETATM   29  O   UNL     1      -7.080   9.476  67.829  1.00  0.00    -0.080 OA 
BRANCH  29  30
HETATM   30  C   UNL     1      -7.660   8.156  67.885  1.00  0.00    -0.102 C  
HETATM   31  O   UNL     1      -7.497   7.360  66.709  1.00  0.00    -0.092 OA 
HETATM   32  C   UNL     1      -7.971   6.018  66.899  1.00  0.00    -0.102 C  
HETATM   33  C   UNL     1      -9.490   5.941  67.205  1.00  0.00    -0.117 C  
HETATM   34  C   UNL     1      -9.778   6.773  68.485  1.00  0.00    -0.133 C  
HETATM   35  O   UNL     1     -10.214   6.494  66.094  1.00  0.00    -0.419 OA 
HETATM   36  C   UNL     1      -9.893   4.466  67.351  1.00  0.00    -0.193 C  
HETATM   37  H   UNL     1     -10.208   8.882  69.944  1.00  0.00     0.000 HD 
HETATM   38  H   UNL     1     -11.144   6.447  66.281  1.00  0.00     0.000 HD 
HETATM   39  C   UNL     1      -9.160   8.209  68.365  1.00  0.00    -0.136 C  
HETATM   40  O   UNL     1      -9.304   8.850  69.655  1.00  0.00    -0.157 OA 
BRANCH  34  41
HETATM   41  N   UNL     1     -11.161   6.793  69.052  1.00  0.00    -0.467 NA 
HETATM   42  C   UNL     1     -11.379   6.134  70.327  1.00  0.00    -0.344 C  
HETATM   43  H   UNL     1     -11.926   7.255  68.559  1.00  0.00     0.000 HD 
ENDBRANCH  34  41
ENDBRANCH  29  30
ENDBRANCH  23  29
ENDBRANCH  14  15
ENDBRANCH   9  14
ENDBRANCH   4   5
ENDBRANCH   2   4
TORSDOF 7
ENDMDL
MODEL      271
REMARK 921   NORMALIZED FREE ENERGY PREDICTED BY IDOCK:   -3.07 KCAL/MOL
REMARK 922        TOTAL FREE ENERGY PREDICTED BY IDOCK:   -6.03 KCAL/MOL
REMARK 923 INTER-LIGAND FREE ENERGY PREDICTED BY IDOCK:   -6.86 KCAL/MOL
REMARK 924 INTRA-LIGAND FREE ENERGY PREDICTED BY IDOCK:    0.83 KCAL/MOL
REMARK 927      BINDING AFFINITY PREDICTED BY RF-SCORE:    0.00 PKD
ROOT
HETATM    1  C   UNL     1      -7.090  10.597  69.817  1.00  0.00    -0.139 C  
HETATM    2  N   UNL     1      -5.952  10.107  69.054  1.00  0.00    -0.037 NA 
HETATM    3  H   UNL     1      -5.512   9.321  69.533  1.00  0.00     0.000 HD 
ENDROOT
BRANCH   2   4
HETATM    4  C   UNL     1      -6.276   9.749  67.665  1.00  0.00    -0.056 C  
BRANCH   4   5
HETATM    5  C   UNL     1      -7.573   8.920  67.463  1.00  0.00    -0.093 C  
HETATM    6  C   UNL     1      -7.556   7.572  68.162  1.00  0.00    -0.114 C  
HETATM    7  C   UNL     1      -8.898   6.876  67.934  1.00  0.00    -0.123 C  
HETATM    8  C   UNL     1      -9.347   6.915  66.457  1.00  0.00    -0.158 C  
HETATM    9  C   UNL     1      -9.077   8.304  65.721  1.00  0.00    -0.114 C  
HETATM   10  N   UNL     1     -10.718   6.360  66.354  1.00  0.00    -0.503 NA 
HETATM   11  O   UNL     1      -7.747   8.696  66.044  1.00  0.00    -0.097 OA 
HETATM   12  H1  UNL     1     -11.014   6.386  65.378  1.00  0.00     0.000 HD 
HETATM   13  H2  UNL     1     -11.376   6.834  66.972  1.00  0.00     0.000 HD 
BRANCH   9  14
HETATM   14  O   UNL     1     -10.038   9.359  65.960  1.00  0.00    -0.300 OA 
BRANCH  14  15
HETATM   15  C   UNL     1      -9.817  10.286  67.105  1.00  0.00    -0.185 C  
HETATM   16  C   UNL     1     -10.923  10.249  68.195  1.00  0.00    -0.274 C  
HETATM   17  N   UNL     1     -10.835   9.002  68.982  1.00  0.00    -0.410 NA 
HETATM   18  C   UNL     1     -10.807  11.424  69.189  1.00  0.00    -0.260 C  
HETATM   19  H2  UNL     1      -9.905   8.872  69.382  1.00  0.00     0.000 HD 
HETATM   20  H1  UNL     1     -11.561   8.978  69.697  1.00  0.00     0.000 HD 
HETATM   21  C   UNL     1     -10.811  12.794  68.495  1.00  0.00    -0.253 C  
HETATM   22  N   UNL     1     -10.907  13.872  69.486  1.00  0.00    -0.447 NA 
HETATM   23  C   UNL     1      -9.557  12.969  67.617  1.00  0.00    -0.206 C  
HETATM   24  C   UNL     1      -9.444  11.739  66.663  1.00  0.00    -0.205 C  
HETATM   25  O   UNL     1      -8.129  11.729  66.059  1.00  0.00    -0.375 OA 
HETATM   26  H1  UNL     1     -10.910  14.782  69.026  1.00  0.00     0.000 HD 
HETATM   27  H2  UNL     1     -10.173  13.805  70.191  1.00  0.00     0.000 HD 
HETATM   28  H   UNL     1      -7.903  12.612  65.790  1.00  0.00     0.000 HD 
BRANCH  23  29
HETATM   29  O   UNL     1      -9.713  14.133  66.755  1.00  0.00    -0.258 OA 
BRANCH  29  30
HETATM   30  C   UNL     1      -9.109  15.407  67.058  1.00  0.00    -0.227 C  
HETATM   31  O   UNL     1      -8.961  16.299  65.950  1.00  0.00    -0.398 OA 
HETATM   32  C   UNL     1      -8.490  17.592  66.361  1.00  0.00    -0.246 C  
HETATM   33  C   UNL     1      -7.082  17.554  67.010  1.00  0.00    -0.178 C  
HETATM   34  C   UNL     1      -7.134  16.611  68.244  1.00  0.00    -0.160 C  
HETATM   35  O   UNL     1      -6.143  17.045  66.050  1.00  0.00    -0.181 OA 
HETATM   36  C   UNL     1      -6.664  18.987  67.374  1.00  0.00    -0.211 C  
HETATM   37  H   UNL     1      -7.141  14.375  69.572  1.00  0.00     0.000 HD 
HETATM   38  H   UNL     1      -5.281  17.022  66.448  1.00  0.00     0.000 HD 
HETATM   39  C   UNL     1      -7.765  15.228  67.860  1.00  0.00    -0.136 C  
HETATM   40  O   UNL     1      -7.952  14.483  69.088  1.00  0.00    -0.125 OA 
BRANCH  34  41
HETATM   41  N   UNL     1      -5.923  16.465  69.108  1.00  0.00    -0.140 NA 
HETATM   42  C   UNL     1      -5.656  17.508  70.082  1.00  0.00    -0.249 C  
HETATM   43  H   UNL     1      -5.304  15.658  69.016  1.00  0.00     0.000 HD 
ENDBRANCH  34  41
ENDBRANCH  29  30
ENDBRANCH  23  29
ENDBRANCH  14  15
ENDBRANCH   9  14
ENDBRANCH   4   5
ENDBRANCH   2   4
TORSDOF 7
ENDMDL
MODEL      272
REMARK 921   NORMALIZED FREE ENERGY PREDICTED BY IDOCK:   -3.04 KCAL/MOL
REMARK 922        TOTAL FREE ENERGY PREDICTED BY IDOCK:   -6.00 KCAL/MOL
REMARK 923 INTER-LIGAND FREE ENERGY PREDICTED BY IDOCK:   -6.10 KCAL/MOL
REMARK 924 INTRA-LIGAND FREE ENERGY PREDICTED BY IDOCK:    0.10 KCAL/MOL
REMARK 927      BINDING AFFINITY PREDICTED BY RF-SCORE:    0.00 PKD
ROOT
HETATM    1  C   UNL     1     -10.762  14.258  64.929  1.00  0.00    -0.432 C  
HETATM    2  N   UNL     1     -11.658  13.930  63.831  1.00  0.00    -0.638 NA 
HETATM    3  H   UNL     1     -11.512  14.567  63.048  1.00  0.00     0.000 HD 
ENDROOT
BRANCH   2   4
HETATM    4  C   UNL     1     -11.567  12.532  63.384  1.00  0.00    -0.473 C  
BRANCH   4   5
HETATM    5  C   UNL     1     -10.392  11.707  63.975  1.00  0.00    -0.357 C  
HETATM    6  C   UNL     1      -9.366  11.272  62.945  1.00  0.00    -0.376 C  
HETATM    7  C   UNL     1      -8.240  10.517  63.650  1.00  0.00    -0.076 C  
HETATM    8  C   UNL     1      -8.762   9.452  64.638  1.00  0.00    -0.200 C  
HETATM    9  C   UNL     1     -10.024   9.912  65.498  1.00  0.00    -0.292 C  
HETATM   10  N   UNL     1      -7.617   8.882  65.386  1.00  0.00    -0.086 NA 
HETATM   11  O   UNL     1     -10.944  10.523  64.598  1.00  0.00     0.122 OA 
HETATM   12  H1  UNL     1      -7.963   8.179  66.038  1.00  0.00     0.000 HD 
HETATM   13  H2  UNL     1      -7.060   9.600  65.849  1.00  0.00     0.000 HD 
BRANCH   9  14
HETATM   14  O   UNL     1      -9.752  10.738  66.654  1.00  0.00    -0.181 OA 
BRANCH  14  15
HETATM   15  C   UNL     1      -8.399  10.682  67.276  1.00  0.00    -0.120 C  
HETATM   16  C   UNL     1      -8.318   9.843  68.581  1.00  0.00    -0.110 C  
HETATM   17  N   UNL     1      -8.413   8.401  68.278  1.00  0.00    -0.134 NA 
HETATM   18  C   UNL     1      -6.991  10.062  69.337  1.00  0.00    -0.069 C  
HETATM   19  H2  UNL     1      -7.712   8.109  67.596  1.00  0.00     0.000 HD 
HETATM   20  H1  UNL     1      -8.360   7.851  69.135  1.00  0.00     0.000 HD 
HETATM   21  C   UNL     1      -6.723  11.541  69.655  1.00  0.00    -0.083 C  
HETATM   22  N   UNL     1      -5.565  11.674  70.547  1.00  0.00    -0.143 NA 
HETATM   23  C   UNL     1      -6.513  12.352  68.362  1.00  0.00    -0.058 C  
HETATM   24  C   UNL     1      -7.718  12.083  67.407  1.00  0.00    -0.162 C  
HETATM   25  O   UNL     1      -7.393  12.579  66.087  1.00  0.00     0.354 OA 
HETATM   26  H1  UNL     1      -5.387  12.655  70.758  1.00  0.00     0.000 HD 
HETATM   27  H2  UNL     1      -4.739  11.211  70.167  1.00  0.00     0.000 HD 
HETATM   28  H   UNL     1      -6.979  13.431  66.167  1.00  0.00     0.000 HD 
BRANCH  23  29
HETATM   29  O   UNL     1      -6.547  13.778  68.660  1.00  0.00    -0.083 OA 
BRANCH  29  30
HETATM   30  C   UNL     1      -7.404  14.696  67.951  1.00  0.00    -0.154 C  
HETATM   31  O   UNL     1      -6.778  15.899  67.497  1.00  0.00    -0.153 OA 
HETATM   32  C   UNL     1      -7.656  16.687  66.679  1.00  0.00    -0.279 C  
HETATM   33  C   UNL     1      -8.922  17.175  67.431  1.00  0.00    -0.220 C  
HETATM   34  C   UNL     1      -9.690  15.933  67.961  1.00  0.00    -0.216 C  
HETATM   35  O   UNL     1      -8.515  18.001  68.534  1.00  0.00    -0.304 OA 
HETATM   36  C   UNL     1      -9.766  18.033  66.476  1.00  0.00    -0.338 C  
HETATM   37  H   UNL     1     -10.264  13.943  69.533  1.00  0.00     0.000 HD 
HETATM   38  H   UNL     1      -9.291  18.300  68.994  1.00  0.00     0.000 HD 
HETATM   39  C   UNL     1      -8.728  14.982  68.754  1.00  0.00    -0.186 C  
HETATM   40  O   UNL     1      -9.466  13.771  69.049  1.00  0.00     0.017 OA 
BRANCH  34  41
HETATM   41  N   UNL     1     -11.003  16.121  68.651  1.00  0.00    -0.317 NA 
HETATM   42  C   UNL     1     -11.015  16.093  70.103  1.00  0.00    -0.358 C  
HETATM   43  H   UNL     1     -11.861  16.264  68.119  1.00  0.00     0.000 HD 
ENDBRANCH  34  41
ENDBRANCH  29  30
ENDBRANCH  23  29
ENDBRANCH  14  15
ENDBRANCH   9  14
ENDBRANCH   4   5
ENDBRANCH   2   4
TORSDOF 7
ENDMDL
MODEL      273
REMARK 921   NORMALIZED FREE ENERGY PREDICTED BY IDOCK:   -3.03 KCAL/MOL
REMARK 922        TOTAL FREE ENERGY PREDICTED BY IDOCK:   -5.98 KCAL/MOL
REMARK 923 INTER-LIGAND FREE ENERGY PREDICTED BY IDOCK:   -5.62 KCAL/MOL
REMARK 924 INTRA-LIGAND FREE ENERGY PREDICTED BY IDOCK:   -0.36 KCAL/MOL
REMARK 927      BINDING AFFINITY PREDICTED BY RF-SCORE:    0.00 PKD
ROOT
HETATM    1  C   UNL     1      -8.562   9.116  71.673  1.00  0.00     0.177 C  
HETATM    2  N   UNL     1      -7.773   8.011  72.196  1.00  0.00    -0.098 NA 
HETATM    3  H   UNL     1      -8.038   7.806  73.159  1.00  0.00     0.000 HD 
ENDROOT
BRANCH   2   4
HETATM    4  C   UNL     1      -7.833   6.794  71.373  1.00  0.00    -0.098 C  
BRANCH   4   5
HETATM    5  C   UNL     1      -8.720   6.878  70.101  1.00  0.00    -0.141 C  
HETATM    6  C   UNL     1      -9.483   5.602  69.798  1.00  0.00    -0.189 C  
HETATM    7  C   UNL     1     -10.354   5.824  68.562  1.00  0.00    -0.274 C  
HETATM    8  C   UNL     1      -9.585   6.494  67.403  1.00  0.00    -0.125 C  
HETATM    9  C   UNL     1      -8.595   7.660  67.854  1.00  0.00    -0.122 C  
HETATM   10  N   UNL     1     -10.535   6.811  66.311  1.00  0.00    -0.415 NA 
HETATM   11  O   UNL     1      -7.862   7.175  68.975  1.00  0.00    -0.110 OA 
HETATM   12  H1  UNL     1     -10.027   7.254  65.546  1.00  0.00     0.000 HD 
HETATM   13  H2  UNL     1     -11.322   7.376  66.633  1.00  0.00     0.000 HD 
BRANCH   9  14
HETATM   14  O   UNL     1      -9.192   8.954  68.104  1.00  0.00    -0.139 OA 
BRANCH  14  15
HETATM   15  C   UNL     1      -9.539   9.822  66.943  1.00  0.00    -0.180 C  
HETATM   16  C   UNL     1      -8.369  10.692  66.409  1.00  0.00    -0.151 C  
HETATM   17  N   UNL     1      -7.385   9.856  65.692  1.00  0.00    -0.110 NA 
HETATM   18  C   UNL     1      -8.848  11.777  65.422  1.00  0.00     0.256 C  
HETATM   19  H2  UNL     1      -7.821   9.310  64.949  1.00  0.00     0.000 HD 
HETATM   20  H1  UNL     1      -6.617  10.427  65.342  1.00  0.00     0.000 HD 
HETATM   21  C   UNL     1      -9.938  12.683  66.015  1.00  0.00    -0.258 C  
HETATM   22  N   UNL     1     -10.208  13.815  65.121  1.00  0.00    -0.475 NA 
HETATM   23  C   UNL     1     -11.226  11.884  66.292  1.00  0.00    -0.337 C  
HETATM   24  C   UNL     1     -10.860  10.633  67.150  1.00  0.00    -0.270 C  
HETATM   25  O   UNL     1     -11.983   9.721  67.156  1.00  0.00     1.079 OA 
HETATM   26  H1  UNL     1     -10.931  14.416  65.514  1.00  0.00     0.000 HD 
HETATM   27  H2  UNL     1     -10.444  13.505  64.178  1.00  0.00     0.000 HD 
HETATM   28  H   UNL     1     -12.785  10.214  67.282  1.00  0.00     0.000 HD 
BRANCH  23  29
HETATM   29  O   UNL     1     -12.136  12.678  67.107  1.00  0.00    -0.466 OA 
BRANCH  29  30
HETATM   30  C   UNL     1     -11.709  13.358  68.305  1.00  0.00    -0.356 C  
HETATM   31  O   UNL     1     -12.397  12.989  69.503  1.00  0.00    -0.178 OA 
HETATM   32  C   UNL     1     -11.816  13.599  70.666  1.00  0.00    -0.154 C  
HETATM   33  C   UNL     1     -11.888  15.148  70.646  1.00  0.00    -0.325 C  
HETATM   34  C   UNL     1     -11.154  15.660  69.377  1.00  0.00    -0.303 C  
HETATM   35  O   UNL     1     -13.268  15.547  70.602  1.00  0.00    -0.657 OA 
HETATM   36  C   UNL     1     -11.275  15.690  71.947  1.00  0.00    -0.299 C  
HETATM   37  H   UNL     1     -10.798  16.250  66.870  1.00  0.00     0.000 HD 
HETATM   38  H   UNL     1     -13.311  16.495  70.591  1.00  0.00     0.000 HD 
HETATM   39  C   UNL     1     -11.674  14.919  68.097  1.00  0.00    -0.318 C  
HETATM   40  O   UNL     1     -10.819  15.309  66.995  1.00  0.00    -0.312 OA 
BRANCH  34  41
HETATM   41  N   UNL     1     -10.999  17.131  69.161  1.00  0.00    -0.277 NA 
HETATM   42  C   UNL     1      -9.664  17.695  69.268  1.00  0.00     0.005 C  
HETATM   43  H   UNL     1     -11.804  17.719  68.945  1.00  0.00     0.000 HD 
ENDBRANCH  34  41
ENDBRANCH  29  30
ENDBRANCH  23  29
ENDBRANCH  14  15
ENDBRANCH   9  14
ENDBRANCH   4   5
ENDBRANCH   2   4
TORSDOF 7
ENDMDL
MODEL      274
REMARK 921   NORMALIZED FREE ENERGY PREDICTED BY IDOCK:   -3.01 KCAL/MOL
REMARK 922        TOTAL FREE ENERGY PREDICTED BY IDOCK:   -5.95 KCAL/MOL
REMARK 923 INTER-LIGAND FREE ENERGY PREDICTED BY IDOCK:   -5.22 KCAL/MOL
REMARK 924 INTRA-LIGAND FREE ENERGY PREDICTED BY IDOCK:   -0.73 KCAL/MOL
REMARK 927      BINDING AFFINITY PREDICTED BY RF-SCORE:    0.00 PKD
ROOT
HETATM    1  C   UNL     1     -11.807   9.778  70.488  1.00  0.00    -0.240 C  
HETATM    2  N   UNL     1     -11.159   9.158  69.342  1.00  0.00    -0.428 NA 
HETATM    3  H   UNL     1     -11.527   8.219  69.187  1.00  0.00     0.000 HD 
ENDROOT
BRANCH   2   4
HETATM    4  C   UNL     1     -11.241   9.956  68.109  1.00  0.00    -0.077 C  
BRANCH   4   5
HETATM    5  C   UNL     1     -10.657  11.392  68.191  1.00  0.00    -0.189 C  
HETATM    6  C   UNL     1     -11.706  12.487  68.118  1.00  0.00    -0.400 C  
HETATM    7  C   UNL     1     -11.019  13.845  68.260  1.00  0.00    -0.274 C  
HETATM    8  C   UNL     1      -9.774  13.982  67.358  1.00  0.00    -0.233 C  
HETATM    9  C   UNL     1      -8.864  12.673  67.286  1.00  0.00    -0.196 C  
HETATM   10  N   UNL     1      -9.086  15.256  67.671  1.00  0.00    -0.181 NA 
HETATM   11  O   UNL     1      -9.738  11.567  67.087  1.00  0.00    -0.182 OA 
HETATM   12  H1  UNL     1      -8.263  15.346  67.075  1.00  0.00     0.000 HD 
HETATM   13  H2  UNL     1      -8.858  15.341  68.662  1.00  0.00     0.000 HD 
BRANCH   9  14
HETATM   14  O   UNL     1      -7.948  12.463  68.386  1.00  0.00    -0.151 OA 
BRANCH  14  15
HETATM   15  C   UNL     1      -7.092  11.243  68.386  1.00  0.00    -0.081 C  
HETATM   16  C   UNL     1      -6.659  10.753  66.977  1.00  0.00    -0.085 C  
HETATM   17  N   UNL     1      -5.643  11.659  66.402  1.00  0.00    -0.413 NA 
HETATM   18  C   UNL     1      -6.040   9.340  67.012  1.00  0.00    -0.060 C  
HETATM   19  H2  UNL     1      -4.844  11.776  67.025  1.00  0.00     0.000 HD 
HETATM   20  H1  UNL     1      -5.359  11.337  65.477  1.00  0.00     0.000 HD 
HETATM   21  C   UNL     1      -6.967   8.299  67.659  1.00  0.00    -0.079 C  
HETATM   22  N   UNL     1      -6.425   6.948  67.482  1.00  0.00    -0.048 NA 
HETATM   23  C   UNL     1      -7.185   8.611  69.152  1.00  0.00    -0.064 C  
HETATM   24  C   UNL     1      -7.651  10.094  69.287  1.00  0.00    -0.117 C  
HETATM   25  O   UNL     1      -7.562  10.492  70.675  1.00  0.00    -0.340 OA 
HETATM   26  H1  UNL     1      -7.039   6.257  67.911  1.00  0.00     0.000 HD 
HETATM   27  H2  UNL     1      -5.469   6.874  67.831  1.00  0.00     0.000 HD 
HETATM   28  H   UNL     1      -7.901   9.794  71.223  1.00  0.00     0.000 HD 
BRANCH  23  29
HETATM   29  O   UNL     1      -8.275   7.798  69.674  1.00  0.00    -0.123 OA 
BRANCH  29  30
HETATM   30  C   UNL     1      -8.054   6.523  70.312  1.00  0.00    -0.121 C  
HETATM   31  O   UNL     1      -8.462   5.378  69.560  1.00  0.00    -0.098 OA 
HETATM   32  C   UNL     1      -8.074   4.151  70.198  1.00  0.00    -0.058 C  
HETATM   33  C   UNL     1      -8.731   3.948  71.589  1.00  0.00    -0.098 C  
HETATM   34  C   UNL     1      -8.339   5.146  72.498  1.00  0.00    -0.117 C  
HETATM   35  O   UNL     1     -10.158   3.910  71.426  1.00  0.00    -0.157 OA 
HETATM   36  C   UNL     1      -8.279   2.595  72.159  1.00  0.00    -0.055 C  
HETATM   37  H   UNL     1      -8.415   7.550  73.485  1.00  0.00     0.000 HD 
HETATM   38  H   UNL     1     -10.559   3.786  72.277  1.00  0.00     0.000 HD 
HETATM   39  C   UNL     1      -8.629   6.508  71.778  1.00  0.00    -0.124 C  
HETATM   40  O   UNL     1      -8.068   7.559  72.601  1.00  0.00    -0.102 OA 
BRANCH  34  41
HETATM   41  N   UNL     1      -8.770   5.153  73.929  1.00  0.00    -0.118 NA 
HETATM   42  C   UNL     1     -10.080   4.611  74.244  1.00  0.00    -0.212 C  
HETATM   43  H   UNL     1      -8.164   5.527  74.660  1.00  0.00     0.000 HD 
ENDBRANCH  34  41
ENDBRANCH  29  30
ENDBRANCH  23  29
ENDBRANCH  14  15
ENDBRANCH   9  14
ENDBRANCH   4   5
ENDBRANCH   2   4
TORSDOF 7
ENDMDL
MODEL      275
REMARK 921   NORMALIZED FREE ENERGY PREDICTED BY IDOCK:   -2.96 KCAL/MOL
REMARK 922        TOTAL FREE ENERGY PREDICTED BY IDOCK:   -5.89 KCAL/MOL
REMARK 923 INTER-LIGAND FREE ENERGY PREDICTED BY IDOCK:   -5.56 KCAL/MOL
REMARK 924 INTRA-LIGAND FREE ENERGY PREDICTED BY IDOCK:   -0.33 KCAL/MOL
REMARK 927      BINDING AFFINITY PREDICTED BY RF-SCORE:    0.00 PKD
ROOT
HETATM    1  C   UNL     1     -10.648   3.920  64.127  1.00  0.00    -0.229 C  
HETATM    2  N   UNL     1      -9.384   4.615  64.319  1.00  0.00    -0.316 NA 
HETATM    3  H   UNL     1      -9.384   5.503  63.818  1.00  0.00     0.000 HD 
ENDROOT
BRANCH   2   4
HETATM    4  C   UNL     1      -9.024   4.818  65.730  1.00  0.00    -0.138 C  
BRANCH   4   5
HETATM    5  C   UNL     1      -9.177   6.267  66.268  1.00  0.00    -0.145 C  
HETATM    6  C   UNL     1     -10.604   6.643  66.623  1.00  0.00    -0.224 C  
HETATM    7  C   UNL     1     -10.619   8.064  67.185  1.00  0.00    -0.367 C  
HETATM    8  C   UNL     1      -9.807   9.056  66.324  1.00  0.00    -0.291 C  
HETATM    9  C   UNL     1      -8.430   8.473  65.768  1.00  0.00    -0.154 C  
HETATM   10  N   UNL     1      -9.745  10.363  67.019  1.00  0.00    -0.173 NA 
HETATM   11  O   UNL     1      -8.705   7.176  65.247  1.00  0.00    -0.050 OA 
HETATM   12  H1  UNL     1      -9.209  11.017  66.451  1.00  0.00     0.000 HD 
HETATM   13  H2  UNL     1      -9.378  10.282  67.968  1.00  0.00     0.000 HD 
BRANCH   9  14
HETATM   14  O   UNL     1      -7.311   8.473  66.686  1.00  0.00    -0.080 OA 
BRANCH  14  15
HETATM   15  C   UNL     1      -7.379   9.329  67.903  1.00  0.00    -0.080 C  
HETATM   16  C   UNL     1      -6.441  10.567  67.880  1.00  0.00    -0.060 C  
HETATM   17  N   UNL     1      -6.951  11.587  66.941  1.00  0.00    -0.165 NA 
HETATM   18  C   UNL     1      -6.325  11.241  69.263  1.00  0.00    -0.081 C  
HETATM   19  H2  UNL     1      -7.915  11.846  67.149  1.00  0.00     0.000 HD 
HETATM   20  H1  UNL     1      -6.335  12.399  66.926  1.00  0.00     0.000 HD 
HETATM   21  C   UNL     1      -5.872  10.269  70.363  1.00  0.00    -0.087 C  
HETATM   22  N   UNL     1      -5.579  10.997  71.603  1.00  0.00    -0.333 NA 
HETATM   23  C   UNL     1      -6.933   9.179  70.605  1.00  0.00    -0.090 C  
HETATM   24  C   UNL     1      -7.287   8.518  69.236  1.00  0.00    -0.071 C  
HETATM   25  O   UNL     1      -8.486   7.723  69.393  1.00  0.00    -0.131 OA 
HETATM   26  H1  UNL     1      -5.278  10.352  72.334  1.00  0.00     0.000 HD 
HETATM   27  H2  UNL     1      -6.370  11.567  71.903  1.00  0.00     0.000 HD 
HETATM   28  H   UNL     1      -8.430   7.230  70.204  1.00  0.00     0.000 HD 
BRANCH  23  29
HETATM   29  O   UNL     1      -6.374   8.117  71.432  1.00  0.00    -0.035 OA 
BRANCH  29  30
HETATM   30  C   UNL     1      -7.192   7.095  72.036  1.00  0.00    -0.076 C  
HETATM   31  O   UNL     1      -7.306   5.877  71.295  1.00  0.00    -0.076 OA 
HETATM   32  C   UNL     1      -8.012   4.865  72.030  1.00  0.00    -0.110 C  
HETATM   33  C   UNL     1      -9.478   5.253  72.355  1.00  0.00    -0.140 C  
HETATM   34  C   UNL     1      -9.468   6.571  73.177  1.00  0.00    -0.145 C  
HETATM   35  O   UNL     1     -10.188   5.456  71.122  1.00  0.00    -0.201 OA 
HETATM   36  C   UNL     1     -10.145   4.089  73.105  1.00  0.00    -0.204 C  
HETATM   37  H   UNL     1      -9.330   9.127  73.634  1.00  0.00     0.000 HD 
HETATM   38  H   UNL     1     -11.085   5.693  71.322  1.00  0.00     0.000 HD 
HETATM   39  C   UNL     1      -8.597   7.663  72.466  1.00  0.00    -0.124 C  
HETATM   40  O   UNL     1      -8.483   8.784  73.375  1.00  0.00    -0.351 OA 
BRANCH  34  41
HETATM   41  N   UNL     1     -10.757   7.121  73.699  1.00  0.00    -0.506 NA 
HETATM   42  C   UNL     1     -11.580   7.897  72.789  1.00  0.00    -0.329 C  
HETATM   43  H   UNL     1     -11.048   6.956  74.663  1.00  0.00     0.000 HD 
ENDBRANCH  34  41
ENDBRANCH  29  30
ENDBRANCH  23  29
ENDBRANCH  14  15
ENDBRANCH   9  14
ENDBRANCH   4   5
ENDBRANCH   2   4
TORSDOF 7
ENDMDL
MODEL      276
REMARK 921   NORMALIZED FREE ENERGY PREDICTED BY IDOCK:   -2.94 KCAL/MOL
REMARK 922        TOTAL FREE ENERGY PREDICTED BY IDOCK:   -5.86 KCAL/MOL
REMARK 923 INTER-LIGAND FREE ENERGY PREDICTED BY IDOCK:   -6.03 KCAL/MOL
REMARK 924 INTRA-LIGAND FREE ENERGY PREDICTED BY IDOCK:    0.18 KCAL/MOL
REMARK 927      BINDING AFFINITY PREDICTED BY RF-SCORE:    0.00 PKD
ROOT
HETATM    1  C   UNL     1      -9.317   2.224  70.058  1.00  0.00    -0.104 C  
HETATM    2  N   UNL     1      -8.718   3.549  70.109  1.00  0.00    -0.062 NA 
HETATM    3  H   UNL     1      -7.850   3.530  70.644  1.00  0.00     0.000 HD 
ENDROOT
BRANCH   2   4
HETATM    4  C   UNL     1      -8.498   4.154  68.787  1.00  0.00    -0.083 C  
BRANCH   4   5
HETATM    5  C   UNL     1      -9.371   5.395  68.455  1.00  0.00    -0.118 C  
HETATM    6  C   UNL     1     -10.239   5.224  67.221  1.00  0.00    -0.252 C  
HETATM    7  C   UNL     1     -11.084   6.483  67.028  1.00  0.00    -0.411 C  
HETATM    8  C   UNL     1     -10.259   7.781  67.153  1.00  0.00    -0.295 C  
HETATM    9  C   UNL     1      -9.176   7.766  68.323  1.00  0.00    -0.139 C  
HETATM   10  N   UNL     1     -11.176   8.944  67.109  1.00  0.00    -0.039 NA 
HETATM   11  O   UNL     1      -8.488   6.520  68.240  1.00  0.00    -0.116 OA 
HETATM   12  H1  UNL     1     -10.631   9.802  67.191  1.00  0.00     0.000 HD 
HETATM   13  H2  UNL     1     -11.913   8.884  67.812  1.00  0.00     0.000 HD 
BRANCH   9  14
HETATM   14  O   UNL     1      -9.663   8.039  69.658  1.00  0.00    -0.168 OA 
BRANCH  14  15
HETATM   15  C   UNL     1     -10.049   9.434  70.010  1.00  0.00    -0.226 C  
HETATM   16  C   UNL     1     -11.571   9.651  70.230  1.00  0.00    -0.198 C  
HETATM   17  N   UNL     1     -12.003   9.041  71.504  1.00  0.00    -0.321 NA 
HETATM   18  C   UNL     1     -11.947  11.146  70.292  1.00  0.00    -0.460 C  
HETATM   19  H2  UNL     1     -11.454   9.382  72.294  1.00  0.00     0.000 HD 
HETATM   20  H1  UNL     1     -13.003   9.184  71.648  1.00  0.00     0.000 HD 
HETATM   21  C   UNL     1     -11.487  11.929  69.052  1.00  0.00    -0.297 C  
HETATM   22  N   UNL     1     -12.045  13.285  69.064  1.00  0.00    -0.283 NA 
HETATM   23  C   UNL     1      -9.949  11.970  68.968  1.00  0.00     0.137 C  
HETATM   24  C   UNL     1      -9.407  10.510  69.074  1.00  0.00    -0.196 C  
HETATM   25  O   UNL     1      -7.980  10.553  69.308  1.00  0.00    -0.142 OA 
HETATM   26  H1  UNL     1     -11.740  13.805  68.242  1.00  0.00     0.000 HD 
HETATM   27  H2  UNL     1     -11.822  13.779  69.929  1.00  0.00     0.000 HD 
HETATM   28  H   UNL     1      -7.590  11.207  68.739  1.00  0.00     0.000 HD 
BRANCH  23  29
HETATM   29  O   UNL     1      -9.537  12.457  67.658  1.00  0.00    -0.184 OA 
BRANCH  29  30
HETATM   30  C   UNL     1      -8.753  13.655  67.489  1.00  0.00    -0.198 C  
HETATM   31  O   UNL     1      -7.571  13.736  68.289  1.00  0.00    -0.108 OA 
HETATM   32  C   UNL     1      -6.774  14.884  67.956  1.00  0.00    -0.141 C  
HETATM   33  C   UNL     1      -7.502  16.231  68.212  1.00  0.00    -0.157 C  
HETATM   34  C   UNL     1      -8.809  16.251  67.373  1.00  0.00    -0.186 C  
HETATM   35  O   UNL     1      -7.821  16.326  69.609  1.00  0.00    -0.061 OA 
HETATM   36  C   UNL     1      -6.550  17.384  67.859  1.00  0.00    -0.171 C  
HETATM   37  H   UNL     1     -11.278  15.733  66.741  1.00  0.00     0.000 HD 
HETATM   38  H   UNL     1      -8.266  17.150  69.765  1.00  0.00     0.000 HD 
HETATM   39  C   UNL     1      -9.645  14.947  67.614  1.00  0.00    -0.200 C  
HETATM   40  O   UNL     1     -10.740  14.954  66.666  1.00  0.00    -0.300 OA 
BRANCH  34  41
HETATM   41  N   UNL     1      -9.659  17.481  67.368  1.00  0.00    -0.261 NA 
HETATM   42  C   UNL     1      -9.078  18.704  66.843  1.00  0.00    -0.294 C  
HETATM   43  H   UNL     1     -10.616  17.461  67.721  1.00  0.00     0.000 HD 
ENDBRANCH  34  41
ENDBRANCH  29  30
ENDBRANCH  23  29
ENDBRANCH  14  15
ENDBRANCH   9  14
ENDBRANCH   4   5
ENDBRANCH   2   4
TORSDOF 7
ENDMDL
MODEL      277
REMARK 921   NORMALIZED FREE ENERGY PREDICTED BY IDOCK:   -2.91 KCAL/MOL
REMARK 922        TOTAL FREE ENERGY PREDICTED BY IDOCK:   -5.81 KCAL/MOL
REMARK 923 INTER-LIGAND FREE ENERGY PREDICTED BY IDOCK:   -5.25 KCAL/MOL
REMARK 924 INTRA-LIGAND FREE ENERGY PREDICTED BY IDOCK:   -0.56 KCAL/MOL
REMARK 927      BINDING AFFINITY PREDICTED BY RF-SCORE:    0.00 PKD
ROOT
HETATM    1  C   UNL     1     -11.408  11.048  67.851  1.00  0.00    -0.311 C  
HETATM    2  N   UNL     1     -12.039  10.283  68.915  1.00  0.00    -0.609 NA 
HETATM    3  H   UNL     1     -12.642   9.558  68.526  1.00  0.00     0.000 HD 
ENDROOT
BRANCH   2   4
HETATM    4  C   UNL     1     -11.089   9.704  69.877  1.00  0.00    -0.235 C  
BRANCH   4   5
HETATM    5  C   UNL     1     -10.900   8.165  69.801  1.00  0.00    -0.190 C  
HETATM    6  C   UNL     1     -11.016   7.464  71.142  1.00  0.00    -0.265 C  
HETATM    7  C   UNL     1     -10.864   5.958  70.932  1.00  0.00    -0.347 C  
HETATM    8  C   UNL     1      -9.660   5.599  70.035  1.00  0.00    -0.166 C  
HETATM    9  C   UNL     1      -9.458   6.565  68.782  1.00  0.00    -0.128 C  
HETATM   10  N   UNL     1      -9.679   4.143  69.758  1.00  0.00    -0.215 NA 
HETATM   11  O   UNL     1      -9.584   7.901  69.260  1.00  0.00    -0.156 OA 
HETATM   12  H1  UNL     1      -8.884   3.906  69.165  1.00  0.00     0.000 HD 
HETATM   13  H2  UNL     1     -10.566   3.836  69.358  1.00  0.00     0.000 HD 
BRANCH   9  14
HETATM   14  O   UNL     1     -10.294   6.310  67.629  1.00  0.00    -0.148 OA 
BRANCH  14  15
HETATM   15  C   UNL     1      -9.660   6.239  66.283  1.00  0.00    -0.075 C  
HETATM   16  C   UNL     1      -8.775   4.984  66.047  1.00  0.00    -0.127 C  
HETATM   17  N   UNL     1      -9.615   3.779  65.890  1.00  0.00    -0.259 NA 
HETATM   18  C   UNL     1      -7.913   5.106  64.774  1.00  0.00    -0.104 C  
HETATM   19  H2  UNL     1     -10.311   3.895  65.154  1.00  0.00     0.000 HD 
HETATM   20  H1  UNL     1      -9.034   2.955  65.736  1.00  0.00     0.000 HD 
HETATM   21  C   UNL     1      -7.035   6.366  64.766  1.00  0.00    -0.051 C  
HETATM   22  N   UNL     1      -6.091   6.329  63.644  1.00  0.00    -0.022 NA 
HETATM   23  C   UNL     1      -7.901   7.639  64.711  1.00  0.00    -0.129 C  
HETATM   24  C   UNL     1      -8.959   7.569  65.857  1.00  0.00    -0.089 C  
HETATM   25  O   UNL     1      -9.963   8.586  65.633  1.00  0.00    -0.386 OA 
HETATM   26  H1  UNL     1      -5.508   7.165  63.638  1.00  0.00     0.000 HD 
HETATM   27  H2  UNL     1      -6.568   6.193  62.752  1.00  0.00     0.000 HD 
HETATM   28  H   UNL     1      -9.537   9.395  65.374  1.00  0.00     0.000 HD 
BRANCH  23  29
HETATM   29  O   UNL     1      -7.081   8.810  64.992  1.00  0.00    -0.078 OA 
BRANCH  29  30
HETATM   30  C   UNL     1      -7.420   9.765  66.018  1.00  0.00    -0.102 C  
HETATM   31  O   UNL     1      -7.939  11.013  65.552  1.00  0.00    -0.061 OA 
HETATM   32  C   UNL     1      -8.387  11.845  66.634  1.00  0.00    -0.117 C  
HETATM   33  C   UNL     1      -7.251  12.245  67.612  1.00  0.00    -0.128 C  
HETATM   34  C   UNL     1      -6.620  10.948  68.189  1.00  0.00    -0.062 C  
HETATM   35  O   UNL     1      -6.257  12.987  66.888  1.00  0.00    -0.449 OA 
HETATM   36  C   UNL     1      -7.832  13.159  68.701  1.00  0.00    -0.056 C  
HETATM   37  H   UNL     1      -5.120   8.826  68.272  1.00  0.00     0.000 HD 
HETATM   38  H   UNL     1      -5.562  13.232  67.487  1.00  0.00     0.000 HD 
HETATM   39  C   UNL     1      -6.235   9.956  67.038  1.00  0.00    -0.063 C  
HETATM   40  O   UNL     1      -5.834   8.710  67.657  1.00  0.00    -0.042 OA 
BRANCH  34  41
HETATM   41  N   UNL     1      -5.554  11.052  69.232  1.00  0.00    -0.041 NA 
HETATM   42  C   UNL     1      -5.257   9.867  70.018  1.00  0.00    -0.037 C  
HETATM   43  H   UNL     1      -5.052  11.926  69.387  1.00  0.00     0.000 HD 
ENDBRANCH  34  41
ENDBRANCH  29  30
ENDBRANCH  23  29
ENDBRANCH  14  15
ENDBRANCH   9  14
ENDBRANCH   4   5
ENDBRANCH   2   4
TORSDOF 7
ENDMDL
MODEL      278
REMARK 921   NORMALIZED FREE ENERGY PREDICTED BY IDOCK:   -2.88 KCAL/MOL
REMARK 922        TOTAL FREE ENERGY PREDICTED BY IDOCK:   -5.77 KCAL/MOL
REMARK 923 INTER-LIGAND FREE ENERGY PREDICTED BY IDOCK:   -5.54 KCAL/MOL
REMARK 924 INTRA-LIGAND FREE ENERGY PREDICTED BY IDOCK:   -0.23 KCAL/MOL
REMARK 927      BINDING AFFINITY PREDICTED BY RF-SCORE:    0.00 PKD
ROOT
HETATM    1  C   UNL     1      -9.942  14.419  68.774  1.00  0.00    -0.223 C  
HETATM    2  N   UNL     1     -10.048  15.317  67.634  1.00  0.00    -0.234 NA 
HETATM    3  H   UNL     1      -9.163  15.798  67.474  1.00  0.00     0.000 HD 
ENDROOT
BRANCH   2   4
HETATM    4  C   UNL     1     -10.511  14.663  66.401  1.00  0.00    -0.295 C  
BRANCH   4   5
HETATM    5  C   UNL     1     -10.272  13.131  66.315  1.00  0.00    -0.293 C  
HETATM    6  C   UNL     1      -9.933  12.640  64.919  1.00  0.00    -0.169 C  
HETATM    7  C   UNL     1      -9.670  11.135  64.971  1.00  0.00    -0.298 C  
HETATM    8  C   UNL     1     -10.751  10.367  65.761  1.00  0.00     0.060 C  
HETATM    9  C   UNL     1     -11.242  11.099  67.090  1.00  0.00    -0.249 C  
HETATM   10  N   UNL     1     -10.339   8.950  65.893  1.00  0.00    -0.152 NA 
HETATM   11  O   UNL     1     -11.477  12.463  66.754  1.00  0.00    -0.319 OA 
HETATM   12  H1  UNL     1     -11.053   8.443  66.415  1.00  0.00     0.000 HD 
HETATM   13  H2  UNL     1      -9.412   8.852  66.309  1.00  0.00     0.000 HD 
BRANCH   9  14
HETATM   14  O   UNL     1     -10.398  10.955  68.257  1.00  0.00    -0.162 OA 
BRANCH  14  15
HETATM   15  C   UNL     1     -10.720   9.893  69.250  1.00  0.00    -0.224 C  
HETATM   16  C   UNL     1     -11.391  10.403  70.554  1.00  0.00    -0.341 C  
HETATM   17  N   UNL     1     -12.789  10.805  70.295  1.00  0.00    -0.348 NA 
HETATM   18  C   UNL     1     -11.425   9.325  71.658  1.00  0.00    -0.468 C  
HETATM   19  H2  UNL     1     -13.325  10.054  69.863  1.00  0.00     0.000 HD 
HETATM   20  H1  UNL     1     -13.229  11.141  71.152  1.00  0.00     0.000 HD 
HETATM   21  C   UNL     1     -10.034   8.758  71.980  1.00  0.00    -0.321 C  
HETATM   22  N   UNL     1     -10.093   7.897  73.166  1.00  0.00    -0.313 NA 
HETATM   23  C   UNL     1      -9.461   7.990  70.774  1.00  0.00    -0.161 C  
HETATM   24  C   UNL     1      -9.529   8.915  69.518  1.00  0.00    -0.159 C  
HETATM   25  O   UNL     1      -9.291   8.120  68.333  1.00  0.00    -0.136 OA 
HETATM   26  H1  UNL     1      -9.170   7.520  73.381  1.00  0.00     0.000 HD 
HETATM   27  H2  UNL     1     -10.789   7.159  73.065  1.00  0.00     0.000 HD 
HETATM   28  H   UNL     1      -8.567   7.525  68.496  1.00  0.00     0.000 HD 
BRANCH  23  29
HETATM   29  O   UNL     1      -8.048   7.710  70.990  1.00  0.00    -0.093 OA 
BRANCH  29  30
HETATM   30  C   UNL     1      -7.251   6.970  70.042  1.00  0.00    -0.079 C  
HETATM   31  O   UNL     1      -6.732   7.729  68.947  1.00  0.00    -0.047 OA 
HETATM   32  C   UNL     1      -5.835   6.956  68.135  1.00  0.00    -0.021 C  
HETATM   33  C   UNL     1      -6.514   5.733  67.465  1.00  0.00    -0.047 C  
HETATM   34  C   UNL     1      -7.108   4.827  68.578  1.00  0.00    -0.057 C  
HETATM   35  O   UNL     1      -7.567   6.201  66.607  1.00  0.00    -0.091 OA 
HETATM   36  C   UNL     1      -5.477   5.004  66.596  1.00  0.00    -0.013 C  
HETATM   37  H   UNL     1      -8.799   4.013  70.378  1.00  0.00     0.000 HD 
HETATM   38  H   UNL     1      -7.982   5.451  66.196  1.00  0.00     0.000 HD 
HETATM   39  C   UNL     1      -7.993   5.666  69.563  1.00  0.00    -0.092 C  
HETATM   40  O   UNL     1      -8.351   4.799  70.667  1.00  0.00    -0.092 OA 
BRANCH  34  41
HETATM   41  N   UNL     1      -7.745   3.527  68.206  1.00  0.00    -0.060 NA 
HETATM   42  C   UNL     1      -6.938   2.561  67.481  1.00  0.00    -0.048 C  
HETATM   43  H   UNL     1      -8.713   3.325  68.453  1.00  0.00     0.000 HD 
ENDBRANCH  34  41
ENDBRANCH  29  30
ENDBRANCH  23  29
ENDBRANCH  14  15
ENDBRANCH   9  14
ENDBRANCH   4   5
ENDBRANCH   2   4
TORSDOF 7
ENDMDL
MODEL      279
REMARK 921   NORMALIZED FREE ENERGY PREDICTED BY IDOCK:   -2.86 KCAL/MOL
REMARK 922        TOTAL FREE ENERGY PREDICTED BY IDOCK:   -5.74 KCAL/MOL
REMARK 923 INTER-LIGAND FREE ENERGY PREDICTED BY IDOCK:   -6.74 KCAL/MOL
REMARK 924 INTRA-LIGAND FREE ENERGY PREDICTED BY IDOCK:    1.00 KCAL/MOL
REMARK 927      BINDING AFFINITY PREDICTED BY RF-SCORE:    0.00 PKD
ROOT
HETATM    1  C   UNL     1      -7.090   7.878  71.673  1.00  0.00    -0.067 C  
HETATM    2  N   UNL     1      -6.656   6.490  71.723  1.00  0.00    -0.053 NA 
HETATM    3  H   UNL     1      -6.139   6.307  72.584  1.00  0.00     0.000 HD 
ENDROOT
BRANCH   2   4
HETATM    4  C   UNL     1      -7.747   5.518  71.558  1.00  0.00    -0.106 C  
BRANCH   4   5
HETATM    5  C   UNL     1      -9.178   6.051  71.839  1.00  0.00    -0.150 C  
HETATM    6  C   UNL     1      -9.730   5.645  73.194  1.00  0.00    -0.164 C  
HETATM    7  C   UNL     1     -11.114   6.267  73.375  1.00  0.00    -0.071 C  
HETATM    8  C   UNL     1     -12.022   6.075  72.141  1.00  0.00    -0.202 C  
HETATM    9  C   UNL     1     -11.281   6.262  70.741  1.00  0.00    -0.324 C  
HETATM   10  N   UNL     1     -13.277   6.837  72.339  1.00  0.00    -0.369 NA 
HETATM   11  O   UNL     1     -10.058   5.535  70.814  1.00  0.00    -0.189 OA 
HETATM   12  H1  UNL     1     -13.876   6.710  71.524  1.00  0.00     0.000 HD 
HETATM   13  H2  UNL     1     -13.105   7.822  72.544  1.00  0.00     0.000 HD 
BRANCH   9  14
HETATM   14  O   UNL     1     -11.088   7.624  70.289  1.00  0.00    -0.260 OA 
BRANCH  14  15
HETATM   15  C   UNL     1     -10.647   7.860  68.886  1.00  0.00    -0.145 C  
HETATM   16  C   UNL     1      -9.657   6.802  68.328  1.00  0.00    -0.127 C  
HETATM   17  N   UNL     1     -10.355   5.528  68.062  1.00  0.00    -0.188 NA 
HETATM   18  C   UNL     1      -9.006   7.249  67.003  1.00  0.00    -0.140 C  
HETATM   19  H2  UNL     1     -11.158   5.657  67.446  1.00  0.00     0.000 HD 
HETATM   20  H1  UNL     1      -9.704   4.833  67.696  1.00  0.00     0.000 HD 
HETATM   21  C   UNL     1      -8.300   8.609  67.114  1.00  0.00    -0.107 C  
HETATM   22  N   UNL     1      -7.528   8.889  65.899  1.00  0.00    -0.092 NA 
HETATM   23  C   UNL     1      -9.316   9.734  67.389  1.00  0.00    -0.134 C  
HETATM   24  C   UNL     1     -10.183   9.330  68.622  1.00  0.00    -0.199 C  
HETATM   25  O   UNL     1     -11.328  10.211  68.703  1.00  0.00    -0.433 OA 
HETATM   26  H1  UNL     1      -7.060   9.792  65.973  1.00  0.00     0.000 HD 
HETATM   27  H2  UNL     1      -8.106   8.829  65.061  1.00  0.00     0.000 HD 
HETATM   28  H   UNL     1     -11.046  11.105  68.543  1.00  0.00     0.000 HD 
BRANCH  23  29
HETATM   29  O   UNL     1      -8.615  10.953  67.773  1.00  0.00    -0.125 OA 
BRANCH  29  30
HETATM   30  C   UNL     1      -8.890  12.229  67.161  1.00  0.00    -0.194 C  
HETATM   31  O   UNL     1      -8.947  13.343  68.056  1.00  0.00    -0.176 OA 
HETATM   32  C   UNL     1      -9.077  14.590  67.354  1.00  0.00    -0.196 C  
HETATM   33  C   UNL     1     -10.387  14.695  66.530  1.00  0.00    -0.282 C  
HETATM   34  C   UNL     1     -10.422  13.525  65.509  1.00  0.00    -0.299 C  
HETATM   35  O   UNL     1     -11.507  14.592  67.425  1.00  0.00    -0.335 OA 
HETATM   36  C   UNL     1     -10.439  16.075  65.856  1.00  0.00    -0.373 C  
HETATM   37  H   UNL     1     -10.777  11.106  64.625  1.00  0.00     0.000 HD 
HETATM   38  H   UNL     1     -12.308  14.657  66.919  1.00  0.00     0.000 HD 
HETATM   39  C   UNL     1     -10.153  12.156  66.223  1.00  0.00    -0.224 C  
HETATM   40  O   UNL     1     -10.015  11.150  65.190  1.00  0.00    -0.240 OA 
BRANCH  34  41
HETATM   41  N   UNL     1     -11.543  13.444  64.523  1.00  0.00    -0.355 NA 
HETATM   42  C   UNL     1     -11.373  12.573  63.374  1.00  0.00    -0.422 C  
HETATM   43  H   UNL     1     -12.400  13.983  64.655  1.00  0.00     0.000 HD 
ENDBRANCH  34  41
ENDBRANCH  29  30
ENDBRANCH  23  29
ENDBRANCH  14  15
ENDBRANCH   9  14
ENDBRANCH   4   5
ENDBRANCH   2   4
TORSDOF 7
ENDMDL
MODEL      280
REMARK 921   NORMALIZED FREE ENERGY PREDICTED BY IDOCK:   -2.86 KCAL/MOL
REMARK 922        TOTAL FREE ENERGY PREDICTED BY IDOCK:   -5.74 KCAL/MOL
REMARK 923 INTER-LIGAND FREE ENERGY PREDICTED BY IDOCK:   -5.26 KCAL/MOL
REMARK 924 INTRA-LIGAND FREE ENERGY PREDICTED BY IDOCK:   -0.48 KCAL/MOL
REMARK 927      BINDING AFFINITY PREDICTED BY RF-SCORE:    0.00 PKD
ROOT
HETATM    1  C   UNL     1     -12.028  10.845  69.664  1.00  0.00    -0.343 C  
HETATM    2  N   UNL     1     -12.544   9.740  70.458  1.00  0.00    -0.512 NA 
HETATM    3  H   UNL     1     -12.696   8.919  69.872  1.00  0.00     0.000 HD 
ENDROOT
BRANCH   2   4
HETATM    4  C   UNL     1     -11.710   9.400  71.620  1.00  0.00    -0.398 C  
BRANCH   4   5
HETATM    5  C   UNL     1     -10.466   8.517  71.327  1.00  0.00    -0.225 C  
HETATM    6  C   UNL     1      -9.847   7.897  72.566  1.00  0.00    -0.299 C  
HETATM    7  C   UNL     1      -8.671   7.015  72.147  1.00  0.00    -0.133 C  
HETATM    8  C   UNL     1      -7.728   7.714  71.145  1.00  0.00    -0.085 C  
HETATM    9  C   UNL     1      -8.472   8.571  70.024  1.00  0.00    -0.125 C  
HETATM   10  N   UNL     1      -6.712   6.742  70.676  1.00  0.00    -0.053 NA 
HETATM   11  O   UNL     1      -9.469   9.345  70.684  1.00  0.00    -0.251 OA 
HETATM   12  H1  UNL     1      -6.089   7.204  70.014  1.00  0.00     0.000 HD 
HETATM   13  H2  UNL     1      -7.133   5.898  70.288  1.00  0.00     0.000 HD 
BRANCH   9  14
HETATM   14  O   UNL     1      -9.001   7.837  68.895  1.00  0.00    -0.141 OA 
BRANCH  14  15
HETATM   15  C   UNL     1      -8.335   7.978  67.570  1.00  0.00    -0.123 C  
HETATM   16  C   UNL     1      -6.824   7.619  67.560  1.00  0.00    -0.069 C  
HETATM   17  N   UNL     1      -6.637   6.158  67.675  1.00  0.00    -0.053 NA 
HETATM   18  C   UNL     1      -6.124   8.066  66.259  1.00  0.00    -0.045 C  
HETATM   19  H2  UNL     1      -7.152   5.652  66.954  1.00  0.00     0.000 HD 
HETATM   20  H1  UNL     1      -5.645   5.923  67.668  1.00  0.00     0.000 HD 
HETATM   21  C   UNL     1      -6.301   9.564  65.971  1.00  0.00    -0.069 C  
HETATM   22  N   UNL     1      -5.452   9.976  64.848  1.00  0.00    -0.073 NA 
HETATM   23  C   UNL     1      -7.779   9.899  65.692  1.00  0.00    -0.121 C  
HETATM   24  C   UNL     1      -8.644   9.339  66.864  1.00  0.00    -0.127 C  
HETATM   25  O   UNL     1     -10.038   9.367  66.476  1.00  0.00    -0.247 OA 
HETATM   26  H1  UNL     1      -5.569  10.970  64.656  1.00  0.00     0.000 HD 
HETATM   27  H2  UNL     1      -5.620   9.407  64.018  1.00  0.00     0.000 HD 
HETATM   28  H   UNL     1     -10.226  10.194  66.046  1.00  0.00     0.000 HD 
BRANCH  23  29
HETATM   29  O   UNL     1      -7.971  11.344  65.706  1.00  0.00     0.054 OA 
BRANCH  29  30
HETATM   30  C   UNL     1      -9.279  11.951  65.688  1.00  0.00    -0.053 C  
HETATM   31  O   UNL     1      -9.646  12.589  64.463  1.00  0.00     0.013 OA 
HETATM   32  C   UNL     1     -11.011  13.037  64.478  1.00  0.00    -0.358 C  
HETATM   33  C   UNL     1     -11.294  14.106  65.566  1.00  0.00    -0.319 C  
HETATM   34  C   UNL     1     -10.935  13.505  66.953  1.00  0.00    -0.288 C  
HETATM   35  O   UNL     1     -10.473  15.256  65.309  1.00  0.00    -0.358 OA 
HETATM   36  C   UNL     1     -12.765  14.537  65.467  1.00  0.00    -0.193 C  
HETATM   37  H   UNL     1      -9.437  12.755  68.941  1.00  0.00     0.000 HD 
HETATM   38  H   UNL     1     -10.646  15.911  65.975  1.00  0.00     0.000 HD 
HETATM   39  C   UNL     1      -9.494  12.889  66.935  1.00  0.00    -0.237 C  
HETATM   40  O   UNL     1      -9.308  12.189  68.189  1.00  0.00    -0.194 OA 
BRANCH  34  41
HETATM   41  N   UNL     1     -11.199  14.302  68.189  1.00  0.00    -0.263 NA 
HETATM   42  C   UNL     1     -12.569  14.379  68.665  1.00  0.00     0.426 C  
HETATM   43  H   UNL     1     -10.442  14.776  68.682  1.00  0.00     0.000 HD 
ENDBRANCH  34  41
ENDBRANCH  29  30
ENDBRANCH  23  29
ENDBRANCH  14  15
ENDBRANCH   9  14
ENDBRANCH   4   5
ENDBRANCH   2   4
TORSDOF 7
ENDMDL
MODEL      281
REMARK 921   NORMALIZED FREE ENERGY PREDICTED BY IDOCK:   -2.83 KCAL/MOL
REMARK 922        TOTAL FREE ENERGY PREDICTED BY IDOCK:   -5.70 KCAL/MOL
REMARK 923 INTER-LIGAND FREE ENERGY PREDICTED BY IDOCK:   -4.97 KCAL/MOL
REMARK 924 INTRA-LIGAND FREE ENERGY PREDICTED BY IDOCK:   -0.73 KCAL/MOL
REMARK 927      BINDING AFFINITY PREDICTED BY RF-SCORE:    0.00 PKD
ROOT
HETATM    1  C   UNL     1      -9.712  10.251  63.353  1.00  0.00    -0.184 C  
HETATM    2  N   UNL     1      -9.977  11.235  64.392  1.00  0.00    -0.267 NA 
HETATM    3  H   UNL     1     -10.735  11.857  64.110  1.00  0.00     0.000 HD 
ENDROOT
BRANCH   2   4
HETATM    4  C   UNL     1     -10.253  10.648  65.712  1.00  0.00    -0.252 C  
BRANCH   4   5
HETATM    5  C   UNL     1     -10.302  11.646  66.900  1.00  0.00    -0.220 C  
HETATM    6  C   UNL     1     -11.564  12.489  66.944  1.00  0.00    -0.436 C  
HETATM    7  C   UNL     1     -11.519  13.389  68.179  1.00  0.00    -0.339 C  
HETATM    8  C   UNL     1     -10.165  14.112  68.342  1.00  0.00    -0.247 C  
HETATM    9  C   UNL     1      -8.891  13.211  68.012  1.00  0.00    -0.191 C  
HETATM   10  N   UNL     1     -10.154  14.834  69.636  1.00  0.00    -0.434 NA 
HETATM   11  O   UNL     1      -9.164  12.532  66.789  1.00  0.00    -0.209 OA 
HETATM   12  H1  UNL     1      -9.259  15.312  69.743  1.00  0.00     0.000 HD 
HETATM   13  H2  UNL     1     -10.363  14.221  70.424  1.00  0.00     0.000 HD 
BRANCH   9  14
HETATM   14  O   UNL     1      -8.448  12.312  69.055  1.00  0.00     0.167 OA 
BRANCH  14  15
HETATM   15  C   UNL     1      -7.234  11.481  68.821  1.00  0.00    -0.112 C  
HETATM   16  C   UNL     1      -6.660  11.559  67.380  1.00  0.00    -0.101 C  
HETATM   17  N   UNL     1      -6.005  12.864  67.152  1.00  0.00    -0.463 NA 
HETATM   18  C   UNL     1      -5.605  10.467  67.108  1.00  0.00    -0.042 C  
HETATM   19  H2  UNL     1      -5.291  13.057  67.855  1.00  0.00     0.000 HD 
HETATM   20  H1  UNL     1      -5.628  12.915  66.206  1.00  0.00     0.000 HD 
HETATM   21  C   UNL     1      -6.130   9.049  67.378  1.00  0.00    -0.054 C  
HETATM   22  N   UNL     1      -5.167   8.046  66.911  1.00  0.00    -0.031 NA 
HETATM   23  C   UNL     1      -6.442   8.855  68.875  1.00  0.00    -0.048 C  
HETATM   24  C   UNL     1      -7.377  10.014  69.342  1.00  0.00    -0.100 C  
HETATM   25  O   UNL     1      -7.428  10.025  70.788  1.00  0.00    -0.376 OA 
HETATM   26  H1  UNL     1      -5.516   7.105  67.090  1.00  0.00     0.000 HD 
HETATM   27  H2  UNL     1      -4.242   8.191  67.316  1.00  0.00     0.000 HD 
HETATM   28  H   UNL     1      -7.515   9.133  71.104  1.00  0.00     0.000 HD 
BRANCH  23  29
HETATM   29  O   UNL     1      -7.198   7.625  69.068  1.00  0.00    -0.076 OA 
BRANCH  29  30
HETATM   30  C   UNL     1      -8.053   7.073  68.045  1.00  0.00    -0.119 C  
HETATM   31  O   UNL     1      -9.453   7.303  68.221  1.00  0.00    -0.141 OA 
HETATM   32  C   UNL     1     -10.217   6.852  67.091  1.00  0.00    -0.240 C  
HETATM   33  C   UNL     1     -10.108   5.324  66.848  1.00  0.00    -0.219 C  
HETATM   34  C   UNL     1      -8.612   4.965  66.632  1.00  0.00    -0.109 C  
HETATM   35  O   UNL     1     -10.611   4.634  68.003  1.00  0.00     0.165 OA 
HETATM   36  C   UNL     1     -10.989   4.949  65.646  1.00  0.00     0.011 C  
HETATM   37  H   UNL     1      -6.147   4.427  67.258  1.00  0.00     0.000 HD 
HETATM   38  H   UNL     1     -10.544   3.698  67.853  1.00  0.00     0.000 HD 
HETATM   39  C   UNL     1      -7.728   5.554  67.783  1.00  0.00    -0.092 C  
HETATM   40  O   UNL     1      -6.343   5.343  67.416  1.00  0.00    -0.036 OA 
BRANCH  34  41
HETATM   41  N   UNL     1      -8.237   3.560  66.286  1.00  0.00    -0.099 NA 
HETATM   42  C   UNL     1      -7.636   3.319  64.986  1.00  0.00    -0.077 C  
HETATM   43  H   UNL     1      -8.397   2.795  66.942  1.00  0.00     0.000 HD 
ENDBRANCH  34  41
ENDBRANCH  29  30
ENDBRANCH  23  29
ENDBRANCH  14  15
ENDBRANCH   9  14
ENDBRANCH   4   5
ENDBRANCH   2   4
TORSDOF 7
ENDMDL
MODEL      282
REMARK 921   NORMALIZED FREE ENERGY PREDICTED BY IDOCK:   -2.83 KCAL/MOL
REMARK 922        TOTAL FREE ENERGY PREDICTED BY IDOCK:   -5.70 KCAL/MOL
REMARK 923 INTER-LIGAND FREE ENERGY PREDICTED BY IDOCK:   -4.97 KCAL/MOL
REMARK 924 INTRA-LIGAND FREE ENERGY PREDICTED BY IDOCK:   -0.72 KCAL/MOL
REMARK 927      BINDING AFFINITY PREDICTED BY RF-SCORE:    0.00 PKD
ROOT
HETATM    1  C   UNL     1      -6.432  12.588  68.214  1.00  0.00    -0.067 C  
HETATM    2  N   UNL     1      -5.704  11.347  68.434  1.00  0.00    -0.045 NA 
HETATM    3  H   UNL     1      -4.844  11.524  68.952  1.00  0.00     0.000 HD 
ENDROOT
BRANCH   2   4
HETATM    4  C   UNL     1      -6.499  10.300  69.092  1.00  0.00    -0.050 C  
BRANCH   4   5
HETATM    5  C   UNL     1      -6.748   9.014  68.258  1.00  0.00    -0.061 C  
HETATM    6  C   UNL     1      -5.696   7.938  68.457  1.00  0.00    -0.028 C  
HETATM    7  C   UNL     1      -6.076   6.710  67.630  1.00  0.00    -0.031 C  
HETATM    8  C   UNL     1      -6.476   7.066  66.182  1.00  0.00    -0.051 C  
HETATM    9  C   UNL     1      -7.371   8.380  66.048  1.00  0.00    -0.073 C  
HETATM   10  N   UNL     1      -6.974   5.847  65.503  1.00  0.00    -0.062 NA 
HETATM   11  O   UNL     1      -6.766   9.382  66.859  1.00  0.00    -0.074 OA 
HETATM   12  H1  UNL     1      -7.239   6.082  64.547  1.00  0.00     0.000 HD 
HETATM   13  H2  UNL     1      -7.735   5.401  66.017  1.00  0.00     0.000 HD 
BRANCH   9  14
HETATM   14  O   UNL     1      -8.784   8.228  66.318  1.00  0.00    -0.134 OA 
BRANCH  14  15
HETATM   15  C   UNL     1      -9.324   8.720  67.616  1.00  0.00    -0.137 C  
HETATM   16  C   UNL     1     -10.084   7.652  68.451  1.00  0.00    -0.186 C  
HETATM   17  N   UNL     1      -9.137   6.679  69.033  1.00  0.00    -0.133 NA 
HETATM   18  C   UNL     1     -10.872   8.275  69.622  1.00  0.00    -0.154 C  
HETATM   19  H2  UNL     1      -8.408   7.138  69.579  1.00  0.00     0.000 HD 
HETATM   20  H1  UNL     1      -9.636   5.978  69.580  1.00  0.00     0.000 HD 
HETATM   21  C   UNL     1     -11.851   9.368  69.168  1.00  0.00     0.862 C  
HETATM   22  N   UNL     1     -12.716   9.778  70.279  1.00  0.00    -0.467 NA 
HETATM   23  C   UNL     1     -11.093  10.578  68.588  1.00  0.00    -0.267 C  
HETATM   24  C   UNL     1     -10.108  10.067  67.491  1.00  0.00    -0.198 C  
HETATM   25  O   UNL     1      -9.180  11.127  67.160  1.00  0.00    -0.156 OA 
HETATM   26  H1  UNL     1     -13.366  10.504  69.978  1.00  0.00     0.000 HD 
HETATM   27  H2  UNL     1     -12.175  10.069  71.094  1.00  0.00     0.000 HD 
HETATM   28  H   UNL     1      -9.656  11.946  67.084  1.00  0.00     0.000 HD 
BRANCH  23  29
HETATM   29  O   UNL     1     -12.025  11.468  67.908  1.00  0.00    -0.618 OA 
BRANCH  29  30
HETATM   30  C   UNL     1     -12.019  12.896  68.109  1.00  0.00    -0.261 C  
HETATM   31  O   UNL     1     -11.123  13.633  67.273  1.00  0.00    -0.283 OA 
HETATM   32  C   UNL     1     -11.284  15.051  67.432  1.00  0.00    -0.335 C  
HETATM   33  C   UNL     1     -10.963  15.547  68.867  1.00  0.00    -0.266 C  
HETATM   34  C   UNL     1     -11.897  14.809  69.864  1.00  0.00    -0.316 C  
HETATM   35  O   UNL     1      -9.592  15.238  69.167  1.00  0.00    -0.217 OA 
HETATM   36  C   UNL     1     -11.130  17.074  68.913  1.00  0.00    -0.037 C  
HETATM   37  H   UNL     1     -12.768  12.884  71.380  1.00  0.00     0.000 HD 
HETATM   38  H   UNL     1      -9.396  15.543  70.045  1.00  0.00     0.000 HD 
HETATM   39  C   UNL     1     -11.845  13.260  69.632  1.00  0.00    -0.327 C  
HETATM   40  O   UNL     1     -12.873  12.664  70.461  1.00  0.00    -0.035 OA 
BRANCH  34  41
HETATM   41  N   UNL     1     -11.855  15.171  71.314  1.00  0.00    -0.321 NA 
HETATM   42  C   UNL     1     -13.112  15.482  71.971  1.00  0.00    -0.448 C  
HETATM   43  H   UNL     1     -10.972  15.197  71.825  1.00  0.00     0.000 HD 
ENDBRANCH  34  41
ENDBRANCH  29  30
ENDBRANCH  23  29
ENDBRANCH  14  15
ENDBRANCH   9  14
ENDBRANCH   4   5
ENDBRANCH   2   4
TORSDOF 7
ENDMDL
MODEL      283
REMARK 921   NORMALIZED FREE ENERGY PREDICTED BY IDOCK:   -2.82 KCAL/MOL
REMARK 922        TOTAL FREE ENERGY PREDICTED BY IDOCK:   -5.68 KCAL/MOL
REMARK 923 INTER-LIGAND FREE ENERGY PREDICTED BY IDOCK:   -5.10 KCAL/MOL
REMARK 924 INTRA-LIGAND FREE ENERGY PREDICTED BY IDOCK:   -0.58 KCAL/MOL
REMARK 927      BINDING AFFINITY PREDICTED BY RF-SCORE:    0.00 PKD
ROOT
HETATM    1  C   UNL     1      -7.692   3.289  73.183  1.00  0.00    -0.061 C  
HETATM    2  N   UNL     1      -9.036   3.847  73.178  1.00  0.00    -0.106 NA 
HETATM    3  H   UNL     1      -9.542   3.570  74.020  1.00  0.00     0.000 HD 
ENDROOT
BRANCH   2   4
HETATM    4  C   UNL     1      -9.075   5.306  73.007  1.00  0.00    -0.124 C  
BRANCH   4   5
HETATM    5  C   UNL     1      -7.918   5.923  72.174  1.00  0.00    -0.107 C  
HETATM    6  C   UNL     1      -6.765   6.443  73.013  1.00  0.00    -0.073 C  
HETATM    7  C   UNL     1      -5.673   6.974  72.085  1.00  0.00    -0.037 C  
HETATM    8  C   UNL     1      -6.228   7.894  70.976  1.00  0.00    -0.034 C  
HETATM    9  C   UNL     1      -7.599   7.397  70.330  1.00  0.00    -0.088 C  
HETATM   10  N   UNL     1      -5.133   8.234  70.037  1.00  0.00    -0.023 NA 
HETATM   11  O   UNL     1      -8.456   7.023  71.405  1.00  0.00    -0.114 OA 
HETATM   12  H1  UNL     1      -5.500   8.842  69.305  1.00  0.00     0.000 HD 
HETATM   13  H2  UNL     1      -4.673   7.406  69.660  1.00  0.00     0.000 HD 
BRANCH   9  14
HETATM   14  O   UNL     1      -7.500   6.366  69.319  1.00  0.00    -0.089 OA 
BRANCH  14  15
HETATM   15  C   UNL     1      -7.586   6.757  67.884  1.00  0.00    -0.107 C  
HETATM   16  C   UNL     1      -6.292   6.504  67.063  1.00  0.00    -0.041 C  
HETATM   17  N   UNL     1      -6.104   5.059  66.822  1.00  0.00    -0.030 NA 
HETATM   18  C   UNL     1      -6.329   7.193  65.683  1.00  0.00    -0.040 C  
HETATM   19  H2  UNL     1      -6.921   4.638  66.380  1.00  0.00     0.000 HD 
HETATM   20  H1  UNL     1      -5.254   4.893  66.283  1.00  0.00     0.000 HD 
HETATM   21  C   UNL     1      -6.595   8.704  65.778  1.00  0.00    -0.057 C  
HETATM   22  N   UNL     1      -6.416   9.340  64.468  1.00  0.00    -0.076 NA 
HETATM   23  C   UNL     1      -8.006   8.979  66.332  1.00  0.00    -0.103 C  
HETATM   24  C   UNL     1      -8.179   8.187  67.666  1.00  0.00    -0.127 C  
HETATM   25  O   UNL     1      -9.578   8.183  68.033  1.00  0.00    -0.151 OA 
HETATM   26  H1  UNL     1      -6.592  10.343  64.531  1.00  0.00     0.000 HD 
HETATM   27  H2  UNL     1      -6.990   8.898  63.750  1.00  0.00     0.000 HD 
HETATM   28  H   UNL     1      -9.938   9.053  67.901  1.00  0.00     0.000 HD 
BRANCH  23  29
HETATM   29  O   UNL     1      -8.134  10.388  66.682  1.00  0.00    -0.117 OA 
BRANCH  29  30
HETATM   30  C   UNL     1      -9.326  11.150  66.400  1.00  0.00    -0.188 C  
HETATM   31  O   UNL     1      -9.741  11.161  65.031  1.00  0.00    -0.228 OA 
HETATM   32  C   UNL     1     -11.008  11.815  64.860  1.00  0.00    -0.300 C  
HETATM   33  C   UNL     1     -10.985  13.313  65.264  1.00  0.00    -0.291 C  
HETATM   34  C   UNL     1     -10.551  13.415  66.752  1.00  0.00    -0.277 C  
HETATM   35  O   UNL     1     -10.035  14.001  64.434  1.00  0.00    -0.702 OA 
HETATM   36  C   UNL     1     -12.373  13.918  65.006  1.00  0.00    -0.452 C  
HETATM   37  H   UNL     1      -8.949  13.464  68.799  1.00  0.00     0.000 HD 
HETATM   38  H   UNL     1     -10.022  14.918  64.682  1.00  0.00     0.000 HD 
HETATM   39  C   UNL     1      -9.235  12.602  67.005  1.00  0.00    -0.212 C  
HETATM   40  O   UNL     1      -9.003  12.589  68.434  1.00  0.00    -0.189 OA 
BRANCH  34  41
HETATM   41  N   UNL     1     -10.533  14.752  67.422  1.00  0.00    -0.254 NA 
HETATM   42  C   UNL     1     -11.747  15.193  68.085  1.00  0.00    -0.302 C  
HETATM   43  H   UNL     1      -9.695  15.334  67.413  1.00  0.00     0.000 HD 
ENDBRANCH  34  41
ENDBRANCH  29  30
ENDBRANCH  23  29
ENDBRANCH  14  15
ENDBRANCH   9  14
ENDBRANCH   4   5
ENDBRANCH   2   4
TORSDOF 7
ENDMDL
MODEL      284
REMARK 921   NORMALIZED FREE ENERGY PREDICTED BY IDOCK:   -2.77 KCAL/MOL
REMARK 922        TOTAL FREE ENERGY PREDICTED BY IDOCK:   -5.61 KCAL/MOL
REMARK 923 INTER-LIGAND FREE ENERGY PREDICTED BY IDOCK:   -5.63 KCAL/MOL
REMARK 924 INTRA-LIGAND FREE ENERGY PREDICTED BY IDOCK:    0.03 KCAL/MOL
REMARK 927      BINDING AFFINITY PREDICTED BY RF-SCORE:    0.00 PKD
ROOT
HETATM    1  C   UNL     1      -6.563   8.511  72.025  1.00  0.00    -0.077 C  
HETATM    2  N   UNL     1      -6.577   7.062  71.890  1.00  0.00    -0.052 NA 
HETATM    3  H   UNL     1      -7.027   6.632  72.697  1.00  0.00     0.000 HD 
ENDROOT
BRANCH   2   4
HETATM    4  C   UNL     1      -7.189   6.586  70.640  1.00  0.00    -0.074 C  
BRANCH   4   5
HETATM    5  C   UNL     1      -8.376   7.430  70.102  1.00  0.00    -0.136 C  
HETATM    6  C   UNL     1      -9.719   6.729  70.195  1.00  0.00    -0.175 C  
HETATM    7  C   UNL     1     -10.809   7.673  69.686  1.00  0.00    -0.195 C  
HETATM    8  C   UNL     1     -10.440   8.346  68.347  1.00  0.00    -0.164 C  
HETATM    9  C   UNL     1      -8.919   8.815  68.241  1.00  0.00    -0.141 C  
HETATM   10  N   UNL     1     -11.473   9.353  68.010  1.00  0.00    -0.133 NA 
HETATM   11  O   UNL     1      -8.115   7.737  68.713  1.00  0.00    -0.123 OA 
HETATM   12  H1  UNL     1     -11.228   9.797  67.125  1.00  0.00     0.000 HD 
HETATM   13  H2  UNL     1     -11.613  10.031  68.759  1.00  0.00     0.000 HD 
BRANCH   9  14
HETATM   14  O   UNL     1      -8.584  10.071  68.876  1.00  0.00    -0.122 OA 
BRANCH  14  15
HETATM   15  C   UNL     1      -8.242  11.241  68.019  1.00  0.00    -0.134 C  
HETATM   16  C   UNL     1      -6.940  11.984  68.424  1.00  0.00    -0.080 C  
HETATM   17  N   UNL     1      -5.752  11.179  68.074  1.00  0.00    -0.042 NA 
HETATM   18  C   UNL     1      -6.794  13.343  67.709  1.00  0.00    -0.163 C  
HETATM   19  H2  UNL     1      -5.748  10.918  67.088  1.00  0.00     0.000 HD 
HETATM   20  H1  UNL     1      -4.897  11.667  68.340  1.00  0.00     0.000 HD 
HETATM   21  C   UNL     1      -8.004  14.265  67.926  1.00  0.00    -0.153 C  
HETATM   22  N   UNL     1      -7.728  15.608  67.405  1.00  0.00    -0.168 NA 
HETATM   23  C   UNL     1      -9.268  13.673  67.275  1.00  0.00    -0.232 C  
HETATM   24  C   UNL     1      -9.447  12.207  67.780  1.00  0.00    -0.192 C  
HETATM   25  O   UNL     1     -10.433  11.542  66.955  1.00  0.00    -0.213 OA 
HETATM   26  H1  UNL     1      -8.531  16.219  67.549  1.00  0.00     0.000 HD 
HETATM   27  H2  UNL     1      -7.441  15.583  66.426  1.00  0.00     0.000 HD 
HETATM   28  H   UNL     1     -11.166  12.129  66.809  1.00  0.00     0.000 HD 
BRANCH  23  29
HETATM   29  O   UNL     1     -10.446  14.401  67.729  1.00  0.00    -0.243 OA 
BRANCH  29  30
HETATM   30  C   UNL     1     -10.769  15.724  67.256  1.00  0.00    -0.313 C  
HETATM   31  O   UNL     1     -10.357  16.019  65.918  1.00  0.00    -0.328 OA 
HETATM   32  C   UNL     1     -10.843  17.296  65.476  1.00  0.00    -0.023 C  
HETATM   33  C   UNL     1     -10.298  18.483  66.313  1.00  0.00    -0.427 C  
HETATM   34  C   UNL     1     -10.703  18.266  67.797  1.00  0.00    -0.333 C  
HETATM   35  O   UNL     1      -8.866  18.510  66.200  1.00  0.00    -0.463 OA 
HETATM   36  C   UNL     1     -10.849  19.794  65.731  1.00  0.00    -0.380 C  
HETATM   37  H   UNL     1     -10.594  17.304  70.210  1.00  0.00     0.000 HD 
HETATM   38  H   UNL     1      -8.533  19.237  66.712  1.00  0.00     0.000 HD 
HETATM   39  C   UNL     1     -10.303  16.829  68.278  1.00  0.00    -0.319 C  
HETATM   40  O   UNL     1     -10.876  16.638  69.594  1.00  0.00    -0.341 OA 
BRANCH  34  41
HETATM   41  N   UNL     1     -10.377  19.317  68.808  1.00  0.00    -0.515 NA 
HETATM   42  C   UNL     1     -10.882  20.659  68.577  1.00  0.00     0.821 C  
HETATM   43  H   UNL     1      -9.817  19.099  69.633  1.00  0.00     0.000 HD 
ENDBRANCH  34  41
ENDBRANCH  29  30
ENDBRANCH  23  29
ENDBRANCH  14  15
ENDBRANCH   9  14
ENDBRANCH   4   5
ENDBRANCH   2   4
TORSDOF 7
ENDMDL
MODEL      285
REMARK 921   NORMALIZED FREE ENERGY PREDICTED BY IDOCK:   -2.76 KCAL/MOL
REMARK 922        TOTAL FREE ENERGY PREDICTED BY IDOCK:   -5.60 KCAL/MOL
REMARK 923 INTER-LIGAND FREE ENERGY PREDICTED BY IDOCK:   -5.39 KCAL/MOL
REMARK 924 INTRA-LIGAND FREE ENERGY PREDICTED BY IDOCK:   -0.21 KCAL/MOL
REMARK 927      BINDING AFFINITY PREDICTED BY RF-SCORE:    0.00 PKD
ROOT
HETATM    1  C   UNL     1     -10.810   5.533  73.104  1.00  0.00    -0.285 C  
HETATM    2  N   UNL     1     -11.632   6.733  73.123  1.00  0.00    -0.455 NA 
HETATM    3  H   UNL     1     -11.140   7.497  73.586  1.00  0.00     0.000 HD 
ENDROOT
BRANCH   2   4
HETATM    4  C   UNL     1     -12.106   7.151  71.795  1.00  0.00    -0.328 C  
BRANCH   4   5
HETATM    5  C   UNL     1     -12.117   8.681  71.530  1.00  0.00    -0.316 C  
HETATM    6  C   UNL     1     -13.253   9.416  72.219  1.00  0.00    -0.528 C  
HETATM    7  C   UNL     1     -13.129  10.911  71.927  1.00  0.00    -0.537 C  
HETATM    8  C   UNL     1     -12.882  11.209  70.433  1.00  0.00    -0.099 C  
HETATM    9  C   UNL     1     -11.865  10.209  69.719  1.00  0.00    -0.088 C  
HETATM   10  N   UNL     1     -12.620  12.658  70.265  1.00  0.00    -0.053 NA 
HETATM   11  O   UNL     1     -12.239   8.889  70.104  1.00  0.00     0.280 OA 
HETATM   12  H1  UNL     1     -12.457  12.855  69.278  1.00  0.00     0.000 HD 
HETATM   13  H2  UNL     1     -11.857  12.986  70.857  1.00  0.00     0.000 HD 
BRANCH   9  14
HETATM   14  O   UNL     1     -10.456  10.465  69.924  1.00  0.00    -0.255 OA 
BRANCH  14  15
HETATM   15  C   UNL     1      -9.651  11.004  68.792  1.00  0.00    -0.187 C  
HETATM   16  C   UNL     1     -10.468  11.335  67.513  1.00  0.00    -0.201 C  
HETATM   17  N   UNL     1     -11.285  12.549  67.719  1.00  0.00    -0.252 NA 
HETATM   18  C   UNL     1      -9.564  11.598  66.291  1.00  0.00    -0.241 C  
HETATM   19  H2  UNL     1     -10.717  13.341  68.021  1.00  0.00     0.000 HD 
HETATM   20  H1  UNL     1     -11.821  12.766  66.879  1.00  0.00     0.000 HD 
HETATM   21  C   UNL     1      -8.600  10.437  66.002  1.00  0.00    -0.151 C  
HETATM   22  N   UNL     1      -7.915  10.644  64.721  1.00  0.00    -0.343 NA 
HETATM   23  C   UNL     1      -7.582  10.270  67.147  1.00  0.00    -0.092 C  
HETATM   24  C   UNL     1      -8.363  10.169  68.494  1.00  0.00    -0.116 C  
HETATM   25  O   UNL     1      -7.432  10.324  69.591  1.00  0.00    -0.127 OA 
HETATM   26  H1  UNL     1      -7.275   9.873  64.530  1.00  0.00     0.000 HD 
HETATM   27  H2  UNL     1      -7.443  11.547  64.686  1.00  0.00     0.000 HD 
HETATM   28  H   UNL     1      -6.649   9.817  69.411  1.00  0.00     0.000 HD 
BRANCH  23  29
HETATM   29  O   UNL     1      -6.872   9.007  66.998  1.00  0.00    -0.075 OA 
BRANCH  29  30
HETATM   30  C   UNL     1      -7.412   7.755  67.469  1.00  0.00    -0.097 C  
HETATM   31  O   UNL     1      -8.789   7.784  67.855  1.00  0.00    -0.124 OA 
HETATM   32  C   UNL     1      -9.285   6.473  68.170  1.00  0.00    -0.112 C  
HETATM   33  C   UNL     1      -8.564   5.817  69.376  1.00  0.00    -0.111 C  
HETATM   34  C   UNL     1      -7.047   5.727  69.054  1.00  0.00    -0.069 C  
HETATM   35  O   UNL     1      -8.765   6.638  70.538  1.00  0.00    -0.141 OA 
HETATM   36  C   UNL     1      -9.197   4.443  69.646  1.00  0.00    -0.200 C  
HETATM   37  H   UNL     1      -4.586   6.525  68.793  1.00  0.00     0.000 HD 
HETATM   38  H   UNL     1      -8.323   6.236  71.276  1.00  0.00     0.000 HD 
HETATM   39  C   UNL     1      -6.496   7.117  68.580  1.00  0.00    -0.036 C  
HETATM   40  O   UNL     1      -5.138   6.910  68.123  1.00  0.00    -0.010 OA 
BRANCH  34  41
HETATM   41  N   UNL     1      -6.130   5.050  70.020  1.00  0.00    -0.021 NA 
HETATM   42  C   UNL     1      -5.776   5.765  71.234  1.00  0.00    -0.021 C  
HETATM   43  H   UNL     1      -5.765   4.115  69.833  1.00  0.00     0.000 HD 
ENDBRANCH  34  41
ENDBRANCH  29  30
ENDBRANCH  23  29
ENDBRANCH  14  15
ENDBRANCH   9  14
ENDBRANCH   4   5
ENDBRANCH   2   4
TORSDOF 7
ENDMDL
MODEL      286
REMARK 921   NORMALIZED FREE ENERGY PREDICTED BY IDOCK:   -2.56 KCAL/MOL
REMARK 922        TOTAL FREE ENERGY PREDICTED BY IDOCK:   -5.32 KCAL/MOL
REMARK 923 INTER-LIGAND FREE ENERGY PREDICTED BY IDOCK:   -5.92 KCAL/MOL
REMARK 924 INTRA-LIGAND FREE ENERGY PREDICTED BY IDOCK:    0.59 KCAL/MOL
REMARK 927      BINDING AFFINITY PREDICTED BY RF-SCORE:    0.00 PKD
ROOT
HETATM    1  C   UNL     1     -10.877   6.977  69.137  1.00  0.00    -0.195 C  
HETATM    2  N   UNL     1     -11.085   8.017  70.133  1.00  0.00    -0.359 NA 
HETATM    3  H   UNL     1     -10.486   7.862  70.944  1.00  0.00     0.000 HD 
ENDROOT
BRANCH   2   4
HETATM    4  C   UNL     1     -10.909   9.382  69.615  1.00  0.00    -0.228 C  
BRANCH   4   5
HETATM    5  C   UNL     1     -11.572  10.514  70.446  1.00  0.00    -0.342 C  
HETATM    6  C   UNL     1     -12.677  10.032  71.369  1.00  0.00    -0.518 C  
HETATM    7  C   UNL     1     -13.214  11.221  72.166  1.00  0.00    -0.286 C  
HETATM    8  C   UNL     1     -13.502  12.453  71.280  1.00  0.00     0.380 C  
HETATM    9  C   UNL     1     -12.407  12.726  70.153  1.00  0.00    -0.165 C  
HETATM   10  N   UNL     1     -13.866  13.598  72.147  1.00  0.00    -0.524 NA 
HETATM   11  O   UNL     1     -12.135  11.477  69.524  1.00  0.00    -0.308 OA 
HETATM   12  H1  UNL     1     -14.056  14.411  71.562  1.00  0.00     0.000 HD 
HETATM   13  H2  UNL     1     -13.158  13.788  72.857  1.00  0.00     0.000 HD 
BRANCH   9  14
HETATM   14  O   UNL     1     -11.202  13.407  70.573  1.00  0.00     0.319 OA 
BRANCH  14  15
HETATM   15  C   UNL     1     -10.889  14.740  69.989  1.00  0.00    -0.116 C  
HETATM   16  C   UNL     1     -12.093  15.455  69.316  1.00  0.00    -0.255 C  
HETATM   17  N   UNL     1     -13.039  15.950  70.338  1.00  0.00    -0.704 NA 
HETATM   18  C   UNL     1     -11.657  16.672  68.474  1.00  0.00     0.098 C  
HETATM   19  H2  UNL     1     -12.578  16.548  71.023  1.00  0.00     0.000 HD 
HETATM   20  H1  UNL     1     -13.829  16.418  69.896  1.00  0.00     0.000 HD 
HETATM   21  C   UNL     1     -10.607  16.316  67.410  1.00  0.00    -0.307 C  
HETATM   22  N   UNL     1     -10.383  17.452  66.509  1.00  0.00    -0.328 NA 
HETATM   23  C   UNL     1      -9.288  15.869  68.068  1.00  0.00    -0.201 C  
HETATM   24  C   UNL     1      -9.604  14.739  69.097  1.00  0.00    -0.131 C  
HETATM   25  O   UNL     1      -8.444  14.527  69.935  1.00  0.00    -0.209 OA 
HETATM   26  H1  UNL     1      -9.686  17.215  65.803  1.00  0.00     0.000 HD 
HETATM   27  H2  UNL     1     -10.132  18.298  67.021  1.00  0.00     0.000 HD 
HETATM   28  H   UNL     1      -7.663  14.526  69.394  1.00  0.00     0.000 HD 
BRANCH  23  29
HETATM   29  O   UNL     1      -8.414  15.269  67.068  1.00  0.00    -0.194 OA 
BRANCH  29  30
HETATM   30  C   UNL     1      -8.398  13.851  66.805  1.00  0.00     0.109 C  
HETATM   31  O   UNL     1      -9.633  13.167  67.034  1.00  0.00    -0.226 OA 
HETATM   32  C   UNL     1      -9.574  11.796  66.610  1.00  0.00    -0.205 C  
HETATM   33  C   UNL     1      -8.525  10.959  67.388  1.00  0.00    -0.120 C  
HETATM   34  C   UNL     1      -7.130  11.616  67.196  1.00  0.00    -0.143 C  
HETATM   35  O   UNL     1      -8.873  10.959  68.782  1.00  0.00    -0.158 OA 
HETATM   36  C   UNL     1      -8.574   9.508  66.882  1.00  0.00    -0.132 C  
HETATM   37  H   UNL     1      -5.182  13.294  67.579  1.00  0.00     0.000 HD 
HETATM   38  H   UNL     1      -8.230  10.446  69.257  1.00  0.00     0.000 HD 
HETATM   39  C   UNL     1      -7.187  13.147  67.525  1.00  0.00    -0.151 C  
HETATM   40  O   UNL     1      -5.912  13.718  67.145  1.00  0.00    -0.231 OA 
BRANCH  34  41
HETATM   41  N   UNL     1      -5.921  10.953  67.772  1.00  0.00    -0.043 NA 
HETATM   42  C   UNL     1      -5.477  11.378  69.087  1.00  0.00    -0.043 C  
HETATM   43  H   UNL     1      -5.424  10.225  67.257  1.00  0.00     0.000 HD 
ENDBRANCH  34  41
ENDBRANCH  29  30
ENDBRANCH  23  29
ENDBRANCH  14  15
ENDBRANCH   9  14
ENDBRANCH   4   5
ENDBRANCH   2   4
TORSDOF 7
ENDMDL
MODEL      287
REMARK 921   NORMALIZED FREE ENERGY PREDICTED BY IDOCK:   -2.54 KCAL/MOL
REMARK 922        TOTAL FREE ENERGY PREDICTED BY IDOCK:   -5.30 KCAL/MOL
REMARK 923 INTER-LIGAND FREE ENERGY PREDICTED BY IDOCK:   -4.80 KCAL/MOL
REMARK 924 INTRA-LIGAND FREE ENERGY PREDICTED BY IDOCK:   -0.50 KCAL/MOL
REMARK 927      BINDING AFFINITY PREDICTED BY RF-SCORE:    0.00 PKD
ROOT
HETATM    1  C   UNL     1      -9.087  17.155  67.382  1.00  0.00    -0.224 C  
HETATM    2  N   UNL     1      -7.860  17.571  66.719  1.00  0.00    -0.214 NA 
HETATM    3  H   UNL     1      -7.585  18.503  67.029  1.00  0.00     0.000 HD 
ENDROOT
BRANCH   2   4
HETATM    4  C   UNL     1      -6.748  16.623  66.876  1.00  0.00    -0.212 C  
BRANCH   4   5
HETATM    5  C   UNL     1      -7.037  15.377  67.756  1.00  0.00    -0.165 C  
HETATM    6  C   UNL     1      -6.241  15.338  69.048  1.00  0.00    -0.103 C  
HETATM    7  C   UNL     1      -6.648  14.100  69.847  1.00  0.00    -0.082 C  
HETATM    8  C   UNL     1      -6.684  12.819  68.986  1.00  0.00    -0.096 C  
HETATM    9  C   UNL     1      -7.301  13.020  67.529  1.00  0.00    -0.152 C  
HETATM   10  N   UNL     1      -7.234  11.707  69.795  1.00  0.00    -0.324 NA 
HETATM   11  O   UNL     1      -6.712  14.198  66.984  1.00  0.00    -0.030 OA 
HETATM   12  H1  UNL     1      -7.258  10.861  69.226  1.00  0.00     0.000 HD 
HETATM   13  H2  UNL     1      -8.146  11.931  70.195  1.00  0.00     0.000 HD 
BRANCH   9  14
HETATM   14  O   UNL     1      -8.745  13.031  67.434  1.00  0.00    -0.184 OA 
BRANCH  14  15
HETATM   15  C   UNL     1      -9.448  11.787  67.015  1.00  0.00    -0.185 C  
HETATM   16  C   UNL     1     -10.441  11.215  68.063  1.00  0.00    -0.188 C  
HETATM   17  N   UNL     1     -11.651  12.059  68.146  1.00  0.00    -0.322 NA 
HETATM   18  C   UNL     1     -10.906   9.787  67.713  1.00  0.00    -0.306 C  
HETATM   19  H2  UNL     1     -12.091  12.181  67.234  1.00  0.00     0.000 HD 
HETATM   20  H1  UNL     1     -12.302  11.684  68.835  1.00  0.00     0.000 HD 
HETATM   21  C   UNL     1      -9.737   8.809  67.521  1.00  0.00    -0.167 C  
HETATM   22  N   UNL     1     -10.232   7.433  67.397  1.00  0.00    -0.220 NA 
HETATM   23  C   UNL     1      -8.889   9.199  66.296  1.00  0.00    -0.148 C  
HETATM   24  C   UNL     1      -8.487  10.701  66.428  1.00  0.00    -0.152 C  
HETATM   25  O   UNL     1      -7.965  11.163  65.160  1.00  0.00    -0.355 OA 
HETATM   26  H1  UNL     1      -9.457   6.784  67.270  1.00  0.00     0.000 HD 
HETATM   27  H2  UNL     1     -10.925   7.346  66.653  1.00  0.00     0.000 HD 
HETATM   28  H   UNL     1      -7.382  10.503  64.804  1.00  0.00     0.000 HD 
BRANCH  23  29
HETATM   29  O   UNL     1      -7.641   8.447  66.297  1.00  0.00    -0.084 OA 
BRANCH  29  30
HETATM   30  C   UNL     1      -7.563   7.076  65.857  1.00  0.00    -0.097 C  
HETATM   31  O   UNL     1      -8.688   6.602  65.112  1.00  0.00    -0.035 OA 
HETATM   32  C   UNL     1      -8.468   5.283  64.588  1.00  0.00    -0.142 C  
HETATM   33  C   UNL     1      -8.262   4.211  65.691  1.00  0.00    -0.109 C  
HETATM   34  C   UNL     1      -7.044   4.628  66.561  1.00  0.00    -0.075 C  
HETATM   35  O   UNL     1      -9.443   4.154  66.507  1.00  0.00    -0.161 OA 
HETATM   36  C   UNL     1      -8.074   2.841  65.023  1.00  0.00    -0.083 C  
HETATM   37  H   UNL     1      -5.716   5.901  68.398  1.00  0.00     0.000 HD 
HETATM   38  H   UNL     1      -9.316   3.498  67.182  1.00  0.00     0.000 HD 
HETATM   39  C   UNL     1      -7.188   6.112  67.045  1.00  0.00    -0.074 C  
HETATM   40  O   UNL     1      -5.941   6.482  67.682  1.00  0.00    -0.018 OA 
BRANCH  34  41
HETATM   41  N   UNL     1      -6.572   3.717  67.648  1.00  0.00    -0.041 NA 
HETATM   42  C   UNL     1      -7.550   3.255  68.616  1.00  0.00    -0.052 C  
HETATM   43  H   UNL     1      -5.595   3.430  67.707  1.00  0.00     0.000 HD 
ENDBRANCH  34  41
ENDBRANCH  29  30
ENDBRANCH  23  29
ENDBRANCH  14  15
ENDBRANCH   9  14
ENDBRANCH   4   5
ENDBRANCH   2   4
TORSDOF 7
ENDMDL
MODEL      288
REMARK 921   NORMALIZED FREE ENERGY PREDICTED BY IDOCK:   -2.38 KCAL/MOL
REMARK 922        TOTAL FREE ENERGY PREDICTED BY IDOCK:   -5.07 KCAL/MOL
REMARK 923 INTER-LIGAND FREE ENERGY PREDICTED BY IDOCK:   -6.25 KCAL/MOL
REMARK 924 INTRA-LIGAND FREE ENERGY PREDICTED BY IDOCK:    1.19 KCAL/MOL
REMARK 927      BINDING AFFINITY PREDICTED BY RF-SCORE:    0.00 PKD
ROOT
HETATM    1  C   UNL     1      -5.867   2.743  68.165  1.00  0.00    -0.023 C  
HETATM    2  N   UNL     1      -5.765   3.594  69.341  1.00  0.00    -0.017 NA 
HETATM    3  H   UNL     1      -6.222   4.491  69.175  1.00  0.00     0.000 HD 
ENDROOT
BRANCH   2   4
HETATM    4  C   UNL     1      -6.276   2.973  70.572  1.00  0.00    -0.023 C  
BRANCH   4   5
HETATM    5  C   UNL     1      -7.558   3.611  71.172  1.00  0.00    -0.044 C  
HETATM    6  C   UNL     1      -8.522   2.605  71.774  1.00  0.00    -0.084 C  
HETATM    7  C   UNL     1      -9.712   3.353  72.374  1.00  0.00    -0.212 C  
HETATM    8  C   UNL     1     -10.289   4.420  71.420  1.00  0.00    -0.010 C  
HETATM    9  C   UNL     1      -9.190   5.257  70.622  1.00  0.00    -0.148 C  
HETATM   10  N   UNL     1     -11.329   5.197  72.135  1.00  0.00    -0.012 NA 
HETATM   11  O   UNL     1      -8.242   4.323  70.115  1.00  0.00    -0.058 OA 
HETATM   12  H1  UNL     1     -11.711   5.902  71.504  1.00  0.00     0.000 HD 
HETATM   13  H2  UNL     1     -10.983   5.601  73.005  1.00  0.00     0.000 HD 
BRANCH   9  14
HETATM   14  O   UNL     1      -8.563   6.347  71.338  1.00  0.00    -0.129 OA 
BRANCH  14  15
HETATM   15  C   UNL     1      -9.296   7.638  71.467  1.00  0.00    -0.136 C  
HETATM   16  C   UNL     1     -10.569   7.577  72.354  1.00  0.00    -0.251 C  
HETATM   17  N   UNL     1     -10.203   7.460  73.780  1.00  0.00    -0.376 NA 
HETATM   18  C   UNL     1     -11.444   8.840  72.211  1.00  0.00    -0.376 C  
HETATM   19  H2  UNL     1      -9.574   8.207  74.073  1.00  0.00     0.000 HD 
HETATM   20  H1  UNL     1     -11.040   7.420  74.362  1.00  0.00     0.000 HD 
HETATM   21  C   UNL     1     -11.841   9.129  70.755  1.00  0.00    -0.227 C  
HETATM   22  N   UNL     1     -12.833  10.208  70.698  1.00  0.00    -0.518 NA 
HETATM   23  C   UNL     1     -10.603   9.477  69.907  1.00  0.00    -0.241 C  
HETATM   24  C   UNL     1      -9.539   8.351  70.097  1.00  0.00    -0.165 C  
HETATM   25  O   UNL     1      -8.272   8.806  69.567  1.00  0.00    -0.106 OA 
HETATM   26  H1  UNL     1     -13.097  10.401  69.732  1.00  0.00     0.000 HD 
HETATM   27  H2  UNL     1     -12.507  11.048  71.176  1.00  0.00     0.000 HD 
HETATM   28  H   UNL     1      -8.419   9.240  68.734  1.00  0.00     0.000 HD 
BRANCH  23  29
HETATM   29  O   UNL     1     -10.952   9.466  68.493  1.00  0.00    -0.148 OA 
BRANCH  29  30
HETATM   30  C   UNL     1     -11.080  10.675  67.717  1.00  0.00    -0.321 C  
HETATM   31  O   UNL     1     -10.565  10.611  66.385  1.00  0.00    -0.233 OA 
HETATM   32  C   UNL     1     -10.862  11.800  65.636  1.00  0.00    -0.292 C  
HETATM   33  C   UNL     1     -10.218  13.079  66.234  1.00  0.00    -0.288 C  
HETATM   34  C   UNL     1     -10.724  13.250  67.693  1.00  0.00    -0.239 C  
HETATM   35  O   UNL     1      -8.790  12.921  66.232  1.00  0.00    -0.434 OA 
HETATM   36  C   UNL     1     -10.568  14.277  65.338  1.00  0.00    -0.367 C  
HETATM   37  H   UNL     1     -10.864  12.854  70.259  1.00  0.00     0.000 HD 
HETATM   38  H   UNL     1      -8.395  13.704  66.598  1.00  0.00     0.000 HD 
HETATM   39  C   UNL     1     -10.533  11.924  68.506  1.00  0.00    -0.224 C  
HETATM   40  O   UNL     1     -11.194  12.101  69.783  1.00  0.00    -0.145 OA 
BRANCH  34  41
HETATM   41  N   UNL     1     -10.322  14.460  68.472  1.00  0.00    -0.242 NA 
HETATM   42  C   UNL     1      -8.910  14.642  68.759  1.00  0.00    -0.166 C  
HETATM   43  H   UNL     1     -11.016  15.136  68.792  1.00  0.00     0.000 HD 
ENDBRANCH  34  41
ENDBRANCH  29  30
ENDBRANCH  23  29
ENDBRANCH  14  15
ENDBRANCH   9  14
ENDBRANCH   4   5
ENDBRANCH   2   4
TORSDOF 7
ENDMDL
MODEL      289
REMARK 921   NORMALIZED FREE ENERGY PREDICTED BY IDOCK:   -2.38 KCAL/MOL
REMARK 922        TOTAL FREE ENERGY PREDICTED BY IDOCK:   -5.06 KCAL/MOL
REMARK 923 INTER-LIGAND FREE ENERGY PREDICTED BY IDOCK:   -4.11 KCAL/MOL
REMARK 924 INTRA-LIGAND FREE ENERGY PREDICTED BY IDOCK:   -0.95 KCAL/MOL
REMARK 927      BINDING AFFINITY PREDICTED BY RF-SCORE:    0.00 PKD
ROOT
HETATM    1  C   UNL     1      -8.176  15.479  68.488  1.00  0.00    -0.148 C  
HETATM    2  N   UNL     1      -6.822  15.996  68.364  1.00  0.00    -0.121 NA 
HETATM    3  H   UNL     1      -6.621  16.659  69.112  1.00  0.00     0.000 HD 
ENDROOT
BRANCH   2   4
HETATM    4  C   UNL     1      -5.788  14.951  68.308  1.00  0.00    -0.118 C  
BRANCH   4   5
HETATM    5  C   UNL     1      -6.209  13.553  68.836  1.00  0.00    -0.093 C  
HETATM    6  C   UNL     1      -5.172  12.896  69.730  1.00  0.00    -0.082 C  
HETATM    7  C   UNL     1      -5.718  11.557  70.225  1.00  0.00    -0.148 C  
HETATM    8  C   UNL     1      -6.333  10.707  69.092  1.00  0.00    -0.053 C  
HETATM    9  C   UNL     1      -7.196  11.537  68.038  1.00  0.00    -0.085 C  
HETATM   10  N   UNL     1      -6.972   9.507  69.680  1.00  0.00    -0.060 NA 
HETATM   11  O   UNL     1      -6.438  12.693  67.695  1.00  0.00    -0.114 OA 
HETATM   12  H1  UNL     1      -7.378   8.945  68.932  1.00  0.00     0.000 HD 
HETATM   13  H2  UNL     1      -7.654   9.744  70.401  1.00  0.00     0.000 HD 
BRANCH   9  14
HETATM   14  O   UNL     1      -8.552  11.860  68.426  1.00  0.00    -0.164 OA 
BRANCH  14  15
HETATM   15  C   UNL     1      -9.647  10.918  68.065  1.00  0.00    -0.162 C  
HETATM   16  C   UNL     1     -10.320  10.210  69.273  1.00  0.00    -0.223 C  
HETATM   17  N   UNL     1     -11.169  11.158  70.023  1.00  0.00    -0.451 NA 
HETATM   18  C   UNL     1     -11.224   9.038  68.837  1.00  0.00     0.253 C  
HETATM   19  H2  UNL     1     -11.855  11.612  69.420  1.00  0.00     0.000 HD 
HETATM   20  H1  UNL     1     -11.611  10.694  70.816  1.00  0.00     0.000 HD 
HETATM   21  C   UNL     1     -10.484   8.002  67.977  1.00  0.00    -0.184 C  
HETATM   22  N   UNL     1     -11.322   6.817  67.765  1.00  0.00    -0.622 NA 
HETATM   23  C   UNL     1     -10.050   8.614  66.632  1.00  0.00    -0.294 C  
HETATM   24  C   UNL     1      -9.261   9.930  66.916  1.00  0.00    -0.147 C  
HETATM   25  O   UNL     1      -9.117  10.670  65.681  1.00  0.00    -0.169 OA 
HETATM   26  H1  UNL     1     -10.831   6.129  67.195  1.00  0.00     0.000 HD 
HETATM   27  H2  UNL     1     -12.230   7.060  67.368  1.00  0.00     0.000 HD 
HETATM   28  H   UNL     1      -8.883  10.069  64.983  1.00  0.00     0.000 HD 
BRANCH  23  29
HETATM   29  O   UNL     1      -9.114   7.721  65.960  1.00  0.00    -0.173 OA 
BRANCH  29  30
HETATM   30  C   UNL     1      -8.336   6.738  66.673  1.00  0.00    -0.118 C  
HETATM   31  O   UNL     1      -7.096   7.203  67.210  1.00  0.00    -0.079 OA 
HETATM   32  C   UNL     1      -6.456   6.209  68.025  1.00  0.00    -0.049 C  
HETATM   33  C   UNL     1      -6.075   4.926  67.241  1.00  0.00    -0.031 C  
HETATM   34  C   UNL     1      -7.366   4.327  66.618  1.00  0.00    -0.080 C  
HETATM   35  O   UNL     1      -5.152   5.278  66.198  1.00  0.00    -0.005 OA 
HETATM   36  C   UNL     1      -5.368   3.952  68.196  1.00  0.00    -0.012 C  
HETATM   37  H   UNL     1      -9.323   4.047  64.929  1.00  0.00     0.000 HD 
HETATM   38  H   UNL     1      -4.918   4.492  65.718  1.00  0.00     0.000 HD 
HETATM   39  C   UNL     1      -8.160   5.421  65.826  1.00  0.00    -0.110 C  
HETATM   40  O   UNL     1      -9.429   4.840  65.440  1.00  0.00    -0.160 OA 
BRANCH  34  41
HETATM   41  N   UNL     1      -7.291   3.029  65.879  1.00  0.00    -0.070 NA 
HETATM   42  C   UNL     1      -6.716   3.041  64.546  1.00  0.00    -0.036 C  
HETATM   43  H   UNL     1      -7.633   2.164  66.299  1.00  0.00     0.000 HD 
ENDBRANCH  34  41
ENDBRANCH  29  30
ENDBRANCH  23  29
ENDBRANCH  14  15
ENDBRANCH   9  14
ENDBRANCH   4   5
ENDBRANCH   2   4
TORSDOF 7
ENDMDL
MODEL      290
REMARK 921   NORMALIZED FREE ENERGY PREDICTED BY IDOCK:   -2.35 KCAL/MOL
REMARK 922        TOTAL FREE ENERGY PREDICTED BY IDOCK:   -5.02 KCAL/MOL
REMARK 923 INTER-LIGAND FREE ENERGY PREDICTED BY IDOCK:   -5.55 KCAL/MOL
REMARK 924 INTRA-LIGAND FREE ENERGY PREDICTED BY IDOCK:    0.53 KCAL/MOL
REMARK 927      BINDING AFFINITY PREDICTED BY RF-SCORE:    0.00 PKD
ROOT
HETATM    1  C   UNL     1      -5.940   4.855  65.111  1.00  0.00    -0.022 C  
HETATM    2  N   UNL     1      -6.149   6.121  65.797  1.00  0.00    -0.032 NA 
HETATM    3  H   UNL     1      -5.468   6.814  65.487  1.00  0.00     0.000 HD 
ENDROOT
BRANCH   2   4
HETATM    4  C   UNL     1      -7.517   6.647  65.672  1.00  0.00    -0.082 C  
BRANCH   4   5
HETATM    5  C   UNL     1      -8.405   6.537  66.941  1.00  0.00    -0.113 C  
HETATM    6  C   UNL     1      -8.201   5.253  67.724  1.00  0.00    -0.099 C  
HETATM    7  C   UNL     1      -9.086   5.284  68.971  1.00  0.00    -0.141 C  
HETATM    8  C   UNL     1     -10.536   5.717  68.663  1.00  0.00    -0.229 C  
HETATM    9  C   UNL     1     -10.659   6.912  67.613  1.00  0.00    -0.261 C  
HETATM   10  N   UNL     1     -11.276   5.870  69.938  1.00  0.00    -0.359 NA 
HETATM   11  O   UNL     1      -9.789   6.605  66.528  1.00  0.00    -0.166 OA 
HETATM   12  H1  UNL     1     -12.233   6.156  69.734  1.00  0.00     0.000 HD 
HETATM   13  H2  UNL     1     -10.809   6.507  70.583  1.00  0.00     0.000 HD 
BRANCH   9  14
HETATM   14  O   UNL     1     -10.451   8.248  68.128  1.00  0.00    -0.211 OA 
BRANCH  14  15
HETATM   15  C   UNL     1      -9.057   8.736  68.319  1.00  0.00    -0.141 C  
HETATM   16  C   UNL     1      -8.667   9.027  69.794  1.00  0.00    -0.147 C  
HETATM   17  N   UNL     1      -8.497   7.766  70.545  1.00  0.00    -0.126 NA 
HETATM   18  C   UNL     1      -7.339   9.805  69.907  1.00  0.00    -0.134 C  
HETATM   19  H2  UNL     1      -7.829   7.143  70.092  1.00  0.00     0.000 HD 
HETATM   20  H1  UNL     1      -8.241   7.958  71.513  1.00  0.00     0.000 HD 
HETATM   21  C   UNL     1      -7.346  11.116  69.105  1.00  0.00    -0.115 C  
HETATM   22  N   UNL     1      -6.151  11.911  69.410  1.00  0.00    -0.086 NA 
HETATM   23  C   UNL     1      -7.447  10.835  67.594  1.00  0.00    -0.095 C  
HETATM   24  C   UNL     1      -8.667   9.894  67.344  1.00  0.00    -0.128 C  
HETATM   25  O   UNL     1      -8.593   9.375  65.995  1.00  0.00    -0.133 OA 
HETATM   26  H1  UNL     1      -6.156  12.781  68.878  1.00  0.00     0.000 HD 
HETATM   27  H2  UNL     1      -5.294  11.379  69.260  1.00  0.00     0.000 HD 
HETATM   28  H   UNL     1      -8.356  10.079  65.402  1.00  0.00     0.000 HD 
BRANCH  23  29
HETATM   29  O   UNL     1      -7.739  12.070  66.878  1.00  0.00    -0.146 OA 
BRANCH  29  30
HETATM   30  C   UNL     1      -9.080  12.581  66.731  1.00  0.00    -0.214 C  
HETATM   31  O   UNL     1      -9.703  12.323  65.470  1.00  0.00    -0.234 OA 
HETATM   32  C   UNL     1     -11.080  12.732  65.458  1.00  0.00    -0.285 C  
HETATM   33  C   UNL     1     -11.269  14.257  65.674  1.00  0.00    -0.314 C  
HETATM   34  C   UNL     1     -10.629  14.645  67.035  1.00  0.00    -0.280 C  
HETATM   35  O   UNL     1     -10.607  14.960  64.610  1.00  0.00    -0.571 OA 
HETATM   36  C   UNL     1     -12.768  14.586  65.605  1.00  0.00    -0.186 C  
HETATM   37  H   UNL     1      -8.757  15.252  68.735  1.00  0.00     0.000 HD 
HETATM   38  H   UNL     1     -10.723  15.893  64.742  1.00  0.00     0.000 HD 
HETATM   39  C   UNL     1      -9.163  14.101  67.136  1.00  0.00    -0.231 C  
HETATM   40  O   UNL     1      -8.707  14.335  68.491  1.00  0.00    -0.176 OA 
BRANCH  34  41
HETATM   41  N   UNL     1     -10.751  16.051  67.529  1.00  0.00    -0.317 NA 
HETATM   42  C   UNL     1     -11.866  16.367  68.405  1.00  0.00     0.222 C  
HETATM   43  H   UNL     1     -10.073  16.764  67.260  1.00  0.00     0.000 HD 
ENDBRANCH  34  41
ENDBRANCH  29  30
ENDBRANCH  23  29
ENDBRANCH  14  15
ENDBRANCH   9  14
ENDBRANCH   4   5
ENDBRANCH   2   4
TORSDOF 7
ENDMDL
MODEL      291
REMARK 921   NORMALIZED FREE ENERGY PREDICTED BY IDOCK:   -2.31 KCAL/MOL
REMARK 922        TOTAL FREE ENERGY PREDICTED BY IDOCK:   -4.96 KCAL/MOL
REMARK 923 INTER-LIGAND FREE ENERGY PREDICTED BY IDOCK:   -5.65 KCAL/MOL
REMARK 924 INTRA-LIGAND FREE ENERGY PREDICTED BY IDOCK:    0.69 KCAL/MOL
REMARK 927      BINDING AFFINITY PREDICTED BY RF-SCORE:    0.00 PKD
ROOT
HETATM    1  C   UNL     1      -9.318  17.557  68.811  1.00  0.00    -0.239 C  
HETATM    2  N   UNL     1      -8.877  16.591  67.816  1.00  0.00    -0.196 NA 
HETATM    3  H   UNL     1      -7.994  16.885  67.398  1.00  0.00     0.000 HD 
ENDROOT
BRANCH   2   4
HETATM    4  C   UNL     1      -8.775  15.215  68.326  1.00  0.00    -0.171 C  
BRANCH   4   5
HETATM    5  C   UNL     1      -9.396  14.111  67.428  1.00  0.00    -0.215 C  
HETATM    6  C   UNL     1     -10.565  14.589  66.586  1.00  0.00    -0.283 C  
HETATM    7  C   UNL     1     -11.054  13.434  65.712  1.00  0.00    -0.295 C  
HETATM    8  C   UNL     1     -11.227  12.119  66.502  1.00  0.00    -0.328 C  
HETATM    9  C   UNL     1     -10.073  11.831  67.566  1.00  0.00    -0.192 C  
HETATM   10  N   UNL     1     -11.549  11.025  65.557  1.00  0.00     0.282 NA 
HETATM   11  O   UNL     1      -9.857  13.042  68.285  1.00  0.00    -0.223 OA 
HETATM   12  H1  UNL     1     -11.663  10.156  66.079  1.00  0.00     0.000 HD 
HETATM   13  H2  UNL     1     -10.860  10.941  64.810  1.00  0.00     0.000 HD 
BRANCH   9  14
HETATM   14  O   UNL     1      -8.844  11.269  67.049  1.00  0.00    -0.146 OA 
BRANCH  14  15
HETATM   15  C   UNL     1      -8.567   9.822  67.268  1.00  0.00    -0.128 C  
HETATM   16  C   UNL     1      -8.906   8.905  66.061  1.00  0.00    -0.172 C  
HETATM   17  N   UNL     1      -7.921   9.092  64.976  1.00  0.00    -0.116 NA 
HETATM   18  C   UNL     1      -8.889   7.409  66.438  1.00  0.00    -0.176 C  
HETATM   19  H2  UNL     1      -6.965   8.950  65.303  1.00  0.00     0.000 HD 
HETATM   20  H1  UNL     1      -8.143   8.490  64.183  1.00  0.00     0.000 HD 
HETATM   21  C   UNL     1      -9.821   7.080  67.614  1.00  0.00    -0.147 C  
HETATM   22  N   UNL     1      -9.926   5.628  67.796  1.00  0.00    -0.136 NA 
HETATM   23  C   UNL     1      -9.334   7.761  68.908  1.00  0.00    -0.146 C  
HETATM   24  C   UNL     1      -9.132   9.282  68.623  1.00  0.00    -0.132 C  
HETATM   25  O   UNL     1      -8.390   9.872  69.716  1.00  0.00    -0.157 OA 
HETATM   26  H1  UNL     1     -10.544   5.410  68.577  1.00  0.00     0.000 HD 
HETATM   27  H2  UNL     1      -9.010   5.193  67.905  1.00  0.00     0.000 HD 
HETATM   28  H   UNL     1      -8.733   9.543  70.539  1.00  0.00     0.000 HD 
BRANCH  23  29
HETATM   29  O   UNL     1     -10.368   7.678  69.931  1.00  0.00    -0.213 OA 
BRANCH  29  30
HETATM   30  C   UNL     1     -10.404   6.620  70.911  1.00  0.00    -0.208 C  
HETATM   31  O   UNL     1     -11.597   6.546  71.695  1.00  0.00    -0.279 OA 
HETATM   32  C   UNL     1     -11.614   5.383  72.538  1.00  0.00    -0.159 C  
HETATM   33  C   UNL     1     -10.468   5.367  73.584  1.00  0.00    -0.257 C  
HETATM   34  C   UNL     1      -9.112   5.434  72.829  1.00  0.00    -0.130 C  
HETATM   35  O   UNL     1     -10.605   6.514  74.438  1.00  0.00    -0.408 OA 
HETATM   36  C   UNL     1     -10.605   4.106  74.451  1.00  0.00    -0.262 C  
HETATM   37  H   UNL     1      -7.113   6.499  71.551  1.00  0.00     0.000 HD 
HETATM   38  H   UNL     1      -9.903   6.503  75.078  1.00  0.00     0.000 HD 
HETATM   39  C   UNL     1      -9.106   6.618  71.802  1.00  0.00    -0.144 C  
HETATM   40  O   UNL     1      -7.896   6.500  71.014  1.00  0.00    -0.105 OA 
BRANCH  34  41
HETATM   41  N   UNL     1      -7.836   5.343  73.603  1.00  0.00    -0.102 NA 
HETATM   42  C   UNL     1      -6.621   5.817  72.964  1.00  0.00    -0.069 C  
HETATM   43  H   UNL     1      -7.820   4.960  74.548  1.00  0.00     0.000 HD 
ENDBRANCH  34  41
ENDBRANCH  29  30
ENDBRANCH  23  29
ENDBRANCH  14  15
ENDBRANCH   9  14
ENDBRANCH   4   5
ENDBRANCH   2   4
TORSDOF 7
ENDMDL
MODEL      292
REMARK 921   NORMALIZED FREE ENERGY PREDICTED BY IDOCK:   -2.25 KCAL/MOL
REMARK 922        TOTAL FREE ENERGY PREDICTED BY IDOCK:   -4.88 KCAL/MOL
REMARK 923 INTER-LIGAND FREE ENERGY PREDICTED BY IDOCK:   -4.88 KCAL/MOL
REMARK 924 INTRA-LIGAND FREE ENERGY PREDICTED BY IDOCK:   -0.00 KCAL/MOL
REMARK 927      BINDING AFFINITY PREDICTED BY RF-SCORE:    0.00 PKD
ROOT
HETATM    1  C   UNL     1     -12.968  10.421  70.610  1.00  0.00    -0.283 C  
HETATM    2  N   UNL     1     -12.301   9.151  70.853  1.00  0.00    -0.472 NA 
HETATM    3  H   UNL     1     -12.220   8.617  69.987  1.00  0.00     0.000 HD 
ENDROOT
BRANCH   2   4
HETATM    4  C   UNL     1     -10.989   9.283  71.504  1.00  0.00    -0.375 C  
BRANCH   4   5
HETATM    5  C   UNL     1      -9.766   9.374  70.552  1.00  0.00    -0.271 C  
HETATM    6  C   UNL     1      -8.432   9.466  71.272  1.00  0.00     0.187 C  
HETATM    7  C   UNL     1      -7.308   9.499  70.237  1.00  0.00    -0.135 C  
HETATM    8  C   UNL     1      -7.579  10.500  69.094  1.00  0.00    -0.123 C  
HETATM    9  C   UNL     1      -9.088  10.522  68.578  1.00  0.00    -0.154 C  
HETATM   10  N   UNL     1      -6.524  10.355  68.063  1.00  0.00    -0.060 NA 
HETATM   11  O   UNL     1      -9.923  10.555  69.731  1.00  0.00    -0.179 OA 
HETATM   12  H1  UNL     1      -6.702  11.016  67.308  1.00  0.00     0.000 HD 
HETATM   13  H2  UNL     1      -6.439   9.396  67.727  1.00  0.00     0.000 HD 
BRANCH   9  14
HETATM   14  O   UNL     1      -9.468   9.479  67.650  1.00  0.00    -0.130 OA 
BRANCH  14  15
HETATM   15  C   UNL     1     -10.173   9.857  66.393  1.00  0.00    -0.222 C  
HETATM   16  C   UNL     1      -9.254  10.003  65.150  1.00  0.00    -0.222 C  
HETATM   17  N   UNL     1      -8.798   8.678  64.683  1.00  0.00    -0.412 NA 
HETATM   18  C   UNL     1      -9.973  10.680  63.965  1.00  0.00    -0.401 C  
HETATM   19  H2  UNL     1      -9.581   8.050  64.503  1.00  0.00     0.000 HD 
HETATM   20  H1  UNL     1      -8.194   8.775  63.867  1.00  0.00     0.000 HD 
HETATM   21  C   UNL     1     -10.569  12.048  64.332  1.00  0.00    -0.318 C  
HETATM   22  N   UNL     1     -11.055  12.736  63.130  1.00  0.00    -0.656 NA 
HETATM   23  C   UNL     1     -11.697  11.896  65.370  1.00  0.00    -0.162 C  
HETATM   24  C   UNL     1     -11.155  11.061  66.572  1.00  0.00    -0.106 C  
HETATM   25  O   UNL     1     -12.269  10.648  67.398  1.00  0.00     0.316 OA 
HETATM   26  H1  UNL     1     -11.450  13.644  63.373  1.00  0.00     0.000 HD 
HETATM   27  H2  UNL     1     -11.716  12.162  62.607  1.00  0.00     0.000 HD 
HETATM   28  H   UNL     1     -12.865  11.379  67.507  1.00  0.00     0.000 HD 
BRANCH  23  29
HETATM   29  O   UNL     1     -12.049  13.201  65.914  1.00  0.00    -0.406 OA 
BRANCH  29  30
HETATM   30  C   UNL     1     -11.103  14.024  66.627  1.00  0.00    -0.309 C  
HETATM   31  O   UNL     1      -9.751  13.559  66.617  1.00  0.00    -0.264 OA 
HETATM   32  C   UNL     1      -8.853  14.504  67.219  1.00  0.00    -0.208 C  
HETATM   33  C   UNL     1      -9.156  14.769  68.718  1.00  0.00    -0.191 C  
HETATM   34  C   UNL     1     -10.613  15.293  68.841  1.00  0.00    -0.242 C  
HETATM   35  O   UNL     1      -9.021  13.535  69.442  1.00  0.00     0.035 OA 
HETATM   36  C   UNL     1      -8.118  15.761  69.266  1.00  0.00    -0.241 C  
HETATM   37  H   UNL     1     -13.209  15.197  68.960  1.00  0.00     0.000 HD 
HETATM   38  H   UNL     1      -9.206  13.698  70.359  1.00  0.00     0.000 HD 
HETATM   39  C   UNL     1     -11.609  14.351  68.082  1.00  0.00    -0.329 C  
HETATM   40  O   UNL     1     -12.903  15.000  68.082  1.00  0.00     0.828 OA 
BRANCH  34  41
HETATM   41  N   UNL     1     -11.132  15.713  70.179  1.00  0.00    -0.305 NA 
HETATM   42  C   UNL     1     -10.400  15.278  71.355  1.00  0.00     0.929 C  
HETATM   43  H   UNL     1     -11.972  16.285  70.262  1.00  0.00     0.000 HD 
ENDBRANCH  34  41
ENDBRANCH  29  30
ENDBRANCH  23  29
ENDBRANCH  14  15
ENDBRANCH   9  14
ENDBRANCH   4   5
ENDBRANCH   2   4
TORSDOF 7
ENDMDL
MODEL      293
REMARK 921   NORMALIZED FREE ENERGY PREDICTED BY IDOCK:   -2.19 KCAL/MOL
REMARK 922        TOTAL FREE ENERGY PREDICTED BY IDOCK:   -4.80 KCAL/MOL
REMARK 923 INTER-LIGAND FREE ENERGY PREDICTED BY IDOCK:   -5.14 KCAL/MOL
REMARK 924 INTRA-LIGAND FREE ENERGY PREDICTED BY IDOCK:    0.34 KCAL/MOL
REMARK 927      BINDING AFFINITY PREDICTED BY RF-SCORE:    0.00 PKD
ROOT
HETATM    1  C   UNL     1      -9.868   4.763  72.895  1.00  0.00    -0.151 C  
HETATM    2  N   UNL     1      -9.547   6.083  73.416  1.00  0.00    -0.143 NA 
HETATM    3  H   UNL     1      -8.575   6.320  73.217  1.00  0.00     0.000 HD 
ENDROOT
BRANCH   2   4
HETATM    4  C   UNL     1     -10.446   7.145  72.940  1.00  0.00    -0.266 C  
BRANCH   4   5
HETATM    5  C   UNL     1     -10.486   7.361  71.403  1.00  0.00    -0.202 C  
HETATM    6  C   UNL     1     -11.405   6.400  70.671  1.00  0.00    -0.419 C  
HETATM    7  C   UNL     1     -11.400   6.743  69.181  1.00  0.00    -0.188 C  
HETATM    8  C   UNL     1      -9.976   6.945  68.620  1.00  0.00    -0.149 C  
HETATM    9  C   UNL     1      -8.993   7.746  69.587  1.00  0.00    -0.143 C  
HETATM   10  N   UNL     1     -10.071   7.424  67.220  1.00  0.00    -0.203 NA 
HETATM   11  O   UNL     1      -9.144   7.190  70.890  1.00  0.00    -0.151 OA 
HETATM   12  H1  UNL     1      -9.131   7.557  66.850  1.00  0.00     0.000 HD 
HETATM   13  H2  UNL     1     -10.644   8.263  67.135  1.00  0.00     0.000 HD 
BRANCH   9  14
HETATM   14  O   UNL     1      -9.115   9.187  69.583  1.00  0.00    -0.145 OA 
BRANCH  14  15
HETATM   15  C   UNL     1      -7.932  10.009  69.202  1.00  0.00    -0.116 C  
HETATM   16  C   UNL     1      -7.082  10.520  70.397  1.00  0.00     0.171 C  
HETATM   17  N   UNL     1      -6.316   9.410  71.001  1.00  0.00    -0.079 NA 
HETATM   18  C   UNL     1      -6.064  11.598  69.974  1.00  0.00    -0.158 C  
HETATM   19  H2  UNL     1      -5.744   8.924  70.310  1.00  0.00     0.000 HD 
HETATM   20  H1  UNL     1      -5.758   9.746  71.785  1.00  0.00     0.000 HD 
HETATM   21  C   UNL     1      -6.719  12.790  69.259  1.00  0.00    -0.058 C  
HETATM   22  N   UNL     1      -5.746  13.871  69.065  1.00  0.00    -0.079 NA 
HETATM   23  C   UNL     1      -7.330  12.354  67.914  1.00  0.00    -0.112 C  
HETATM   24  C   UNL     1      -8.266  11.131  68.166  1.00  0.00    -0.131 C  
HETATM   25  O   UNL     1      -8.599  10.523  66.896  1.00  0.00    -0.124 OA 
HETATM   26  H1  UNL     1      -6.181  14.662  68.591  1.00  0.00     0.000 HD 
HETATM   27  H2  UNL     1      -4.912  13.547  68.576  1.00  0.00     0.000 HD 
HETATM   28  H   UNL     1      -8.802  11.205  66.266  1.00  0.00     0.000 HD 
BRANCH  23  29
HETATM   29  O   UNL     1      -8.184  13.413  67.392  1.00  0.00    -0.171 OA 
BRANCH  29  30
HETATM   30  C   UNL     1      -8.333  14.685  68.055  1.00  0.00    -0.146 C  
HETATM   31  O   UNL     1      -9.653  14.994  68.509  1.00  0.00    -0.197 OA 
HETATM   32  C   UNL     1      -9.685  16.203  69.284  1.00  0.00    -0.242 C  
HETATM   33  C   UNL     1      -9.255  17.458  68.480  1.00  0.00    -0.277 C  
HETATM   34  C   UNL     1      -7.815  17.230  67.944  1.00  0.00    -0.196 C  
HETATM   35  O   UNL     1     -10.160  17.635  67.378  1.00  0.00    -0.307 OA 
HETATM   36  C   UNL     1      -9.363  18.691  69.390  1.00  0.00     0.203 C  
HETATM   37  H   UNL     1      -5.935  16.335  66.386  1.00  0.00     0.000 HD 
HETATM   38  H   UNL     1      -9.897  18.403  66.886  1.00  0.00     0.000 HD 
HETATM   39  C   UNL     1      -7.710  15.854  67.202  1.00  0.00    -0.212 C  
HETATM   40  O   UNL     1      -6.311  15.631  66.901  1.00  0.00    -0.250 OA 
BRANCH  34  41
HETATM   41  N   UNL     1      -7.124  18.331  67.205  1.00  0.00    -0.197 NA 
HETATM   42  C   UNL     1      -7.941  19.233  66.413  1.00  0.00    -0.299 C  
HETATM   43  H   UNL     1      -6.111  18.444  67.257  1.00  0.00     0.000 HD 
ENDBRANCH  34  41
ENDBRANCH  29  30
ENDBRANCH  23  29
ENDBRANCH  14  15
ENDBRANCH   9  14
ENDBRANCH   4   5
ENDBRANCH   2   4
TORSDOF 7
ENDMDL
MODEL      294
REMARK 921   NORMALIZED FREE ENERGY PREDICTED BY IDOCK:   -2.10 KCAL/MOL
REMARK 922        TOTAL FREE ENERGY PREDICTED BY IDOCK:   -4.67 KCAL/MOL
REMARK 923 INTER-LIGAND FREE ENERGY PREDICTED BY IDOCK:   -4.82 KCAL/MOL
REMARK 924 INTRA-LIGAND FREE ENERGY PREDICTED BY IDOCK:    0.15 KCAL/MOL
REMARK 927      BINDING AFFINITY PREDICTED BY RF-SCORE:    0.00 PKD
ROOT
HETATM    1  C   UNL     1     -10.023  10.375  63.480  1.00  0.00    -0.102 C  
HETATM    2  N   UNL     1     -10.404  11.444  64.391  1.00  0.00    -0.294 NA 
HETATM    3  H   UNL     1     -11.263  11.895  64.075  1.00  0.00     0.000 HD 
ENDROOT
BRANCH   2   4
HETATM    4  C   UNL     1     -10.529  11.017  65.792  1.00  0.00    -0.228 C  
BRANCH   4   5
HETATM    5  C   UNL     1     -10.661  12.156  66.839  1.00  0.00    -0.229 C  
HETATM    6  C   UNL     1     -11.987  12.893  66.783  1.00  0.00    -0.418 C  
HETATM    7  C   UNL     1     -12.017  13.949  67.887  1.00  0.00    -0.393 C  
HETATM    8  C   UNL     1     -10.727  14.794  67.941  1.00  0.00    -0.259 C  
HETATM    9  C   UNL     1      -9.383  13.963  67.722  1.00  0.00    -0.204 C  
HETATM   10  N   UNL     1     -10.777  15.679  69.129  1.00  0.00    -0.228 NA 
HETATM   11  O   UNL     1      -9.598  13.109  66.602  1.00  0.00    -0.248 OA 
HETATM   12  H1  UNL     1      -9.924  16.237  69.164  1.00  0.00     0.000 HD 
HETATM   13  H2  UNL     1     -10.937  15.161  69.993  1.00  0.00     0.000 HD 
BRANCH   9  14
HETATM   14  O   UNL     1      -8.871  13.248  68.871  1.00  0.00     0.080 OA 
BRANCH  14  15
HETATM   15  C   UNL     1      -7.739  12.299  68.681  1.00  0.00    -0.076 C  
HETATM   16  C   UNL     1      -6.917  12.518  67.382  1.00  0.00    -0.147 C  
HETATM   17  N   UNL     1      -6.085  13.735  67.493  1.00  0.00    -0.340 NA 
HETATM   18  C   UNL     1      -5.963  11.342  67.085  1.00  0.00    -0.098 C  
HETATM   19  H2  UNL     1      -5.488  13.711  68.320  1.00  0.00     0.000 HD 
HETATM   20  H1  UNL     1      -5.546  13.879  66.640  1.00  0.00     0.000 HD 
HETATM   21  C   UNL     1      -6.689   9.990  67.015  1.00  0.00    -0.078 C  
HETATM   22  N   UNL     1      -5.782   8.944  66.529  1.00  0.00    -0.046 NA 
HETATM   23  C   UNL     1      -7.277   9.611  68.387  1.00  0.00    -0.074 C  
HETATM   24  C   UNL     1      -8.140  10.804  68.904  1.00  0.00    -0.145 C  
HETATM   25  O   UNL     1      -8.441  10.597  70.304  1.00  0.00    -0.156 OA 
HETATM   26  H1  UNL     1      -6.263   8.046  66.483  1.00  0.00     0.000 HD 
HETATM   27  H2  UNL     1      -4.931   8.890  67.090  1.00  0.00     0.000 HD 
HETATM   28  H   UNL     1      -8.685   9.688  70.440  1.00  0.00     0.000 HD 
BRANCH  23  29
HETATM   29  O   UNL     1      -8.193   8.487  68.241  1.00  0.00    -0.120 OA 
BRANCH  29  30
HETATM   30  C   UNL     1      -7.743   7.117  68.238  1.00  0.00    -0.120 C  
HETATM   31  O   UNL     1      -7.708   6.481  66.958  1.00  0.00    -0.097 OA 
HETATM   32  C   UNL     1      -7.112   5.176  67.022  1.00  0.00    -0.069 C  
HETATM   33  C   UNL     1      -7.901   4.185  67.920  1.00  0.00    -0.079 C  
HETATM   34  C   UNL     1      -7.989   4.781  69.352  1.00  0.00    -0.070 C  
HETATM   35  O   UNL     1      -9.222   4.023  67.380  1.00  0.00    -0.139 OA 
HETATM   36  C   UNL     1      -7.199   2.819  67.886  1.00  0.00    -0.049 C  
HETATM   37  H   UNL     1      -8.856   6.281  71.290  1.00  0.00     0.000 HD 
HETATM   38  H   UNL     1      -9.704   3.417  67.929  1.00  0.00     0.000 HD 
HETATM   39  C   UNL     1      -8.515   6.257  69.308  1.00  0.00    -0.124 C  
HETATM   40  O   UNL     1      -8.390   6.799  70.645  1.00  0.00    -0.125 OA 
BRANCH  34  41
HETATM   41  N   UNL     1      -8.625   3.980  70.442  1.00  0.00    -0.071 NA 
HETATM   42  C   UNL     1      -9.597   2.970  70.062  1.00  0.00    -0.072 C  
HETATM   43  H   UNL     1      -8.384   4.138  71.421  1.00  0.00     0.000 HD 
ENDBRANCH  34  41
ENDBRANCH  29  30
ENDBRANCH  23  29
ENDBRANCH  14  15
ENDBRANCH   9  14
ENDBRANCH   4   5
ENDBRANCH   2   4
TORSDOF 7
ENDMDL
MODEL      295
REMARK 921   NORMALIZED FREE ENERGY PREDICTED BY IDOCK:   -2.06 KCAL/MOL
REMARK 922        TOTAL FREE ENERGY PREDICTED BY IDOCK:   -4.61 KCAL/MOL
REMARK 923 INTER-LIGAND FREE ENERGY PREDICTED BY IDOCK:   -4.77 KCAL/MOL
REMARK 924 INTRA-LIGAND FREE ENERGY PREDICTED BY IDOCK:    0.16 KCAL/MOL
REMARK 927      BINDING AFFINITY PREDICTED BY RF-SCORE:    0.00 PKD
ROOT
HETATM    1  C   UNL     1      -8.203  16.392  68.301  1.00  0.00    -0.177 C  
HETATM    2  N   UNL     1      -6.970  16.704  67.594  1.00  0.00    -0.131 NA 
HETATM    3  H   UNL     1      -6.585  17.591  67.919  1.00  0.00     0.000 HD 
ENDROOT
BRANCH   2   4
HETATM    4  C   UNL     1      -5.955  15.642  67.669  1.00  0.00    -0.134 C  
BRANCH   4   5
HETATM    5  C   UNL     1      -6.332  14.404  68.528  1.00  0.00    -0.088 C  
HETATM    6  C   UNL     1      -5.333  14.091  69.627  1.00  0.00    -0.092 C  
HETATM    7  C   UNL     1      -5.836  12.892  70.430  1.00  0.00    -0.152 C  
HETATM    8  C   UNL     1      -6.307  11.727  69.532  1.00  0.00    -0.123 C  
HETATM    9  C   UNL     1      -7.131  12.178  68.243  1.00  0.00    -0.084 C  
HETATM   10  N   UNL     1      -6.918  10.678  70.381  1.00  0.00    -0.471 NA 
HETATM   11  O   UNL     1      -6.418  13.258  67.649  1.00  0.00    -0.146 OA 
HETATM   12  H1  UNL     1      -7.228   9.908  69.788  1.00  0.00     0.000 HD 
HETATM   13  H2  UNL     1      -7.668  11.042  70.969  1.00  0.00     0.000 HD 
BRANCH   9  14
HETATM   14  O   UNL     1      -8.530  12.484  68.446  1.00  0.00    -0.168 OA 
BRANCH  14  15
HETATM   15  C   UNL     1      -9.532  11.390  68.314  1.00  0.00    -0.187 C  
HETATM   16  C   UNL     1     -10.564  11.310  69.472  1.00  0.00    -0.035 C  
HETATM   17  N   UNL     1     -11.532  12.422  69.382  1.00  0.00    -0.361 NA 
HETATM   18  C   UNL     1     -11.375   9.998  69.445  1.00  0.00    -0.192 C  
HETATM   19  H2  UNL     1     -11.988  12.455  68.471  1.00  0.00     0.000 HD 
HETATM   20  H1  UNL     1     -12.209  12.369  70.143  1.00  0.00     0.000 HD 
HETATM   21  C   UNL     1     -10.485   8.746  69.458  1.00  0.00    -0.220 C  
HETATM   22  N   UNL     1     -11.299   7.539  69.640  1.00  0.00    -0.461 NA 
HETATM   23  C   UNL     1      -9.649   8.653  68.168  1.00  0.00    -0.147 C  
HETATM   24  C   UNL     1      -8.895  10.005  67.967  1.00  0.00    -0.125 C  
HETATM   25  O   UNL     1      -8.360  10.051  66.623  1.00  0.00    -0.124 OA 
HETATM   26  H1  UNL     1     -10.708   6.707  69.649  1.00  0.00     0.000 HD 
HETATM   27  H2  UNL     1     -12.038   7.471  68.941  1.00  0.00     0.000 HD 
HETATM   28  H   UNL     1      -7.972   9.209  66.412  1.00  0.00     0.000 HD 
BRANCH  23  29
HETATM   29  O   UNL     1      -8.616   7.636  68.319  1.00  0.00    -0.124 OA 
BRANCH  29  30
HETATM   30  C   UNL     1      -8.894   6.324  68.849  1.00  0.00    -0.124 C  
HETATM   31  O   UNL     1      -8.527   6.120  70.216  1.00  0.00    -0.122 OA 
HETATM   32  C   UNL     1      -8.969   4.844  70.706  1.00  0.00    -0.131 C  
HETATM   33  C   UNL     1      -8.331   3.645  69.957  1.00  0.00    -0.055 C  
HETATM   34  C   UNL     1      -8.681   3.764  68.448  1.00  0.00    -0.102 C  
HETATM   35  O   UNL     1      -6.906   3.696  70.129  1.00  0.00    -0.033 OA 
HETATM   36  C   UNL     1      -8.843   2.339  70.584  1.00  0.00    -0.133 C  
HETATM   37  H   UNL     1      -8.515   4.605  65.993  1.00  0.00     0.000 HD 
HETATM   38  H   UNL     1      -6.516   2.962  69.671  1.00  0.00     0.000 HD 
HETATM   39  C   UNL     1      -8.331   5.193  67.907  1.00  0.00    -0.097 C  
HETATM   40  O   UNL     1      -8.855   5.286  66.560  1.00  0.00    -0.114 OA 
BRANCH  34  41
HETATM   41  N   UNL     1      -8.260   2.680  67.508  1.00  0.00    -0.075 NA 
HETATM   42  C   UNL     1      -6.867   2.641  67.100  1.00  0.00    -0.044 C  
HETATM   43  H   UNL     1      -8.930   1.991  67.166  1.00  0.00     0.000 HD 
ENDBRANCH  34  41
ENDBRANCH  29  30
ENDBRANCH  23  29
ENDBRANCH  14  15
ENDBRANCH   9  14
ENDBRANCH   4   5
ENDBRANCH   2   4
TORSDOF 7
ENDMDL
MODEL      296
REMARK 921   NORMALIZED FREE ENERGY PREDICTED BY IDOCK:   -1.80 KCAL/MOL
REMARK 922        TOTAL FREE ENERGY PREDICTED BY IDOCK:   -4.25 KCAL/MOL
REMARK 923 INTER-LIGAND FREE ENERGY PREDICTED BY IDOCK:   -4.68 KCAL/MOL
REMARK 924 INTRA-LIGAND FREE ENERGY PREDICTED BY IDOCK:    0.42 KCAL/MOL
REMARK 927      BINDING AFFINITY PREDICTED BY RF-SCORE:    0.00 PKD
ROOT
HETATM    1  C   UNL     1      -5.720  14.938  73.505  1.00  0.00     0.441 C  
HETATM    2  N   UNL     1      -5.421  14.356  72.205  1.00  0.00    -0.145 NA 
HETATM    3  H   UNL     1      -5.110  13.390  72.308  1.00  0.00     0.000 HD 
ENDROOT
BRANCH   2   4
HETATM    4  C   UNL     1      -6.531  14.443  71.244  1.00  0.00     0.439 C  
BRANCH   4   5
HETATM    5  C   UNL     1      -6.396  13.563  69.972  1.00  0.00    -0.045 C  
HETATM    6  C   UNL     1      -5.127  12.731  69.931  1.00  0.00    -0.082 C  
HETATM    7  C   UNL     1      -5.134  11.875  68.665  1.00  0.00    -0.046 C  
HETATM    8  C   UNL     1      -5.507  12.680  67.401  1.00  0.00    -0.074 C  
HETATM    9  C   UNL     1      -6.687  13.732  67.613  1.00  0.00    -0.176 C  
HETATM   10  N   UNL     1      -5.641  11.749  66.256  1.00  0.00    -0.504 NA 
HETATM   11  O   UNL     1      -6.407  14.437  68.819  1.00  0.00    -0.080 OA 
HETATM   12  H1  UNL     1      -5.887  12.281  65.422  1.00  0.00     0.000 HD 
HETATM   13  H2  UNL     1      -6.301  10.995  66.444  1.00  0.00     0.000 HD 
BRANCH   9  14
HETATM   14  O   UNL     1      -8.035  13.206  67.582  1.00  0.00    -0.147 OA 
BRANCH  14  15
HETATM   15  C   UNL     1      -8.678  12.956  66.262  1.00  0.00     0.275 C  
HETATM   16  C   UNL     1      -9.906  13.858  65.956  1.00  0.00    -0.289 C  
HETATM   17  N   UNL     1      -9.473  15.240  65.662  1.00  0.00    -0.402 NA 
HETATM   18  C   UNL     1     -10.707  13.363  64.734  1.00  0.00    -0.403 C  
HETATM   19  H2  UNL     1      -8.785  15.270  64.911  1.00  0.00     0.000 HD 
HETATM   20  H1  UNL     1     -10.279  15.832  65.462  1.00  0.00     0.000 HD 
HETATM   21  C   UNL     1     -11.161  11.902  64.871  1.00  0.00    -0.307 C  
HETATM   22  N   UNL     1     -12.086  11.547  63.789  1.00  0.00    -0.428 NA 
HETATM   23  C   UNL     1      -9.949  10.950  64.889  1.00  0.00    -0.303 C  
HETATM   24  C   UNL     1      -8.948  11.442  65.981  1.00  0.00    -0.197 C  
HETATM   25  O   UNL     1      -7.685  10.759  65.804  1.00  0.00    -0.215 OA 
HETATM   26  H1  UNL     1     -12.387  10.578  63.879  1.00  0.00     0.000 HD 
HETATM   27  H2  UNL     1     -11.685  11.736  62.870  1.00  0.00     0.000 HD 
HETATM   28  H   UNL     1      -7.849   9.839  65.633  1.00  0.00     0.000 HD 
BRANCH  23  29
HETATM   29  O   UNL     1     -10.372   9.618  65.303  1.00  0.00    -0.009 OA 
BRANCH  29  30
HETATM   30  C   UNL     1      -9.829   8.961  66.466  1.00  0.00    -0.274 C  
HETATM   31  O   UNL     1      -9.204   7.697  66.226  1.00  0.00    -0.174 OA 
HETATM   32  C   UNL     1      -8.564   7.182  67.404  1.00  0.00    -0.121 C  
HETATM   33  C   UNL     1      -9.553   6.904  68.567  1.00  0.00    -0.131 C  
HETATM   34  C   UNL     1     -10.286   8.228  68.918  1.00  0.00    -0.210 C  
HETATM   35  O   UNL     1     -10.508   5.921  68.137  1.00  0.00    -0.190 OA 
HETATM   36  C   UNL     1      -8.771   6.324  69.755  1.00  0.00    -0.137 C  
HETATM   37  H   UNL     1     -12.022  10.152  68.709  1.00  0.00     0.000 HD 
HETATM   38  H   UNL     1     -11.113   5.750  68.850  1.00  0.00     0.000 HD 
HETATM   39  C   UNL     1     -10.888   8.888  67.630  1.00  0.00    -0.042 C  
HETATM   40  O   UNL     1     -11.383  10.196  68.007  1.00  0.00    -0.250 OA 
BRANCH  34  41
HETATM   41  N   UNL     1     -11.236   8.258  70.072  1.00  0.00    -0.433 NA 
HETATM   42  C   UNL     1     -12.084   7.098  70.281  1.00  0.00    -0.014 C  
HETATM   43  H   UNL     1     -11.286   9.066  70.692  1.00  0.00     0.000 HD 
ENDBRANCH  34  41
ENDBRANCH  29  30
ENDBRANCH  23  29
ENDBRANCH  14  15
ENDBRANCH   9  14
ENDBRANCH   4   5
ENDBRANCH   2   4
TORSDOF 7
ENDMDL
MODEL      297
REMARK 921   NORMALIZED FREE ENERGY PREDICTED BY IDOCK:   -1.76 KCAL/MOL
REMARK 922        TOTAL FREE ENERGY PREDICTED BY IDOCK:   -4.19 KCAL/MOL
REMARK 923 INTER-LIGAND FREE ENERGY PREDICTED BY IDOCK:   -4.34 KCAL/MOL
REMARK 924 INTRA-LIGAND FREE ENERGY PREDICTED BY IDOCK:    0.15 KCAL/MOL
REMARK 927      BINDING AFFINITY PREDICTED BY RF-SCORE:    0.00 PKD
ROOT
HETATM    1  C   UNL     1      -7.618   3.395  73.039  1.00  0.00    -0.060 C  
HETATM    2  N   UNL     1      -9.017   3.738  72.831  1.00  0.00    -0.096 NA 
HETATM    3  H   UNL     1      -9.588   3.396  73.604  1.00  0.00     0.000 HD 
ENDROOT
BRANCH   2   4
HETATM    4  C   UNL     1      -9.252   5.172  72.609  1.00  0.00    -0.134 C  
BRANCH   4   5
HETATM    5  C   UNL     1      -8.112   5.943  71.891  1.00  0.00    -0.112 C  
HETATM    6  C   UNL     1      -6.818   6.005  72.682  1.00  0.00    -0.074 C  
HETATM    7  C   UNL     1      -5.763   6.739  71.854  1.00  0.00    -0.037 C  
HETATM    8  C   UNL     1      -6.293   8.052  71.240  1.00  0.00    -0.035 C  
HETATM    9  C   UNL     1      -7.779   7.960  70.667  1.00  0.00    -0.090 C  
HETATM   10  N   UNL     1      -5.263   8.613  70.334  1.00  0.00    -0.022 NA 
HETATM   11  O   UNL     1      -8.566   7.295  71.651  1.00  0.00    -0.117 OA 
HETATM   12  H1  UNL     1      -5.614   9.480  69.928  1.00  0.00     0.000 HD 
HETATM   13  H2  UNL     1      -4.965   7.945  69.624  1.00  0.00     0.000 HD 
BRANCH   9  14
HETATM   14  O   UNL     1      -7.929   7.374  69.352  1.00  0.00    -0.119 OA 
BRANCH  14  15
HETATM   15  C   UNL     1      -7.898   8.266  68.160  1.00  0.00    -0.118 C  
HETATM   16  C   UNL     1      -6.722   8.003  67.181  1.00  0.00    -0.065 C  
HETATM   17  N   UNL     1      -6.941   6.747  66.433  1.00  0.00    -0.061 NA 
HETATM   18  C   UNL     1      -6.562   9.130  66.140  1.00  0.00    -0.069 C  
HETATM   19  H2  UNL     1      -7.841   6.744  65.953  1.00  0.00     0.000 HD 
HETATM   20  H1  UNL     1      -6.168   6.575  65.791  1.00  0.00     0.000 HD 
HETATM   21  C   UNL     1      -6.399  10.516  66.782  1.00  0.00    -0.079 C  
HETATM   22  N   UNL     1      -6.045  11.514  65.767  1.00  0.00    -0.427 NA 
HETATM   23  C   UNL     1      -7.680  10.928  67.532  1.00  0.00    -0.109 C  
HETATM   24  C   UNL     1      -8.071   9.779  68.514  1.00  0.00    -0.104 C  
HETATM   25  O   UNL     1      -9.418  10.006  68.992  1.00  0.00    -0.167 OA 
HETATM   26  H1  UNL     1      -5.937  12.435  66.192  1.00  0.00     0.000 HD 
HETATM   27  H2  UNL     1      -6.717  11.528  64.999  1.00  0.00     0.000 HD 
HETATM   28  H   UNL     1      -9.523  10.925  69.207  1.00  0.00     0.000 HD 
BRANCH  23  29
HETATM   29  O   UNL     1      -7.415  12.095  68.363  1.00  0.00    -0.102 OA 
BRANCH  29  30
HETATM   30  C   UNL     1      -8.438  13.053  68.701  1.00  0.00     0.041 C  
HETATM   31  O   UNL     1      -9.697  12.867  68.049  1.00  0.00    -0.211 OA 
HETATM   32  C   UNL     1     -10.699  13.767  68.549  1.00  0.00    -0.262 C  
HETATM   33  C   UNL     1     -10.358  15.261  68.302  1.00  0.00    -0.234 C  
HETATM   34  C   UNL     1      -8.998  15.575  68.984  1.00  0.00    -0.237 C  
HETATM   35  O   UNL     1     -10.253  15.484  66.887  1.00  0.00    -0.267 OA 
HETATM   36  C   UNL     1     -11.508  16.127  68.839  1.00  0.00    -0.331 C  
HETATM   37  H   UNL     1      -6.418  15.666  69.291  1.00  0.00     0.000 HD 
HETATM   38  H   UNL     1     -10.045  16.398  66.736  1.00  0.00     0.000 HD 
HETATM   39  C   UNL     1      -7.910  14.530  68.561  1.00  0.00    -0.136 C  
HETATM   40  O   UNL     1      -6.737  14.775  69.376  1.00  0.00    -0.125 OA 
BRANCH  34  41
HETATM   41  N   UNL     1      -8.479  16.977  68.974  1.00  0.00    -0.185 NA 
HETATM   42  C   UNL     1      -7.725  17.411  67.811  1.00  0.00    -0.195 C  
HETATM   43  H   UNL     1      -8.649  17.607  69.758  1.00  0.00     0.000 HD 
ENDBRANCH  34  41
ENDBRANCH  29  30
ENDBRANCH  23  29
ENDBRANCH  14  15
ENDBRANCH   9  14
ENDBRANCH   4   5
ENDBRANCH   2   4
TORSDOF 7
ENDMDL
MODEL      298
REMARK 921   NORMALIZED FREE ENERGY PREDICTED BY IDOCK:   -1.66 KCAL/MOL
REMARK 922        TOTAL FREE ENERGY PREDICTED BY IDOCK:   -4.05 KCAL/MOL
REMARK 923 INTER-LIGAND FREE ENERGY PREDICTED BY IDOCK:   -3.59 KCAL/MOL
REMARK 924 INTRA-LIGAND FREE ENERGY PREDICTED BY IDOCK:   -0.46 KCAL/MOL
REMARK 927      BINDING AFFINITY PREDICTED BY RF-SCORE:    0.00 PKD
ROOT
HETATM    1  C   UNL     1      -9.682   4.114  73.501  1.00  0.00    -0.116 C  
HETATM    2  N   UNL     1     -10.911   4.674  72.960  1.00  0.00    -0.247 NA 
HETATM    3  H   UNL     1     -11.667   4.603  73.641  1.00  0.00     0.000 HD 
ENDROOT
BRANCH   2   4
HETATM    4  C   UNL     1     -10.775   6.056  72.479  1.00  0.00    -0.227 C  
BRANCH   4   5
HETATM    5  C   UNL     1      -9.407   6.421  71.841  1.00  0.00    -0.152 C  
HETATM    6  C   UNL     1      -8.588   7.401  72.662  1.00  0.00    -0.141 C  
HETATM    7  C   UNL     1      -7.250   7.640  71.961  1.00  0.00    -0.070 C  
HETATM    8  C   UNL     1      -7.409   7.923  70.452  1.00  0.00    -0.068 C  
HETATM    9  C   UNL     1      -8.497   7.015  69.721  1.00  0.00    -0.137 C  
HETATM   10  N   UNL     1      -6.067   7.988  69.828  1.00  0.00    -0.029 NA 
HETATM   11  O   UNL     1      -9.660   7.011  70.545  1.00  0.00    -0.169 OA 
HETATM   12  H1  UNL     1      -6.171   8.175  68.831  1.00  0.00     0.000 HD 
HETATM   13  H2  UNL     1      -5.513   7.150  70.009  1.00  0.00     0.000 HD 
BRANCH   9  14
HETATM   14  O   UNL     1      -8.080   5.681  69.348  1.00  0.00    -0.097 OA 
BRANCH  14  15
HETATM   15  C   UNL     1      -7.588   5.442  67.963  1.00  0.00    -0.081 C  
HETATM   16  C   UNL     1      -6.044   5.333  67.831  1.00  0.00    -0.023 C  
HETATM   17  N   UNL     1      -5.565   4.053  68.391  1.00  0.00    -0.013 NA 
HETATM   18  C   UNL     1      -5.576   5.390  66.362  1.00  0.00    -0.017 C  
HETATM   19  H2  UNL     1      -6.038   3.254  67.970  1.00  0.00     0.000 HD 
HETATM   20  H1  UNL     1      -4.551   3.982  68.305  1.00  0.00     0.000 HD 
HETATM   21  C   UNL     1      -6.070   6.645  65.626  1.00  0.00    -0.038 C  
HETATM   22  N   UNL     1      -5.432   6.754  64.310  1.00  0.00    -0.027 NA 
HETATM   23  C   UNL     1      -7.605   6.634  65.492  1.00  0.00    -0.088 C  
HETATM   24  C   UNL     1      -8.225   6.402  66.905  1.00  0.00    -0.110 C  
HETATM   25  O   UNL     1      -9.628   6.082  66.757  1.00  0.00    -0.139 OA 
HETATM   26  H1  UNL     1      -5.760   7.587  63.821  1.00  0.00     0.000 HD 
HETATM   27  H2  UNL     1      -5.566   5.910  63.752  1.00  0.00     0.000 HD 
HETATM   28  H   UNL     1     -10.016   6.665  66.114  1.00  0.00     0.000 HD 
BRANCH  23  29
HETATM   29  O   UNL     1      -8.074   7.944  65.058  1.00  0.00    -0.133 OA 
BRANCH  29  30
HETATM   30  C   UNL     1      -7.534   9.173  65.585  1.00  0.00    -0.093 C  
HETATM   31  O   UNL     1      -6.686   9.034  66.728  1.00  0.00    -0.073 OA 
HETATM   32  C   UNL     1      -6.076  10.281  67.098  1.00  0.00    -0.055 C  
HETATM   33  C   UNL     1      -7.103  11.367  67.514  1.00  0.00    -0.106 C  
HETATM   34  C   UNL     1      -8.076  11.604  66.326  1.00  0.00     0.047 C  
HETATM   35  O   UNL     1      -7.837  10.897  68.656  1.00  0.00    -0.110 OA 
HETATM   36  C   UNL     1      -6.343  12.637  67.923  1.00  0.00    -0.111 C  
HETATM   37  H   UNL     1     -10.086  11.176  64.733  1.00  0.00     0.000 HD 
HETATM   38  H   UNL     1      -8.465  11.562  68.910  1.00  0.00     0.000 HD 
HETATM   39  C   UNL     1      -8.664  10.246  65.810  1.00  0.00    -0.156 C  
HETATM   40  O   UNL     1      -9.404  10.529  64.598  1.00  0.00    -0.205 OA 
BRANCH  34  41
HETATM   41  N   UNL     1      -9.116  12.673  66.432  1.00  0.00    -0.398 NA 
HETATM   42  C   UNL     1     -10.210  12.463  67.365  1.00  0.00    -0.208 C  
HETATM   43  H   UNL     1      -9.059  13.521  65.868  1.00  0.00     0.000 HD 
ENDBRANCH  34  41
ENDBRANCH  29  30
ENDBRANCH  23  29
ENDBRANCH  14  15
ENDBRANCH   9  14
ENDBRANCH   4   5
ENDBRANCH   2   4
TORSDOF 7
ENDMDL
MODEL      299
REMARK 921   NORMALIZED FREE ENERGY PREDICTED BY IDOCK:   -1.54 KCAL/MOL
REMARK 922        TOTAL FREE ENERGY PREDICTED BY IDOCK:   -3.88 KCAL/MOL
REMARK 923 INTER-LIGAND FREE ENERGY PREDICTED BY IDOCK:   -4.70 KCAL/MOL
REMARK 924 INTRA-LIGAND FREE ENERGY PREDICTED BY IDOCK:    0.82 KCAL/MOL
REMARK 927      BINDING AFFINITY PREDICTED BY RF-SCORE:    0.00 PKD
ROOT
HETATM    1  C   UNL     1      -6.445   6.539  70.015  1.00  0.00    -0.040 C  
HETATM    2  N   UNL     1      -6.820   7.666  69.174  1.00  0.00    -0.052 NA 
HETATM    3  H   UNL     1      -5.990   8.147  68.829  1.00  0.00     0.000 HD 
ENDROOT
BRANCH   2   4
HETATM    4  C   UNL     1      -7.712   7.308  68.062  1.00  0.00    -0.117 C  
BRANCH   4   5
HETATM    5  C   UNL     1      -7.180   7.625  66.637  1.00  0.00    -0.087 C  
HETATM    6  C   UNL     1      -6.332   6.518  66.037  1.00  0.00    -0.042 C  
HETATM    7  C   UNL     1      -5.913   6.923  64.624  1.00  0.00    -0.036 C  
HETATM    8  C   UNL     1      -5.369   8.366  64.552  1.00  0.00    -0.036 C  
HETATM    9  C   UNL     1      -6.175   9.420  65.437  1.00  0.00    -0.065 C  
HETATM   10  N   UNL     1      -5.136   8.725  63.134  1.00  0.00    -0.066 NA 
HETATM   11  O   UNL     1      -6.377   8.825  66.715  1.00  0.00    -0.058 OA 
HETATM   12  H1  UNL     1      -4.776   9.679  63.087  1.00  0.00     0.000 HD 
HETATM   13  H2  UNL     1      -5.968   8.596  62.559  1.00  0.00     0.000 HD 
BRANCH   9  14
HETATM   14  O   UNL     1      -7.401   9.937  64.869  1.00  0.00    -0.124 OA 
BRANCH  14  15
HETATM   15  C   UNL     1      -8.368  10.636  65.760  1.00  0.00    -0.162 C  
HETATM   16  C   UNL     1      -9.755  10.920  65.120  1.00  0.00    -0.262 C  
HETATM   17  N   UNL     1     -10.533   9.670  64.991  1.00  0.00     0.169 NA 
HETATM   18  C   UNL     1     -10.601  11.897  65.962  1.00  0.00    -0.304 C  
HETATM   19  H2  UNL     1     -10.620   9.184  65.884  1.00  0.00     0.000 HD 
HETATM   20  H1  UNL     1     -11.443   9.857  64.571  1.00  0.00     0.000 HD 
HETATM   21  C   UNL     1      -9.878  13.224  66.240  1.00  0.00    -0.285 C  
HETATM   22  N   UNL     1     -10.794  14.188  66.860  1.00  0.00    -0.293 NA 
HETATM   23  C   UNL     1      -8.638  12.999  67.126  1.00  0.00    -0.195 C  
HETATM   24  C   UNL     1      -7.760  11.885  66.477  1.00  0.00     0.107 C  
HETATM   25  O   UNL     1      -6.769  11.447  67.436  1.00  0.00    -0.078 OA 
HETATM   26  H1  UNL     1     -10.315  15.069  67.045  1.00  0.00     0.000 HD 
HETATM   27  H2  UNL     1     -11.230  13.810  67.701  1.00  0.00     0.000 HD 
HETATM   28  H   UNL     1      -6.399  12.206  67.872  1.00  0.00     0.000 HD 
BRANCH  23  29
HETATM   29  O   UNL     1      -7.816  14.202  67.142  1.00  0.00    -0.158 OA 
BRANCH  29  30
HETATM   30  C   UNL     1      -8.307  15.469  67.623  1.00  0.00    -0.155 C  
HETATM   31  O   UNL     1      -9.129  16.200  66.709  1.00  0.00    -0.201 OA 
HETATM   32  C   UNL     1      -9.694  17.373  67.315  1.00  0.00    -0.267 C  
HETATM   33  C   UNL     1      -8.627  18.401  67.774  1.00  0.00    -0.267 C  
HETATM   34  C   UNL     1      -7.678  17.706  68.789  1.00  0.00    -0.246 C  
HETATM   35  O   UNL     1      -7.877  18.834  66.628  1.00  0.00    -0.244 OA 
HETATM   36  C   UNL     1      -9.340  19.625  68.369  1.00  0.00    -0.425 C  
HETATM   37  H   UNL     1      -5.723  16.212  69.629  1.00  0.00     0.000 HD 
HETATM   38  H   UNL     1      -7.224  19.463  66.910  1.00  0.00     0.000 HD 
HETATM   39  C   UNL     1      -7.142  16.351  68.211  1.00  0.00    -0.142 C  
HETATM   40  O   UNL     1      -6.426  15.680  69.275  1.00  0.00    -0.127 OA 
BRANCH  34  41
HETATM   41  N   UNL     1      -6.606  18.504  69.458  1.00  0.00    -0.220 NA 
HETATM   42  C   UNL     1      -5.944  19.535  68.679  1.00  0.00    -0.227 C  
HETATM   43  H   UNL     1      -6.349  18.331  70.430  1.00  0.00     0.000 HD 
ENDBRANCH  34  41
ENDBRANCH  29  30
ENDBRANCH  23  29
ENDBRANCH  14  15
ENDBRANCH   9  14
ENDBRANCH   4   5
ENDBRANCH   2   4
TORSDOF 7
ENDMDL
MODEL      300
REMARK 921   NORMALIZED FREE ENERGY PREDICTED BY IDOCK:   -1.50 KCAL/MOL
REMARK 922        TOTAL FREE ENERGY PREDICTED BY IDOCK:   -3.83 KCAL/MOL
REMARK 923 INTER-LIGAND FREE ENERGY PREDICTED BY IDOCK:   -8.10 KCAL/MOL
REMARK 924 INTRA-LIGAND FREE ENERGY PREDICTED BY IDOCK:    4.27 KCAL/MOL
REMARK 927      BINDING AFFINITY PREDICTED BY RF-SCORE:    0.00 PKD
ROOT
HETATM    1  C   UNL     1      -9.176   2.129  70.627  1.00  0.00    -0.115 C  
HETATM    2  N   UNL     1      -8.977   3.304  71.462  1.00  0.00    -0.091 NA 
HETATM    3  H   UNL     1      -8.113   3.783  71.206  1.00  0.00     0.000 HD 
ENDROOT
BRANCH   2   4
HETATM    4  C   UNL     1     -10.110   4.240  71.453  1.00  0.00    -0.117 C  
BRANCH   4   5
HETATM    5  C   UNL     1      -9.887   5.568  70.679  1.00  0.00    -0.192 C  
HETATM    6  C   UNL     1     -10.851   5.777  69.525  1.00  0.00    -0.410 C  
HETATM    7  C   UNL     1     -10.567   7.132  68.878  1.00  0.00    -0.218 C  
HETATM    8  C   UNL     1      -9.064   7.362  68.609  1.00  0.00    -0.134 C  
HETATM    9  C   UNL     1      -8.100   6.861  69.777  1.00  0.00    -0.126 C  
HETATM   10  N   UNL     1      -8.865   8.749  68.129  1.00  0.00    -0.141 NA 
HETATM   11  O   UNL     1      -8.540   5.558  70.151  1.00  0.00    -0.117 OA 
HETATM   12  H1  UNL     1      -7.872   8.901  67.952  1.00  0.00     0.000 HD 
HETATM   13  H2  UNL     1      -9.255   9.442  68.770  1.00  0.00     0.000 HD 
BRANCH   9  14
HETATM   14  O   UNL     1      -7.952   7.742  70.915  1.00  0.00    -0.094 OA 
BRANCH  14  15
HETATM   15  C   UNL     1      -9.081   8.643  71.278  1.00  0.00    -0.212 C  
HETATM   16  C   UNL     1     -10.322   7.924  71.873  1.00  0.00    -0.215 C  
HETATM   17  N   UNL     1     -10.044   7.459  73.247  1.00  0.00    -0.282 NA 
HETATM   18  C   UNL     1     -11.556   8.848  71.947  1.00  0.00    -0.442 C  
HETATM   19  H2  UNL     1      -9.723   8.220  73.847  1.00  0.00     0.000 HD 
HETATM   20  H1  UNL     1     -10.859   6.987  73.637  1.00  0.00     0.000 HD 
HETATM   21  C   UNL     1     -11.919   9.469  70.589  1.00  0.00    -0.197 C  
HETATM   22  N   UNL     1     -13.207  10.165  70.670  1.00  0.00    -0.575 NA 
HETATM   23  C   UNL     1     -10.810  10.423  70.107  1.00  0.00    -0.271 C  
HETATM   24  C   UNL     1      -9.447   9.662  70.150  1.00  0.00    -0.253 C  
HETATM   25  O   UNL     1      -8.370  10.616  70.002  1.00  0.00    -0.305 OA 
HETATM   26  H1  UNL     1     -13.449  10.577  69.769  1.00  0.00     0.000 HD 
HETATM   27  H2  UNL     1     -13.217  10.859  71.419  1.00  0.00     0.000 HD 
HETATM   28  H   UNL     1      -8.593  11.235  69.316  1.00  0.00     0.000 HD 
BRANCH  23  29
HETATM   29  O   UNL     1     -11.030  10.773  68.710  1.00  0.00    -0.211 OA 
BRANCH  29  30
HETATM   30  C   UNL     1     -10.761  12.092  68.191  1.00  0.00    -0.216 C  
HETATM   31  O   UNL     1     -10.411  13.079  69.165  1.00  0.00    -0.064 OA 
HETATM   32  C   UNL     1     -10.018  14.318  68.556  1.00  0.00    -0.235 C  
HETATM   33  C   UNL     1     -11.151  14.982  67.730  1.00  0.00    -0.310 C  
HETATM   34  C   UNL     1     -11.602  13.988  66.625  1.00  0.00    -0.382 C  
HETATM   35  O   UNL     1     -12.254  15.269  68.604  1.00  0.00    -0.575 OA 
HETATM   36  C   UNL     1     -10.634  16.312  67.159  1.00  0.00    -0.291 C  
HETATM   37  H   UNL     1     -12.840  11.964  65.561  1.00  0.00     0.000 HD 
HETATM   38  H   UNL     1     -12.947  15.676  68.097  1.00  0.00     0.000 HD 
HETATM   39  C   UNL     1     -11.916  12.581  67.238  1.00  0.00    -0.216 C  
HETATM   40  O   UNL     1     -12.144  11.670  66.136  1.00  0.00    -0.308 OA 
BRANCH  34  41
HETATM   41  N   UNL     1     -12.628  14.417  65.626  1.00  0.00    -0.375 NA 
HETATM   42  C   UNL     1     -12.185  14.667  64.265  1.00  0.00    -0.408 C  
HETATM   43  H   UNL     1     -13.606  14.530  65.891  1.00  0.00     0.000 HD 
ENDBRANCH  34  41
ENDBRANCH  29  30
ENDBRANCH  23  29
ENDBRANCH  14  15
ENDBRANCH   9  14
ENDBRANCH   4   5
ENDBRANCH   2   4
TORSDOF 7
ENDMDL
MODEL      301
REMARK 921   NORMALIZED FREE ENERGY PREDICTED BY IDOCK:   -1.46 KCAL/MOL
REMARK 922        TOTAL FREE ENERGY PREDICTED BY IDOCK:   -3.76 KCAL/MOL
REMARK 923 INTER-LIGAND FREE ENERGY PREDICTED BY IDOCK:   -8.23 KCAL/MOL
REMARK 924 INTRA-LIGAND FREE ENERGY PREDICTED BY IDOCK:    4.47 KCAL/MOL
REMARK 927      BINDING AFFINITY PREDICTED BY RF-SCORE:    0.00 PKD
ROOT
HETATM    1  C   UNL     1      -9.669  19.848  67.949  1.00  0.00    -0.389 C  
HETATM    2  N   UNL     1      -9.744  18.527  68.553  1.00  0.00    -0.350 NA 
HETATM    3  H   UNL     1     -10.001  18.597  69.538  1.00  0.00     0.000 HD 
ENDROOT
BRANCH   2   4
HETATM    4  C   UNL     1     -10.641  17.599  67.849  1.00  0.00    -0.387 C  
BRANCH   4   5
HETATM    5  C   UNL     1     -10.120  16.145  67.684  1.00  0.00    -0.248 C  
HETATM    6  C   UNL     1      -9.138  15.719  68.759  1.00  0.00    -0.213 C  
HETATM    7  C   UNL     1      -8.739  14.262  68.520  1.00  0.00    -0.175 C  
HETATM    8  C   UNL     1      -8.363  13.980  67.049  1.00  0.00    -0.104 C  
HETATM    9  C   UNL     1      -9.304  14.696  65.979  1.00  0.00    -0.181 C  
HETATM   10  N   UNL     1      -8.144  12.525  66.877  1.00  0.00    -0.370 NA 
HETATM   11  O   UNL     1      -9.462  16.048  66.399  1.00  0.00    -0.248 OA 
HETATM   12  H1  UNL     1      -7.896  12.338  65.905  1.00  0.00     0.000 HD 
HETATM   13  H2  UNL     1      -8.944  11.972  67.186  1.00  0.00     0.000 HD 
BRANCH   9  14
HETATM   14  O   UNL     1     -10.569  14.053  65.698  1.00  0.00    -0.287 OA 
BRANCH  14  15
HETATM   15  C   UNL     1     -11.067  13.007  66.633  1.00  0.00    -0.289 C  
HETATM   16  C   UNL     1     -11.321  13.499  68.084  1.00  0.00    -0.286 C  
HETATM   17  N   UNL     1     -12.529  14.348  68.140  1.00  0.00    -0.525 NA 
HETATM   18  C   UNL     1     -11.540  12.332  69.070  1.00  0.00    -0.368 C  
HETATM   19  H2  UNL     1     -13.345  13.873  67.753  1.00  0.00     0.000 HD 
HETATM   20  H1  UNL     1     -12.695  14.671  69.093  1.00  0.00     0.000 HD 
HETATM   21  C   UNL     1     -10.384  11.320  69.062  1.00  0.00    -0.166 C  
HETATM   22  N   UNL     1     -10.541  10.352  70.153  1.00  0.00    -0.436 NA 
HETATM   23  C   UNL     1     -10.292  10.602  67.702  1.00  0.00    -0.209 C  
HETATM   24  C   UNL     1     -10.242  11.680  66.574  1.00  0.00    -0.214 C  
HETATM   25  O   UNL     1     -10.467  11.037  65.298  1.00  0.00    -0.273 OA 
HETATM   26  H1  UNL     1      -9.774   9.680  70.148  1.00  0.00     0.000 HD 
HETATM   27  H2  UNL     1     -11.450   9.890  70.122  1.00  0.00     0.000 HD 
HETATM   28  H   UNL     1      -9.965  10.230  65.262  1.00  0.00     0.000 HD 
BRANCH  23  29
HETATM   29  O   UNL     1      -9.036   9.869  67.613  1.00  0.00    -0.128 OA 
BRANCH  29  30
HETATM   30  C   UNL     1      -8.985   8.446  67.385  1.00  0.00    -0.134 C  
HETATM   31  O   UNL     1      -9.183   8.030  66.032  1.00  0.00    -0.177 OA 
HETATM   32  C   UNL     1      -8.971   6.619  65.867  1.00  0.00    -0.074 C  
HETATM   33  C   UNL     1      -9.965   5.750  66.683  1.00  0.00    -0.176 C  
HETATM   34  C   UNL     1      -9.823   6.119  68.185  1.00  0.00    -0.131 C  
HETATM   35  O   UNL     1     -11.301   6.035  66.238  1.00  0.00    -0.684 OA 
HETATM   36  C   UNL     1      -9.673   4.268  66.403  1.00  0.00    -0.228 C  
HETATM   37  H   UNL     1     -10.156   7.478  70.377  1.00  0.00     0.000 HD 
HETATM   38  H   UNL     1     -11.909   5.503  66.737  1.00  0.00     0.000 HD 
HETATM   39  C   UNL     1      -9.919   7.670  68.388  1.00  0.00    -0.176 C  
HETATM   40  O   UNL     1      -9.592   7.946  69.772  1.00  0.00    -0.167 OA 
BRANCH  34  41
HETATM   41  N   UNL     1     -10.610   5.360  69.205  1.00  0.00    -0.213 NA 
HETATM   42  C   UNL     1      -9.898   4.405  70.036  1.00  0.00    -0.223 C  
HETATM   43  H   UNL     1     -11.613   5.509  69.313  1.00  0.00     0.000 HD 
ENDBRANCH  34  41
ENDBRANCH  29  30
ENDBRANCH  23  29
ENDBRANCH  14  15
ENDBRANCH   9  14
ENDBRANCH   4   5
ENDBRANCH   2   4
TORSDOF 7
ENDMDL
MODEL      302
REMARK 921   NORMALIZED FREE ENERGY PREDICTED BY IDOCK:   -1.44 KCAL/MOL
REMARK 922        TOTAL FREE ENERGY PREDICTED BY IDOCK:   -3.74 KCAL/MOL
REMARK 923 INTER-LIGAND FREE ENERGY PREDICTED BY IDOCK:   -7.96 KCAL/MOL
REMARK 924 INTRA-LIGAND FREE ENERGY PREDICTED BY IDOCK:    4.22 KCAL/MOL
REMARK 927      BINDING AFFINITY PREDICTED BY RF-SCORE:    0.00 PKD
ROOT
HETATM    1  C   UNL     1      -7.787   3.696  73.211  1.00  0.00    -0.074 C  
HETATM    2  N   UNL     1      -9.145   3.360  72.813  1.00  0.00    -0.088 NA 
HETATM    3  H   UNL     1      -9.369   2.401  73.079  1.00  0.00     0.000 HD 
ENDROOT
BRANCH   2   4
HETATM    4  C   UNL     1     -10.163   4.290  73.324  1.00  0.00    -0.156 C  
BRANCH   4   5
HETATM    5  C   UNL     1     -10.376   5.585  72.494  1.00  0.00    -0.203 C  
HETATM    6  C   UNL     1     -10.372   6.855  73.324  1.00  0.00    -0.315 C  
HETATM    7  C   UNL     1     -10.538   8.058  72.395  1.00  0.00    -0.373 C  
HETATM    8  C   UNL     1     -11.680   7.870  71.374  1.00  0.00    -0.281 C  
HETATM    9  C   UNL     1     -11.770   6.407  70.745  1.00  0.00    -0.312 C  
HETATM   10  N   UNL     1     -11.668   9.005  70.421  1.00  0.00    -0.459 NA 
HETATM   11  O   UNL     1     -11.653   5.482  71.823  1.00  0.00    -0.072 OA 
HETATM   12  H1  UNL     1     -12.423   8.881  69.746  1.00  0.00     0.000 HD 
HETATM   13  H2  UNL     1     -10.761   9.126  69.971  1.00  0.00     0.000 HD 
BRANCH   9  14
HETATM   14  O   UNL     1     -10.857   6.112  69.663  1.00  0.00    -0.281 OA 
BRANCH  14  15
HETATM   15  C   UNL     1      -9.825   7.121  69.296  1.00  0.00    -0.161 C  
HETATM   16  C   UNL     1      -8.711   7.329  70.359  1.00  0.00    -0.146 C  
HETATM   17  N   UNL     1      -7.796   6.170  70.384  1.00  0.00    -0.104 NA 
HETATM   18  C   UNL     1      -7.854   8.579  70.074  1.00  0.00    -0.102 C  
HETATM   19  H2  UNL     1      -7.407   5.974  69.461  1.00  0.00     0.000 HD 
HETATM   20  H1  UNL     1      -7.065   6.306  71.081  1.00  0.00     0.000 HD 
HETATM   21  C   UNL     1      -8.692   9.861  69.946  1.00  0.00    -0.201 C  
HETATM   22  N   UNL     1      -7.822  11.040  69.884  1.00  0.00    -0.286 NA 
HETATM   23  C   UNL     1      -9.614   9.794  68.714  1.00  0.00    -0.154 C  
HETATM   24  C   UNL     1     -10.431   8.466  68.777  1.00  0.00    -0.178 C  
HETATM   25  O   UNL     1     -11.062   8.239  67.494  1.00  0.00    -0.471 OA 
HETATM   26  H1  UNL     1      -8.377  11.891  69.799  1.00  0.00     0.000 HD 
HETATM   27  H2  UNL     1      -7.131  10.962  69.136  1.00  0.00     0.000 HD 
HETATM   28  H   UNL     1     -11.430   9.056  67.179  1.00  0.00     0.000 HD 
BRANCH  23  29
HETATM   29  O   UNL     1     -10.593  10.872  68.768  1.00  0.00    -0.179 OA 
BRANCH  29  30
HETATM   30  C   UNL     1     -10.395  12.132  68.096  1.00  0.00    -0.207 C  
HETATM   31  O   UNL     1     -10.025  13.228  68.937  1.00  0.00    -0.094 OA 
HETATM   32  C   UNL     1      -9.705  14.404  68.177  1.00  0.00    -0.223 C  
HETATM   33  C   UNL     1     -10.900  14.944  67.349  1.00  0.00    -0.304 C  
HETATM   34  C   UNL     1     -11.378  13.824  66.385  1.00  0.00    -0.317 C  
HETATM   35  O   UNL     1     -11.964  15.296  68.249  1.00  0.00    -0.513 OA 
HETATM   36  C   UNL     1     -10.458  16.216  66.610  1.00  0.00    -0.300 C  
HETATM   37  H   UNL     1     -12.606  11.664  65.617  1.00  0.00     0.000 HD 
HETATM   38  H   UNL     1     -12.696  15.627  67.741  1.00  0.00     0.000 HD 
HETATM   39  C   UNL     1     -11.614  12.484  67.163  1.00  0.00    -0.368 C  
HETATM   40  O   UNL     1     -11.870  11.452  66.180  1.00  0.00    -0.218 OA 
BRANCH  34  41
HETATM   41  N   UNL     1     -12.469  14.114  65.405  1.00  0.00    -0.471 NA 
HETATM   42  C   UNL     1     -12.114  14.189  63.999  1.00  0.00    -0.348 C  
HETATM   43  H   UNL     1     -13.431  14.254  65.714  1.00  0.00     0.000 HD 
ENDBRANCH  34  41
ENDBRANCH  29  30
ENDBRANCH  23  29
ENDBRANCH  14  15
ENDBRANCH   9  14
ENDBRANCH   4   5
ENDBRANCH   2   4
TORSDOF 7
ENDMDL
MODEL      303
REMARK 921   NORMALIZED FREE ENERGY PREDICTED BY IDOCK:   -1.33 KCAL/MOL
REMARK 922        TOTAL FREE ENERGY PREDICTED BY IDOCK:   -3.59 KCAL/MOL
REMARK 923 INTER-LIGAND FREE ENERGY PREDICTED BY IDOCK:   -7.86 KCAL/MOL
REMARK 924 INTRA-LIGAND FREE ENERGY PREDICTED BY IDOCK:    4.27 KCAL/MOL
REMARK 927      BINDING AFFINITY PREDICTED BY RF-SCORE:    0.00 PKD
ROOT
HETATM    1  C   UNL     1      -7.044   3.032  71.053  1.00  0.00    -0.033 C  
HETATM    2  N   UNL     1      -6.999   4.036  72.106  1.00  0.00    -0.047 NA 
HETATM    3  H   UNL     1      -6.290   4.739  71.900  1.00  0.00     0.000 HD 
ENDROOT
BRANCH   2   4
HETATM    4  C   UNL     1      -8.296   4.674  72.376  1.00  0.00    -0.115 C  
BRANCH   4   5
HETATM    5  C   UNL     1      -8.569   6.002  71.619  1.00  0.00    -0.131 C  
HETATM    6  C   UNL     1      -7.448   6.419  70.685  1.00  0.00    -0.087 C  
HETATM    7  C   UNL     1      -7.853   7.705  69.964  1.00  0.00    -0.101 C  
HETATM    8  C   UNL     1      -8.426   8.772  70.922  1.00  0.00    -0.175 C  
HETATM    9  C   UNL     1      -9.396   8.195  72.048  1.00  0.00    -0.203 C  
HETATM   10  N   UNL     1      -8.933   9.914  70.126  1.00  0.00    -0.356 NA 
HETATM   11  O   UNL     1      -8.758   7.047  72.601  1.00  0.00    -0.119 OA 
HETATM   12  H1  UNL     1      -9.311  10.619  70.759  1.00  0.00     0.000 HD 
HETATM   13  H2  UNL     1      -9.609   9.625  69.419  1.00  0.00     0.000 HD 
BRANCH   9  14
HETATM   14  O   UNL     1     -10.762   7.930  71.651  1.00  0.00    -0.216 OA 
BRANCH  14  15
HETATM   15  C   UNL     1     -11.140   8.098  70.220  1.00  0.00    -0.221 C  
HETATM   16  C   UNL     1     -10.455   7.103  69.245  1.00  0.00    -0.211 C  
HETATM   17  N   UNL     1     -11.026   5.749  69.400  1.00  0.00    -0.337 NA 
HETATM   18  C   UNL     1     -10.641   7.507  67.768  1.00  0.00    -0.274 C  
HETATM   19  H2  UNL     1     -12.040   5.750  69.290  1.00  0.00     0.000 HD 
HETATM   20  H1  UNL     1     -10.576   5.095  68.760  1.00  0.00     0.000 HD 
HETATM   21  C   UNL     1     -10.155   8.935  67.475  1.00  0.00    -0.227 C  
HETATM   22  N   UNL     1     -10.161   9.193  66.030  1.00  0.00    -0.361 NA 
HETATM   23  C   UNL     1     -11.015   9.972  68.220  1.00  0.00    -0.227 C  
HETATM   24  C   UNL     1     -11.066   9.581  69.731  1.00  0.00    -0.191 C  
HETATM   25  O   UNL     1     -12.104  10.350  70.382  1.00  0.00    -0.282 OA 
HETATM   26  H1  UNL     1      -9.838  10.141  65.836  1.00  0.00     0.000 HD 
HETATM   27  H2  UNL     1     -11.075   9.012  65.617  1.00  0.00     0.000 HD 
HETATM   28  H   UNL     1     -12.059  11.251  70.084  1.00  0.00     0.000 HD 
BRANCH  23  29
HETATM   29  O   UNL     1     -10.375  11.280  68.165  1.00  0.00    -0.175 OA 
BRANCH  29  30
HETATM   30  C   UNL     1     -10.918  12.375  67.399  1.00  0.00    -0.254 C  
HETATM   31  O   UNL     1     -11.798  12.008  66.335  1.00  0.00    -0.578 OA 
HETATM   32  C   UNL     1     -12.407  13.155  65.721  1.00  0.00    -0.435 C  
HETATM   33  C   UNL     1     -11.382  14.110  65.056  1.00  0.00    -0.350 C  
HETATM   34  C   UNL     1     -10.373  14.582  66.139  1.00  0.00    -0.297 C  
HETATM   35  O   UNL     1     -10.684  13.395  64.023  1.00  0.00    -0.538 OA 
HETATM   36  C   UNL     1     -12.141  15.275  64.402  1.00  0.00    -0.263 C  
HETATM   37  H   UNL     1      -8.324  14.476  67.736  1.00  0.00     0.000 HD 
HETATM   38  H   UNL     1     -10.057  13.981  63.616  1.00  0.00     0.000 HD 
HETATM   39  C   UNL     1      -9.784  13.358  66.921  1.00  0.00    -0.253 C  
HETATM   40  O   UNL     1      -9.008  13.883  68.025  1.00  0.00    -0.169 OA 
BRANCH  34  41
HETATM   41  N   UNL     1      -9.327  15.587  65.780  1.00  0.00    -0.344 NA 
HETATM   42  C   UNL     1      -9.424  16.909  66.375  1.00  0.00    -0.283 C  
HETATM   43  H   UNL     1      -8.569  15.353  65.139  1.00  0.00     0.000 HD 
ENDBRANCH  34  41
ENDBRANCH  29  30
ENDBRANCH  23  29
ENDBRANCH  14  15
ENDBRANCH   9  14
ENDBRANCH   4   5
ENDBRANCH   2   4
TORSDOF 7
ENDMDL
MODEL      304
REMARK 921   NORMALIZED FREE ENERGY PREDICTED BY IDOCK:   -1.25 KCAL/MOL
REMARK 922        TOTAL FREE ENERGY PREDICTED BY IDOCK:   -3.47 KCAL/MOL
REMARK 923 INTER-LIGAND FREE ENERGY PREDICTED BY IDOCK:   -7.49 KCAL/MOL
REMARK 924 INTRA-LIGAND FREE ENERGY PREDICTED BY IDOCK:    4.03 KCAL/MOL
REMARK 927      BINDING AFFINITY PREDICTED BY RF-SCORE:    0.00 PKD
ROOT
HETATM    1  C   UNL     1      -9.362   1.480  70.609  1.00  0.00    -0.099 C  
HETATM    2  N   UNL     1      -8.876   2.492  71.535  1.00  0.00    -0.072 NA 
HETATM    3  H   UNL     1      -8.026   2.926  71.177  1.00  0.00     0.000 HD 
ENDROOT
BRANCH   2   4
HETATM    4  C   UNL     1      -9.875   3.516  71.875  1.00  0.00    -0.167 C  
BRANCH   4   5
HETATM    5  C   UNL     1      -9.657   4.915  71.238  1.00  0.00    -0.168 C  
HETATM    6  C   UNL     1     -10.420   5.126  69.943  1.00  0.00    -0.296 C  
HETATM    7  C   UNL     1     -10.168   6.548  69.443  1.00  0.00    -0.214 C  
HETATM    8  C   UNL     1      -8.673   6.934  69.468  1.00  0.00    -0.133 C  
HETATM    9  C   UNL     1      -7.883   6.431  70.759  1.00  0.00    -0.106 C  
HETATM   10  N   UNL     1      -8.537   8.367  69.119  1.00  0.00    -0.133 NA 
HETATM   11  O   UNL     1      -8.245   5.069  70.966  1.00  0.00    -0.104 OA 
HETATM   12  H1  UNL     1      -7.550   8.622  69.135  1.00  0.00     0.000 HD 
HETATM   13  H2  UNL     1      -9.102   8.968  69.718  1.00  0.00     0.000 HD 
BRANCH   9  14
HETATM   14  O   UNL     1      -8.030   7.229  71.957  1.00  0.00    -0.090 OA 
BRANCH  14  15
HETATM   15  C   UNL     1      -9.257   8.056  72.125  1.00  0.00    -0.172 C  
HETATM   16  C   UNL     1     -10.540   7.252  72.475  1.00  0.00    -0.247 C  
HETATM   17  N   UNL     1     -10.484   6.767  73.869  1.00  0.00    -0.426 NA 
HETATM   18  C   UNL     1     -11.820   8.102  72.340  1.00  0.00    -0.448 C  
HETATM   19  H2  UNL     1     -10.322   7.527  74.529  1.00  0.00     0.000 HD 
HETATM   20  H1  UNL     1     -11.326   6.239  74.098  1.00  0.00     0.000 HD 
HETATM   21  C   UNL     1     -11.971   8.737  70.949  1.00  0.00    -0.201 C  
HETATM   22  N   UNL     1     -13.293   9.357  70.808  1.00  0.00    -0.562 NA 
HETATM   23  C   UNL     1     -10.853   9.765  70.690  1.00  0.00    -0.329 C  
HETATM   24  C   UNL     1      -9.477   9.082  70.966  1.00  0.00    -0.274 C  
HETATM   25  O   UNL     1      -8.450  10.099  71.030  1.00  0.00    -0.061 OA 
HETATM   26  H1  UNL     1     -13.393   9.779  69.885  1.00  0.00     0.000 HD 
HETATM   27  H2  UNL     1     -13.478  10.029  71.553  1.00  0.00     0.000 HD 
HETATM   28  H   UNL     1      -8.583  10.723  70.326  1.00  0.00     0.000 HD 
BRANCH  23  29
HETATM   29  O   UNL     1     -10.841  10.140  69.282  1.00  0.00    -0.212 OA 
BRANCH  29  30
HETATM   30  C   UNL     1     -10.837  11.515  68.848  1.00  0.00    -0.218 C  
HETATM   31  O   UNL     1     -12.059  11.983  68.271  1.00  0.00    -0.447 OA 
HETATM   32  C   UNL     1     -12.021  13.393  68.002  1.00  0.00    -0.322 C  
HETATM   33  C   UNL     1     -10.934  13.791  66.969  1.00  0.00    -0.290 C  
HETATM   34  C   UNL     1      -9.551  13.333  67.508  1.00  0.00    -0.218 C  
HETATM   35  O   UNL     1     -11.214  13.128  65.725  1.00  0.00    -0.283 OA 
HETATM   36  C   UNL     1     -11.008  15.307  66.730  1.00  0.00    -0.306 C  
HETATM   37  H   UNL     1      -7.587  11.716  68.043  1.00  0.00     0.000 HD 
HETATM   38  H   UNL     1     -10.548  13.372  65.093  1.00  0.00     0.000 HD 
HETATM   39  C   UNL     1      -9.592  11.826  67.934  1.00  0.00    -0.187 C  
HETATM   40  O   UNL     1      -8.338  11.529  68.594  1.00  0.00    -0.157 OA 
BRANCH  34  41
HETATM   41  N   UNL     1      -8.314  13.675  66.740  1.00  0.00    -0.428 NA 
HETATM   42  C   UNL     1      -7.249  14.366  67.446  1.00  0.00    -0.122 C  
HETATM   43  H   UNL     1      -8.222  13.431  65.754  1.00  0.00     0.000 HD 
ENDBRANCH  34  41
ENDBRANCH  29  30
ENDBRANCH  23  29
ENDBRANCH  14  15
ENDBRANCH   9  14
ENDBRANCH   4   5
ENDBRANCH   2   4
TORSDOF 7
ENDMDL
MODEL      305
REMARK 921   NORMALIZED FREE ENERGY PREDICTED BY IDOCK:   -1.22 KCAL/MOL
REMARK 922        TOTAL FREE ENERGY PREDICTED BY IDOCK:   -3.43 KCAL/MOL
REMARK 923 INTER-LIGAND FREE ENERGY PREDICTED BY IDOCK:   -4.26 KCAL/MOL
REMARK 924 INTRA-LIGAND FREE ENERGY PREDICTED BY IDOCK:    0.83 KCAL/MOL
REMARK 927      BINDING AFFINITY PREDICTED BY RF-SCORE:    0.00 PKD
ROOT
HETATM    1  C   UNL     1      -6.841  19.095  69.023  1.00  0.00    -0.328 C  
HETATM    2  N   UNL     1      -8.051  18.288  69.067  1.00  0.00    -0.148 NA 
HETATM    3  H   UNL     1      -8.854  18.860  69.328  1.00  0.00     0.000 HD 
ENDROOT
BRANCH   2   4
HETATM    4  C   UNL     1      -8.322  17.554  67.822  1.00  0.00    -0.220 C  
BRANCH   4   5
HETATM    5  C   UNL     1      -9.253  16.318  67.953  1.00  0.00    -0.201 C  
HETATM    6  C   UNL     1     -10.432  16.531  68.885  1.00  0.00    -0.304 C  
HETATM    7  C   UNL     1     -11.297  15.271  68.891  1.00  0.00    -0.315 C  
HETATM    8  C   UNL     1     -10.469  13.979  69.064  1.00  0.00    -0.156 C  
HETATM    9  C   UNL     1      -9.100  13.958  68.244  1.00  0.00    -0.191 C  
HETATM   10  N   UNL     1     -11.361  12.807  68.903  1.00  0.00    -0.278 NA 
HETATM   11  O   UNL     1      -8.465  15.215  68.459  1.00  0.00    -0.147 OA 
HETATM   12  H1  UNL     1     -10.814  11.954  69.017  1.00  0.00     0.000 HD 
HETATM   13  H2  UNL     1     -11.871  12.826  68.019  1.00  0.00     0.000 HD 
BRANCH   9  14
HETATM   14  O   UNL     1      -9.193  13.619  66.841  1.00  0.00    -0.237 OA 
BRANCH  14  15
HETATM   15  C   UNL     1      -8.309  12.549  66.300  1.00  0.00     0.412 C  
HETATM   16  C   UNL     1      -9.057  11.369  65.620  1.00  0.00    -0.161 C  
HETATM   17  N   UNL     1      -9.612  11.790  64.317  1.00  0.00    -0.442 NA 
HETATM   18  C   UNL     1      -8.131  10.164  65.352  1.00  0.00    -0.149 C  
HETATM   19  H2  UNL     1      -8.894  12.184  63.708  1.00  0.00     0.000 HD 
HETATM   20  H1  UNL     1     -10.103  11.016  63.870  1.00  0.00     0.000 HD 
HETATM   21  C   UNL     1      -7.422   9.664  66.620  1.00  0.00    -0.094 C  
HETATM   22  N   UNL     1      -6.724   8.402  66.354  1.00  0.00    -0.065 NA 
HETATM   23  C   UNL     1      -6.446  10.727  67.159  1.00  0.00    -0.074 C  
HETATM   24  C   UNL     1      -7.217  12.076  67.314  1.00  0.00    -0.150 C  
HETATM   25  O   UNL     1      -6.263  13.144  67.518  1.00  0.00    -0.162 OA 
HETATM   26  H1  UNL     1      -6.253   8.070  67.195  1.00  0.00     0.000 HD 
HETATM   27  H2  UNL     1      -6.080   8.483  65.567  1.00  0.00     0.000 HD 
HETATM   28  H   UNL     1      -5.599  12.856  68.135  1.00  0.00     0.000 HD 
BRANCH  23  29
HETATM   29  O   UNL     1      -6.005  10.361  68.499  1.00  0.00    -0.044 OA 
BRANCH  29  30
HETATM   30  C   UNL     1      -6.546   9.229  69.209  1.00  0.00    -0.049 C  
HETATM   31  O   UNL     1      -6.208   7.946  68.675  1.00  0.00    -0.038 OA 
HETATM   32  C   UNL     1      -6.661   6.876  69.520  1.00  0.00    -0.050 C  
HETATM   33  C   UNL     1      -8.204   6.830  69.678  1.00  0.00    -0.131 C  
HETATM   34  C   UNL     1      -8.679   8.187  70.268  1.00  0.00    -0.133 C  
HETATM   35  O   UNL     1      -8.796   6.630  68.385  1.00  0.00    -0.122 OA 
HETATM   36  C   UNL     1      -8.576   5.633  70.566  1.00  0.00    -0.129 C  
HETATM   37  H   UNL     1      -9.359  10.696  70.300  1.00  0.00     0.000 HD 
HETATM   38  H   UNL     1      -9.740   6.601  68.482  1.00  0.00     0.000 HD 
HETATM   39  C   UNL     1      -8.096   9.386  69.444  1.00  0.00    -0.105 C  
HETATM   40  O   UNL     1      -8.424  10.602  70.159  1.00  0.00     0.322 OA 
BRANCH  34  41
HETATM   41  N   UNL     1     -10.124   8.375  70.604  1.00  0.00    -0.190 NA 
HETATM   42  C   UNL     1     -10.919   9.215  69.726  1.00  0.00    -0.181 C  
HETATM   43  H   UNL     1     -10.536   7.929  71.423  1.00  0.00     0.000 HD 
ENDBRANCH  34  41
ENDBRANCH  29  30
ENDBRANCH  23  29
ENDBRANCH  14  15
ENDBRANCH   9  14
ENDBRANCH   4   5
ENDBRANCH   2   4
TORSDOF 7
ENDMDL
MODEL      306
REMARK 921   NORMALIZED FREE ENERGY PREDICTED BY IDOCK:   -1.16 KCAL/MOL
REMARK 922        TOTAL FREE ENERGY PREDICTED BY IDOCK:   -3.35 KCAL/MOL
REMARK 923 INTER-LIGAND FREE ENERGY PREDICTED BY IDOCK:   -7.81 KCAL/MOL
REMARK 924 INTRA-LIGAND FREE ENERGY PREDICTED BY IDOCK:    4.47 KCAL/MOL
REMARK 927      BINDING AFFINITY PREDICTED BY RF-SCORE:    0.00 PKD
ROOT
HETATM    1  C   UNL     1     -10.392   8.890  70.584  1.00  0.00    -0.215 C  
HETATM    2  N   UNL     1      -9.495   7.825  70.162  1.00  0.00    -0.161 NA 
HETATM    3  H   UNL     1     -10.011   7.095  69.671  1.00  0.00     0.000 HD 
ENDROOT
BRANCH   2   4
HETATM    4  C   UNL     1      -8.359   8.289  69.352  1.00  0.00    -0.122 C  
BRANCH   4   5
HETATM    5  C   UNL     1      -8.612   9.556  68.491  1.00  0.00    -0.119 C  
HETATM    6  C   UNL     1      -8.036   9.472  67.089  1.00  0.00    -0.106 C  
HETATM    7  C   UNL     1      -8.392  10.748  66.327  1.00  0.00    -0.160 C  
HETATM    8  C   UNL     1      -8.115  12.029  67.144  1.00  0.00    -0.177 C  
HETATM    9  C   UNL     1      -8.512  11.928  68.685  1.00  0.00    -0.045 C  
HETATM   10  N   UNL     1      -8.630  13.200  66.397  1.00  0.00    -0.398 NA 
HETATM   11  O   UNL     1      -8.010  10.685  69.166  1.00  0.00    -0.129 OA 
HETATM   12  H1  UNL     1      -8.446  14.046  66.936  1.00  0.00     0.000 HD 
HETATM   13  H2  UNL     1      -9.616  13.102  66.153  1.00  0.00     0.000 HD 
BRANCH   9  14
HETATM   14  O   UNL     1      -9.910  12.120  69.006  1.00  0.00     0.013 OA 
BRANCH  14  15
HETATM   15  C   UNL     1     -10.819  12.663  67.959  1.00  0.00    -0.225 C  
HETATM   16  C   UNL     1     -11.113  11.690  66.784  1.00  0.00    -0.309 C  
HETATM   17  N   UNL     1     -12.009  10.601  67.224  1.00  0.00     0.159 NA 
HETATM   18  C   UNL     1     -11.801  12.395  65.597  1.00  0.00    -0.468 C  
HETATM   19  H2  UNL     1     -12.868  10.962  67.640  1.00  0.00     0.000 HD 
HETATM   20  H1  UNL     1     -12.201   9.963  66.452  1.00  0.00     0.000 HD 
HETATM   21  C   UNL     1     -11.009  13.605  65.080  1.00  0.00    -0.330 C  
HETATM   22  N   UNL     1     -11.594  14.109  63.833  1.00  0.00    -0.620 NA 
HETATM   23  C   UNL     1     -10.948  14.717  66.145  1.00  0.00    -0.332 C  
HETATM   24  C   UNL     1     -10.426  14.098  67.480  1.00  0.00    -0.249 C  
HETATM   25  O   UNL     1     -10.654  15.038  68.556  1.00  0.00    -0.226 OA 
HETATM   26  H1  UNL     1     -11.068  14.912  63.490  1.00  0.00     0.000 HD 
HETATM   27  H2  UNL     1     -12.586  14.322  63.939  1.00  0.00     0.000 HD 
HETATM   28  H   UNL     1     -10.414  15.911  68.264  1.00  0.00     0.000 HD 
BRANCH  23  29
HETATM   29  O   UNL     1      -9.966  15.722  65.757  1.00  0.00    -0.313 OA 
BRANCH  29  30
HETATM   30  C   UNL     1      -9.891  17.015  66.391  1.00  0.00    -0.299 C  
HETATM   31  O   UNL     1     -10.487  18.093  65.665  1.00  0.00    -0.626 OA 
HETATM   32  C   UNL     1     -10.499  19.311  66.426  1.00  0.00    -0.474 C  
HETATM   33  C   UNL     1      -9.080  19.828  66.781  1.00  0.00    -0.361 C  
HETATM   34  C   UNL     1      -8.342  18.725  67.588  1.00  0.00    -0.271 C  
HETATM   35  O   UNL     1      -8.368  20.096  65.562  1.00  0.00    -0.467 OA 
HETATM   36  C   UNL     1      -9.212  21.147  67.558  1.00  0.00    -0.018 C  
HETATM   37  H   UNL     1      -6.993  16.543  68.015  1.00  0.00     0.000 HD 
HETATM   38  H   UNL     1      -7.499  20.412  65.780  1.00  0.00     0.000 HD 
HETATM   39  C   UNL     1      -8.420  17.347  66.846  1.00  0.00    -0.241 C  
HETATM   40  O   UNL     1      -7.881  16.343  67.740  1.00  0.00    -0.147 OA 
BRANCH  34  41
HETATM   41  N   UNL     1      -6.978  19.003  68.133  1.00  0.00    -0.239 NA 
HETATM   42  C   UNL     1      -6.730  18.690  69.530  1.00  0.00    -0.140 C  
HETATM   43  H   UNL     1      -6.246  19.399  67.544  1.00  0.00     0.000 HD 
ENDBRANCH  34  41
ENDBRANCH  29  30
ENDBRANCH  23  29
ENDBRANCH  14  15
ENDBRANCH   9  14
ENDBRANCH   4   5
ENDBRANCH   2   4
TORSDOF 7
ENDMDL
MODEL      307
REMARK 921   NORMALIZED FREE ENERGY PREDICTED BY IDOCK:   -0.94 KCAL/MOL
REMARK 922        TOTAL FREE ENERGY PREDICTED BY IDOCK:   -3.04 KCAL/MOL
REMARK 923 INTER-LIGAND FREE ENERGY PREDICTED BY IDOCK:   -4.99 KCAL/MOL
REMARK 924 INTRA-LIGAND FREE ENERGY PREDICTED BY IDOCK:    1.95 KCAL/MOL
REMARK 927      BINDING AFFINITY PREDICTED BY RF-SCORE:    0.00 PKD
ROOT
HETATM    1  C   UNL     1     -13.888  10.005  71.137  1.00  0.00     0.147 C  
HETATM    2  N   UNL     1     -13.075  10.612  72.180  1.00  0.00    -0.546 NA 
HETATM    3  H   UNL     1     -12.083  10.521  71.960  1.00  0.00     0.000 HD 
ENDROOT
BRANCH   2   4
HETATM    4  C   UNL     1     -13.415  12.015  72.460  1.00  0.00     0.347 C  
BRANCH   4   5
HETATM    5  C   UNL     1     -12.762  13.070  71.527  1.00  0.00    -0.251 C  
HETATM    6  C   UNL     1     -13.152  14.501  71.850  1.00  0.00    -0.427 C  
HETATM    7  C   UNL     1     -12.410  15.445  70.904  1.00  0.00    -0.452 C  
HETATM    8  C   UNL     1     -12.486  14.994  69.430  1.00  0.00    -0.041 C  
HETATM    9  C   UNL     1     -12.330  13.422  69.211  1.00  0.00    -0.045 C  
HETATM   10  N   UNL     1     -11.618  15.871  68.610  1.00  0.00    -0.395 NA 
HETATM   11  O   UNL     1     -13.168  12.782  70.169  1.00  0.00     0.643 OA 
HETATM   12  H1  UNL     1     -11.669  15.573  67.636  1.00  0.00     0.000 HD 
HETATM   13  H2  UNL     1     -10.659  15.902  68.956  1.00  0.00     0.000 HD 
BRANCH   9  14
HETATM   14  O   UNL     1     -10.981  12.900  69.220  1.00  0.00    -0.179 OA 
BRANCH  14  15
HETATM   15  C   UNL     1     -10.190  12.929  67.958  1.00  0.00    -0.229 C  
HETATM   16  C   UNL     1     -11.020  12.702  66.665  1.00  0.00    -0.258 C  
HETATM   17  N   UNL     1     -11.845  13.889  66.362  1.00  0.00    -0.389 NA 
HETATM   18  C   UNL     1     -10.128  12.442  65.433  1.00  0.00    -0.289 C  
HETATM   19  H2  UNL     1     -11.281  14.738  66.306  1.00  0.00     0.000 HD 
HETATM   20  H1  UNL     1     -12.389  13.740  65.513  1.00  0.00     0.000 HD 
HETATM   21  C   UNL     1      -9.156  11.269  65.637  1.00  0.00    -0.189 C  
HETATM   22  N   UNL     1      -8.484  10.934  64.378  1.00  0.00    -0.372 NA 
HETATM   23  C   UNL     1      -8.129  11.592  66.738  1.00  0.00    -0.150 C  
HETATM   24  C   UNL     1      -8.898  12.051  68.017  1.00  0.00    -0.179 C  
HETATM   25  O   UNL     1      -7.960  12.647  68.943  1.00  0.00    -0.322 OA 
HETATM   26  H1  UNL     1      -7.839  10.156  64.513  1.00  0.00     0.000 HD 
HETATM   27  H2  UNL     1      -8.019  11.745  63.969  1.00  0.00     0.000 HD 
HETATM   28  H   UNL     1      -7.174  12.113  68.979  1.00  0.00     0.000 HD 
BRANCH  23  29
HETATM   29  O   UNL     1      -7.409  10.382  67.115  1.00  0.00    -0.089 OA 
BRANCH  29  30
HETATM   30  C   UNL     1      -7.071   9.355  66.162  1.00  0.00    -0.091 C  
HETATM   31  O   UNL     1      -6.479   9.814  64.943  1.00  0.00    -0.087 OA 
HETATM   32  C   UNL     1      -6.040   8.725  64.116  1.00  0.00    -0.071 C  
HETATM   33  C   UNL     1      -7.197   7.800  63.654  1.00  0.00    -0.082 C  
HETATM   34  C   UNL     1      -7.908   7.233  64.914  1.00  0.00    -0.126 C  
HETATM   35  O   UNL     1      -8.127   8.574  62.880  1.00  0.00    -0.161 OA 
HETATM   36  C   UNL     1      -6.621   6.699  62.750  1.00  0.00    -0.039 C  
HETATM   37  H   UNL     1      -9.501   7.188  66.968  1.00  0.00     0.000 HD 
HETATM   38  H   UNL     1      -8.835   8.007  62.597  1.00  0.00     0.000 HD 
HETATM   39  C   UNL     1      -8.287   8.388  65.904  1.00  0.00    -0.134 C  
HETATM   40  O   UNL     1      -8.768   7.771  67.123  1.00  0.00    -0.122 OA 
BRANCH  34  41
HETATM   41  N   UNL     1      -9.010   6.237  64.750  1.00  0.00    -0.259 NA 
HETATM   42  C   UNL     1      -8.735   4.858  65.110  1.00  0.00    -0.148 C  
HETATM   43  H   UNL     1      -9.925   6.518  64.396  1.00  0.00     0.000 HD 
ENDBRANCH  34  41
ENDBRANCH  29  30
ENDBRANCH  23  29
ENDBRANCH  14  15
ENDBRANCH   9  14
ENDBRANCH   4   5
ENDBRANCH   2   4
TORSDOF 7
ENDMDL
MODEL      308
REMARK 921   NORMALIZED FREE ENERGY PREDICTED BY IDOCK:   -0.83 KCAL/MOL
REMARK 922        TOTAL FREE ENERGY PREDICTED BY IDOCK:   -2.88 KCAL/MOL
REMARK 923 INTER-LIGAND FREE ENERGY PREDICTED BY IDOCK:   -7.06 KCAL/MOL
REMARK 924 INTRA-LIGAND FREE ENERGY PREDICTED BY IDOCK:    4.18 KCAL/MOL
REMARK 927      BINDING AFFINITY PREDICTED BY RF-SCORE:    0.00 PKD
ROOT
HETATM    1  C   UNL     1      -7.055   4.013  69.305  1.00  0.00    -0.047 C  
HETATM    2  N   UNL     1      -7.368   5.126  70.188  1.00  0.00    -0.061 NA 
HETATM    3  H   UNL     1      -6.661   5.857  70.107  1.00  0.00     0.000 HD 
ENDROOT
BRANCH   2   4
HETATM    4  C   UNL     1      -8.713   5.684  69.989  1.00  0.00    -0.130 C  
BRANCH   4   5
HETATM    5  C   UNL     1      -8.773   7.180  69.578  1.00  0.00    -0.134 C  
HETATM    6  C   UNL     1      -7.453   7.733  69.073  1.00  0.00    -0.095 C  
HETATM    7  C   UNL     1      -7.650   9.189  68.653  1.00  0.00    -0.084 C  
HETATM    8  C   UNL     1      -8.419  10.015  69.707  1.00  0.00    -0.172 C  
HETATM    9  C   UNL     1      -9.642   9.247  70.384  1.00  0.00    -0.244 C  
HETATM   10  N   UNL     1      -8.700  11.362  69.156  1.00  0.00    -0.374 NA 
HETATM   11  O   UNL     1      -9.176   7.948  70.736  1.00  0.00    -0.154 OA 
HETATM   12  H1  UNL     1      -9.208  11.907  69.852  1.00  0.00     0.000 HD 
HETATM   13  H2  UNL     1      -9.190  11.321  68.262  1.00  0.00     0.000 HD 
BRANCH   9  14
HETATM   14  O   UNL     1     -10.876   9.205  69.629  1.00  0.00    -0.231 OA 
BRANCH  14  15
HETATM   15  C   UNL     1     -10.836   9.495  68.169  1.00  0.00    -0.156 C  
HETATM   16  C   UNL     1     -10.053   8.455  67.321  1.00  0.00    -0.253 C  
HETATM   17  N   UNL     1     -10.817   7.195  67.211  1.00  0.00    -0.479 NA 
HETATM   18  C   UNL     1      -9.786   8.951  65.884  1.00  0.00    -0.259 C  
HETATM   19  H2  UNL     1     -11.756   7.351  66.846  1.00  0.00     0.000 HD 
HETATM   20  H1  UNL     1     -10.303   6.512  66.655  1.00  0.00     0.000 HD 
HETATM   21  C   UNL     1      -9.056  10.302  65.846  1.00  0.00    -0.163 C  
HETATM   22  N   UNL     1      -8.645  10.626  64.476  1.00  0.00    -0.293 NA 
HETATM   23  C   UNL     1      -9.940  11.420  66.431  1.00  0.00    -0.214 C  
HETATM   24  C   UNL     1     -10.440  10.972  67.840  1.00  0.00    -0.192 C  
HETATM   25  O   UNL     1     -11.504  11.855  68.266  1.00  0.00    -0.262 OA 
HETATM   26  H1  UNL     1      -8.161  11.523  64.450  1.00  0.00     0.000 HD 
HETATM   27  H2  UNL     1      -9.433  10.601  63.828  1.00  0.00     0.000 HD 
HETATM   28  H   UNL     1     -11.264  12.752  68.067  1.00  0.00     0.000 HD 
BRANCH  23  29
HETATM   29  O   UNL     1      -9.142  12.619  66.651  1.00  0.00    -0.222 OA 
BRANCH  29  30
HETATM   30  C   UNL     1      -9.698  13.947  66.558  1.00  0.00    -0.294 C  
HETATM   31  O   UNL     1      -9.725  14.514  65.245  1.00  0.00    -0.255 OA 
HETATM   32  C   UNL     1     -10.424  15.768  65.216  1.00  0.00    -0.401 C  
HETATM   33  C   UNL     1      -9.757  16.862  66.091  1.00  0.00    -0.272 C  
HETATM   34  C   UNL     1      -9.688  16.347  67.555  1.00  0.00    -0.231 C  
HETATM   35  O   UNL     1      -8.429  17.104  65.599  1.00  0.00    -0.460 OA 
HETATM   36  C   UNL     1     -10.562  18.164  65.956  1.00  0.00    -0.278 C  
HETATM   37  H   UNL     1      -8.794  15.020  69.605  1.00  0.00     0.000 HD 
HETATM   38  H   UNL     1      -8.022  17.773  66.135  1.00  0.00     0.000 HD 
HETATM   39  C   UNL     1      -9.045  14.918  67.612  1.00  0.00    -0.183 C  
HETATM   40  O   UNL     1      -9.188  14.434  68.969  1.00  0.00    -0.134 OA 
BRANCH  34  41
HETATM   41  N   UNL     1      -9.166  17.249  68.627  1.00  0.00    -0.271 NA 
HETATM   42  C   UNL     1     -10.121  18.092  69.326  1.00  0.00    -0.066 C  
HETATM   43  H   UNL     1      -8.173  17.272  68.860  1.00  0.00     0.000 HD 
ENDBRANCH  34  41
ENDBRANCH  29  30
ENDBRANCH  23  29
ENDBRANCH  14  15
ENDBRANCH   9  14
ENDBRANCH   4   5
ENDBRANCH   2   4
TORSDOF 7
ENDMDL
MODEL      309
REMARK 921   NORMALIZED FREE ENERGY PREDICTED BY IDOCK:   -0.76 KCAL/MOL
REMARK 922        TOTAL FREE ENERGY PREDICTED BY IDOCK:   -2.78 KCAL/MOL
REMARK 923 INTER-LIGAND FREE ENERGY PREDICTED BY IDOCK:   -4.38 KCAL/MOL
REMARK 924 INTRA-LIGAND FREE ENERGY PREDICTED BY IDOCK:    1.59 KCAL/MOL
REMARK 927      BINDING AFFINITY PREDICTED BY RF-SCORE:    0.00 PKD
ROOT
HETATM    1  C   UNL     1     -12.947   9.867  70.219  1.00  0.00     0.208 C  
HETATM    2  N   UNL     1     -12.189  11.098  70.058  1.00  0.00    -0.326 NA 
HETATM    3  H   UNL     1     -11.220  10.962  70.344  1.00  0.00     0.000 HD 
ENDROOT
BRANCH   2   4
HETATM    4  C   UNL     1     -12.253  11.664  68.702  1.00  0.00     0.069 C  
BRANCH   4   5
HETATM    5  C   UNL     1     -11.224  12.782  68.384  1.00  0.00    -0.278 C  
HETATM    6  C   UNL     1     -11.497  14.091  69.103  1.00  0.00    -0.340 C  
HETATM    7  C   UNL     1     -10.395  15.091  68.753  1.00  0.00    -0.240 C  
HETATM    8  C   UNL     1     -10.101  15.150  67.238  1.00  0.00    -0.235 C  
HETATM    9  C   UNL     1     -10.099  13.730  66.511  1.00  0.00    -0.286 C  
HETATM   10  N   UNL     1      -8.924  16.020  67.007  1.00  0.00    -0.203 NA 
HETATM   11  O   UNL     1     -11.255  13.029  66.959  1.00  0.00    -0.269 OA 
HETATM   12  H1  UNL     1      -8.730  16.059  66.006  1.00  0.00     0.000 HD 
HETATM   13  H2  UNL     1      -8.111  15.726  67.548  1.00  0.00     0.000 HD 
BRANCH   9  14
HETATM   14  O   UNL     1      -8.892  12.942  66.635  1.00  0.00    -0.188 OA 
BRANCH  14  15
HETATM   15  C   UNL     1      -8.642  12.205  67.905  1.00  0.00    -0.167 C  
HETATM   16  C   UNL     1      -7.425  12.714  68.725  1.00  0.00    -0.044 C  
HETATM   17  N   UNL     1      -7.732  14.015  69.355  1.00  0.00    -0.338 NA 
HETATM   18  C   UNL     1      -7.032  11.742  69.857  1.00  0.00     0.310 C  
HETATM   19  H2  UNL     1      -8.579  13.971  69.922  1.00  0.00     0.000 HD 
HETATM   20  H1  UNL     1      -6.933  14.349  69.893  1.00  0.00     0.000 HD 
HETATM   21  C   UNL     1      -6.755  10.319  69.351  1.00  0.00    -0.063 C  
HETATM   22  N   UNL     1      -6.189   9.493  70.423  1.00  0.00    -0.056 NA 
HETATM   23  C   UNL     1      -8.036   9.678  68.784  1.00  0.00    -0.097 C  
HETATM   24  C   UNL     1      -8.654  10.651  67.732  1.00  0.00    -0.123 C  
HETATM   25  O   UNL     1     -10.000  10.218  67.422  1.00  0.00    -0.176 OA 
HETATM   26  H1  UNL     1      -6.005   8.548  70.087  1.00  0.00     0.000 HD 
HETATM   27  H2  UNL     1      -6.782   9.492  71.253  1.00  0.00     0.000 HD 
HETATM   28  H   UNL     1     -10.007   9.273  67.317  1.00  0.00     0.000 HD 
BRANCH  23  29
HETATM   29  O   UNL     1      -7.702   8.460  68.057  1.00  0.00    -0.100 OA 
BRANCH  29  30
HETATM   30  C   UNL     1      -7.160   8.481  66.721  1.00  0.00    -0.074 C  
HETATM   31  O   UNL     1      -6.029   9.333  66.526  1.00  0.00    -0.057 OA 
HETATM   32  C   UNL     1      -5.463   9.185  65.214  1.00  0.00    -0.041 C  
HETATM   33  C   UNL     1      -6.440   9.582  64.077  1.00  0.00    -0.100 C  
HETATM   34  C   UNL     1      -7.713   8.698  64.190  1.00  0.00    -0.129 C  
HETATM   35  O   UNL     1      -6.794  10.965  64.233  1.00  0.00    -0.297 OA 
HETATM   36  C   UNL     1      -5.722   9.421  62.728  1.00  0.00    -0.085 C  
HETATM   37  H   UNL     1     -10.025   7.903  65.074  1.00  0.00     0.000 HD 
HETATM   38  H   UNL     1      -7.392  11.208  63.536  1.00  0.00     0.000 HD 
HETATM   39  C   UNL     1      -8.286   8.734  65.649  1.00  0.00    -0.138 C  
HETATM   40  O   UNL     1      -9.346   7.750  65.720  1.00  0.00    -0.032 OA 
BRANCH  34  41
HETATM   41  N   UNL     1      -8.784   8.817  63.153  1.00  0.00    -0.427 NA 
HETATM   42  C   UNL     1      -9.609  10.011  63.167  1.00  0.00    -0.055 C  
HETATM   43  H   UNL     1      -8.929   8.083  62.460  1.00  0.00     0.000 HD 
ENDBRANCH  34  41
ENDBRANCH  29  30
ENDBRANCH  23  29
ENDBRANCH  14  15
ENDBRANCH   9  14
ENDBRANCH   4   5
ENDBRANCH   2   4
TORSDOF 7
ENDMDL
MODEL      310
REMARK 921   NORMALIZED FREE ENERGY PREDICTED BY IDOCK:   -0.69 KCAL/MOL
REMARK 922        TOTAL FREE ENERGY PREDICTED BY IDOCK:   -2.68 KCAL/MOL
REMARK 923 INTER-LIGAND FREE ENERGY PREDICTED BY IDOCK:   -6.86 KCAL/MOL
REMARK 924 INTRA-LIGAND FREE ENERGY PREDICTED BY IDOCK:    4.19 KCAL/MOL
REMARK 927      BINDING AFFINITY PREDICTED BY RF-SCORE:    0.00 PKD
ROOT
HETATM    1  C   UNL     1      -7.928   5.864  69.985  1.00  0.00    -0.105 C  
HETATM    2  N   UNL     1      -9.341   6.204  70.052  1.00  0.00    -0.153 NA 
HETATM    3  H   UNL     1      -9.862   5.474  70.537  1.00  0.00     0.000 HD 
ENDROOT
BRANCH   2   4
HETATM    4  C   UNL     1      -9.609   7.519  70.653  1.00  0.00    -0.171 C  
BRANCH   4   5
HETATM    5  C   UNL     1      -9.768   8.700  69.657  1.00  0.00    -0.179 C  
HETATM    6  C   UNL     1     -10.415   9.932  70.263  1.00  0.00    -0.348 C  
HETATM    7  C   UNL     1     -10.469  11.037  69.208  1.00  0.00    -0.210 C  
HETATM    8  C   UNL     1     -11.005  10.538  67.849  1.00  0.00    -0.295 C  
HETATM    9  C   UNL     1     -10.470   9.099  67.416  1.00  0.00    -0.271 C  
HETATM   10  N   UNL     1     -10.877  11.625  66.850  1.00  0.00    -0.263 NA 
HETATM   11  O   UNL     1     -10.588   8.250  68.554  1.00  0.00    -0.187 OA 
HETATM   12  H1  UNL     1     -11.232  11.295  65.952  1.00  0.00     0.000 HD 
HETATM   13  H2  UNL     1      -9.924  11.981  66.783  1.00  0.00     0.000 HD 
BRANCH   9  14
HETATM   14  O   UNL     1      -9.150   9.051  66.825  1.00  0.00    -0.136 OA 
BRANCH  14  15
HETATM   15  C   UNL     1      -8.173  10.123  67.161  1.00  0.00    -0.121 C  
HETATM   16  C   UNL     1      -7.672  10.110  68.631  1.00  0.00    -0.092 C  
HETATM   17  N   UNL     1      -6.748   8.979  68.853  1.00  0.00    -0.052 NA 
HETATM   18  C   UNL     1      -6.910  11.399  69.002  1.00  0.00    -0.102 C  
HETATM   19  H2  UNL     1      -5.973   8.986  68.189  1.00  0.00     0.000 HD 
HETATM   20  H1  UNL     1      -6.419   8.971  69.818  1.00  0.00     0.000 HD 
HETATM   21  C   UNL     1      -7.732  12.672  68.748  1.00  0.00     0.007 C  
HETATM   22  N   UNL     1      -7.050  13.845  69.306  1.00  0.00    -0.251 NA 
HETATM   23  C   UNL     1      -8.002  12.860  67.243  1.00  0.00    -0.149 C  
HETATM   24  C   UNL     1      -8.622  11.542  66.681  1.00  0.00    -0.176 C  
HETATM   25  O   UNL     1      -8.594  11.587  65.235  1.00  0.00    -0.383 OA 
HETATM   26  H1  UNL     1      -7.596  14.690  69.138  1.00  0.00     0.000 HD 
HETATM   27  H2  UNL     1      -6.097  13.932  68.954  1.00  0.00     0.000 HD 
HETATM   28  H   UNL     1      -8.866  12.450  64.944  1.00  0.00     0.000 HD 
BRANCH  23  29
HETATM   29  O   UNL     1      -9.010  13.894  67.045  1.00  0.00    -0.227 OA 
BRANCH  29  30
HETATM   30  C   UNL     1      -8.666  15.278  66.827  1.00  0.00    -0.270 C  
HETATM   31  O   UNL     1      -7.282  15.602  66.985  1.00  0.00    -0.210 OA 
HETATM   32  C   UNL     1      -7.003  16.960  66.608  1.00  0.00    -0.246 C  
HETATM   33  C   UNL     1      -7.742  18.004  67.486  1.00  0.00    -0.213 C  
HETATM   34  C   UNL     1      -9.270  17.745  67.377  1.00  0.00    -0.248 C  
HETATM   35  O   UNL     1      -7.319  17.845  68.850  1.00  0.00    -0.276 OA 
HETATM   36  C   UNL     1      -7.343  19.413  67.022  1.00  0.00    -0.232 C  
HETATM   37  H   UNL     1     -11.565  16.619  67.853  1.00  0.00     0.000 HD 
HETATM   38  H   UNL     1      -7.771  18.485  69.386  1.00  0.00     0.000 HD 
HETATM   39  C   UNL     1      -9.599  16.239  67.656  1.00  0.00    -0.227 C  
HETATM   40  O   UNL     1     -11.002  16.040  67.353  1.00  0.00    -0.315 OA 
BRANCH  34  41
HETATM   41  N   UNL     1     -10.222  18.673  68.061  1.00  0.00    -0.370 NA 
HETATM   42  C   UNL     1     -10.896  19.671  67.248  1.00  0.00    -0.395 C  
HETATM   43  H   UNL     1     -10.392  18.608  69.065  1.00  0.00     0.000 HD 
ENDBRANCH  34  41
ENDBRANCH  29  30
ENDBRANCH  23  29
ENDBRANCH  14  15
ENDBRANCH   9  14
ENDBRANCH   4   5
ENDBRANCH   2   4
TORSDOF 7
ENDMDL
MODEL      311
REMARK 921   NORMALIZED FREE ENERGY PREDICTED BY IDOCK:   -0.68 KCAL/MOL
REMARK 922        TOTAL FREE ENERGY PREDICTED BY IDOCK:   -2.67 KCAL/MOL
REMARK 923 INTER-LIGAND FREE ENERGY PREDICTED BY IDOCK:   -3.92 KCAL/MOL
REMARK 924 INTRA-LIGAND FREE ENERGY PREDICTED BY IDOCK:    1.25 KCAL/MOL
REMARK 927      BINDING AFFINITY PREDICTED BY RF-SCORE:    0.00 PKD
ROOT
HETATM    1  C   UNL     1     -11.182   3.799  65.038  1.00  0.00     0.947 C  
HETATM    2  N   UNL     1     -10.395   5.018  65.152  1.00  0.00    -0.374 NA 
HETATM    3  H   UNL     1     -10.622   5.663  64.396  1.00  0.00     0.000 HD 
ENDROOT
BRANCH   2   4
HETATM    4  C   UNL     1     -10.518   5.686  66.456  1.00  0.00    -0.249 C  
BRANCH   4   5
HETATM    5  C   UNL     1      -9.535   5.208  67.559  1.00  0.00    -0.133 C  
HETATM    6  C   UNL     1      -8.082   5.189  67.121  1.00  0.00    -0.104 C  
HETATM    7  C   UNL     1      -7.212   4.753  68.299  1.00  0.00    -0.065 C  
HETATM    8  C   UNL     1      -7.762   3.503  69.018  1.00  0.00    -0.052 C  
HETATM    9  C   UNL     1      -9.347   3.489  69.197  1.00  0.00    -0.172 C  
HETATM   10  N   UNL     1      -6.952   3.246  70.231  1.00  0.00    -0.034 NA 
HETATM   11  O   UNL     1      -9.912   3.866  67.945  1.00  0.00    -0.048 OA 
HETATM   12  H1  UNL     1      -7.315   2.420  70.706  1.00  0.00     0.000 HD 
HETATM   13  H2  UNL     1      -6.905   4.058  70.847  1.00  0.00     0.000 HD 
BRANCH   9  14
HETATM   14  O   UNL     1      -9.879   4.261  70.299  1.00  0.00    -0.200 OA 
BRANCH  14  15
HETATM   15  C   UNL     1      -8.965   5.163  71.053  1.00  0.00    -0.133 C  
HETATM   16  C   UNL     1      -8.753   4.776  72.543  1.00  0.00    -0.116 C  
HETATM   17  N   UNL     1      -7.908   3.569  72.650  1.00  0.00    -0.067 NA 
HETATM   18  C   UNL     1      -8.053   5.893  73.345  1.00  0.00    -0.112 C  
HETATM   19  H2  UNL     1      -7.022   3.681  72.158  1.00  0.00     0.000 HD 
HETATM   20  H1  UNL     1      -7.769   3.315  73.628  1.00  0.00     0.000 HD 
HETATM   21  C   UNL     1      -8.789   7.239  73.260  1.00  0.00    -0.146 C  
HETATM   22  N   UNL     1      -8.205   8.204  74.198  1.00  0.00    -0.257 NA 
HETATM   23  C   UNL     1      -8.764   7.789  71.821  1.00  0.00    -0.119 C  
HETATM   24  C   UNL     1      -9.289   6.679  70.857  1.00  0.00    -0.157 C  
HETATM   25  O   UNL     1      -8.985   7.058  69.494  1.00  0.00    -0.143 OA 
HETATM   26  H1  UNL     1      -8.693   9.097  74.142  1.00  0.00     0.000 HD 
HETATM   27  H2  UNL     1      -7.201   8.311  74.055  1.00  0.00     0.000 HD 
HETATM   28  H   UNL     1      -9.182   7.980  69.374  1.00  0.00     0.000 HD 
BRANCH  23  29
HETATM   29  O   UNL     1      -9.697   8.901  71.700  1.00  0.00    -0.281 OA 
BRANCH  29  30
HETATM   30  C   UNL     1      -9.787   9.709  70.509  1.00  0.00    -0.231 C  
HETATM   31  O   UNL     1     -10.813   9.336  69.585  1.00  0.00    -0.232 OA 
HETATM   32  C   UNL     1     -10.930  10.275  68.504  1.00  0.00    -0.247 C  
HETATM   33  C   UNL     1      -9.649  10.370  67.634  1.00  0.00    -0.149 C  
HETATM   34  C   UNL     1      -8.462  10.784  68.547  1.00  0.00    -0.143 C  
HETATM   35  O   UNL     1      -9.387   9.083  67.053  1.00  0.00    -0.140 OA 
HETATM   36  C   UNL     1      -9.898  11.369  66.493  1.00  0.00    -0.237 C  
HETATM   37  H   UNL     1      -6.537  10.509  70.273  1.00  0.00     0.000 HD 
HETATM   38  H   UNL     1      -8.603   9.142  66.520  1.00  0.00     0.000 HD 
HETATM   39  C   UNL     1      -8.383   9.858  69.809  1.00  0.00    -0.183 C  
HETATM   40  O   UNL     1      -7.383  10.419  70.694  1.00  0.00    -0.197 OA 
BRANCH  34  41
HETATM   41  N   UNL     1      -7.120  11.035  67.938  1.00  0.00    -0.079 NA 
HETATM   42  C   UNL     1      -6.393   9.895  67.408  1.00  0.00    -0.067 C  
HETATM   43  H   UNL     1      -6.729  11.977  67.897  1.00  0.00     0.000 HD 
ENDBRANCH  34  41
ENDBRANCH  29  30
ENDBRANCH  23  29
ENDBRANCH  14  15
ENDBRANCH   9  14
ENDBRANCH   4   5
ENDBRANCH   2   4
TORSDOF 7
ENDMDL
MODEL      312
REMARK 921   NORMALIZED FREE ENERGY PREDICTED BY IDOCK:   -0.58 KCAL/MOL
REMARK 922        TOTAL FREE ENERGY PREDICTED BY IDOCK:   -2.53 KCAL/MOL
REMARK 923 INTER-LIGAND FREE ENERGY PREDICTED BY IDOCK:   -6.84 KCAL/MOL
REMARK 924 INTRA-LIGAND FREE ENERGY PREDICTED BY IDOCK:    4.32 KCAL/MOL
REMARK 927      BINDING AFFINITY PREDICTED BY RF-SCORE:    0.00 PKD
ROOT
HETATM    1  C   UNL     1      -6.999   3.509  69.490  1.00  0.00    -0.042 C  
HETATM    2  N   UNL     1      -6.928   4.445  70.602  1.00  0.00    -0.036 NA 
HETATM    3  H   UNL     1      -6.168   5.110  70.462  1.00  0.00     0.000 HD 
ENDROOT
BRANCH   2   4
HETATM    4  C   UNL     1      -8.191   5.149  70.869  1.00  0.00    -0.110 C  
BRANCH   4   5
HETATM    5  C   UNL     1      -8.231   6.647  70.461  1.00  0.00    -0.118 C  
HETATM    6  C   UNL     1      -7.165   7.038  69.454  1.00  0.00    -0.085 C  
HETATM    7  C   UNL     1      -7.338   8.514  69.093  1.00  0.00    -0.079 C  
HETATM    8  C   UNL     1      -7.521   9.414  70.334  1.00  0.00    -0.135 C  
HETATM    9  C   UNL     1      -8.456   8.794  71.468  1.00  0.00    -0.167 C  
HETATM   10  N   UNL     1      -7.836  10.792  69.890  1.00  0.00    -0.342 NA 
HETATM   11  O   UNL     1      -8.046   7.442  71.654  1.00  0.00    -0.098 OA 
HETATM   12  H1  UNL     1      -7.957  11.387  70.710  1.00  0.00     0.000 HD 
HETATM   13  H2  UNL     1      -8.642  10.824  69.265  1.00  0.00     0.000 HD 
BRANCH   9  14
HETATM   14  O   UNL     1      -9.884   8.915  71.266  1.00  0.00    -0.236 OA 
BRANCH  14  15
HETATM   15  C   UNL     1     -10.412   8.959  69.873  1.00  0.00    -0.214 C  
HETATM   16  C   UNL     1     -10.304   7.619  69.095  1.00  0.00    -0.213 C  
HETATM   17  N   UNL     1     -11.287   6.642  69.605  1.00  0.00    -0.519 NA 
HETATM   18  C   UNL     1     -10.579   7.794  67.586  1.00  0.00    -0.283 C  
HETATM   19  H2  UNL     1     -12.236   7.014  69.588  1.00  0.00     0.000 HD 
HETATM   20  H1  UNL     1     -11.216   5.762  69.094  1.00  0.00     0.000 HD 
HETATM   21  C   UNL     1      -9.670   8.846  66.933  1.00  0.00    -0.202 C  
HETATM   22  N   UNL     1      -9.826   8.826  65.474  1.00  0.00    -0.375 NA 
HETATM   23  C   UNL     1      -9.963  10.250  67.495  1.00  0.00    -0.189 C  
HETATM   24  C   UNL     1      -9.894  10.185  69.053  1.00  0.00    -0.205 C  
HETATM   25  O   UNL     1     -10.463  11.398  69.601  1.00  0.00    -0.445 OA 
HETATM   26  H1  UNL     1      -9.223   9.524  65.040  1.00  0.00     0.000 HD 
HETATM   27  H2  UNL     1     -10.800   8.940  65.196  1.00  0.00     0.000 HD 
HETATM   28  H   UNL     1     -10.149  12.143  69.102  1.00  0.00     0.000 HD 
BRANCH  23  29
HETATM   29  O   UNL     1      -8.916  11.177  67.085  1.00  0.00    -0.142 OA 
BRANCH  29  30
HETATM   30  C   UNL     1      -9.187  12.555  66.757  1.00  0.00    -0.217 C  
HETATM   31  O   UNL     1      -8.797  13.513  67.744  1.00  0.00    -0.175 OA 
HETATM   32  C   UNL     1      -8.965  14.862  67.280  1.00  0.00    -0.199 C  
HETATM   33  C   UNL     1     -10.440  15.221  66.961  1.00  0.00    -0.292 C  
HETATM   34  C   UNL     1     -10.964  14.236  65.880  1.00  0.00    -0.304 C  
HETATM   35  O   UNL     1     -11.220  15.083  68.160  1.00  0.00    -0.281 OA 
HETATM   36  C   UNL     1     -10.507  16.689  66.512  1.00  0.00    -0.262 C  
HETATM   37  H   UNL     1     -11.921  12.033  64.885  1.00  0.00     0.000 HD 
HETATM   38  H   UNL     1     -12.122  15.304  67.964  1.00  0.00     0.000 HD 
HETATM   39  C   UNL     1     -10.679  12.752  66.295  1.00  0.00    -0.270 C  
HETATM   40  O   UNL     1     -11.021  11.914  65.164  1.00  0.00    -0.299 OA 
BRANCH  34  41
HETATM   41  N   UNL     1     -12.340  14.420  65.324  1.00  0.00    -0.395 NA 
HETATM   42  C   UNL     1     -12.483  15.221  64.121  1.00  0.00     0.085 C  
HETATM   43  H   UNL     1     -13.151  13.996  65.776  1.00  0.00     0.000 HD 
ENDBRANCH  34  41
ENDBRANCH  29  30
ENDBRANCH  23  29
ENDBRANCH  14  15
ENDBRANCH   9  14
ENDBRANCH   4   5
ENDBRANCH   2   4
TORSDOF 7
ENDMDL
MODEL      313
REMARK 921   NORMALIZED FREE ENERGY PREDICTED BY IDOCK:   -0.53 KCAL/MOL
REMARK 922        TOTAL FREE ENERGY PREDICTED BY IDOCK:   -2.45 KCAL/MOL
REMARK 923 INTER-LIGAND FREE ENERGY PREDICTED BY IDOCK:   -6.66 KCAL/MOL
REMARK 924 INTRA-LIGAND FREE ENERGY PREDICTED BY IDOCK:    4.20 KCAL/MOL
REMARK 927      BINDING AFFINITY PREDICTED BY RF-SCORE:    0.00 PKD
ROOT
HETATM    1  C   UNL     1      -7.876  17.473  65.964  1.00  0.00    -0.178 C  
HETATM    2  N   UNL     1      -9.215  17.492  66.531  1.00  0.00    -0.265 NA 
HETATM    3  H   UNL     1      -9.530  18.452  66.675  1.00  0.00     0.000 HD 
ENDROOT
BRANCH   2   4
HETATM    4  C   UNL     1     -10.204  16.736  65.749  1.00  0.00    -0.291 C  
BRANCH   4   5
HETATM    5  C   UNL     1     -10.474  15.281  66.222  1.00  0.00    -0.307 C  
HETATM    6  C   UNL     1     -10.526  14.267  65.093  1.00  0.00    -0.432 C  
HETATM    7  C   UNL     1     -10.744  12.875  65.684  1.00  0.00    -0.295 C  
HETATM    8  C   UNL     1     -11.876  12.842  66.734  1.00  0.00    -0.382 C  
HETATM    9  C   UNL     1     -11.901  14.097  67.717  1.00  0.00    -0.379 C  
HETATM   10  N   UNL     1     -11.914  11.501  67.363  1.00  0.00    -0.597 NA 
HETATM   11  O   UNL     1     -11.745  15.262  66.912  1.00  0.00    -0.172 OA 
HETATM   12  H1  UNL     1     -12.662  11.479  68.056  1.00  0.00     0.000 HD 
HETATM   13  H2  UNL     1     -11.013  11.231  67.756  1.00  0.00     0.000 HD 
BRANCH   9  14
HETATM   14  O   UNL     1     -10.976  14.066  68.829  1.00  0.00    -0.246 OA 
BRANCH  14  15
HETATM   15  C   UNL     1      -9.723  13.271  68.699  1.00  0.00    -0.069 C  
HETATM   16  C   UNL     1      -8.690  13.845  67.690  1.00  0.00    -0.187 C  
HETATM   17  N   UNL     1      -8.051  15.059  68.237  1.00  0.00    -0.128 NA 
HETATM   18  C   UNL     1      -7.562  12.842  67.371  1.00  0.00    -0.152 C  
HETATM   19  H2  UNL     1      -7.632  14.888  69.152  1.00  0.00     0.000 HD 
HETATM   20  H1  UNL     1      -7.373  15.436  67.575  1.00  0.00     0.000 HD 
HETATM   21  C   UNL     1      -8.091  11.493  66.859  1.00  0.00    -0.164 C  
HETATM   22  N   UNL     1      -6.985  10.658  66.377  1.00  0.00    -0.122 NA 
HETATM   23  C   UNL     1      -8.891  10.765  67.955  1.00  0.00    -0.132 C  
HETATM   24  C   UNL     1      -9.977  11.740  68.507  1.00  0.00    -0.199 C  
HETATM   25  O   UNL     1     -10.524  11.192  69.730  1.00  0.00    -0.450 OA 
HETATM   26  H1  UNL     1      -7.336   9.763  66.037  1.00  0.00     0.000 HD 
HETATM   27  H2  UNL     1      -6.264  10.537  67.088  1.00  0.00     0.000 HD 
HETATM   28  H   UNL     1     -10.679  10.262  69.613  1.00  0.00     0.000 HD 
BRANCH  23  29
HETATM   29  O   UNL     1      -9.617   9.642  67.375  1.00  0.00    -0.142 OA 
BRANCH  29  30
HETATM   30  C   UNL     1      -9.242   8.271  67.616  1.00  0.00    -0.137 C  
HETATM   31  O   UNL     1      -9.673   7.330  66.628  1.00  0.00    -0.191 OA 
HETATM   32  C   UNL     1      -9.136   6.019  66.865  1.00  0.00    -0.125 C  
HETATM   33  C   UNL     1      -9.599   5.400  68.210  1.00  0.00    -0.125 C  
HETATM   34  C   UNL     1      -9.167   6.347  69.363  1.00  0.00    -0.143 C  
HETATM   35  O   UNL     1     -11.030   5.277  68.194  1.00  0.00     0.092 OA 
HETATM   36  C   UNL     1      -8.998   3.992  68.340  1.00  0.00    -0.159 C  
HETATM   37  H   UNL     1      -9.261   8.391  70.968  1.00  0.00     0.000 HD 
HETATM   38  H   UNL     1     -11.313   4.897  69.017  1.00  0.00     0.000 HD 
HETATM   39  C   UNL     1      -9.626   7.818  69.075  1.00  0.00    -0.155 C  
HETATM   40  O   UNL     1      -9.029   8.663  70.088  1.00  0.00    -0.143 OA 
BRANCH  34  41
HETATM   41  N   UNL     1      -9.414   5.940  70.780  1.00  0.00    -0.163 NA 
HETATM   42  C   UNL     1      -8.263   5.604  71.599  1.00  0.00    -0.119 C  
HETATM   43  H   UNL     1     -10.361   5.899  71.158  1.00  0.00     0.000 HD 
ENDBRANCH  34  41
ENDBRANCH  29  30
ENDBRANCH  23  29
ENDBRANCH  14  15
ENDBRANCH   9  14
ENDBRANCH   4   5
ENDBRANCH   2   4
TORSDOF 7
ENDMDL
MODEL      314
REMARK 921   NORMALIZED FREE ENERGY PREDICTED BY IDOCK:   -0.49 KCAL/MOL
REMARK 922        TOTAL FREE ENERGY PREDICTED BY IDOCK:   -2.40 KCAL/MOL
REMARK 923 INTER-LIGAND FREE ENERGY PREDICTED BY IDOCK:   -6.46 KCAL/MOL
REMARK 924 INTRA-LIGAND FREE ENERGY PREDICTED BY IDOCK:    4.06 KCAL/MOL
REMARK 927      BINDING AFFINITY PREDICTED BY RF-SCORE:    0.00 PKD
ROOT
HETATM    1  C   UNL     1     -10.743  15.472  67.471  1.00  0.00    -0.300 C  
HETATM    2  N   UNL     1      -9.713  14.592  68.003  1.00  0.00    -0.212 NA 
HETATM    3  H   UNL     1     -10.089  14.014  68.755  1.00  0.00     0.000 HD 
ENDROOT
BRANCH   2   4
HETATM    4  C   UNL     1      -9.059  13.758  66.985  1.00  0.00    -0.246 C  
BRANCH   4   5
HETATM    5  C   UNL     1      -8.996  12.237  67.293  1.00  0.00    -0.187 C  
HETATM    6  C   UNL     1      -8.103  11.883  68.468  1.00  0.00    -0.130 C  
HETATM    7  C   UNL     1      -8.163  10.374  68.704  1.00  0.00    -0.121 C  
HETATM    8  C   UNL     1      -7.997   9.560  67.403  1.00  0.00    -0.106 C  
HETATM    9  C   UNL     1      -8.766  10.163  66.143  1.00  0.00    -0.142 C  
HETATM   10  N   UNL     1      -8.223   8.125  67.698  1.00  0.00    -0.126 NA 
HETATM   11  O   UNL     1      -8.493  11.561  66.117  1.00  0.00    -0.154 OA 
HETATM   12  H1  UNL     1      -8.113   7.587  66.838  1.00  0.00     0.000 HD 
HETATM   13  H2  UNL     1      -9.124   7.958  68.147  1.00  0.00     0.000 HD 
BRANCH   9  14
HETATM   14  O   UNL     1     -10.181   9.875  66.050  1.00  0.00    -0.254 OA 
BRANCH  14  15
HETATM   15  C   UNL     1     -10.956   9.671  67.306  1.00  0.00    -0.037 C  
HETATM   16  C   UNL     1     -11.111  10.939  68.189  1.00  0.00    -0.280 C  
HETATM   17  N   UNL     1     -12.060  11.889  67.570  1.00  0.00    -0.528 NA 
HETATM   18  C   UNL     1     -11.650  10.611  69.597  1.00  0.00    -0.368 C  
HETATM   19  H2  UNL     1     -12.960  11.452  67.374  1.00  0.00     0.000 HD 
HETATM   20  H1  UNL     1     -12.161  12.721  68.150  1.00  0.00     0.000 HD 
HETATM   21  C   UNL     1     -10.795   9.569  70.334  1.00  0.00    -0.282 C  
HETATM   22  N   UNL     1     -11.224   9.448  71.732  1.00  0.00    -0.360 NA 
HETATM   23  C   UNL     1     -10.856   8.205  69.622  1.00  0.00    -0.158 C  
HETATM   24  C   UNL     1     -10.501   8.414  68.117  1.00  0.00    -0.174 C  
HETATM   25  O   UNL     1     -10.852   7.219  67.380  1.00  0.00    -0.409 OA 
HETATM   26  H1  UNL     1     -10.657   8.757  72.222  1.00  0.00     0.000 HD 
HETATM   27  H2  UNL     1     -12.221   9.242  71.806  1.00  0.00     0.000 HD 
HETATM   28  H   UNL     1     -10.575   6.455  67.873  1.00  0.00     0.000 HD 
BRANCH  23  29
HETATM   29  O   UNL     1      -9.831   7.319  70.158  1.00  0.00    -0.179 OA 
BRANCH  29  30
HETATM   30  C   UNL     1     -10.145   6.188  70.995  1.00  0.00    -0.188 C  
HETATM   31  O   UNL     1     -11.098   6.434  72.032  1.00  0.00    -0.241 OA 
HETATM   32  C   UNL     1     -11.464   5.228  72.722  1.00  0.00    -0.247 C  
HETATM   33  C   UNL     1     -10.272   4.552  73.450  1.00  0.00    -0.169 C  
HETATM   34  C   UNL     1      -9.173   4.230  72.401  1.00  0.00    -0.117 C  
HETATM   35  O   UNL     1      -9.754   5.463  74.433  1.00  0.00    -0.151 OA 
HETATM   36  C   UNL     1     -10.783   3.301  74.181  1.00  0.00    -0.255 C  
HETATM   37  H   UNL     1      -7.167   4.655  70.802  1.00  0.00     0.000 HD 
HETATM   38  H   UNL     1      -9.024   5.049  74.878  1.00  0.00     0.000 HD 
HETATM   39  C   UNL     1      -8.839   5.496  71.539  1.00  0.00    -0.136 C  
HETATM   40  O   UNL     1      -7.955   5.072  70.473  1.00  0.00    -0.078 OA 
BRANCH  34  41
HETATM   41  N   UNL     1      -7.946   3.490  72.828  1.00  0.00    -0.075 NA 
HETATM   42  C   UNL     1      -7.802   2.111  72.395  1.00  0.00    -0.052 C  
HETATM   43  H   UNL     1      -7.233   3.939  73.403  1.00  0.00     0.000 HD 
ENDBRANCH  34  41
ENDBRANCH  29  30
ENDBRANCH  23  29
ENDBRANCH  14  15
ENDBRANCH   9  14
ENDBRANCH   4   5
ENDBRANCH   2   4
TORSDOF 7
ENDMDL
MODEL      315
REMARK 921   NORMALIZED FREE ENERGY PREDICTED BY IDOCK:   -0.48 KCAL/MOL
REMARK 922        TOTAL FREE ENERGY PREDICTED BY IDOCK:   -2.39 KCAL/MOL
REMARK 923 INTER-LIGAND FREE ENERGY PREDICTED BY IDOCK:   -5.08 KCAL/MOL
REMARK 924 INTRA-LIGAND FREE ENERGY PREDICTED BY IDOCK:    2.70 KCAL/MOL
REMARK 927      BINDING AFFINITY PREDICTED BY RF-SCORE:    0.00 PKD
ROOT
HETATM    1  C   UNL     1      -9.824   6.668  69.161  1.00  0.00    -0.148 C  
HETATM    2  N   UNL     1      -9.658   5.291  69.600  1.00  0.00    -0.150 NA 
HETATM    3  H   UNL     1     -10.496   4.747  69.397  1.00  0.00     0.000 HD 
ENDROOT
BRANCH   2   4
HETATM    4  C   UNL     1      -8.466   4.629  69.049  1.00  0.00    -0.080 C  
BRANCH   4   5
HETATM    5  C   UNL     1      -7.957   5.173  67.687  1.00  0.00    -0.099 C  
HETATM    6  C   UNL     1      -7.320   4.116  66.802  1.00  0.00    -0.073 C  
HETATM    7  C   UNL     1      -6.909   4.758  65.477  1.00  0.00    -0.061 C  
HETATM    8  C   UNL     1      -6.149   6.088  65.669  1.00  0.00    -0.029 C  
HETATM    9  C   UNL     1      -6.739   7.026  66.817  1.00  0.00    -0.060 C  
HETATM   10  N   UNL     1      -5.927   6.714  64.344  1.00  0.00    -0.034 NA 
HETATM   11  O   UNL     1      -6.973   6.199  67.953  1.00  0.00    -0.071 OA 
HETATM   12  H1  UNL     1      -5.426   7.593  64.471  1.00  0.00     0.000 HD 
HETATM   13  H2  UNL     1      -6.795   6.835  63.822  1.00  0.00     0.000 HD 
BRANCH   9  14
HETATM   14  O   UNL     1      -7.893   7.825  66.468  1.00  0.00    -0.097 OA 
BRANCH  14  15
HETATM   15  C   UNL     1      -7.689   9.242  66.056  1.00  0.00    -0.096 C  
HETATM   16  C   UNL     1      -6.950  10.123  67.100  1.00  0.00    -0.087 C  
HETATM   17  N   UNL     1      -5.517   9.767  67.157  1.00  0.00    -0.042 NA 
HETATM   18  C   UNL     1      -7.032  11.626  66.763  1.00  0.00    -0.080 C  
HETATM   19  H2  UNL     1      -5.077   9.819  66.239  1.00  0.00     0.000 HD 
HETATM   20  H1  UNL     1      -5.032  10.345  67.843  1.00  0.00     0.000 HD 
HETATM   21  C   UNL     1      -8.477  12.122  66.598  1.00  0.00    -0.088 C  
HETATM   22  N   UNL     1      -8.508  13.585  66.486  1.00  0.00    -0.391 NA 
HETATM   23  C   UNL     1      -9.148  11.464  65.378  1.00  0.00    -0.103 C  
HETATM   24  C   UNL     1      -8.984   9.917  65.496  1.00  0.00    -0.174 C  
HETATM   25  O   UNL     1      -9.326   9.309  64.228  1.00  0.00    -0.426 OA 
HETATM   26  H1  UNL     1      -9.467  13.914  66.377  1.00  0.00     0.000 HD 
HETATM   27  H2  UNL     1      -7.904  13.920  65.735  1.00  0.00     0.000 HD 
HETATM   28  H   UNL     1     -10.113   9.719  63.887  1.00  0.00     0.000 HD 
BRANCH  23  29
HETATM   29  O   UNL     1     -10.582  11.719  65.404  1.00  0.00    -0.260 OA 
BRANCH  29  30
HETATM   30  C   UNL     1     -11.156  12.846  66.099  1.00  0.00    -0.286 C  
HETATM   31  O   UNL     1     -10.583  14.119  65.789  1.00  0.00    -0.283 OA 
HETATM   32  C   UNL     1     -11.303  15.196  66.407  1.00  0.00    -0.225 C  
HETATM   33  C   UNL     1     -11.286  15.136  67.958  1.00  0.00    -0.323 C  
HETATM   34  C   UNL     1     -11.903  13.783  68.405  1.00  0.00    -0.376 C  
HETATM   35  O   UNL     1      -9.924  15.221  68.409  1.00  0.00    -0.213 OA 
HETATM   36  C   UNL     1     -12.049  16.350  68.510  1.00  0.00     0.596 C  
HETATM   37  H   UNL     1     -12.018  11.235  68.912  1.00  0.00     0.000 HD 
HETATM   38  H   UNL     1      -9.914  15.185  69.358  1.00  0.00     0.000 HD 
HETATM   39  C   UNL     1     -11.226  12.587  67.651  1.00  0.00    -0.282 C  
HETATM   40  O   UNL     1     -11.976  11.391  67.976  1.00  0.00    -0.613 OA 
BRANCH  34  41
HETATM   41  N   UNL     1     -12.088  13.507  69.862  1.00  0.00    -0.344 NA 
HETATM   42  C   UNL     1     -11.479  14.425  70.808  1.00  0.00    -0.086 C  
HETATM   43  H   UNL     1     -12.625  12.700  70.181  1.00  0.00     0.000 HD 
ENDBRANCH  34  41
ENDBRANCH  29  30
ENDBRANCH  23  29
ENDBRANCH  14  15
ENDBRANCH   9  14
ENDBRANCH   4   5
ENDBRANCH   2   4
TORSDOF 7
ENDMDL
MODEL      316
REMARK 921   NORMALIZED FREE ENERGY PREDICTED BY IDOCK:   -0.19 KCAL/MOL
REMARK 922        TOTAL FREE ENERGY PREDICTED BY IDOCK:   -1.97 KCAL/MOL
REMARK 923 INTER-LIGAND FREE ENERGY PREDICTED BY IDOCK:   -6.78 KCAL/MOL
REMARK 924 INTRA-LIGAND FREE ENERGY PREDICTED BY IDOCK:    4.80 KCAL/MOL
REMARK 927      BINDING AFFINITY PREDICTED BY RF-SCORE:    0.00 PKD
ROOT
HETATM    1  C   UNL     1      -7.959  17.440  65.989  1.00  0.00    -0.165 C  
HETATM    2  N   UNL     1      -9.299  17.303  66.540  1.00  0.00    -0.256 NA 
HETATM    3  H   UNL     1      -9.703  18.220  66.730  1.00  0.00     0.000 HD 
ENDROOT
BRANCH   2   4
HETATM    4  C   UNL     1     -10.206  16.501  65.706  1.00  0.00    -0.329 C  
BRANCH   4   5
HETATM    5  C   UNL     1     -10.377  15.016  66.126  1.00  0.00    -0.299 C  
HETATM    6  C   UNL     1     -10.247  14.033  64.976  1.00  0.00    -0.395 C  
HETATM    7  C   UNL     1     -10.382  12.611  65.519  1.00  0.00    -0.305 C  
HETATM    8  C   UNL     1     -11.585  12.447  66.472  1.00  0.00    -0.387 C  
HETATM    9  C   UNL     1     -11.803  13.667  67.476  1.00  0.00    -0.381 C  
HETATM   10  N   UNL     1     -11.549  11.091  67.069  1.00  0.00    -0.374 NA 
HETATM   11  O   UNL     1     -11.692  14.863  66.710  1.00  0.00    -0.335 OA 
HETATM   12  H1  UNL     1     -12.344  10.983  67.698  1.00  0.00     0.000 HD 
HETATM   13  H2  UNL     1     -10.660  10.892  67.529  1.00  0.00     0.000 HD 
BRANCH   9  14
HETATM   14  O   UNL     1     -10.969  13.688  68.658  1.00  0.00    -0.250 OA 
BRANCH  14  15
HETATM   15  C   UNL     1      -9.698  12.911  68.655  1.00  0.00    -0.040 C  
HETATM   16  C   UNL     1      -8.613  13.443  67.679  1.00  0.00    -0.193 C  
HETATM   17  N   UNL     1      -8.028  14.700  68.188  1.00  0.00    -0.127 NA 
HETATM   18  C   UNL     1      -7.452  12.444  67.493  1.00  0.00    -0.150 C  
HETATM   19  H2  UNL     1      -7.666  14.594  69.135  1.00  0.00     0.000 HD 
HETATM   20  H1  UNL     1      -7.317  15.049  67.547  1.00  0.00     0.000 HD 
HETATM   21  C   UNL     1      -7.926  11.057  67.033  1.00  0.00    -0.137 C  
HETATM   22  N   UNL     1      -6.780  10.215  66.674  1.00  0.00    -0.076 NA 
HETATM   23  C   UNL     1      -8.783  10.381  68.121  1.00  0.00    -0.125 C  
HETATM   24  C   UNL     1      -9.916  11.367  68.544  1.00  0.00    -0.201 C  
HETATM   25  O   UNL     1     -10.531  10.885  69.761  1.00  0.00    -0.425 OA 
HETATM   26  H1  UNL     1      -7.094   9.294  66.369  1.00  0.00     0.000 HD 
HETATM   27  H2  UNL     1      -6.103  10.152  67.434  1.00  0.00     0.000 HD 
HETATM   28  H   UNL     1     -10.663   9.946  69.694  1.00  0.00     0.000 HD 
BRANCH  23  29
HETATM   29  O   UNL     1      -9.453   9.211  67.568  1.00  0.00    -0.136 OA 
BRANCH  29  30
HETATM   30  C   UNL     1      -9.020   7.865  67.852  1.00  0.00    -0.129 C  
HETATM   31  O   UNL     1      -7.605   7.660  67.854  1.00  0.00    -0.111 OA 
HETATM   32  C   UNL     1      -7.255   6.336  68.288  1.00  0.00    -0.085 C  
HETATM   33  C   UNL     1      -7.801   5.222  67.356  1.00  0.00    -0.100 C  
HETATM   34  C   UNL     1      -9.348   5.349  67.291  1.00  0.00    -0.116 C  
HETATM   35  O   UNL     1      -7.243   5.401  66.045  1.00  0.00    -0.073 OA 
HETATM   36  C   UNL     1      -7.338   3.858  67.891  1.00  0.00    -0.066 C  
HETATM   37  H   UNL     1     -11.662   6.267  66.542  1.00  0.00     0.000 HD 
HETATM   38  H   UNL     1      -7.578   4.718  65.475  1.00  0.00     0.000 HD 
HETATM   39  C   UNL     1      -9.771   6.818  66.946  1.00  0.00    -0.168 C  
HETATM   40  O   UNL     1     -11.210   6.898  67.088  1.00  0.00    -0.352 OA 
BRANCH  34  41
HETATM   41  N   UNL     1     -10.136   4.334  66.526  1.00  0.00    -0.346 NA 
HETATM   42  C   UNL     1      -9.401   3.357  65.742  1.00  0.00    -0.144 C  
HETATM   43  H   UNL     1     -11.156   4.328  66.555  1.00  0.00     0.000 HD 
ENDBRANCH  34  41
ENDBRANCH  29  30
ENDBRANCH  23  29
ENDBRANCH  14  15
ENDBRANCH   9  14
ENDBRANCH   4   5
ENDBRANCH   2   4
TORSDOF 7
ENDMDL
MODEL      317
REMARK 921   NORMALIZED FREE ENERGY PREDICTED BY IDOCK:   -0.15 KCAL/MOL
REMARK 922        TOTAL FREE ENERGY PREDICTED BY IDOCK:   -1.93 KCAL/MOL
REMARK 923 INTER-LIGAND FREE ENERGY PREDICTED BY IDOCK:   -2.87 KCAL/MOL
REMARK 924 INTRA-LIGAND FREE ENERGY PREDICTED BY IDOCK:    0.95 KCAL/MOL
REMARK 927      BINDING AFFINITY PREDICTED BY RF-SCORE:    0.00 PKD
ROOT
HETATM    1  C   UNL     1     -12.650  11.899  66.077  1.00  0.00     1.848 C  
HETATM    2  N   UNL     1     -13.170  12.322  64.785  1.00  0.00    -0.539 NA 
HETATM    3  H   UNL     1     -13.450  13.302  64.816  1.00  0.00     0.000 HD 
ENDROOT
BRANCH   2   4
HETATM    4  C   UNL     1     -12.249  12.081  63.665  1.00  0.00    -0.538 C  
BRANCH   4   5
HETATM    5  C   UNL     1     -10.777  11.775  64.051  1.00  0.00    -0.378 C  
HETATM    6  C   UNL     1      -9.776  12.081  62.952  1.00  0.00     0.260 C  
HETATM    7  C   UNL     1      -8.366  11.789  63.466  1.00  0.00     1.262 C  
HETATM    8  C   UNL     1      -8.260  10.421  64.174  1.00  0.00    -0.118 C  
HETATM    9  C   UNL     1      -9.500  10.066  65.113  1.00  0.00    -0.270 C  
HETATM   10  N   UNL     1      -6.911  10.290  64.773  1.00  0.00    -0.243 NA 
HETATM   11  O   UNL     1     -10.682  10.368  64.377  1.00  0.00     0.025 OA 
HETATM   12  H1  UNL     1      -6.841   9.386  65.241  1.00  0.00     0.000 HD 
HETATM   13  H2  UNL     1      -6.684  11.067  65.394  1.00  0.00     0.000 HD 
BRANCH   9  14
HETATM   14  O   UNL     1      -9.503  10.662  66.431  1.00  0.00    -0.164 OA 
BRANCH  14  15
HETATM   15  C   UNL     1      -8.246  11.270  66.949  1.00  0.00    -0.153 C  
HETATM   16  C   UNL     1      -7.405  10.341  67.867  1.00  0.00    -0.087 C  
HETATM   17  N   UNL     1      -6.752   9.280  67.073  1.00  0.00    -0.075 NA 
HETATM   18  C   UNL     1      -6.289  11.105  68.610  1.00  0.00    -0.044 C  
HETATM   19  H2  UNL     1      -6.194   9.666  66.311  1.00  0.00     0.000 HD 
HETATM   20  H1  UNL     1      -6.200   8.671  67.676  1.00  0.00     0.000 HD 
HETATM   21  C   UNL     1      -6.820  12.294  69.425  1.00  0.00     0.007 C  
HETATM   22  N   UNL     1      -5.759  12.854  70.269  1.00  0.00    -0.150 NA 
HETATM   23  C   UNL     1      -7.412  13.374  68.499  1.00  0.00    -0.118 C  
HETATM   24  C   UNL     1      -8.451  12.699  67.549  1.00  0.00    -0.176 C  
HETATM   25  O   UNL     1      -8.782  13.619  66.483  1.00  0.00    -0.440 OA 
HETATM   26  H1  UNL     1      -6.112  13.643  70.810  1.00  0.00     0.000 HD 
HETATM   27  H2  UNL     1      -4.935  13.107  69.723  1.00  0.00     0.000 HD 
HETATM   28  H   UNL     1      -8.906  14.488  66.848  1.00  0.00     0.000 HD 
BRANCH  23  29
HETATM   29  O   UNL     1      -8.160  14.346  69.286  1.00  0.00    -0.047 OA 
BRANCH  29  30
HETATM   30  C   UNL     1      -8.700  15.554  68.713  1.00  0.00    -0.192 C  
HETATM   31  O   UNL     1      -9.899  15.392  67.950  1.00  0.00    -0.218 OA 
HETATM   32  C   UNL     1     -10.449  16.654  67.541  1.00  0.00    -0.317 C  
HETATM   33  C   UNL     1      -9.507  17.461  66.608  1.00  0.00    -0.274 C  
HETATM   34  C   UNL     1      -8.166  17.703  67.353  1.00  0.00    -0.212 C  
HETATM   35  O   UNL     1      -9.269  16.695  65.416  1.00  0.00    -0.324 OA 
HETATM   36  C   UNL     1     -10.208  18.767  66.205  1.00  0.00    -0.462 C  
HETATM   37  H   UNL     1      -5.796  17.177  68.285  1.00  0.00     0.000 HD 
HETATM   38  H   UNL     1      -8.693  17.189  64.846  1.00  0.00     0.000 HD 
HETATM   39  C   UNL     1      -7.599  16.360  67.927  1.00  0.00    -0.148 C  
HETATM   40  O   UNL     1      -6.461  16.692  68.759  1.00  0.00    -0.145 OA 
BRANCH  34  41
HETATM   41  N   UNL     1      -7.108  18.539  66.706  1.00  0.00    -0.205 NA 
HETATM   42  C   UNL     1      -7.261  19.982  66.756  1.00  0.00    -0.239 C  
HETATM   43  H   UNL     1      -6.305  18.109  66.247  1.00  0.00     0.000 HD 
ENDBRANCH  34  41
ENDBRANCH  29  30
ENDBRANCH  23  29
ENDBRANCH  14  15
ENDBRANCH   9  14
ENDBRANCH   4   5
ENDBRANCH   2   4
TORSDOF 7
ENDMDL
MODEL      318
REMARK 921   NORMALIZED FREE ENERGY PREDICTED BY IDOCK:   -0.09 KCAL/MOL
REMARK 922        TOTAL FREE ENERGY PREDICTED BY IDOCK:   -1.83 KCAL/MOL
REMARK 923 INTER-LIGAND FREE ENERGY PREDICTED BY IDOCK:   -4.10 KCAL/MOL
REMARK 924 INTRA-LIGAND FREE ENERGY PREDICTED BY IDOCK:    2.26 KCAL/MOL
REMARK 927      BINDING AFFINITY PREDICTED BY RF-SCORE:    0.00 PKD
ROOT
HETATM    1  C   UNL     1     -10.339   8.809  71.202  1.00  0.00    -0.246 C  
HETATM    2  N   UNL     1      -9.903  10.179  70.976  1.00  0.00     0.012 NA 
HETATM    3  H   UNL     1      -9.698  10.641  71.862  1.00  0.00     0.000 HD 
ENDROOT
BRANCH   2   4
HETATM    4  C   UNL     1      -8.762  10.296  70.056  1.00  0.00     0.156 C  
BRANCH   4   5
HETATM    5  C   UNL     1      -8.994  11.173  68.796  1.00  0.00    -0.131 C  
HETATM    6  C   UNL     1      -7.987  12.297  68.634  1.00  0.00    -0.050 C  
HETATM    7  C   UNL     1      -8.287  13.052  67.340  1.00  0.00    -0.194 C  
HETATM    8  C   UNL     1      -9.783  13.399  67.183  1.00  0.00    -0.237 C  
HETATM    9  C   UNL     1     -10.780  12.239  67.634  1.00  0.00    -0.220 C  
HETATM   10  N   UNL     1     -10.006  13.986  65.841  1.00  0.00    -0.332 NA 
HETATM   11  O   UNL     1     -10.316  11.754  68.890  1.00  0.00    -0.200 OA 
HETATM   12  H1  UNL     1     -10.994  14.215  65.737  1.00  0.00     0.000 HD 
HETATM   13  H2  UNL     1      -9.667  13.381  65.092  1.00  0.00     0.000 HD 
BRANCH   9  14
HETATM   14  O   UNL     1     -11.007  11.175  66.680  1.00  0.00    -0.274 OA 
BRANCH  14  15
HETATM   15  C   UNL     1      -9.832  10.535  66.024  1.00  0.00    -0.222 C  
HETATM   16  C   UNL     1      -9.746  10.754  64.489  1.00  0.00    -0.295 C  
HETATM   17  N   UNL     1      -9.358  12.146  64.184  1.00  0.00    -0.374 NA 
HETATM   18  C   UNL     1      -8.701   9.835  63.823  1.00  0.00    -0.239 C  
HETATM   19  H2  UNL     1      -8.492  12.410  64.653  1.00  0.00     0.000 HD 
HETATM   20  H1  UNL     1      -9.302  12.290  63.176  1.00  0.00     0.000 HD 
HETATM   21  C   UNL     1      -8.939   8.346  64.121  1.00  0.00     0.578 C  
HETATM   22  N   UNL     1      -8.053   7.510  63.305  1.00  0.00    -0.305 NA 
HETATM   23  C   UNL     1      -8.747   8.048  65.620  1.00  0.00    -0.125 C  
HETATM   24  C   UNL     1      -9.627   9.042  66.441  1.00  0.00    -0.244 C  
HETATM   25  O   UNL     1      -9.229   8.987  67.831  1.00  0.00    -0.140 OA 
HETATM   26  H1  UNL     1      -8.211   6.523  63.502  1.00  0.00     0.000 HD 
HETATM   27  H2  UNL     1      -7.073   7.769  63.423  1.00  0.00     0.000 HD 
HETATM   28  H   UNL     1      -9.104   8.079  68.084  1.00  0.00     0.000 HD 
BRANCH  23  29
HETATM   29  O   UNL     1      -9.250   6.716  65.929  1.00  0.00    -0.099 OA 
BRANCH  29  30
HETATM   30  C   UNL     1      -8.416   5.541  65.872  1.00  0.00    -0.130 C  
HETATM   31  O   UNL     1      -8.732   4.610  64.834  1.00  0.00    -0.133 OA 
HETATM   32  C   UNL     1      -7.769   3.548  64.753  1.00  0.00    -0.078 C  
HETATM   33  C   UNL     1      -7.704   2.680  66.038  1.00  0.00    -0.080 C  
HETATM   34  C   UNL     1      -7.352   3.602  67.238  1.00  0.00    -0.064 C  
HETATM   35  O   UNL     1      -8.988   2.074  66.252  1.00  0.00    -0.127 OA 
HETATM   36  C   UNL     1      -6.675   1.559  65.828  1.00  0.00    -0.027 C  
HETATM   37  H   UNL     1      -7.734   5.323  69.149  1.00  0.00     0.000 HD 
HETATM   38  H   UNL     1      -8.948   1.543  67.039  1.00  0.00     0.000 HD 
HETATM   39  C   UNL     1      -8.305   4.846  67.281  1.00  0.00    -0.106 C  
HETATM   40  O   UNL     1      -7.800   5.743  68.299  1.00  0.00    -0.098 OA 
BRANCH  34  41
HETATM   41  N   UNL     1      -7.140   3.000  68.589  1.00  0.00    -0.048 NA 
HETATM   42  C   UNL     1      -5.876   2.330  68.840  1.00  0.00    -0.023 C  
HETATM   43  H   UNL     1      -7.858   3.057  69.311  1.00  0.00     0.000 HD 
ENDBRANCH  34  41
ENDBRANCH  29  30
ENDBRANCH  23  29
ENDBRANCH  14  15
ENDBRANCH   9  14
ENDBRANCH   4   5
ENDBRANCH   2   4
TORSDOF 7
ENDMDL
MODEL      319
REMARK 921   NORMALIZED FREE ENERGY PREDICTED BY IDOCK:   -0.07 KCAL/MOL
REMARK 922        TOTAL FREE ENERGY PREDICTED BY IDOCK:   -1.81 KCAL/MOL
REMARK 923 INTER-LIGAND FREE ENERGY PREDICTED BY IDOCK:   -6.25 KCAL/MOL
REMARK 924 INTRA-LIGAND FREE ENERGY PREDICTED BY IDOCK:    4.44 KCAL/MOL
REMARK 927      BINDING AFFINITY PREDICTED BY RF-SCORE:    0.00 PKD
ROOT
HETATM    1  C   UNL     1      -8.873  17.045  67.145  1.00  0.00    -0.218 C  
HETATM    2  N   UNL     1      -9.792  16.191  67.883  1.00  0.00    -0.233 NA 
HETATM    3  H   UNL     1     -10.484  16.753  68.379  1.00  0.00     0.000 HD 
ENDROOT
BRANCH   2   4
HETATM    4  C   UNL     1     -10.452  15.171  67.055  1.00  0.00    -0.282 C  
BRANCH   4   5
HETATM    5  C   UNL     1      -9.981  13.708  67.278  1.00  0.00    -0.240 C  
HETATM    6  C   UNL     1      -8.836  13.574  68.266  1.00  0.00    -0.179 C  
HETATM    7  C   UNL     1      -8.499  12.094  68.440  1.00  0.00    -0.145 C  
HETATM    8  C   UNL     1      -8.378  11.347  67.094  1.00  0.00    -0.155 C  
HETATM    9  C   UNL     1      -9.477  11.754  66.012  1.00  0.00    -0.230 C  
HETATM   10  N   UNL     1      -8.205   9.899  67.358  1.00  0.00    -0.117 NA 
HETATM   11  O   UNL     1      -9.548  13.176  66.004  1.00  0.00    -0.244 OA 
HETATM   12  H1  UNL     1      -8.125   9.406  66.469  1.00  0.00     0.000 HD 
HETATM   13  H2  UNL     1      -8.948   9.520  67.946  1.00  0.00     0.000 HD 
BRANCH   9  14
HETATM   14  O   UNL     1     -10.778  11.136  66.149  1.00  0.00    -0.263 OA 
BRANCH  14  15
HETATM   15  C   UNL     1     -11.121  10.458  67.431  1.00  0.00    -0.226 C  
HETATM   16  C   UNL     1     -11.116  11.384  68.678  1.00  0.00    -0.236 C  
HETATM   17  N   UNL     1     -12.285  12.286  68.659  1.00  0.00    -0.162 NA 
HETATM   18  C   UNL     1     -11.176  10.589  69.999  1.00  0.00    -0.386 C  
HETATM   19  H2  UNL     1     -13.161  11.770  68.574  1.00  0.00     0.000 HD 
HETATM   20  H1  UNL     1     -12.282  12.894  69.477  1.00  0.00     0.000 HD 
HETATM   21  C   UNL     1     -10.051   9.550  70.122  1.00  0.00    -0.249 C  
HETATM   22  N   UNL     1     -10.030   8.973  71.470  1.00  0.00    -0.319 NA 
HETATM   23  C   UNL     1     -10.203   8.448  69.056  1.00  0.00    -0.207 C  
HETATM   24  C   UNL     1     -10.334   9.126  67.656  1.00  0.00    -0.255 C  
HETATM   25  O   UNL     1     -10.782   8.141  66.696  1.00  0.00    -0.342 OA 
HETATM   26  H1  UNL     1      -9.284   8.283  71.552  1.00  0.00     0.000 HD 
HETATM   27  H2  UNL     1     -10.937   8.583  71.730  1.00  0.00     0.000 HD 
HETATM   28  H   UNL     1     -10.304   7.331  66.833  1.00  0.00     0.000 HD 
BRANCH  23  29
HETATM   29  O   UNL     1      -8.989   7.643  69.000  1.00  0.00    -0.138 OA 
BRANCH  29  30
HETATM   30  C   UNL     1      -8.962   6.256  69.395  1.00  0.00    -0.126 C  
HETATM   31  O   UNL     1      -7.822   5.853  70.158  1.00  0.00    -0.096 OA 
HETATM   32  C   UNL     1      -7.943   4.503  70.633  1.00  0.00    -0.061 C  
HETATM   33  C   UNL     1      -8.027   3.456  69.491  1.00  0.00    -0.049 C  
HETATM   34  C   UNL     1      -9.252   3.798  68.599  1.00  0.00    -0.156 C  
HETATM   35  O   UNL     1      -6.824   3.526  68.710  1.00  0.00    -0.044 OA 
HETATM   36  C   UNL     1      -8.116   2.053  70.110  1.00  0.00    -0.056 C  
HETATM   37  H   UNL     1     -10.633   5.016  66.763  1.00  0.00     0.000 HD 
HETATM   38  H   UNL     1      -6.876   2.884  68.011  1.00  0.00     0.000 HD 
HETATM   39  C   UNL     1      -9.221   5.305  68.166  1.00  0.00    -0.113 C  
HETATM   40  O   UNL     1     -10.477   5.590  67.504  1.00  0.00    -0.214 OA 
BRANCH  34  41
HETATM   41  N   UNL     1      -9.615   2.888  67.470  1.00  0.00    -0.362 NA 
HETATM   42  C   UNL     1      -8.983   3.119  66.183  1.00  0.00    -0.148 C  
HETATM   43  H   UNL     1     -10.285   2.129  67.600  1.00  0.00     0.000 HD 
ENDBRANCH  34  41
ENDBRANCH  29  30
ENDBRANCH  23  29
ENDBRANCH  14  15
ENDBRANCH   9  14
ENDBRANCH   4   5
ENDBRANCH   2   4
TORSDOF 7
ENDMDL
MODEL      320
REMARK 921   NORMALIZED FREE ENERGY PREDICTED BY IDOCK:    0.28 KCAL/MOL
REMARK 922        TOTAL FREE ENERGY PREDICTED BY IDOCK:   -1.32 KCAL/MOL
REMARK 923 INTER-LIGAND FREE ENERGY PREDICTED BY IDOCK:   -2.15 KCAL/MOL
REMARK 924 INTRA-LIGAND FREE ENERGY PREDICTED BY IDOCK:    0.84 KCAL/MOL
REMARK 927      BINDING AFFINITY PREDICTED BY RF-SCORE:    0.00 PKD
ROOT
HETATM    1  C   UNL     1      -8.172  10.260  62.399  1.00  0.00    -0.164 C  
HETATM    2  N   UNL     1      -9.349  10.346  63.251  1.00  0.00    -0.279 NA 
HETATM    3  H   UNL     1      -9.492   9.469  63.753  1.00  0.00     0.000 HD 
ENDROOT
BRANCH   2   4
HETATM    4  C   UNL     1      -9.325  11.480  64.187  1.00  0.00    -0.001 C  
BRANCH   4   5
HETATM    5  C   UNL     1      -9.532  11.127  65.685  1.00  0.00    -0.224 C  
HETATM    6  C   UNL     1      -8.461  10.216  66.257  1.00  0.00    -0.132 C  
HETATM    7  C   UNL     1      -8.744   9.985  67.741  1.00  0.00    -0.125 C  
HETATM    8  C   UNL     1     -10.219   9.623  68.018  1.00  0.00    -0.194 C  
HETATM    9  C   UNL     1     -11.275  10.459  67.165  1.00  0.00    -0.007 C  
HETATM   10  N   UNL     1     -10.437   9.570  69.483  1.00  0.00    -0.210 NA 
HETATM   11  O   UNL     1     -10.812  10.467  65.818  1.00  0.00    -0.008 OA 
HETATM   12  H1  UNL     1     -11.411   9.331  69.666  1.00  0.00     0.000 HD 
HETATM   13  H2  UNL     1     -10.155  10.433  69.949  1.00  0.00     0.000 HD 
BRANCH   9  14
HETATM   14  O   UNL     1     -11.591  11.786  67.648  1.00  0.00    -0.396 OA 
BRANCH  14  15
HETATM   15  C   UNL     1     -11.438  12.077  69.100  1.00  0.00    -0.300 C  
HETATM   16  C   UNL     1     -12.757  12.022  69.918  1.00  0.00     0.362 C  
HETATM   17  N   UNL     1     -13.206  10.624  70.084  1.00  0.00    -0.258 NA 
HETATM   18  C   UNL     1     -12.598  12.619  71.331  1.00  0.00    -0.304 C  
HETATM   19  H2  UNL     1     -12.480  10.039  70.497  1.00  0.00     0.000 HD 
HETATM   20  H1  UNL     1     -14.072  10.588  70.620  1.00  0.00     0.000 HD 
HETATM   21  C   UNL     1     -12.061  14.058  71.314  1.00  0.00    -0.224 C  
HETATM   22  N   UNL     1     -12.124  14.647  72.656  1.00  0.00    -0.185 NA 
HETATM   23  C   UNL     1     -10.623  14.102  70.763  1.00  0.00     1.556 C  
HETATM   24  C   UNL     1     -10.595  13.363  69.389  1.00  0.00     0.206 C  
HETATM   25  O   UNL     1      -9.219  13.124  69.010  1.00  0.00    -0.357 OA 
HETATM   26  H1  UNL     1     -11.768  15.602  72.645  1.00  0.00     0.000 HD 
HETATM   27  H2  UNL     1     -11.641  14.070  73.345  1.00  0.00     0.000 HD 
HETATM   28  H   UNL     1      -8.707  13.905  69.185  1.00  0.00     0.000 HD 
BRANCH  23  29
HETATM   29  O   UNL     1     -10.240  15.480  70.486  1.00  0.00    -0.191 OA 
BRANCH  29  30
HETATM   30  C   UNL     1     -10.520  16.123  69.226  1.00  0.00    -0.267 C  
HETATM   31  O   UNL     1      -9.977  15.479  68.070  1.00  0.00    -0.213 OA 
HETATM   32  C   UNL     1     -10.423  16.096  66.853  1.00  0.00    -0.300 C  
HETATM   33  C   UNL     1      -9.973  17.575  66.713  1.00  0.00    -0.313 C  
HETATM   34  C   UNL     1     -10.525  18.374  67.926  1.00  0.00    -0.391 C  
HETATM   35  O   UNL     1      -8.538  17.623  66.713  1.00  0.00    -0.236 OA 
HETATM   36  C   UNL     1     -10.471  18.120  65.366  1.00  0.00     0.228 C  
HETATM   37  H   UNL     1     -10.656  19.277  70.361  1.00  0.00     0.000 HD 
HETATM   38  H   UNL     1      -8.263  18.528  66.628  1.00  0.00     0.000 HD 
HETATM   39  C   UNL     1     -10.167  17.657  69.273  1.00  0.00    -0.147 C  
HETATM   40  O   UNL     1     -10.869  18.352  70.332  1.00  0.00     1.481 OA 
BRANCH  34  41
HETATM   41  N   UNL     1     -10.310  19.851  67.991  1.00  0.00    -0.428 NA 
HETATM   42  C   UNL     1     -10.268  20.585  66.738  1.00  0.00    -0.132 C  
HETATM   43  H   UNL     1     -10.196  20.328  68.885  1.00  0.00     0.000 HD 
ENDBRANCH  34  41
ENDBRANCH  29  30
ENDBRANCH  23  29
ENDBRANCH  14  15
ENDBRANCH   9  14
ENDBRANCH   4   5
ENDBRANCH   2   4
TORSDOF 7
ENDMDL
MODEL      321
REMARK 921   NORMALIZED FREE ENERGY PREDICTED BY IDOCK:    0.50 KCAL/MOL
REMARK 922        TOTAL FREE ENERGY PREDICTED BY IDOCK:   -1.01 KCAL/MOL
REMARK 923 INTER-LIGAND FREE ENERGY PREDICTED BY IDOCK:   -4.79 KCAL/MOL
REMARK 924 INTRA-LIGAND FREE ENERGY PREDICTED BY IDOCK:    3.78 KCAL/MOL
REMARK 927      BINDING AFFINITY PREDICTED BY RF-SCORE:    0.00 PKD
ROOT
HETATM    1  C   UNL     1      -7.012   9.192  66.401  1.00  0.00    -0.080 C  
HETATM    2  N   UNL     1      -6.168   9.524  65.263  1.00  0.00    -0.066 NA 
HETATM    3  H   UNL     1      -5.678   8.695  64.927  1.00  0.00     0.000 HD 
ENDROOT
BRANCH   2   4
HETATM    4  C   UNL     1      -6.886  10.183  64.162  1.00  0.00    -0.102 C  
BRANCH   4   5
HETATM    5  C   UNL     1      -8.281  10.767  64.515  1.00  0.00     0.092 C  
HETATM    6  C   UNL     1      -8.970  10.058  65.668  1.00  0.00    -0.203 C  
HETATM    7  C   UNL     1     -10.302  10.751  65.953  1.00  0.00    -0.302 C  
HETATM    8  C   UNL     1     -11.126  11.013  64.674  1.00  0.00     0.030 C  
HETATM    9  C   UNL     1     -10.266  11.505  63.424  1.00  0.00    -0.420 C  
HETATM   10  N   UNL     1     -12.318  11.820  65.022  1.00  0.00    -0.125 NA 
HETATM   11  O   UNL     1      -9.123  10.658  63.344  1.00  0.00    -0.198 OA 
HETATM   12  H1  UNL     1     -12.862  11.992  64.177  1.00  0.00     0.000 HD 
HETATM   13  H2  UNL     1     -12.075  12.682  65.509  1.00  0.00     0.000 HD 
BRANCH   9  14
HETATM   14  O   UNL     1      -9.917  12.909  63.392  1.00  0.00    -0.098 OA 
BRANCH  14  15
HETATM   15  C   UNL     1     -10.453  13.807  64.453  1.00  0.00    -0.241 C  
HETATM   16  C   UNL     1     -11.301  14.997  63.929  1.00  0.00     0.589 C  
HETATM   17  N   UNL     1     -12.614  14.525  63.444  1.00  0.00    -0.871 NA 
HETATM   18  C   UNL     1     -11.573  16.050  65.024  1.00  0.00     0.098 C  
HETATM   19  H2  UNL     1     -13.111  13.990  64.156  1.00  0.00     0.000 HD 
HETATM   20  H1  UNL     1     -13.171  15.307  63.101  1.00  0.00     0.000 HD 
HETATM   21  C   UNL     1     -10.286  16.579  65.675  1.00  0.00    -0.322 C  
HETATM   22  N   UNL     1     -10.584  17.716  66.553  1.00  0.00    -0.264 NA 
HETATM   23  C   UNL     1      -9.564  15.462  66.452  1.00  0.00    -0.293 C  
HETATM   24  C   UNL     1      -9.376  14.239  65.501  1.00  0.00     0.314 C  
HETATM   25  O   UNL     1      -8.988  13.087  66.286  1.00  0.00    -0.444 OA 
HETATM   26  H1  UNL     1      -9.730  18.068  66.985  1.00  0.00     0.000 HD 
HETATM   27  H2  UNL     1     -11.293  17.482  67.249  1.00  0.00     0.000 HD 
HETATM   28  H   UNL     1      -8.333  13.349  66.924  1.00  0.00     0.000 HD 
BRANCH  23  29
HETATM   29  O   UNL     1      -8.222  15.899  66.815  1.00  0.00    -0.221 OA 
BRANCH  29  30
HETATM   30  C   UNL     1      -7.978  17.101  67.573  1.00  0.00    -0.176 C  
HETATM   31  O   UNL     1      -7.611  18.251  66.805  1.00  0.00    -0.207 OA 
HETATM   32  C   UNL     1      -7.531  19.434  67.615  1.00  0.00    -0.252 C  
HETATM   33  C   UNL     1      -6.444  19.349  68.719  1.00  0.00    -0.261 C  
HETATM   34  C   UNL     1      -6.756  18.127  69.625  1.00  0.00    -0.007 C  
HETATM   35  O   UNL     1      -5.162  19.174  68.093  1.00  0.00    -0.175 OA 
HETATM   36  C   UNL     1      -6.420  20.675  69.495  1.00  0.00     0.044 C  
HETATM   37  H   UNL     1      -6.845  15.638  70.371  1.00  0.00     0.000 HD 
HETATM   38  H   UNL     1      -4.497  19.123  68.770  1.00  0.00     0.000 HD 
HETATM   39  C   UNL     1      -6.979  16.838  68.762  1.00  0.00    -0.197 C  
HETATM   40  O   UNL     1      -7.447  15.797  69.654  1.00  0.00    -0.199 OA 
BRANCH  34  41
HETATM   41  N   UNL     1      -5.907  17.869  70.828  1.00  0.00     0.095 NA 
HETATM   42  C   UNL     1      -5.260  19.007  71.457  1.00  0.00    -0.328 C  
HETATM   43  H   UNL     1      -5.787  16.924  71.195  1.00  0.00     0.000 HD 
ENDBRANCH  34  41
ENDBRANCH  29  30
ENDBRANCH  23  29
ENDBRANCH  14  15
ENDBRANCH   9  14
ENDBRANCH   4   5
ENDBRANCH   2   4
TORSDOF 7
ENDMDL
MODEL      322
REMARK 921   NORMALIZED FREE ENERGY PREDICTED BY IDOCK:    0.70 KCAL/MOL
REMARK 922        TOTAL FREE ENERGY PREDICTED BY IDOCK:   -0.72 KCAL/MOL
REMARK 923 INTER-LIGAND FREE ENERGY PREDICTED BY IDOCK:   -5.46 KCAL/MOL
REMARK 924 INTRA-LIGAND FREE ENERGY PREDICTED BY IDOCK:    4.74 KCAL/MOL
REMARK 927      BINDING AFFINITY PREDICTED BY RF-SCORE:    0.00 PKD
ROOT
HETATM    1  C   UNL     1      -9.393   3.845  69.443  1.00  0.00    -0.176 C  
HETATM    2  N   UNL     1      -8.033   3.997  69.937  1.00  0.00    -0.055 NA 
HETATM    3  H   UNL     1      -7.780   3.212  70.537  1.00  0.00     0.000 HD 
ENDROOT
BRANCH   2   4
HETATM    4  C   UNL     1      -7.031   4.181  68.877  1.00  0.00    -0.047 C  
BRANCH   4   5
HETATM    5  C   UNL     1      -6.971   5.595  68.238  1.00  0.00    -0.068 C  
HETATM    6  C   UNL     1      -7.821   5.743  66.989  1.00  0.00    -0.102 C  
HETATM    7  C   UNL     1      -7.722   7.182  66.486  1.00  0.00    -0.100 C  
HETATM    8  C   UNL     1      -6.267   7.696  66.430  1.00  0.00    -0.045 C  
HETATM    9  C   UNL     1      -5.365   7.261  67.672  1.00  0.00    -0.021 C  
HETATM   10  N   UNL     1      -6.275   9.136  66.084  1.00  0.00    -0.063 NA 
HETATM   11  O   UNL     1      -5.595   5.872  67.889  1.00  0.00    -0.008 OA 
HETATM   12  H1  UNL     1      -5.314   9.476  66.047  1.00  0.00     0.000 HD 
HETATM   13  H2  UNL     1      -6.856   9.685  66.718  1.00  0.00     0.000 HD 
BRANCH   9  14
HETATM   14  O   UNL     1      -5.512   8.041  68.881  1.00  0.00    -0.029 OA 
BRANCH  14  15
HETATM   15  C   UNL     1      -6.870   8.510  69.274  1.00  0.00    -0.050 C  
HETATM   16  C   UNL     1      -7.817   7.395  69.797  1.00  0.00    -0.116 C  
HETATM   17  N   UNL     1      -7.406   6.955  71.146  1.00  0.00    -0.077 NA 
HETATM   18  C   UNL     1      -9.281   7.870  69.900  1.00  0.00    -0.153 C  
HETATM   19  H2  UNL     1      -7.346   7.737  71.798  1.00  0.00     0.000 HD 
HETATM   20  H1  UNL     1      -8.027   6.223  71.489  1.00  0.00     0.000 HD 
HETATM   21  C   UNL     1      -9.822   8.428  68.575  1.00  0.00    -0.173 C  
HETATM   22  N   UNL     1     -11.266   8.670  68.671  1.00  0.00    -0.244 NA 
HETATM   23  C   UNL     1      -9.076   9.716  68.176  1.00  0.00    -0.122 C  
HETATM   24  C   UNL     1      -7.542   9.428  68.202  1.00  0.00    -0.083 C  
HETATM   25  O   UNL     1      -6.826  10.684  68.137  1.00  0.00    -0.067 OA 
HETATM   26  H1  UNL     1     -11.625   9.041  67.792  1.00  0.00     0.000 HD 
HETATM   27  H2  UNL     1     -11.498   9.274  69.460  1.00  0.00     0.000 HD 
HETATM   28  H   UNL     1      -7.235  11.243  67.485  1.00  0.00     0.000 HD 
BRANCH  23  29
HETATM   29  O   UNL     1      -9.396  10.067  66.799  1.00  0.00    -0.154 OA 
BRANCH  29  30
HETATM   30  C   UNL     1     -10.253  11.177  66.463  1.00  0.00    -0.231 C  
HETATM   31  O   UNL     1     -10.758  11.184  65.125  1.00  0.00    -0.273 OA 
HETATM   32  C   UNL     1     -11.715  12.235  64.917  1.00  0.00    -0.352 C  
HETATM   33  C   UNL     1     -11.118  13.654  65.107  1.00  0.00    -0.318 C  
HETATM   34  C   UNL     1     -10.545  13.759  66.548  1.00  0.00    -0.279 C  
HETATM   35  O   UNL     1     -10.063  13.844  64.151  1.00  0.00    -0.681 OA 
HETATM   36  C   UNL     1     -12.213  14.694  64.825  1.00  0.00    -0.403 C  
HETATM   37  H   UNL     1      -8.856  13.447  68.499  1.00  0.00     0.000 HD 
HETATM   38  H   UNL     1      -9.698  14.714  64.268  1.00  0.00     0.000 HD 
HETATM   39  C   UNL     1      -9.593  12.552  66.856  1.00  0.00    -0.229 C  
HETATM   40  O   UNL     1      -9.254  12.618  68.262  1.00  0.00    -0.201 OA 
BRANCH  34  41
HETATM   41  N   UNL     1      -9.988  15.061  67.023  1.00  0.00    -0.240 NA 
HETATM   42  C   UNL     1      -8.698  15.478  66.499  1.00  0.00    -0.305 C  
HETATM   43  H   UNL     1     -10.496  15.639  67.693  1.00  0.00     0.000 HD 
ENDBRANCH  34  41
ENDBRANCH  29  30
ENDBRANCH  23  29
ENDBRANCH  14  15
ENDBRANCH   9  14
ENDBRANCH   4   5
ENDBRANCH   2   4
TORSDOF 7
ENDMDL
MODEL      323
REMARK 921   NORMALIZED FREE ENERGY PREDICTED BY IDOCK:    0.70 KCAL/MOL
REMARK 922        TOTAL FREE ENERGY PREDICTED BY IDOCK:   -0.72 KCAL/MOL
REMARK 923 INTER-LIGAND FREE ENERGY PREDICTED BY IDOCK:   -5.30 KCAL/MOL
REMARK 924 INTRA-LIGAND FREE ENERGY PREDICTED BY IDOCK:    4.58 KCAL/MOL
REMARK 927      BINDING AFFINITY PREDICTED BY RF-SCORE:    0.00 PKD
ROOT
HETATM    1  C   UNL     1      -7.691   3.600  65.393  1.00  0.00    -0.085 C  
HETATM    2  N   UNL     1      -6.604   3.727  66.352  1.00  0.00    -0.040 NA 
HETATM    3  H   UNL     1      -6.021   4.534  66.129  1.00  0.00     0.000 HD 
ENDROOT
BRANCH   2   4
HETATM    4  C   UNL     1      -7.049   3.782  67.752  1.00  0.00    -0.055 C  
BRANCH   4   5
HETATM    5  C   UNL     1      -7.115   5.198  68.388  1.00  0.00    -0.062 C  
HETATM    6  C   UNL     1      -6.631   6.306  67.471  1.00  0.00    -0.052 C  
HETATM    7  C   UNL     1      -6.792   7.649  68.185  1.00  0.00    -0.064 C  
HETATM    8  C   UNL     1      -6.252   7.625  69.631  1.00  0.00    -0.031 C  
HETATM    9  C   UNL     1      -6.585   6.290  70.438  1.00  0.00    -0.048 C  
HETATM   10  N   UNL     1      -6.587   8.906  70.294  1.00  0.00    -0.039 NA 
HETATM   11  O   UNL     1      -6.289   5.195  69.576  1.00  0.00    -0.031 OA 
HETATM   12  H1  UNL     1      -6.230   8.890  71.249  1.00  0.00     0.000 HD 
HETATM   13  H2  UNL     1      -7.585   9.114  70.256  1.00  0.00     0.000 HD 
BRANCH   9  14
HETATM   14  O   UNL     1      -7.910   6.197  71.014  1.00  0.00    -0.109 OA 
BRANCH  14  15
HETATM   15  C   UNL     1      -9.068   6.727  70.242  1.00  0.00    -0.153 C  
HETATM   16  C   UNL     1      -9.475   5.873  69.011  1.00  0.00    -0.127 C  
HETATM   17  N   UNL     1     -10.132   4.622  69.442  1.00  0.00    -0.185 NA 
HETATM   18  C   UNL     1     -10.466   6.610  68.086  1.00  0.00    -0.257 C  
HETATM   19  H2  UNL     1     -10.926   4.802  70.057  1.00  0.00     0.000 HD 
HETATM   20  H1  UNL     1     -10.399   4.061  68.634  1.00  0.00     0.000 HD 
HETATM   21  C   UNL     1      -9.939   7.975  67.617  1.00  0.00    -0.180 C  
HETATM   22  N   UNL     1     -10.818   8.538  66.585  1.00  0.00    -0.139 NA 
HETATM   23  C   UNL     1      -9.796   8.947  68.804  1.00  0.00    -0.173 C  
HETATM   24  C   UNL     1      -8.948   8.251  69.914  1.00  0.00    -0.139 C  
HETATM   25  O   UNL     1      -9.064   9.011  71.140  1.00  0.00    -0.226 OA 
HETATM   26  H1  UNL     1     -10.469   9.444  66.273  1.00  0.00     0.000 HD 
HETATM   27  H2  UNL     1     -11.786   8.593  66.901  1.00  0.00     0.000 HD 
HETATM   28  H   UNL     1      -8.991   9.938  70.941  1.00  0.00     0.000 HD 
BRANCH  23  29
HETATM   29  O   UNL     1      -9.036  10.121  68.394  1.00  0.00    -0.128 OA 
BRANCH  29  30
HETATM   30  C   UNL     1      -9.603  11.447  68.391  1.00  0.00    -0.197 C  
HETATM   31  O   UNL     1     -11.024  11.511  68.542  1.00  0.00    -0.194 OA 
HETATM   32  C   UNL     1     -11.489  12.863  68.675  1.00  0.00    -0.308 C  
HETATM   33  C   UNL     1     -11.198  13.739  67.428  1.00  0.00    -0.310 C  
HETATM   34  C   UNL     1      -9.664  13.745  67.179  1.00  0.00    -0.244 C  
HETATM   35  O   UNL     1     -11.870  13.167  66.294  1.00  0.00    -0.363 OA 
HETATM   36  C   UNL     1     -11.768  15.145  67.664  1.00  0.00    -0.233 C  
HETATM   37  H   UNL     1      -7.349  12.885  66.364  1.00  0.00     0.000 HD 
HETATM   38  H   UNL     1     -11.692  13.704  65.531  1.00  0.00     0.000 HD 
HETATM   39  C   UNL     1      -9.098  12.284  67.156  1.00  0.00    -0.193 C  
HETATM   40  O   UNL     1      -7.654  12.381  67.109  1.00  0.00    -0.152 OA 
BRANCH  34  41
HETATM   41  N   UNL     1      -9.102  14.592  66.082  1.00  0.00    -0.507 NA 
HETATM   42  C   UNL     1      -8.383  15.796  66.457  1.00  0.00    -0.278 C  
HETATM   43  H   UNL     1      -9.221  14.332  65.103  1.00  0.00     0.000 HD 
ENDBRANCH  34  41
ENDBRANCH  29  30
ENDBRANCH  23  29
ENDBRANCH  14  15
ENDBRANCH   9  14
ENDBRANCH   4   5
ENDBRANCH   2   4
TORSDOF 7
ENDMDL
MODEL      324
REMARK 921   NORMALIZED FREE ENERGY PREDICTED BY IDOCK:    0.72 KCAL/MOL
REMARK 922        TOTAL FREE ENERGY PREDICTED BY IDOCK:   -0.69 KCAL/MOL
REMARK 923 INTER-LIGAND FREE ENERGY PREDICTED BY IDOCK:   -1.60 KCAL/MOL
REMARK 924 INTRA-LIGAND FREE ENERGY PREDICTED BY IDOCK:    0.91 KCAL/MOL
REMARK 927      BINDING AFFINITY PREDICTED BY RF-SCORE:    0.00 PKD
ROOT
HETATM    1  C   UNL     1      -9.458  20.344  64.221  1.00  0.00     4.208 C  
HETATM    2  N   UNL     1      -8.540  21.104  65.056  1.00  0.00     1.412 NA 
HETATM    3  H   UNL     1      -8.968  21.981  65.353  1.00  0.00     0.000 HD 
ENDROOT
BRANCH   2   4
HETATM    4  C   UNL     1      -8.033  20.357  66.216  1.00  0.00    -0.077 C  
BRANCH   4   5
HETATM    5  C   UNL     1      -9.092  19.561  67.026  1.00  0.00    -0.315 C  
HETATM    6  C   UNL     1      -9.376  20.137  68.401  1.00  0.00    -0.172 C  
HETATM    7  C   UNL     1     -10.464  19.303  69.076  1.00  0.00     0.106 C  
HETATM    8  C   UNL     1     -10.204  17.785  68.973  1.00  0.00    -0.290 C  
HETATM    9  C   UNL     1      -9.647  17.306  67.557  1.00  0.00    -0.259 C  
HETATM   10  N   UNL     1     -11.375  17.055  69.511  1.00  0.00    -0.073 NA 
HETATM   11  O   UNL     1      -8.607  18.207  67.190  1.00  0.00    -0.239 OA 
HETATM   12  H1  UNL     1     -11.203  16.052  69.442  1.00  0.00     0.000 HD 
HETATM   13  H2  UNL     1     -12.247  17.331  69.057  1.00  0.00     0.000 HD 
BRANCH   9  14
HETATM   14  O   UNL     1     -10.624  17.131  66.504  1.00  0.00    -0.272 OA 
BRANCH  14  15
HETATM   15  C   UNL     1     -10.773  15.788  65.876  1.00  0.00    -0.313 C  
HETATM   16  C   UNL     1     -11.828  15.715  64.739  1.00  0.00    -0.047 C  
HETATM   17  N   UNL     1     -11.333  16.402  63.528  1.00  0.00    -0.626 NA 
HETATM   18  C   UNL     1     -12.156  14.263  64.335  1.00  0.00    -0.490 C  
HETATM   19  H2  UNL     1     -10.428  16.039  63.229  1.00  0.00     0.000 HD 
HETATM   20  H1  UNL     1     -12.026  16.354  62.781  1.00  0.00     0.000 HD 
HETATM   21  C   UNL     1     -12.616  13.403  65.523  1.00  0.00    -0.465 C  
HETATM   22  N   UNL     1     -13.110  12.103  65.056  1.00  0.00    -0.144 NA 
HETATM   23  C   UNL     1     -11.476  13.222  66.544  1.00  0.00    -0.337 C  
HETATM   24  C   UNL     1     -10.916  14.630  66.917  1.00  0.00    -0.324 C  
HETATM   25  O   UNL     1      -9.663  14.467  67.622  1.00  0.00    -0.211 OA 
HETATM   26  H1  UNL     1     -13.415  11.533  65.844  1.00  0.00     0.000 HD 
HETATM   27  H2  UNL     1     -12.419  11.619  64.483  1.00  0.00     0.000 HD 
HETATM   28  H   UNL     1      -9.750  13.763  68.255  1.00  0.00     0.000 HD 
BRANCH  23  29
HETATM   29  O   UNL     1     -12.003  12.659  67.780  1.00  0.00    -0.347 OA 
BRANCH  29  30
HETATM   30  C   UNL     1     -11.576  11.380  68.292  1.00  0.00    -0.306 C  
HETATM   31  O   UNL     1     -11.587  11.250  69.716  1.00  0.00    -0.278 OA 
HETATM   32  C   UNL     1     -11.291   9.909  70.135  1.00  0.00    -0.275 C  
HETATM   33  C   UNL     1      -9.874   9.434  69.719  1.00  0.00    -0.201 C  
HETATM   34  C   UNL     1      -9.759   9.526  68.172  1.00  0.00    -0.147 C  
HETATM   35  O   UNL     1      -8.900  10.294  70.330  1.00  0.00    -0.299 OA 
HETATM   36  C   UNL     1      -9.653   8.009  70.248  1.00  0.00    -0.171 C  
HETATM   37  H   UNL     1      -9.414  10.625  65.841  1.00  0.00     0.000 HD 
HETATM   38  H   UNL     1      -8.033  10.003  70.075  1.00  0.00     0.000 HD 
HETATM   39  C   UNL     1     -10.199  10.942  67.665  1.00  0.00    -0.183 C  
HETATM   40  O   UNL     1     -10.244  10.888  66.219  1.00  0.00    -0.232 OA 
BRANCH  34  41
HETATM   41  N   UNL     1      -8.515   9.040  67.499  1.00  0.00    -0.116 NA 
HETATM   42  C   UNL     1      -8.307   9.413  66.111  1.00  0.00    -0.115 C  
HETATM   43  H   UNL     1      -7.836   8.466  67.998  1.00  0.00     0.000 HD 
ENDBRANCH  34  41
ENDBRANCH  29  30
ENDBRANCH  23  29
ENDBRANCH  14  15
ENDBRANCH   9  14
ENDBRANCH   4   5
ENDBRANCH   2   4
TORSDOF 7
ENDMDL
MODEL      325
REMARK 921   NORMALIZED FREE ENERGY PREDICTED BY IDOCK:    0.73 KCAL/MOL
REMARK 922        TOTAL FREE ENERGY PREDICTED BY IDOCK:   -0.68 KCAL/MOL
REMARK 923 INTER-LIGAND FREE ENERGY PREDICTED BY IDOCK:   -5.73 KCAL/MOL
REMARK 924 INTRA-LIGAND FREE ENERGY PREDICTED BY IDOCK:    5.04 KCAL/MOL
REMARK 927      BINDING AFFINITY PREDICTED BY RF-SCORE:    0.00 PKD
ROOT
HETATM    1  C   UNL     1     -10.455  15.343  67.588  1.00  0.00    -0.272 C  
HETATM    2  N   UNL     1      -9.336  14.494  67.969  1.00  0.00    -0.196 NA 
HETATM    3  H   UNL     1      -9.545  13.992  68.831  1.00  0.00     0.000 HD 
ENDROOT
BRANCH   2   4
HETATM    4  C   UNL     1      -8.913  13.559  66.916  1.00  0.00    -0.209 C  
BRANCH   4   5
HETATM    5  C   UNL     1      -8.934  12.054  67.296  1.00  0.00    -0.180 C  
HETATM    6  C   UNL     1      -8.009  11.697  68.445  1.00  0.00    -0.140 C  
HETATM    7  C   UNL     1      -8.155  10.208  68.758  1.00  0.00    -0.111 C  
HETATM    8  C   UNL     1      -8.107   9.324  67.494  1.00  0.00    -0.107 C  
HETATM    9  C   UNL     1      -8.896   9.918  66.242  1.00  0.00    -0.143 C  
HETATM   10  N   UNL     1      -8.411   7.923  67.871  1.00  0.00    -0.125 NA 
HETATM   11  O   UNL     1      -8.534  11.292  66.134  1.00  0.00    -0.173 OA 
HETATM   12  H1  UNL     1      -8.378   7.339  67.035  1.00  0.00     0.000 HD 
HETATM   13  H2  UNL     1      -9.297   7.839  68.369  1.00  0.00     0.000 HD 
BRANCH   9  14
HETATM   14  O   UNL     1     -10.330   9.722  66.229  1.00  0.00    -0.235 OA 
BRANCH  14  15
HETATM   15  C   UNL     1     -11.034   9.482  67.520  1.00  0.00    -0.054 C  
HETATM   16  C   UNL     1     -11.040  10.694  68.492  1.00  0.00    -0.263 C  
HETATM   17  N   UNL     1     -11.956  11.745  68.005  1.00  0.00    -0.583 NA 
HETATM   18  C   UNL     1     -11.507  10.306  69.910  1.00  0.00    -0.340 C  
HETATM   19  H2  UNL     1     -12.897  11.384  67.844  1.00  0.00     0.000 HD 
HETATM   20  H1  UNL     1     -11.960  12.541  68.643  1.00  0.00     0.000 HD 
HETATM   21  C   UNL     1     -10.682   9.161  70.517  1.00  0.00    -0.238 C  
HETATM   22  N   UNL     1     -11.026   8.972  71.931  1.00  0.00    -0.367 NA 
HETATM   23  C   UNL     1     -10.887   7.856  69.724  1.00  0.00    -0.202 C  
HETATM   24  C   UNL     1     -10.617   8.145  68.214  1.00  0.00    -0.098 C  
HETATM   25  O   UNL     1     -11.099   7.030  67.428  1.00  0.00    -0.522 OA 
HETATM   26  H1  UNL     1     -10.479   8.212  72.334  1.00  0.00     0.000 HD 
HETATM   27  H2  UNL     1     -12.028   8.828  72.060  1.00  0.00     0.000 HD 
HETATM   28  H   UNL     1     -10.846   6.217  67.850  1.00  0.00     0.000 HD 
BRANCH  23  29
HETATM   29  O   UNL     1      -9.894   6.869  70.128  1.00  0.00    -0.177 OA 
BRANCH  29  30
HETATM   30  C   UNL     1      -9.072   7.034  71.302  1.00  0.00    -0.152 C  
HETATM   31  O   UNL     1      -8.104   8.085  71.235  1.00  0.00    -0.094 OA 
HETATM   32  C   UNL     1      -7.432   8.277  72.490  1.00  0.00    -0.113 C  
HETATM   33  C   UNL     1      -6.619   7.037  72.946  1.00  0.00    -0.064 C  
HETATM   34  C   UNL     1      -7.587   5.828  73.062  1.00  0.00    -0.100 C  
HETATM   35  O   UNL     1      -5.610   6.757  71.962  1.00  0.00    -0.036 OA 
HETATM   36  C   UNL     1      -5.916   7.365  74.272  1.00  0.00    -0.076 C  
HETATM   37  H   UNL     1      -9.049   3.825  72.279  1.00  0.00     0.000 HD 
HETATM   38  H   UNL     1      -5.112   5.999  72.242  1.00  0.00     0.000 HD 
HETATM   39  C   UNL     1      -8.434   5.666  71.752  1.00  0.00    -0.127 C  
HETATM   40  O   UNL     1      -9.433   4.649  72.007  1.00  0.00    -0.134 OA 
BRANCH  34  41
HETATM   41  N   UNL     1      -7.072   4.521  73.573  1.00  0.00    -0.066 NA 
HETATM   42  C   UNL     1      -6.554   3.572  72.604  1.00  0.00    -0.028 C  
HETATM   43  H   UNL     1      -7.084   4.303  74.570  1.00  0.00     0.000 HD 
ENDBRANCH  34  41
ENDBRANCH  29  30
ENDBRANCH  23  29
ENDBRANCH  14  15
ENDBRANCH   9  14
ENDBRANCH   4   5
ENDBRANCH   2   4
TORSDOF 7
ENDMDL
MODEL      326
REMARK 921   NORMALIZED FREE ENERGY PREDICTED BY IDOCK:    0.74 KCAL/MOL
REMARK 922        TOTAL FREE ENERGY PREDICTED BY IDOCK:   -0.67 KCAL/MOL
REMARK 923 INTER-LIGAND FREE ENERGY PREDICTED BY IDOCK:   -5.46 KCAL/MOL
REMARK 924 INTRA-LIGAND FREE ENERGY PREDICTED BY IDOCK:    4.78 KCAL/MOL
REMARK 927      BINDING AFFINITY PREDICTED BY RF-SCORE:    0.00 PKD
ROOT
HETATM    1  C   UNL     1     -11.174  14.907  66.393  1.00  0.00    -0.331 C  
HETATM    2  N   UNL     1      -9.919  14.352  66.877  1.00  0.00    -0.256 NA 
HETATM    3  H   UNL     1      -9.973  14.162  67.878  1.00  0.00     0.000 HD 
ENDROOT
BRANCH   2   4
HETATM    4  C   UNL     1      -9.477  13.154  66.147  1.00  0.00    -0.145 C  
BRANCH   4   5
HETATM    5  C   UNL     1      -9.307  11.866  66.997  1.00  0.00    -0.188 C  
HETATM    6  C   UNL     1      -8.464  12.059  68.245  1.00  0.00    -0.167 C  
HETATM    7  C   UNL     1      -8.412  10.743  69.020  1.00  0.00    -0.137 C  
HETATM    8  C   UNL     1      -8.094   9.531  68.118  1.00  0.00    -0.102 C  
HETATM    9  C   UNL     1      -8.829   9.551  66.702  1.00  0.00    -0.135 C  
HETATM   10  N   UNL     1      -8.218   8.288  68.916  1.00  0.00    -0.115 NA 
HETATM   11  O   UNL     1      -8.673  10.863  66.169  1.00  0.00    -0.172 OA 
HETATM   12  H1  UNL     1      -8.008   7.488  68.320  1.00  0.00     0.000 HD 
HETATM   13  H2  UNL     1      -9.128   8.206  69.369  1.00  0.00     0.000 HD 
BRANCH   9  14
HETATM   14  O   UNL     1     -10.206   9.106  66.682  1.00  0.00    -0.263 OA 
BRANCH  14  15
HETATM   15  C   UNL     1     -10.879   8.792  67.973  1.00  0.00     0.008 C  
HETATM   16  C   UNL     1     -11.035  10.001  68.936  1.00  0.00    -0.207 C  
HETATM   17  N   UNL     1     -12.072  10.929  68.439  1.00  0.00    -0.818 NA 
HETATM   18  C   UNL     1     -11.455   9.569  70.357  1.00  0.00    -0.297 C  
HETATM   19  H2  UNL     1     -12.961  10.454  68.280  1.00  0.00     0.000 HD 
HETATM   20  H1  UNL     1     -12.175  11.722  69.071  1.00  0.00     0.000 HD 
HETATM   21  C   UNL     1     -10.498   8.538  70.974  1.00  0.00    -0.212 C  
HETATM   22  N   UNL     1     -10.820   8.319  72.388  1.00  0.00    -0.330 NA 
HETATM   23  C   UNL     1     -10.540   7.212  70.190  1.00  0.00    -0.230 C  
HETATM   24  C   UNL     1     -10.303   7.521  68.679  1.00  0.00    -0.200 C  
HETATM   25  O   UNL     1     -10.644   6.350  67.900  1.00  0.00    -0.197 OA 
HETATM   26  H1  UNL     1     -10.185   7.635  72.798  1.00  0.00     0.000 HD 
HETATM   27  H2  UNL     1     -11.797   8.055  72.517  1.00  0.00     0.000 HD 
HETATM   28  H   UNL     1     -10.294   5.577  68.328  1.00  0.00     0.000 HD 
BRANCH  23  29
HETATM   29  O   UNL     1      -9.435   6.357  70.604  1.00  0.00    -0.164 OA 
BRANCH  29  30
HETATM   30  C   UNL     1      -8.926   5.294  69.772  1.00  0.00    -0.111 C  
HETATM   31  O   UNL     1      -9.801   4.176  69.597  1.00  0.00    -0.217 OA 
HETATM   32  C   UNL     1      -9.284   3.234  68.643  1.00  0.00    -0.172 C  
HETATM   33  C   UNL     1      -7.936   2.600  69.076  1.00  0.00    -0.052 C  
HETATM   34  C   UNL     1      -6.901   3.739  69.286  1.00  0.00    -0.045 C  
HETATM   35  O   UNL     1      -8.133   1.891  70.310  1.00  0.00    -0.042 OA 
HETATM   36  C   UNL     1      -7.498   1.588  68.007  1.00  0.00    -0.046 C  
HETATM   37  H   UNL     1      -5.673   5.691  70.488  1.00  0.00     0.000 HD 
HETATM   38  H   UNL     1      -7.308   1.503  70.575  1.00  0.00     0.000 HD 
HETATM   39  C   UNL     1      -7.483   4.854  70.222  1.00  0.00    -0.058 C  
HETATM   40  O   UNL     1      -6.544   5.957  70.216  1.00  0.00    -0.041 OA 
BRANCH  34  41
HETATM   41  N   UNL     1      -5.486   3.393  69.623  1.00  0.00    -0.015 NA 
HETATM   42  C   UNL     1      -5.150   3.202  71.023  1.00  0.00     0.000 C  
HETATM   43  H   UNL     1      -4.780   3.294  68.893  1.00  0.00     0.000 HD 
ENDBRANCH  34  41
ENDBRANCH  29  30
ENDBRANCH  23  29
ENDBRANCH  14  15
ENDBRANCH   9  14
ENDBRANCH   4   5
ENDBRANCH   2   4
TORSDOF 7
ENDMDL
MODEL      327
REMARK 921   NORMALIZED FREE ENERGY PREDICTED BY IDOCK:    0.83 KCAL/MOL
REMARK 922        TOTAL FREE ENERGY PREDICTED BY IDOCK:   -0.54 KCAL/MOL
REMARK 923 INTER-LIGAND FREE ENERGY PREDICTED BY IDOCK:   -4.87 KCAL/MOL
REMARK 924 INTRA-LIGAND FREE ENERGY PREDICTED BY IDOCK:    4.34 KCAL/MOL
REMARK 927      BINDING AFFINITY PREDICTED BY RF-SCORE:    0.00 PKD
ROOT
HETATM    1  C   UNL     1      -9.655   3.807  69.546  1.00  0.00    -0.160 C  
HETATM    2  N   UNL     1      -8.309   4.002  70.063  1.00  0.00    -0.057 NA 
HETATM    3  H   UNL     1      -8.004   3.181  70.585  1.00  0.00     0.000 HD 
ENDROOT
BRANCH   2   4
HETATM    4  C   UNL     1      -7.321   4.358  69.034  1.00  0.00    -0.055 C  
BRANCH   4   5
HETATM    5  C   UNL     1      -7.323   5.842  68.577  1.00  0.00    -0.084 C  
HETATM    6  C   UNL     1      -7.430   6.022  67.074  1.00  0.00    -0.084 C  
HETATM    7  C   UNL     1      -7.473   7.516  66.753  1.00  0.00    -0.093 C  
HETATM    8  C   UNL     1      -6.385   8.319  67.498  1.00  0.00    -0.057 C  
HETATM    9  C   UNL     1      -6.156   7.873  69.012  1.00  0.00    -0.039 C  
HETATM   10  N   UNL     1      -6.596   9.765  67.253  1.00  0.00    -0.069 NA 
HETATM   11  O   UNL     1      -6.088   6.450  69.023  1.00  0.00    -0.026 OA 
HETATM   12  H1  UNL     1      -5.877  10.294  67.745  1.00  0.00     0.000 HD 
HETATM   13  H2  UNL     1      -7.539  10.066  67.501  1.00  0.00     0.000 HD 
BRANCH   9  14
HETATM   14  O   UNL     1      -7.093   8.389  69.986  1.00  0.00    -0.045 OA 
BRANCH  14  15
HETATM   15  C   UNL     1      -8.254   9.192  69.511  1.00  0.00    -0.120 C  
HETATM   16  C   UNL     1      -9.298   8.399  68.679  1.00  0.00    -0.143 C  
HETATM   17  N   UNL     1     -10.077   7.495  69.549  1.00  0.00    -0.185 NA 
HETATM   18  C   UNL     1     -10.306   9.324  67.966  1.00  0.00    -0.270 C  
HETATM   19  H2  UNL     1     -10.512   7.996  70.323  1.00  0.00     0.000 HD 
HETATM   20  H1  UNL     1     -10.762   6.974  69.003  1.00  0.00     0.000 HD 
HETATM   21  C   UNL     1      -9.625  10.374  67.075  1.00  0.00    -0.166 C  
HETATM   22  N   UNL     1     -10.620  11.086  66.267  1.00  0.00    -0.254 NA 
HETATM   23  C   UNL     1      -8.800  11.361  67.923  1.00  0.00    -0.149 C  
HETATM   24  C   UNL     1      -7.840  10.544  68.843  1.00  0.00    -0.124 C  
HETATM   25  O   UNL     1      -7.290  11.424  69.851  1.00  0.00    -0.335 OA 
HETATM   26  H1  UNL     1     -10.169  11.783  65.675  1.00  0.00     0.000 HD 
HETATM   27  H2  UNL     1     -11.354  11.497  66.844  1.00  0.00     0.000 HD 
HETATM   28  H   UNL     1      -7.038  12.246  69.445  1.00  0.00     0.000 HD 
BRANCH  23  29
HETATM   29  O   UNL     1      -7.942  12.161  67.057  1.00  0.00    -0.168 OA 
BRANCH  29  30
HETATM   30  C   UNL     1      -7.787  13.585  67.224  1.00  0.00    -0.091 C  
HETATM   31  O   UNL     1      -6.463  14.031  67.528  1.00  0.00    -0.254 OA 
HETATM   32  C   UNL     1      -6.366  15.464  67.532  1.00  0.00    -0.118 C  
HETATM   33  C   UNL     1      -7.253  16.135  68.614  1.00  0.00    -0.160 C  
HETATM   34  C   UNL     1      -8.730  15.721  68.366  1.00  0.00    -0.177 C  
HETATM   35  O   UNL     1      -6.831  15.677  69.908  1.00  0.00    -0.163 OA 
HETATM   36  C   UNL     1      -7.043  17.656  68.553  1.00  0.00    -0.239 C  
HETATM   37  H   UNL     1     -10.856  14.226  68.419  1.00  0.00     0.000 HD 
HETATM   38  H   UNL     1      -7.374  16.089  70.570  1.00  0.00     0.000 HD 
HETATM   39  C   UNL     1      -8.855  14.165  68.227  1.00  0.00    -0.187 C  
HETATM   40  O   UNL     1     -10.212  13.876  67.814  1.00  0.00    -0.232 OA 
BRANCH  34  41
HETATM   41  N   UNL     1      -9.809  16.306  69.220  1.00  0.00    -0.259 NA 
HETATM   42  C   UNL     1     -10.853  17.070  68.561  1.00  0.00    -0.310 C  
HETATM   43  H   UNL     1      -9.811  16.172  70.231  1.00  0.00     0.000 HD 
ENDBRANCH  34  41
ENDBRANCH  29  30
ENDBRANCH  23  29
ENDBRANCH  14  15
ENDBRANCH   9  14
ENDBRANCH   4   5
ENDBRANCH   2   4
TORSDOF 7
ENDMDL
MODEL      328
REMARK 921   NORMALIZED FREE ENERGY PREDICTED BY IDOCK:    1.04 KCAL/MOL
REMARK 922        TOTAL FREE ENERGY PREDICTED BY IDOCK:   -0.24 KCAL/MOL
REMARK 923 INTER-LIGAND FREE ENERGY PREDICTED BY IDOCK:   -4.41 KCAL/MOL
REMARK 924 INTRA-LIGAND FREE ENERGY PREDICTED BY IDOCK:    4.18 KCAL/MOL
REMARK 927      BINDING AFFINITY PREDICTED BY RF-SCORE:    0.00 PKD
ROOT
HETATM    1  C   UNL     1      -6.123  11.023  64.867  1.00  0.00     0.427 C  
HETATM    2  N   UNL     1      -5.915   9.741  65.523  1.00  0.00    -0.065 NA 
HETATM    3  H   UNL     1      -5.291   9.152  64.970  1.00  0.00     0.000 HD 
ENDROOT
BRANCH   2   4
HETATM    4  C   UNL     1      -5.429   9.852  66.907  1.00  0.00    -0.045 C  
BRANCH   4   5
HETATM    5  C   UNL     1      -6.478   9.575  68.018  1.00  0.00    -0.061 C  
HETATM    6  C   UNL     1      -5.902   9.582  69.422  1.00  0.00    -0.034 C  
HETATM    7  C   UNL     1      -7.032   9.350  70.425  1.00  0.00    -0.100 C  
HETATM    8  C   UNL     1      -7.949   8.173  70.030  1.00  0.00    -0.105 C  
HETATM    9  C   UNL     1      -8.287   8.093  68.473  1.00  0.00    -0.126 C  
HETATM   10  N   UNL     1      -9.098   8.119  70.965  1.00  0.00    -0.147 NA 
HETATM   11  O   UNL     1      -7.061   8.274  67.770  1.00  0.00    -0.079 OA 
HETATM   12  H1  UNL     1      -9.704   7.342  70.704  1.00  0.00     0.000 HD 
HETATM   13  H2  UNL     1      -9.602   9.005  71.012  1.00  0.00     0.000 HD 
BRANCH   9  14
HETATM   14  O   UNL     1      -9.334   8.968  67.993  1.00  0.00    -0.141 OA 
BRANCH  14  15
HETATM   15  C   UNL     1      -9.634  10.213  68.752  1.00  0.00    -0.170 C  
HETATM   16  C   UNL     1     -11.129  10.399  69.132  1.00  0.00    -0.246 C  
HETATM   17  N   UNL     1     -11.512   9.462  70.208  1.00  0.00    -0.375 NA 
HETATM   18  C   UNL     1     -11.433  11.824  69.641  1.00  0.00    -0.341 C  
HETATM   19  H2  UNL     1     -10.901   9.548  71.020  1.00  0.00     0.000 HD 
HETATM   20  H1  UNL     1     -12.493   9.584  70.456  1.00  0.00     0.000 HD 
HETATM   21  C   UNL     1     -11.013  12.915  68.645  1.00  0.00    -0.261 C  
HETATM   22  N   UNL     1     -11.507  14.226  69.080  1.00  0.00    -0.265 NA 
HETATM   23  C   UNL     1      -9.483  12.938  68.467  1.00  0.00    -0.096 C  
HETATM   24  C   UNL     1      -9.002  11.495  68.117  1.00  0.00    -0.172 C  
HETATM   25  O   UNL     1      -7.563  11.431  68.252  1.00  0.00    -0.099 OA 
HETATM   26  H1  UNL     1     -11.228  14.951  68.419  1.00  0.00     0.000 HD 
HETATM   27  H2  UNL     1     -11.210  14.446  70.031  1.00  0.00     0.000 HD 
HETATM   28  H   UNL     1      -7.178  12.210  67.865  1.00  0.00     0.000 HD 
BRANCH  23  29
HETATM   29  O   UNL     1      -9.128  13.768  67.323  1.00  0.00    -0.211 OA 
BRANCH  29  30
HETATM   30  C   UNL     1      -9.917  13.799  66.116  1.00  0.00    -0.308 C  
HETATM   31  O   UNL     1     -11.077  14.633  66.158  1.00  0.00    -0.323 OA 
HETATM   32  C   UNL     1     -11.721  14.723  64.877  1.00  0.00    -0.390 C  
HETATM   33  C   UNL     1     -12.249  13.359  64.359  1.00  0.00    -0.389 C  
HETATM   34  C   UNL     1     -11.054  12.371  64.265  1.00  0.00    -0.349 C  
HETATM   35  O   UNL     1     -13.222  12.856  65.289  1.00  0.00    -0.609 OA 
HETATM   36  C   UNL     1     -12.948  13.578  63.008  1.00  0.00     1.353 C  
HETATM   37  H   UNL     1      -9.255  10.679  65.076  1.00  0.00     0.000 HD 
HETATM   38  H   UNL     1     -13.545  12.021  64.971  1.00  0.00     0.000 HD 
HETATM   39  C   UNL     1     -10.248  12.345  65.609  1.00  0.00    -0.262 C  
HETATM   40  O   UNL     1      -9.055  11.556  65.382  1.00  0.00    -0.167 OA 
BRANCH  34  41
HETATM   41  N   UNL     1     -11.274  11.003  63.705  1.00  0.00    -0.424 NA 
HETATM   42  C   UNL     1     -10.155  10.353  63.046  1.00  0.00     0.167 C  
HETATM   43  H   UNL     1     -12.181  10.542  63.783  1.00  0.00     0.000 HD 
ENDBRANCH  34  41
ENDBRANCH  29  30
ENDBRANCH  23  29
ENDBRANCH  14  15
ENDBRANCH   9  14
ENDBRANCH   4   5
ENDBRANCH   2   4
TORSDOF 7
ENDMDL
MODEL      329
REMARK 921   NORMALIZED FREE ENERGY PREDICTED BY IDOCK:    1.11 KCAL/MOL
REMARK 922        TOTAL FREE ENERGY PREDICTED BY IDOCK:   -0.14 KCAL/MOL
REMARK 923 INTER-LIGAND FREE ENERGY PREDICTED BY IDOCK:   -5.23 KCAL/MOL
REMARK 924 INTRA-LIGAND FREE ENERGY PREDICTED BY IDOCK:    5.08 KCAL/MOL
REMARK 927      BINDING AFFINITY PREDICTED BY RF-SCORE:    0.00 PKD
ROOT
HETATM    1  C   UNL     1      -8.110   8.115  62.375  1.00  0.00    -0.167 C  
HETATM    2  N   UNL     1      -7.368   6.866  62.467  1.00  0.00    -0.064 NA 
HETATM    3  H   UNL     1      -6.554   6.977  63.070  1.00  0.00     0.000 HD 
ENDROOT
BRANCH   2   4
HETATM    4  C   UNL     1      -8.182   5.721  62.901  1.00  0.00    -0.089 C  
BRANCH   4   5
HETATM    5  C   UNL     1      -7.846   5.143  64.303  1.00  0.00    -0.094 C  
HETATM    6  C   UNL     1      -7.290   6.169  65.273  1.00  0.00    -0.073 C  
HETATM    7  C   UNL     1      -7.048   5.497  66.625  1.00  0.00    -0.069 C  
HETATM    8  C   UNL     1      -6.304   4.150  66.497  1.00  0.00    -0.036 C  
HETATM    9  C   UNL     1      -6.780   3.246  65.272  1.00  0.00    -0.041 C  
HETATM   10  N   UNL     1      -6.251   3.498  67.826  1.00  0.00    -0.032 NA 
HETATM   11  O   UNL     1      -6.862   4.096  64.132  1.00  0.00    -0.043 OA 
HETATM   12  H1  UNL     1      -5.759   2.609  67.742  1.00  0.00     0.000 HD 
HETATM   13  H2  UNL     1      -7.175   3.392  68.244  1.00  0.00     0.000 HD 
BRANCH   9  14
HETATM   14  O   UNL     1      -7.986   2.472  65.472  1.00  0.00    -0.080 OA 
BRANCH  14  15
HETATM   15  C   UNL     1      -9.186   3.144  66.042  1.00  0.00    -0.134 C  
HETATM   16  C   UNL     1      -9.963   4.045  65.044  1.00  0.00    -0.201 C  
HETATM   17  N   UNL     1     -10.696   3.220  64.062  1.00  0.00    -0.444 NA 
HETATM   18  C   UNL     1     -11.001   4.942  65.749  1.00  0.00    -0.006 C  
HETATM   19  H2  UNL     1     -11.309   2.544  64.518  1.00  0.00     0.000 HD 
HETATM   20  H1  UNL     1     -11.206   3.811  63.407  1.00  0.00     0.000 HD 
HETATM   21  C   UNL     1     -10.385   5.810  66.857  1.00  0.00    -0.251 C  
HETATM   22  N   UNL     1     -11.364   6.786  67.349  1.00  0.00    -0.739 NA 
HETATM   23  C   UNL     1      -9.856   4.936  68.009  1.00  0.00    -0.139 C  
HETATM   24  C   UNL     1      -8.910   3.847  67.411  1.00  0.00    -0.122 C  
HETATM   25  O   UNL     1      -8.654   2.841  68.419  1.00  0.00    -0.069 OA 
HETATM   26  H1  UNL     1     -10.955   7.362  68.085  1.00  0.00     0.000 HD 
HETATM   27  H2  UNL     1     -12.226   6.336  67.656  1.00  0.00     0.000 HD 
HETATM   28  H   UNL     1      -8.486   3.268  69.252  1.00  0.00     0.000 HD 
BRANCH  23  29
HETATM   29  O   UNL     1      -9.030   5.739  68.901  1.00  0.00    -0.113 OA 
BRANCH  29  30
HETATM   30  C   UNL     1      -9.208   5.735  70.333  1.00  0.00    -0.153 C  
HETATM   31  O   UNL     1      -9.697   4.512  70.890  1.00  0.00    -0.166 OA 
HETATM   32  C   UNL     1      -9.705   4.543  72.326  1.00  0.00    -0.163 C  
HETATM   33  C   UNL     1     -10.643   5.631  72.911  1.00  0.00    -0.232 C  
HETATM   34  C   UNL     1     -10.189   7.015  72.371  1.00  0.00    -0.188 C  
HETATM   35  O   UNL     1     -11.988   5.362  72.484  1.00  0.00    -0.228 OA 
HETATM   36  C   UNL     1     -10.603   5.549  74.445  1.00  0.00    -0.126 C  
HETATM   37  H   UNL     1      -9.944   8.988  70.695  1.00  0.00     0.000 HD 
HETATM   38  H   UNL     1     -12.562   6.028  72.842  1.00  0.00     0.000 HD 
HETATM   39  C   UNL     1     -10.043   6.982  70.811  1.00  0.00    -0.194 C  
HETATM   40  O   UNL     1      -9.441   8.236  70.407  1.00  0.00    -0.164 OA 
BRANCH  34  41
HETATM   41  N   UNL     1     -10.874   8.253  72.854  1.00  0.00    -0.245 NA 
HETATM   42  C   UNL     1     -12.215   8.519  72.363  1.00  0.00    -0.366 C  
HETATM   43  H   UNL     1     -10.415   8.889  73.506  1.00  0.00     0.000 HD 
ENDBRANCH  34  41
ENDBRANCH  29  30
ENDBRANCH  23  29
ENDBRANCH  14  15
ENDBRANCH   9  14
ENDBRANCH   4   5
ENDBRANCH   2   4
TORSDOF 7
ENDMDL
MODEL      330
REMARK 921   NORMALIZED FREE ENERGY PREDICTED BY IDOCK:    1.16 KCAL/MOL
REMARK 922        TOTAL FREE ENERGY PREDICTED BY IDOCK:   -0.08 KCAL/MOL
REMARK 923 INTER-LIGAND FREE ENERGY PREDICTED BY IDOCK:   -5.40 KCAL/MOL
REMARK 924 INTRA-LIGAND FREE ENERGY PREDICTED BY IDOCK:    5.32 KCAL/MOL
REMARK 927      BINDING AFFINITY PREDICTED BY RF-SCORE:    0.00 PKD
ROOT
HETATM    1  C   UNL     1     -12.823  14.389  65.540  1.00  0.00    -0.225 C  
HETATM    2  N   UNL     1     -11.372  14.395  65.433  1.00  0.00    -0.328 NA 
HETATM    3  H   UNL     1     -10.945  14.488  66.355  1.00  0.00     0.000 HD 
ENDROOT
BRANCH   2   4
HETATM    4  C   UNL     1     -10.821  13.231  64.724  1.00  0.00    -0.360 C  
BRANCH   4   5
HETATM    5  C   UNL     1     -10.144  12.153  65.612  1.00  0.00    -0.248 C  
HETATM    6  C   UNL     1      -9.070  12.702  66.534  1.00  0.00    -0.163 C  
HETATM    7  C   UNL     1      -8.517  11.562  67.389  1.00  0.00    -0.147 C  
HETATM    8  C   UNL     1      -8.179  10.304  66.561  1.00  0.00    -0.127 C  
HETATM    9  C   UNL     1      -9.245   9.955  65.426  1.00  0.00    -0.211 C  
HETATM   10  N   UNL     1      -7.801   9.206  67.481  1.00  0.00    -0.099 NA 
HETATM   11  O   UNL     1      -9.539  11.169  64.742  1.00  0.00    -0.224 OA 
HETATM   12  H1  UNL     1      -7.578   8.375  66.934  1.00  0.00     0.000 HD 
HETATM   13  H2  UNL     1      -8.516   9.026  68.186  1.00  0.00     0.000 HD 
BRANCH   9  14
HETATM   14  O   UNL     1     -10.439   9.258  65.854  1.00  0.00    -0.029 OA 
BRANCH  14  15
HETATM   15  C   UNL     1     -10.579   8.887  67.289  1.00  0.00    -0.234 C  
HETATM   16  C   UNL     1     -10.695  10.090  68.264  1.00  0.00    -0.240 C  
HETATM   17  N   UNL     1     -12.019  10.734  68.138  1.00  0.00    -0.801 NA 
HETATM   18  C   UNL     1     -10.535   9.667  69.740  1.00  0.00    -0.263 C  
HETATM   19  H2  UNL     1     -12.779  10.067  68.268  1.00  0.00     0.000 HD 
HETATM   20  H1  UNL     1     -12.095  11.524  68.778  1.00  0.00     0.000 HD 
HETATM   21  C   UNL     1      -9.223   8.912  70.004  1.00  0.00    -0.174 C  
HETATM   22  N   UNL     1      -9.024   8.718  71.444  1.00  0.00    -0.220 NA 
HETATM   23  C   UNL     1      -9.207   7.563  69.261  1.00  0.00    -0.144 C  
HETATM   24  C   UNL     1      -9.537   7.820  67.758  1.00  0.00    -0.146 C  
HETATM   25  O   UNL     1      -9.829   6.556  67.117  1.00  0.00    -0.133 OA 
HETATM   26  H1  UNL     1      -8.153   8.216  71.620  1.00  0.00     0.000 HD 
HETATM   27  H2  UNL     1      -9.822   8.254  71.878  1.00  0.00     0.000 HD 
HETATM   28  H   UNL     1      -9.195   5.907  67.401  1.00  0.00     0.000 HD 
BRANCH  23  29
HETATM   29  O   UNL     1      -7.863   6.999  69.287  1.00  0.00    -0.109 OA 
BRANCH  29  30
HETATM   30  C   UNL     1      -7.579   5.701  69.849  1.00  0.00    -0.075 C  
HETATM   31  O   UNL     1      -6.717   4.867  69.071  1.00  0.00    -0.046 OA 
HETATM   32  C   UNL     1      -6.368   3.659  69.765  1.00  0.00    -0.028 C  
HETATM   33  C   UNL     1      -7.590   2.757  70.079  1.00  0.00    -0.043 C  
HETATM   34  C   UNL     1      -8.596   3.572  70.938  1.00  0.00    -0.071 C  
HETATM   35  O   UNL     1      -8.211   2.372  68.841  1.00  0.00    -0.051 OA 
HETATM   36  C   UNL     1      -7.099   1.484  70.784  1.00  0.00    -0.032 C  
HETATM   37  H   UNL     1     -10.485   5.277  71.471  1.00  0.00     0.000 HD 
HETATM   38  H   UNL     1      -8.959   1.820  69.034  1.00  0.00     0.000 HD 
HETATM   39  C   UNL     1      -8.901   4.957  70.273  1.00  0.00    -0.103 C  
HETATM   40  O   UNL     1      -9.688   5.725  71.216  1.00  0.00    -0.166 OA 
BRANCH  34  41
HETATM   41  N   UNL     1      -9.829   2.903  71.456  1.00  0.00    -0.157 NA 
HETATM   42  C   UNL     1     -10.544   3.549  72.542  1.00  0.00    -0.001 C  
HETATM   43  H   UNL     1     -10.157   2.023  71.058  1.00  0.00     0.000 HD 
ENDBRANCH  34  41
ENDBRANCH  29  30
ENDBRANCH  23  29
ENDBRANCH  14  15
ENDBRANCH   9  14
ENDBRANCH   4   5
ENDBRANCH   2   4
TORSDOF 7
ENDMDL
MODEL      331
REMARK 921   NORMALIZED FREE ENERGY PREDICTED BY IDOCK:    1.22 KCAL/MOL
REMARK 922        TOTAL FREE ENERGY PREDICTED BY IDOCK:    0.02 KCAL/MOL
REMARK 923 INTER-LIGAND FREE ENERGY PREDICTED BY IDOCK:   -5.33 KCAL/MOL
REMARK 924 INTRA-LIGAND FREE ENERGY PREDICTED BY IDOCK:    5.35 KCAL/MOL
REMARK 927      BINDING AFFINITY PREDICTED BY RF-SCORE:    0.00 PKD
ROOT
HETATM    1  C   UNL     1      -7.806   7.283  62.956  1.00  0.00    -0.123 C  
HETATM    2  N   UNL     1      -6.851   6.316  63.474  1.00  0.00    -0.043 NA 
HETATM    3  H   UNL     1      -6.242   6.750  64.167  1.00  0.00     0.000 HD 
ENDROOT
BRANCH   2   4
HETATM    4  C   UNL     1      -7.471   5.099  64.019  1.00  0.00    -0.062 C  
BRANCH   4   5
HETATM    5  C   UNL     1      -7.390   4.928  65.560  1.00  0.00    -0.073 C  
HETATM    6  C   UNL     1      -6.858   6.150  66.287  1.00  0.00    -0.061 C  
HETATM    7  C   UNL     1      -6.873   5.881  67.791  1.00  0.00    -0.060 C  
HETATM    8  C   UNL     1      -6.272   4.507  68.158  1.00  0.00    -0.036 C  
HETATM    9  C   UNL     1      -6.678   3.323  67.170  1.00  0.00    -0.045 C  
HETATM   10  N   UNL     1      -6.468   4.264  69.607  1.00  0.00    -0.032 NA 
HETATM   11  O   UNL     1      -6.514   3.812  65.842  1.00  0.00    -0.032 OA 
HETATM   12  H1  UNL     1      -6.070   3.357  69.849  1.00  0.00     0.000 HD 
HETATM   13  H2  UNL     1      -7.446   4.346  69.885  1.00  0.00     0.000 HD 
BRANCH   9  14
HETATM   14  O   UNL     1      -7.978   2.723  67.381  1.00  0.00    -0.072 OA 
BRANCH  14  15
HETATM   15  C   UNL     1      -9.182   3.600  67.389  1.00  0.00    -0.189 C  
HETATM   16  C   UNL     1      -9.580   4.172  66.001  1.00  0.00    -0.194 C  
HETATM   17  N   UNL     1     -10.162   3.113  65.152  1.00  0.00    -0.340 NA 
HETATM   18  C   UNL     1     -10.630   5.297  66.109  1.00  0.00    -0.251 C  
HETATM   19  H2  UNL     1     -10.947   2.648  65.609  1.00  0.00     0.000 HD 
HETATM   20  H1  UNL     1     -10.424   3.488  64.240  1.00  0.00     0.000 HD 
HETATM   21  C   UNL     1     -10.185   6.442  67.031  1.00  0.00    -0.205 C  
HETATM   22  N   UNL     1     -11.118   7.570  66.937  1.00  0.00    -0.468 NA 
HETATM   23  C   UNL     1     -10.057   5.957  68.487  1.00  0.00    -0.167 C  
HETATM   24  C   UNL     1      -9.147   4.690  68.511  1.00  0.00    -0.120 C  
HETATM   25  O   UNL     1      -9.266   4.047  69.801  1.00  0.00    -0.109 OA 
HETATM   26  H1  UNL     1     -10.823   8.331  67.548  1.00  0.00     0.000 HD 
HETATM   27  H2  UNL     1     -12.079   7.284  67.124  1.00  0.00     0.000 HD 
HETATM   28  H   UNL     1      -9.244   4.709  70.483  1.00  0.00     0.000 HD 
BRANCH  23  29
HETATM   29  O   UNL     1      -9.368   6.962  69.286  1.00  0.00    -0.145 OA 
BRANCH  29  30
HETATM   30  C   UNL     1     -10.069   8.016  69.976  1.00  0.00    -0.196 C  
HETATM   31  O   UNL     1     -11.452   7.768  70.241  1.00  0.00    -0.223 OA 
HETATM   32  C   UNL     1     -12.036   8.796  71.056  1.00  0.00    -0.225 C  
HETATM   33  C   UNL     1     -12.022  10.194  70.383  1.00  0.00    -0.267 C  
HETATM   34  C   UNL     1     -10.549  10.569  70.060  1.00  0.00    -0.169 C  
HETATM   35  O   UNL     1     -12.784  10.131  69.167  1.00  0.00    -0.205 OA 
HETATM   36  C   UNL     1     -12.701  11.203  71.322  1.00  0.00    -0.531 C  
HETATM   37  H   UNL     1      -8.295  10.593  68.764  1.00  0.00     0.000 HD 
HETATM   38  H   UNL     1     -12.775  10.987  68.756  1.00  0.00     0.000 HD 
HETATM   39  C   UNL     1      -9.838   9.410  69.281  1.00  0.00    -0.174 C  
HETATM   40  O   UNL     1      -8.434   9.752  69.184  1.00  0.00    -0.124 OA 
BRANCH  34  41
HETATM   41  N   UNL     1     -10.244  11.915  69.485  1.00  0.00    -0.198 NA 
HETATM   42  C   UNL     1     -10.292  12.061  68.041  1.00  0.00    -0.195 C  
HETATM   43  H   UNL     1     -10.010  12.705  70.087  1.00  0.00     0.000 HD 
ENDBRANCH  34  41
ENDBRANCH  29  30
ENDBRANCH  23  29
ENDBRANCH  14  15
ENDBRANCH   9  14
ENDBRANCH   4   5
ENDBRANCH   2   4
TORSDOF 7
ENDMDL
MODEL      332
REMARK 921   NORMALIZED FREE ENERGY PREDICTED BY IDOCK:    1.63 KCAL/MOL
REMARK 922        TOTAL FREE ENERGY PREDICTED BY IDOCK:    0.59 KCAL/MOL
REMARK 923 INTER-LIGAND FREE ENERGY PREDICTED BY IDOCK:   -4.59 KCAL/MOL
REMARK 924 INTRA-LIGAND FREE ENERGY PREDICTED BY IDOCK:    5.18 KCAL/MOL
REMARK 927      BINDING AFFINITY PREDICTED BY RF-SCORE:    0.00 PKD
ROOT
HETATM    1  C   UNL     1      -6.694   7.181  62.812  1.00  0.00    -0.053 C  
HETATM    2  N   UNL     1      -5.795   6.418  63.664  1.00  0.00    -0.022 NA 
HETATM    3  H   UNL     1      -5.086   7.026  64.073  1.00  0.00     0.000 HD 
ENDROOT
BRANCH   2   4
HETATM    4  C   UNL     1      -6.480   5.644  64.710  1.00  0.00    -0.041 C  
BRANCH   4   5
HETATM    5  C   UNL     1      -6.388   6.220  66.149  1.00  0.00    -0.039 C  
HETATM    6  C   UNL     1      -6.018   7.692  66.200  1.00  0.00    -0.038 C  
HETATM    7  C   UNL     1      -6.010   8.153  67.658  1.00  0.00    -0.047 C  
HETATM    8  C   UNL     1      -5.243   7.186  68.586  1.00  0.00    -0.017 C  
HETATM    9  C   UNL     1      -5.491   5.641  68.279  1.00  0.00    -0.008 C  
HETATM   10  N   UNL     1      -5.416   7.624  69.990  1.00  0.00    -0.023 NA 
HETATM   11  O   UNL     1      -5.381   5.472  66.869  1.00  0.00    -0.008 OA 
HETATM   12  H1  UNL     1      -4.910   6.985  70.603  1.00  0.00     0.000 HD 
HETATM   13  H2  UNL     1      -6.399   7.713  70.251  1.00  0.00     0.000 HD 
BRANCH   9  14
HETATM   14  O   UNL     1      -6.706   5.064  68.811  1.00  0.00    -0.047 OA 
BRANCH  14  15
HETATM   15  C   UNL     1      -8.008   5.718  68.503  1.00  0.00    -0.101 C  
HETATM   16  C   UNL     1      -8.507   5.520  67.046  1.00  0.00    -0.110 C  
HETATM   17  N   UNL     1      -8.975   4.133  66.842  1.00  0.00    -0.120 NA 
HETATM   18  C   UNL     1      -9.685   6.453  66.697  1.00  0.00    -0.197 C  
HETATM   19  H2  UNL     1      -9.685   3.869  67.524  1.00  0.00     0.000 HD 
HETATM   20  H1  UNL     1      -9.302   4.003  65.885  1.00  0.00     0.000 HD 
HETATM   21  C   UNL     1      -9.361   7.936  66.935  1.00  0.00    -0.164 C  
HETATM   22  N   UNL     1     -10.428   8.788  66.397  1.00  0.00    -0.266 NA 
HETATM   23  C   UNL     1      -9.140   8.216  68.433  1.00  0.00    -0.136 C  
HETATM   24  C   UNL     1      -8.080   7.207  68.976  1.00  0.00    -0.121 C  
HETATM   25  O   UNL     1      -8.088   7.247  70.422  1.00  0.00    -0.112 OA 
HETATM   26  H1  UNL     1     -10.213   9.772  66.555  1.00  0.00     0.000 HD 
HETATM   27  H2  UNL     1     -11.341   8.534  66.773  1.00  0.00     0.000 HD 
HETATM   28  H   UNL     1      -8.132   8.152  70.709  1.00  0.00     0.000 HD 
BRANCH  23  29
HETATM   29  O   UNL     1      -8.560   9.541  68.610  1.00  0.00    -0.117 OA 
BRANCH  29  30
HETATM   30  C   UNL     1      -9.366  10.713  68.848  1.00  0.00    -0.184 C  
HETATM   31  O   UNL     1     -10.767  10.476  69.012  1.00  0.00    -0.196 OA 
HETATM   32  C   UNL     1     -11.473  11.669  69.389  1.00  0.00    -0.307 C  
HETATM   33  C   UNL     1     -11.398  12.790  68.320  1.00  0.00    -0.296 C  
HETATM   34  C   UNL     1      -9.903  13.135  68.072  1.00  0.00    -0.231 C  
HETATM   35  O   UNL     1     -11.993  12.311  67.104  1.00  0.00    -0.564 OA 
HETATM   36  C   UNL     1     -12.214  13.997  68.809  1.00  0.00    -0.237 C  
HETATM   37  H   UNL     1      -7.500  12.893  67.109  1.00  0.00     0.000 HD 
HETATM   38  H   UNL     1     -11.947  12.998  66.450  1.00  0.00     0.000 HD 
HETATM   39  C   UNL     1      -9.074  11.837  67.783  1.00  0.00    -0.178 C  
HETATM   40  O   UNL     1      -7.676  12.215  67.751  1.00  0.00    -0.119 OA 
BRANCH  34  41
HETATM   41  N   UNL     1      -9.552  14.254  67.145  1.00  0.00    -0.238 NA 
HETATM   42  C   UNL     1      -9.794  14.059  65.726  1.00  0.00    -0.256 C  
HETATM   43  H   UNL     1      -9.157  15.126  67.497  1.00  0.00     0.000 HD 
ENDBRANCH  34  41
ENDBRANCH  29  30
ENDBRANCH  23  29
ENDBRANCH  14  15
ENDBRANCH   9  14
ENDBRANCH   4   5
ENDBRANCH   2   4
TORSDOF 7
ENDMDL
MODEL      333
REMARK 921   NORMALIZED FREE ENERGY PREDICTED BY IDOCK:    1.74 KCAL/MOL
REMARK 922        TOTAL FREE ENERGY PREDICTED BY IDOCK:    0.74 KCAL/MOL
REMARK 923 INTER-LIGAND FREE ENERGY PREDICTED BY IDOCK:   -3.39 KCAL/MOL
REMARK 924 INTRA-LIGAND FREE ENERGY PREDICTED BY IDOCK:    4.13 KCAL/MOL
REMARK 927      BINDING AFFINITY PREDICTED BY RF-SCORE:    0.00 PKD
ROOT
HETATM    1  C   UNL     1      -7.627   9.599  62.811  1.00  0.00    -0.114 C  
HETATM    2  N   UNL     1      -6.561   8.656  63.113  1.00  0.00    -0.090 NA 
HETATM    3  H   UNL     1      -6.215   8.799  64.061  1.00  0.00     0.000 HD 
ENDROOT
BRANCH   2   4
HETATM    4  C   UNL     1      -6.934   7.249  62.905  1.00  0.00    -0.062 C  
BRANCH   4   5
HETATM    5  C   UNL     1      -6.900   6.345  64.166  1.00  0.00    -0.038 C  
HETATM    6  C   UNL     1      -6.812   7.114  65.472  1.00  0.00    -0.052 C  
HETATM    7  C   UNL     1      -6.838   6.124  66.636  1.00  0.00    -0.062 C  
HETATM    8  C   UNL     1      -5.870   4.939  66.434  1.00  0.00    -0.022 C  
HETATM    9  C   UNL     1      -5.834   4.363  64.947  1.00  0.00    -0.018 C  
HETATM   10  N   UNL     1      -6.071   3.957  67.525  1.00  0.00    -0.027 NA 
HETATM   11  O   UNL     1      -5.745   5.480  64.068  1.00  0.00    -0.016 OA 
HETATM   12  H1  UNL     1      -5.432   3.174  67.391  1.00  0.00     0.000 HD 
HETATM   13  H2  UNL     1      -7.043   3.655  67.601  1.00  0.00     0.000 HD 
BRANCH   9  14
HETATM   14  O   UNL     1      -6.899   3.455  64.580  1.00  0.00    -0.045 OA 
BRANCH  14  15
HETATM   15  C   UNL     1      -8.217   3.580  65.261  1.00  0.00    -0.097 C  
HETATM   16  C   UNL     1      -8.990   4.890  64.947  1.00  0.00    -0.138 C  
HETATM   17  N   UNL     1      -9.526   4.858  63.570  1.00  0.00    -0.343 NA 
HETATM   18  C   UNL     1     -10.187   5.107  65.896  1.00  0.00    -0.157 C  
HETATM   19  H2  UNL     1     -10.100   4.031  63.406  1.00  0.00     0.000 HD 
HETATM   20  H1  UNL     1     -10.033   5.718  63.364  1.00  0.00     0.000 HD 
HETATM   21  C   UNL     1      -9.784   5.088  67.378  1.00  0.00    -0.158 C  
HETATM   22  N   UNL     1     -10.909   5.503  68.223  1.00  0.00    -0.089 NA 
HETATM   23  C   UNL     1      -9.273   3.695  67.791  1.00  0.00    -0.184 C  
HETATM   24  C   UNL     1      -8.157   3.259  66.790  1.00  0.00    -0.080 C  
HETATM   25  O   UNL     1      -7.888   1.849  66.970  1.00  0.00    -0.064 OA 
HETATM   26  H1  UNL     1     -10.642   5.490  69.206  1.00  0.00     0.000 HD 
HETATM   27  H2  UNL     1     -11.741   4.938  68.048  1.00  0.00     0.000 HD 
HETATM   28  H   UNL     1      -7.851   1.653  67.899  1.00  0.00     0.000 HD 
BRANCH  23  29
HETATM   29  O   UNL     1      -8.634   3.768  69.098  1.00  0.00    -0.074 OA 
BRANCH  29  30
HETATM   30  C   UNL     1      -8.408   5.019  69.780  1.00  0.00    -0.088 C  
HETATM   31  O   UNL     1      -7.052   5.471  69.806  1.00  0.00    -0.059 OA 
HETATM   32  C   UNL     1      -6.935   6.787  70.371  1.00  0.00    -0.063 C  
HETATM   33  C   UNL     1      -7.390   6.861  71.852  1.00  0.00    -0.087 C  
HETATM   34  C   UNL     1      -8.870   6.395  71.936  1.00  0.00    -0.138 C  
HETATM   35  O   UNL     1      -6.561   5.987  72.635  1.00  0.00    -0.065 OA 
HETATM   36  C   UNL     1      -7.188   8.296  72.362  1.00  0.00    -0.127 C  
HETATM   37  H   UNL     1     -10.877   4.745  72.035  1.00  0.00     0.000 HD 
HETATM   38  H   UNL     1      -6.840   6.032  73.542  1.00  0.00     0.000 HD 
HETATM   39  C   UNL     1      -9.061   5.017  71.214  1.00  0.00    -0.143 C  
HETATM   40  O   UNL     1     -10.483   4.746  71.171  1.00  0.00    -0.163 OA 
BRANCH  34  41
HETATM   41  N   UNL     1      -9.585   6.455  73.248  1.00  0.00    -0.146 NA 
HETATM   42  C   UNL     1     -10.642   7.439  73.398  1.00  0.00    -0.377 C  
HETATM   43  H   UNL     1      -9.338   5.826  74.012  1.00  0.00     0.000 HD 
ENDBRANCH  34  41
ENDBRANCH  29  30
ENDBRANCH  23  29
ENDBRANCH  14  15
ENDBRANCH   9  14
ENDBRANCH   4   5
ENDBRANCH   2   4
TORSDOF 7
ENDMDL
MODEL      334
REMARK 921   NORMALIZED FREE ENERGY PREDICTED BY IDOCK:    2.32 KCAL/MOL
REMARK 922        TOTAL FREE ENERGY PREDICTED BY IDOCK:    1.56 KCAL/MOL
REMARK 923 INTER-LIGAND FREE ENERGY PREDICTED BY IDOCK:   -3.77 KCAL/MOL
REMARK 924 INTRA-LIGAND FREE ENERGY PREDICTED BY IDOCK:    5.33 KCAL/MOL
REMARK 927      BINDING AFFINITY PREDICTED BY RF-SCORE:    0.00 PKD
ROOT
HETATM    1  C   UNL     1      -8.018  10.099  64.621  1.00  0.00    -0.145 C  
HETATM    2  N   UNL     1      -6.976   9.084  64.656  1.00  0.00    -0.084 NA 
HETATM    3  H   UNL     1      -6.419   9.171  65.506  1.00  0.00     0.000 HD 
ENDROOT
BRANCH   2   4
HETATM    4  C   UNL     1      -7.477   7.710  64.504  1.00  0.00    -0.094 C  
BRANCH   4   5
HETATM    5  C   UNL     1      -7.313   6.787  65.742  1.00  0.00    -0.075 C  
HETATM    6  C   UNL     1      -7.211   7.537  67.058  1.00  0.00    -0.085 C  
HETATM    7  C   UNL     1      -7.105   6.526  68.200  1.00  0.00    -0.083 C  
HETATM    8  C   UNL     1      -6.068   5.418  67.922  1.00  0.00    -0.022 C  
HETATM    9  C   UNL     1      -6.069   4.873  66.423  1.00  0.00    -0.031 C  
HETATM   10  N   UNL     1      -6.142   4.404  69.000  1.00  0.00    -0.029 NA 
HETATM   11  O   UNL     1      -6.106   6.010  65.565  1.00  0.00    -0.028 OA 
HETATM   12  H1  UNL     1      -5.456   3.672  68.817  1.00  0.00     0.000 HD 
HETATM   13  H2  UNL     1      -7.084   4.032  69.119  1.00  0.00     0.000 HD 
BRANCH   9  14
HETATM   14  O   UNL     1      -7.085   3.898  66.091  1.00  0.00    -0.061 OA 
BRANCH  14  15
HETATM   15  C   UNL     1      -8.474   4.111  66.583  1.00  0.00    -0.104 C  
HETATM   16  C   UNL     1      -9.241   5.268  65.886  1.00  0.00    -0.159 C  
HETATM   17  N   UNL     1      -9.618   4.885  64.510  1.00  0.00    -0.357 NA 
HETATM   18  C   UNL     1     -10.542   5.640  66.627  1.00  0.00    -0.361 C  
HETATM   19  H2  UNL     1     -10.148   4.014  64.490  1.00  0.00     0.000 HD 
HETATM   20  H1  UNL     1     -10.121   5.644  64.052  1.00  0.00     0.000 HD 
HETATM   21  C   UNL     1     -10.308   5.991  68.104  1.00  0.00    -0.205 C  
HETATM   22  N   UNL     1     -11.532   6.533  68.704  1.00  0.00    -0.562 NA 
HETATM   23  C   UNL     1      -9.811   4.763  68.889  1.00  0.00    -0.160 C  
HETATM   24  C   UNL     1      -8.578   4.162  68.143  1.00  0.00    -0.096 C  
HETATM   25  O   UNL     1      -8.294   2.850  68.682  1.00  0.00    -0.062 OA 
HETATM   26  H1  UNL     1     -11.377   6.767  69.684  1.00  0.00     0.000 HD 
HETATM   27  H2  UNL     1     -12.324   5.901  68.585  1.00  0.00     0.000 HD 
HETATM   28  H   UNL     1      -8.357   2.881  69.629  1.00  0.00     0.000 HD 
BRANCH  23  29
HETATM   29  O   UNL     1      -9.325   5.175  70.199  1.00  0.00    -0.140 OA 
BRANCH  29  30
HETATM   30  C   UNL     1      -8.665   4.264  71.102  1.00  0.00    -0.101 C  
HETATM   31  O   UNL     1      -9.487   3.225  71.641  1.00  0.00    -0.126 OA 
HETATM   32  C   UNL     1      -8.725   2.281  72.409  1.00  0.00    -0.066 C  
HETATM   33  C   UNL     1      -8.041   2.910  73.651  1.00  0.00    -0.072 C  
HETATM   34  C   UNL     1      -7.107   4.055  73.172  1.00  0.00    -0.063 C  
HETATM   35  O   UNL     1      -9.055   3.442  74.518  1.00  0.00    -0.085 OA 
HETATM   36  C   UNL     1      -7.289   1.809  74.414  1.00  0.00    -0.029 C  
HETATM   37  H   UNL     1      -6.424   6.426  72.350  1.00  0.00     0.000 HD 
HETATM   38  H   UNL     1      -8.636   3.827  75.278  1.00  0.00     0.000 HD 
HETATM   39  C   UNL     1      -7.875   5.038  72.223  1.00  0.00    -0.100 C  
HETATM   40  O   UNL     1      -6.900   5.958  71.674  1.00  0.00    -0.063 OA 
BRANCH  34  41
HETATM   41  N   UNL     1      -6.255   4.773  74.168  1.00  0.00    -0.049 NA 
HETATM   42  C   UNL     1      -6.572   6.161  74.456  1.00  0.00    -0.079 C  
HETATM   43  H   UNL     1      -5.476   4.303  74.631  1.00  0.00     0.000 HD 
ENDBRANCH  34  41
ENDBRANCH  29  30
ENDBRANCH  23  29
ENDBRANCH  14  15
ENDBRANCH   9  14
ENDBRANCH   4   5
ENDBRANCH   2   4
TORSDOF 7
ENDMDL
MODEL      335
REMARK 921   NORMALIZED FREE ENERGY PREDICTED BY IDOCK:    2.45 KCAL/MOL
REMARK 922        TOTAL FREE ENERGY PREDICTED BY IDOCK:    1.75 KCAL/MOL
REMARK 923 INTER-LIGAND FREE ENERGY PREDICTED BY IDOCK:   -4.67 KCAL/MOL
REMARK 924 INTRA-LIGAND FREE ENERGY PREDICTED BY IDOCK:    6.42 KCAL/MOL
REMARK 927      BINDING AFFINITY PREDICTED BY RF-SCORE:    0.00 PKD
ROOT
HETATM    1  C   UNL     1     -10.279   8.973  69.406  1.00  0.00    -0.204 C  
HETATM    2  N   UNL     1      -9.201   9.690  68.742  1.00  0.00    -0.138 NA 
HETATM    3  H   UNL     1      -9.577  10.402  68.116  1.00  0.00     0.000 HD 
ENDROOT
BRANCH   2   4
HETATM    4  C   UNL     1      -8.219  10.279  69.665  1.00  0.00    -0.133 C  
BRANCH   4   5
HETATM    5  C   UNL     1      -7.292  11.369  69.064  1.00  0.00    -0.108 C  
HETATM    6  C   UNL     1      -6.129  11.750  69.961  1.00  0.00    -0.158 C  
HETATM    7  C   UNL     1      -5.264  12.787  69.244  1.00  0.00    -0.070 C  
HETATM    8  C   UNL     1      -6.095  13.928  68.619  1.00  0.00    -0.088 C  
HETATM    9  C   UNL     1      -7.449  13.455  67.922  1.00  0.00    -0.149 C  
HETATM   10  N   UNL     1      -5.201  14.796  67.818  1.00  0.00    -0.299 NA 
HETATM   11  O   UNL     1      -8.088  12.552  68.821  1.00  0.00    -0.050 OA 
HETATM   12  H1  UNL     1      -5.749  15.550  67.406  1.00  0.00     0.000 HD 
HETATM   13  H2  UNL     1      -4.675  14.271  67.118  1.00  0.00     0.000 HD 
BRANCH   9  14
HETATM   14  O   UNL     1      -7.333  12.913  66.586  1.00  0.00     0.367 OA 
BRANCH  14  15
HETATM   15  C   UNL     1      -7.620  11.468  66.368  1.00  0.00     0.027 C  
HETATM   16  C   UNL     1      -6.496  10.684  65.636  1.00  0.00    -0.090 C  
HETATM   17  N   UNL     1      -5.338  10.482  66.531  1.00  0.00    -0.049 NA 
HETATM   18  C   UNL     1      -6.960   9.289  65.172  1.00  0.00    -0.085 C  
HETATM   19  H2  UNL     1      -5.608  10.030  67.404  1.00  0.00     0.000 HD 
HETATM   20  H1  UNL     1      -4.600   9.968  66.050  1.00  0.00     0.000 HD 
HETATM   21  C   UNL     1      -8.214   9.342  64.286  1.00  0.00    -0.153 C  
HETATM   22  N   UNL     1      -8.490   8.023  63.706  1.00  0.00    -0.388 NA 
HETATM   23  C   UNL     1      -9.429   9.855  65.082  1.00  0.00    -0.275 C  
HETATM   24  C   UNL     1      -9.039  11.202  65.768  1.00  0.00    -0.206 C  
HETATM   25  O   UNL     1     -10.043  11.536  66.756  1.00  0.00    -0.207 OA 
HETATM   26  H1  UNL     1      -9.322   8.058  63.118  1.00  0.00     0.000 HD 
HETATM   27  H2  UNL     1      -8.563   7.301  64.423  1.00  0.00     0.000 HD 
HETATM   28  H   UNL     1     -10.905  11.374  66.391  1.00  0.00     0.000 HD 
BRANCH  23  29
HETATM   29  O   UNL     1     -10.522  10.169  64.172  1.00  0.00     0.172 OA 
BRANCH  29  30
HETATM   30  C   UNL     1     -11.194  11.445  64.181  1.00  0.00    -0.250 C  
HETATM   31  O   UNL     1     -10.703  12.408  63.244  1.00  0.00    -0.416 OA 
HETATM   32  C   UNL     1     -11.516  13.592  63.215  1.00  0.00     0.426 C  
HETATM   33  C   UNL     1     -11.541  14.353  64.567  1.00  0.00    -0.384 C  
HETATM   34  C   UNL     1     -12.074  13.390  65.664  1.00  0.00    -0.434 C  
HETATM   35  O   UNL     1     -10.203  14.763  64.891  1.00  0.00    -0.388 OA 
HETATM   36  C   UNL     1     -12.404  15.614  64.410  1.00  0.00     0.070 C  
HETATM   37  H   UNL     1     -12.025  11.484  67.431  1.00  0.00     0.000 HD 
HETATM   38  H   UNL     1     -10.219  15.229  65.719  1.00  0.00     0.000 HD 
HETATM   39  C   UNL     1     -11.293  12.032  65.639  1.00  0.00    -0.329 C  
HETATM   40  O   UNL     1     -11.966  11.130  66.551  1.00  0.00     0.031 OA 
BRANCH  34  41
HETATM   41  N   UNL     1     -12.283  13.904  67.052  1.00  0.00    -0.474 NA 
HETATM   42  C   UNL     1     -11.613  15.137  67.426  1.00  0.00    -0.240 C  
HETATM   43  H   UNL     1     -12.877  13.405  67.714  1.00  0.00     0.000 HD 
ENDBRANCH  34  41
ENDBRANCH  29  30
ENDBRANCH  23  29
ENDBRANCH  14  15
ENDBRANCH   9  14
ENDBRANCH   4   5
ENDBRANCH   2   4
TORSDOF 7
ENDMDL
MODEL      336
REMARK 921   NORMALIZED FREE ENERGY PREDICTED BY IDOCK:    3.25 KCAL/MOL
REMARK 922        TOTAL FREE ENERGY PREDICTED BY IDOCK:    2.86 KCAL/MOL
REMARK 923 INTER-LIGAND FREE ENERGY PREDICTED BY IDOCK:   -4.75 KCAL/MOL
REMARK 924 INTRA-LIGAND FREE ENERGY PREDICTED BY IDOCK:    7.62 KCAL/MOL
REMARK 927      BINDING AFFINITY PREDICTED BY RF-SCORE:    0.00 PKD
ROOT
HETATM    1  C   UNL     1      -6.207   5.385  65.493  1.00  0.00    -0.034 C  
HETATM    2  N   UNL     1      -6.116   6.805  65.800  1.00  0.00    -0.037 NA 
HETATM    3  H   UNL     1      -5.156   7.132  65.696  1.00  0.00     0.000 HD 
ENDROOT
BRANCH   2   4
HETATM    4  C   UNL     1      -7.036   7.643  65.018  1.00  0.00    -0.063 C  
BRANCH   4   5
HETATM    5  C   UNL     1      -8.046   8.490  65.839  1.00  0.00    -0.116 C  
HETATM    6  C   UNL     1      -8.553   7.798  67.091  1.00  0.00    -0.128 C  
HETATM    7  C   UNL     1      -9.494   8.744  67.837  1.00  0.00    -0.160 C  
HETATM    8  C   UNL     1     -10.535   9.406  66.909  1.00  0.00    -0.211 C  
HETATM    9  C   UNL     1      -9.961   9.865  65.493  1.00  0.00    -0.292 C  
HETATM   10  N   UNL     1     -11.297  10.417  67.679  1.00  0.00    -0.538 NA 
HETATM   11  O   UNL     1      -9.179   8.786  64.990  1.00  0.00    -0.085 OA 
HETATM   12  H1  UNL     1     -11.985  10.853  67.065  1.00  0.00     0.000 HD 
HETATM   13  H2  UNL     1     -10.690  11.101  68.129  1.00  0.00     0.000 HD 
BRANCH   9  14
HETATM   14  O   UNL     1      -9.248  11.124  65.463  1.00  0.00    -0.212 OA 
BRANCH  14  15
HETATM   15  C   UNL     1      -8.045  11.290  66.324  1.00  0.00    -0.108 C  
HETATM   16  C   UNL     1      -6.926  10.239  66.087  1.00  0.00    -0.116 C  
HETATM   17  N   UNL     1      -6.238  10.493  64.804  1.00  0.00    -0.318 NA 
HETATM   18  C   UNL     1      -5.850  10.269  67.193  1.00  0.00    -0.050 C  
HETATM   19  H2  UNL     1      -5.880  11.446  64.748  1.00  0.00     0.000 HD 
HETATM   20  H1  UNL     1      -5.504   9.803  64.649  1.00  0.00     0.000 HD 
HETATM   21  C   UNL     1      -6.437  10.090  68.601  1.00  0.00    -0.049 C  
HETATM   22  N   UNL     1      -5.365   9.919  69.587  1.00  0.00    -0.034 NA 
HETATM   23  C   UNL     1      -7.339  11.282  68.975  1.00  0.00    -0.115 C  
HETATM   24  C   UNL     1      -8.387  11.487  67.837  1.00  0.00    -0.136 C  
HETATM   25  O   UNL     1      -9.032  12.770  68.015  1.00  0.00    -0.183 OA 
HETATM   26  H1  UNL     1      -5.754   9.801  70.522  1.00  0.00     0.000 HD 
HETATM   27  H2  UNL     1      -4.691  10.684  69.551  1.00  0.00     0.000 HD 
HETATM   28  H   UNL     1      -9.240  12.890  68.934  1.00  0.00     0.000 HD 
BRANCH  23  29
HETATM   29  O   UNL     1      -8.105  10.967  70.174  1.00  0.00     0.407 OA 
BRANCH  29  30
HETATM   30  C   UNL     1      -8.945   9.798  70.271  1.00  0.00    -0.150 C  
HETATM   31  O   UNL     1     -10.336  10.053  70.483  1.00  0.00    -0.272 OA 
HETATM   32  C   UNL     1     -11.118   8.850  70.420  1.00  0.00    -0.239 C  
HETATM   33  C   UNL     1     -10.747   7.820  71.520  1.00  0.00    -0.222 C  
HETATM   34  C   UNL     1      -9.243   7.462  71.372  1.00  0.00    -0.141 C  
HETATM   35  O   UNL     1     -10.981   8.413  72.807  1.00  0.00    -0.317 OA 
HETATM   36  C   UNL     1     -11.666   6.596  71.383  1.00  0.00    -0.374 C  
HETATM   37  H   UNL     1      -6.667   7.728  71.606  1.00  0.00     0.000 HD 
HETATM   38  H   UNL     1     -10.754   7.782  73.480  1.00  0.00     0.000 HD 
HETATM   39  C   UNL     1      -8.367   8.761  71.306  1.00  0.00    -0.176 C  
HETATM   40  O   UNL     1      -7.015   8.353  70.981  1.00  0.00    -0.047 OA 
BRANCH  34  41
HETATM   41  N   UNL     1      -8.647   6.417  72.259  1.00  0.00    -0.118 NA 
HETATM   42  C   UNL     1      -8.060   5.248  71.627  1.00  0.00    -0.116 C  
HETATM   43  H   UNL     1      -8.652   6.521  73.273  1.00  0.00     0.000 HD 
ENDBRANCH  34  41
ENDBRANCH  29  30
ENDBRANCH  23  29
ENDBRANCH  14  15
ENDBRANCH   9  14
ENDBRANCH   4   5
ENDBRANCH   2   4
TORSDOF 7
ENDMDL
MODEL      337
REMARK 921   NORMALIZED FREE ENERGY PREDICTED BY IDOCK:    3.27 KCAL/MOL
REMARK 922        TOTAL FREE ENERGY PREDICTED BY IDOCK:    2.90 KCAL/MOL
REMARK 923 INTER-LIGAND FREE ENERGY PREDICTED BY IDOCK:   -5.38 KCAL/MOL
REMARK 924 INTRA-LIGAND FREE ENERGY PREDICTED BY IDOCK:    8.28 KCAL/MOL
REMARK 927      BINDING AFFINITY PREDICTED BY RF-SCORE:    0.00 PKD
ROOT
HETATM    1  C   UNL     1      -5.946   5.069  65.198  1.00  0.00    -0.025 C  
HETATM    2  N   UNL     1      -6.044   6.437  65.684  1.00  0.00    -0.029 NA 
HETATM    3  H   UNL     1      -5.284   7.006  65.310  1.00  0.00     0.000 HD 
ENDROOT
BRANCH   2   4
HETATM    4  C   UNL     1      -7.344   7.071  65.420  1.00  0.00    -0.080 C  
BRANCH   4   5
HETATM    5  C   UNL     1      -8.241   7.322  66.662  1.00  0.00    -0.118 C  
HETATM    6  C   UNL     1      -7.915   6.430  67.846  1.00  0.00    -0.111 C  
HETATM    7  C   UNL     1      -8.824   6.804  69.016  1.00  0.00    -0.129 C  
HETATM    8  C   UNL     1     -10.306   6.935  68.603  1.00  0.00    -0.186 C  
HETATM    9  C   UNL     1     -10.538   7.658  67.200  1.00  0.00    -0.340 C  
HETATM   10  N   UNL     1     -11.086   7.448  69.753  1.00  0.00    -0.406 NA 
HETATM   11  O   UNL     1      -9.616   7.085  66.277  1.00  0.00    -0.137 OA 
HETATM   12  H1  UNL     1     -12.065   7.535  69.480  1.00  0.00     0.000 HD 
HETATM   13  H2  UNL     1     -10.707   8.321  70.122  1.00  0.00     0.000 HD 
BRANCH   9  14
HETATM   14  O   UNL     1     -10.490   9.104  67.202  1.00  0.00    -0.260 OA 
BRANCH  14  15
HETATM   15  C   UNL     1      -9.263   9.782  67.703  1.00  0.00    -0.130 C  
HETATM   16  C   UNL     1      -7.942   9.314  67.033  1.00  0.00    -0.102 C  
HETATM   17  N   UNL     1      -7.851   9.825  65.650  1.00  0.00    -0.110 NA 
HETATM   18  C   UNL     1      -6.692   9.816  67.786  1.00  0.00    -0.069 C  
HETATM   19  H2  UNL     1      -7.956  10.839  65.613  1.00  0.00     0.000 HD 
HETATM   20  H1  UNL     1      -6.984   9.518  65.211  1.00  0.00     0.000 HD 
HETATM   21  C   UNL     1      -6.690   9.418  69.270  1.00  0.00    -0.049 C  
HETATM   22  N   UNL     1      -5.396   9.736  69.885  1.00  0.00    -0.033 NA 
HETATM   23  C   UNL     1      -7.841  10.107  70.026  1.00  0.00    -0.115 C  
HETATM   24  C   UNL     1      -9.174   9.828  69.263  1.00  0.00    -0.192 C  
HETATM   25  O   UNL     1     -10.202  10.710  69.772  1.00  0.00    -0.402 OA 
HETATM   26  H1  UNL     1      -5.394   9.471  70.870  1.00  0.00     0.000 HD 
HETATM   27  H2  UNL     1      -5.146  10.716  69.756  1.00  0.00     0.000 HD 
HETATM   28  H   UNL     1     -10.148  10.738  70.721  1.00  0.00     0.000 HD 
BRANCH  23  29
HETATM   29  O   UNL     1      -7.999   9.506  71.344  1.00  0.00    -0.266 OA 
BRANCH  29  30
HETATM   30  C   UNL     1      -8.914   8.420  71.594  1.00  0.00    -0.199 C  
HETATM   31  O   UNL     1     -10.164   8.789  72.182  1.00  0.00    -0.325 OA 
HETATM   32  C   UNL     1     -11.070   7.677  72.262  1.00  0.00    -0.286 C  
HETATM   33  C   UNL     1     -10.550   6.526  73.162  1.00  0.00    -0.265 C  
HETATM   34  C   UNL     1      -9.186   6.038  72.600  1.00  0.00    -0.143 C  
HETATM   35  O   UNL     1     -10.373   7.027  74.497  1.00  0.00    -0.434 OA 
HETATM   36  C   UNL     1     -11.608   5.413  73.205  1.00  0.00    -0.088 C  
HETATM   37  H   UNL     1      -6.625   6.033  72.154  1.00  0.00     0.000 HD 
HETATM   38  H   UNL     1     -10.055   6.321  75.048  1.00  0.00     0.000 HD 
HETATM   39  C   UNL     1      -8.213   7.247  72.377  1.00  0.00    -0.100 C  
HETATM   40  O   UNL     1      -7.048   6.740  71.682  1.00  0.00    -0.073 OA 
BRANCH  34  41
HETATM   41  N   UNL     1      -8.507   4.868  73.235  1.00  0.00    -0.104 NA 
HETATM   42  C   UNL     1      -8.135   3.755  72.379  1.00  0.00    -0.073 C  
HETATM   43  H   UNL     1      -8.311   4.852  74.236  1.00  0.00     0.000 HD 
ENDBRANCH  34  41
ENDBRANCH  29  30
ENDBRANCH  23  29
ENDBRANCH  14  15
ENDBRANCH   9  14
ENDBRANCH   4   5
ENDBRANCH   2   4
TORSDOF 7
ENDMDL
MODEL      338
REMARK 921   NORMALIZED FREE ENERGY PREDICTED BY IDOCK:    3.33 KCAL/MOL
REMARK 922        TOTAL FREE ENERGY PREDICTED BY IDOCK:    2.98 KCAL/MOL
REMARK 923 INTER-LIGAND FREE ENERGY PREDICTED BY IDOCK:   -1.51 KCAL/MOL
REMARK 924 INTRA-LIGAND FREE ENERGY PREDICTED BY IDOCK:    4.50 KCAL/MOL
REMARK 927      BINDING AFFINITY PREDICTED BY RF-SCORE:    0.00 PKD
ROOT
HETATM    1  C   UNL     1     -10.384  12.949  70.101  1.00  0.00     2.244 C  
HETATM    2  N   UNL     1     -10.247  14.398  70.132  1.00  0.00    -0.079 NA 
HETATM    3  H   UNL     1      -9.555  14.678  70.827  1.00  0.00     0.000 HD 
ENDROOT
BRANCH   2   4
HETATM    4  C   UNL     1      -9.939  14.995  68.824  1.00  0.00    -0.228 C  
BRANCH   4   5
HETATM    5  C   UNL     1      -8.701  14.414  68.089  1.00  0.00    -0.175 C  
HETATM    6  C   UNL     1      -8.841  12.951  67.709  1.00  0.00    -0.188 C  
HETATM    7  C   UNL     1      -7.589  12.512  66.951  1.00  0.00     0.073 C  
HETATM    8  C   UNL     1      -6.283  12.952  67.647  1.00  0.00    -0.157 C  
HETATM    9  C   UNL     1      -6.324  14.426  68.256  1.00  0.00    -0.118 C  
HETATM   10  N   UNL     1      -5.133  12.624  66.772  1.00  0.00    -0.272 NA 
HETATM   11  O   UNL     1      -7.555  14.552  68.962  1.00  0.00    -0.128 OA 
HETATM   12  H1  UNL     1      -4.271  12.915  67.232  1.00  0.00     0.000 HD 
HETATM   13  H2  UNL     1      -5.229  13.024  65.839  1.00  0.00     0.000 HD 
BRANCH   9  14
HETATM   14  O   UNL     1      -6.105  15.514  67.328  1.00  0.00    -0.320 OA 
BRANCH  14  15
HETATM   15  C   UNL     1      -6.775  16.820  67.582  1.00  0.00    -0.142 C  
HETATM   16  C   UNL     1      -7.226  17.046  69.051  1.00  0.00    -0.229 C  
HETATM   17  N   UNL     1      -6.057  17.297  69.919  1.00  0.00    -0.233 NA 
HETATM   18  C   UNL     1      -8.168  18.259  69.195  1.00  0.00     0.059 C  
HETATM   19  H2  UNL     1      -5.488  18.070  69.575  1.00  0.00     0.000 HD 
HETATM   20  H1  UNL     1      -6.353  17.445  70.884  1.00  0.00     0.000 HD 
HETATM   21  C   UNL     1      -9.401  18.168  68.284  1.00  0.00    -0.303 C  
HETATM   22  N   UNL     1     -10.359  19.232  68.608  1.00  0.00    -0.508 NA 
HETATM   23  C   UNL     1      -8.994  18.231  66.800  1.00  0.00    -0.284 C  
HETATM   24  C   UNL     1      -7.893  17.155  66.541  1.00  0.00    -0.290 C  
HETATM   25  O   UNL     1      -7.284  17.404  65.252  1.00  0.00     0.188 OA 
HETATM   26  H1  UNL     1     -11.178  19.172  68.003  1.00  0.00     0.000 HD 
HETATM   27  H2  UNL     1      -9.927  20.155  68.570  1.00  0.00     0.000 HD 
HETATM   28  H   UNL     1      -7.964  17.607  64.620  1.00  0.00     0.000 HD 
BRANCH  23  29
HETATM   29  O   UNL     1     -10.124  17.859  65.959  1.00  0.00    -0.481 OA 
BRANCH  29  30
HETATM   30  C   UNL     1     -10.424  16.488  65.628  1.00  0.00    -0.324 C  
HETATM   31  O   UNL     1     -10.557  16.205  64.232  1.00  0.00    -0.212 OA 
HETATM   32  C   UNL     1     -10.708  14.799  63.981  1.00  0.00     1.110 C  
HETATM   33  C   UNL     1     -11.989  14.197  64.617  1.00  0.00    -0.445 C  
HETATM   34  C   UNL     1     -11.940  14.442  66.150  1.00  0.00    -0.369 C  
HETATM   35  O   UNL     1     -13.137  14.854  64.056  1.00  0.00    -0.306 OA 
HETATM   36  C   UNL     1     -12.068  12.706  64.255  1.00  0.00    -0.502 C  
HETATM   37  H   UNL     1     -12.168  15.737  68.393  1.00  0.00     0.000 HD 
HETATM   38  H   UNL     1     -13.920  14.485  64.446  1.00  0.00     0.000 HD 
HETATM   39  C   UNL     1     -11.647  15.950  66.462  1.00  0.00     0.498 C  
HETATM   40  O   UNL     1     -11.431  16.061  67.890  1.00  0.00    -0.270 OA 
BRANCH  34  41
HETATM   41  N   UNL     1     -13.019  13.879  67.018  1.00  0.00     0.024 NA 
HETATM   42  C   UNL     1     -12.621  13.032  68.129  1.00  0.00     0.856 C  
HETATM   43  H   UNL     1     -14.002  14.083  66.836  1.00  0.00     0.000 HD 
ENDBRANCH  34  41
ENDBRANCH  29  30
ENDBRANCH  23  29
ENDBRANCH  14  15
ENDBRANCH   9  14
ENDBRANCH   4   5
ENDBRANCH   2   4
TORSDOF 7
ENDMDL
MODEL      339
REMARK 921   NORMALIZED FREE ENERGY PREDICTED BY IDOCK:    5.22 KCAL/MOL
REMARK 922        TOTAL FREE ENERGY PREDICTED BY IDOCK:    5.65 KCAL/MOL
REMARK 923 INTER-LIGAND FREE ENERGY PREDICTED BY IDOCK:    3.86 KCAL/MOL
REMARK 924 INTRA-LIGAND FREE ENERGY PREDICTED BY IDOCK:    1.79 KCAL/MOL
REMARK 927      BINDING AFFINITY PREDICTED BY RF-SCORE:    0.00 PKD
ROOT
HETATM    1  C   UNL     1      -9.882  19.243  70.795  1.00  0.00     1.953 C  
HETATM    2  N   UNL     1     -10.865  19.200  69.723  1.00  0.00     0.927 NA 
HETATM    3  H   UNL     1     -11.158  20.143  69.468  1.00  0.00     0.000 HD 
ENDROOT
BRANCH   2   4
HETATM    4  C   UNL     1     -10.419  18.457  68.535  1.00  0.00    -0.187 C  
BRANCH   4   5
HETATM    5  C   UNL     1     -10.443  16.909  68.655  1.00  0.00    -0.352 C  
HETATM    6  C   UNL     1     -10.171  16.396  70.058  1.00  0.00     0.078 C  
HETATM    7  C   UNL     1     -10.272  14.871  70.059  1.00  0.00     0.040 C  
HETATM    8  C   UNL     1      -9.498  14.220  68.893  1.00  0.00    -0.069 C  
HETATM    9  C   UNL     1      -9.630  14.990  67.502  1.00  0.00    -0.203 C  
HETATM   10  N   UNL     1      -9.776  12.765  68.879  1.00  0.00    -0.405 NA 
HETATM   11  O   UNL     1      -9.432  16.375  67.770  1.00  0.00    -0.219 OA 
HETATM   12  H1  UNL     1      -9.264  12.335  68.109  1.00  0.00     0.000 HD 
HETATM   13  H2  UNL     1     -10.775  12.561  68.843  1.00  0.00     0.000 HD 
BRANCH   9  14
HETATM   14  O   UNL     1     -10.834  14.741  66.739  1.00  0.00    -0.303 OA 
BRANCH  14  15
HETATM   15  C   UNL     1     -10.968  13.452  66.005  1.00  0.00    -0.271 C  
HETATM   16  C   UNL     1     -12.219  12.614  66.385  1.00  0.00    -0.104 C  
HETATM   17  N   UNL     1     -13.444  13.234  65.838  1.00  0.00     0.251 NA 
HETATM   18  C   UNL     1     -12.152  11.175  65.832  1.00  0.00     1.784 C  
HETATM   19  H2  UNL     1     -13.378  13.380  64.831  1.00  0.00     0.000 HD 
HETATM   20  H1  UNL     1     -14.265  12.684  66.088  1.00  0.00     0.000 HD 
HETATM   21  C   UNL     1     -10.880  10.429  66.263  1.00  0.00     0.048 C  
HETATM   22  N   UNL     1     -10.963   9.013  65.888  1.00  0.00     1.167 NA 
HETATM   23  C   UNL     1      -9.626  11.085  65.655  1.00  0.00    -0.226 C  
HETATM   24  C   UNL     1      -9.651  12.609  65.989  1.00  0.00    -0.188 C  
HETATM   25  O   UNL     1      -8.663  13.286  65.177  1.00  0.00     1.022 OA 
HETATM   26  H1  UNL     1     -10.119   8.518  66.174  1.00  0.00     0.000 HD 
HETATM   27  H2  UNL     1     -11.153   8.896  64.893  1.00  0.00     0.000 HD 
HETATM   28  H   UNL     1      -7.862  12.774  65.167  1.00  0.00     0.000 HD 
BRANCH  23  29
HETATM   29  O   UNL     1      -8.429  10.553  66.293  1.00  0.00    -0.139 OA 
BRANCH  29  30
HETATM   30  C   UNL     1      -7.514   9.672  65.610  1.00  0.00    -0.101 C  
HETATM   31  O   UNL     1      -7.744   9.509  64.208  1.00  0.00    -0.113 OA 
HETATM   32  C   UNL     1      -6.708   8.740  63.579  1.00  0.00    -0.089 C  
HETATM   33  C   UNL     1      -6.606   7.289  64.121  1.00  0.00    -0.044 C  
HETATM   34  C   UNL     1      -6.343   7.352  65.650  1.00  0.00    -0.041 C  
HETATM   35  O   UNL     1      -7.849   6.614  63.870  1.00  0.00    -0.114 OA 
HETATM   36  C   UNL     1      -5.497   6.551  63.356  1.00  0.00    -0.026 C  
HETATM   37  H   UNL     1      -6.880   7.613  68.181  1.00  0.00     0.000 HD 
HETATM   38  H   UNL     1      -7.787   5.726  64.201  1.00  0.00     0.000 HD 
HETATM   39  C   UNL     1      -7.381   8.291  66.355  1.00  0.00    -0.080 C  
HETATM   40  O   UNL     1      -6.959   8.446  67.732  1.00  0.00    -0.072 OA 
BRANCH  34  41
HETATM   41  N   UNL     1      -6.114   6.084  66.408  1.00  0.00    -0.031 NA 
HETATM   42  C   UNL     1      -6.260   6.123  67.853  1.00  0.00    -0.032 C  
HETATM   43  H   UNL     1      -5.864   5.220  65.927  1.00  0.00     0.000 HD 
ENDBRANCH  34  41
ENDBRANCH  29  30
ENDBRANCH  23  29
ENDBRANCH  14  15
ENDBRANCH   9  14
ENDBRANCH   4   5
ENDBRANCH   2   4
TORSDOF 7
ENDMDL
MODEL      340
REMARK 921   NORMALIZED FREE ENERGY PREDICTED BY IDOCK:    5.47 KCAL/MOL
REMARK 922        TOTAL FREE ENERGY PREDICTED BY IDOCK:    5.99 KCAL/MOL
REMARK 923 INTER-LIGAND FREE ENERGY PREDICTED BY IDOCK:    0.05 KCAL/MOL
REMARK 924 INTRA-LIGAND FREE ENERGY PREDICTED BY IDOCK:    5.95 KCAL/MOL
REMARK 927      BINDING AFFINITY PREDICTED BY RF-SCORE:    0.00 PKD
ROOT
HETATM    1  C   UNL     1      -6.491   6.346  70.041  1.00  0.00    -0.040 C  
HETATM    2  N   UNL     1      -7.477   7.067  69.251  1.00  0.00    -0.092 NA 
HETATM    3  H   UNL     1      -7.027   7.789  68.688  1.00  0.00     0.000 HD 
ENDROOT
BRANCH   2   4
HETATM    4  C   UNL     1      -8.314   6.200  68.408  1.00  0.00    -0.114 C  
BRANCH   4   5
HETATM    5  C   UNL     1      -8.290   6.508  66.886  1.00  0.00    -0.113 C  
HETATM    6  C   UNL     1      -7.326   5.639  66.098  1.00  0.00    -0.078 C  
HETATM    7  C   UNL     1      -7.430   5.997  64.616  1.00  0.00    -0.080 C  
HETATM    8  C   UNL     1      -7.393   7.520  64.366  1.00  0.00    -0.088 C  
HETATM    9  C   UNL     1      -8.229   8.382  65.416  1.00  0.00    -0.144 C  
HETATM   10  N   UNL     1      -7.654   7.782  62.931  1.00  0.00    -0.117 NA 
HETATM   11  O   UNL     1      -7.903   7.891  66.713  1.00  0.00    -0.100 OA 
HETATM   12  H1  UNL     1      -7.630   8.788  62.766  1.00  0.00     0.000 HD 
HETATM   13  H2  UNL     1      -8.525   7.357  62.611  1.00  0.00     0.000 HD 
BRANCH   9  14
HETATM   14  O   UNL     1      -9.657   8.459  65.198  1.00  0.00     0.399 OA 
BRANCH  14  15
HETATM   15  C   UNL     1     -10.564   8.507  66.379  1.00  0.00     0.341 C  
HETATM   16  C   UNL     1     -10.244   9.634  67.399  1.00  0.00    -0.227 C  
HETATM   17  N   UNL     1     -10.627  10.952  66.852  1.00  0.00    -0.250 NA 
HETATM   18  C   UNL     1     -11.005   9.455  68.729  1.00  0.00    -0.080 C  
HETATM   19  H2  UNL     1     -11.604  10.972  66.559  1.00  0.00     0.000 HD 
HETATM   20  H1  UNL     1     -10.417  11.692  67.521  1.00  0.00     0.000 HD 
HETATM   21  C   UNL     1     -10.758   8.085  69.378  1.00  0.00    -0.159 C  
HETATM   22  N   UNL     1     -11.331   8.045  70.728  1.00  0.00    -0.274 NA 
HETATM   23  C   UNL     1     -11.330   6.952  68.505  1.00  0.00     0.121 C  
HETATM   24  C   UNL     1     -10.774   7.113  67.056  1.00  0.00    -0.350 C  
HETATM   25  O   UNL     1     -11.530   6.261  66.164  1.00  0.00    -0.305 OA 
HETATM   26  H1  UNL     1     -11.167   7.136  71.159  1.00  0.00     0.000 HD 
HETATM   27  H2  UNL     1     -12.321   8.290  70.726  1.00  0.00     0.000 HD 
HETATM   28  H   UNL     1     -11.658   5.414  66.575  1.00  0.00     0.000 HD 
BRANCH  23  29
HETATM   29  O   UNL     1     -10.842   5.664  68.982  1.00  0.00    -0.265 OA 
BRANCH  29  30
HETATM   30  C   UNL     1     -11.168   5.148  70.288  1.00  0.00     0.998 C  
HETATM   31  O   UNL     1     -11.831   6.063  71.165  1.00  0.00    -0.158 OA 
HETATM   32  C   UNL     1     -12.250   5.430  72.384  1.00  0.00     0.361 C  
HETATM   33  C   UNL     1     -11.070   4.880  73.227  1.00  0.00    -0.337 C  
HETATM   34  C   UNL     1     -10.282   3.858  72.363  1.00  0.00    -0.157 C  
HETATM   35  O   UNL     1     -10.211   5.973  73.590  1.00  0.00    -0.195 OA 
HETATM   36  C   UNL     1     -11.628   4.262  74.519  1.00  0.00     2.024 C  
HETATM   37  H   UNL     1      -8.605   3.003  70.569  1.00  0.00     0.000 HD 
HETATM   38  H   UNL     1      -9.488   5.636  74.106  1.00  0.00     0.000 HD 
HETATM   39  C   UNL     1      -9.918   4.473  70.968  1.00  0.00    -0.187 C  
HETATM   40  O   UNL     1      -9.359   3.410  70.159  1.00  0.00    -0.144 OA 
BRANCH  34  41
HETATM   41  N   UNL     1      -9.140   3.108  72.971  1.00  0.00    -0.089 NA 
HETATM   42  C   UNL     1      -8.461   2.124  72.147  1.00  0.00    -0.054 C  
HETATM   43  H   UNL     1      -8.848   3.283  73.933  1.00  0.00     0.000 HD 
ENDBRANCH  34  41
ENDBRANCH  29  30
ENDBRANCH  23  29
ENDBRANCH  14  15
ENDBRANCH   9  14
ENDBRANCH   4   5
ENDBRANCH   2   4
TORSDOF 7
ENDMDL
MODEL      341
REMARK 921   NORMALIZED FREE ENERGY PREDICTED BY IDOCK:    5.92 KCAL/MOL
REMARK 922        TOTAL FREE ENERGY PREDICTED BY IDOCK:    6.63 KCAL/MOL
REMARK 923 INTER-LIGAND FREE ENERGY PREDICTED BY IDOCK:    2.54 KCAL/MOL
REMARK 924 INTRA-LIGAND FREE ENERGY PREDICTED BY IDOCK:    4.09 KCAL/MOL
REMARK 927      BINDING AFFINITY PREDICTED BY RF-SCORE:    0.00 PKD
ROOT
HETATM    1  C   UNL     1     -11.880   4.171  66.443  1.00  0.00     6.476 C  
HETATM    2  N   UNL     1     -11.386   5.332  65.717  1.00  0.00    -0.712 NA 
HETATM    3  H   UNL     1     -12.162   5.898  65.376  1.00  0.00     0.000 HD 
ENDROOT
BRANCH   2   4
HETATM    4  C   UNL     1     -10.442   6.157  66.486  1.00  0.00    -0.128 C  
BRANCH   4   5
HETATM    5  C   UNL     1      -9.176   5.428  67.012  1.00  0.00    -0.113 C  
HETATM    6  C   UNL     1      -8.135   5.153  65.942  1.00  0.00    -0.109 C  
HETATM    7  C   UNL     1      -6.922   4.483  66.587  1.00  0.00    -0.063 C  
HETATM    8  C   UNL     1      -7.311   3.322  67.528  1.00  0.00    -0.058 C  
HETATM    9  C   UNL     1      -8.593   3.607  68.433  1.00  0.00    -0.096 C  
HETATM   10  N   UNL     1      -6.097   2.836  68.224  1.00  0.00    -0.024 NA 
HETATM   11  O   UNL     1      -9.590   4.164  67.582  1.00  0.00    -0.173 OA 
HETATM   12  H1  UNL     1      -6.354   2.069  68.845  1.00  0.00     0.000 HD 
HETATM   13  H2  UNL     1      -5.605   3.584  68.714  1.00  0.00     0.000 HD 
BRANCH   9  14
HETATM   14  O   UNL     1      -8.379   4.398  69.625  1.00  0.00    -0.062 OA 
BRANCH  14  15
HETATM   15  C   UNL     1      -7.344   5.468  69.602  1.00  0.00    -0.066 C  
HETATM   16  C   UNL     1      -6.187   5.277  70.620  1.00  0.00    -0.023 C  
HETATM   17  N   UNL     1      -5.292   4.183  70.188  1.00  0.00    -0.007 NA 
HETATM   18  C   UNL     1      -5.319   6.544  70.766  1.00  0.00    -0.019 C  
HETATM   19  H2  UNL     1      -4.943   4.330  69.241  1.00  0.00     0.000 HD 
HETATM   20  H1  UNL     1      -4.533   4.058  70.857  1.00  0.00     0.000 HD 
HETATM   21  C   UNL     1      -6.137   7.788  71.142  1.00  0.00    -0.034 C  
HETATM   22  N   UNL     1      -5.249   8.908  71.470  1.00  0.00    -0.036 NA 
HETATM   23  C   UNL     1      -7.107   8.171  70.008  1.00  0.00    -0.048 C  
HETATM   24  C   UNL     1      -7.946   6.912  69.626  1.00  0.00    -0.125 C  
HETATM   25  O   UNL     1      -8.629   7.162  68.375  1.00  0.00    -0.123 OA 
HETATM   26  H1  UNL     1      -5.792   9.734  71.719  1.00  0.00     0.000 HD 
HETATM   27  H2  UNL     1      -4.589   9.102  70.716  1.00  0.00     0.000 HD 
HETATM   28  H   UNL     1      -8.995   8.040  68.389  1.00  0.00     0.000 HD 
BRANCH  23  29
HETATM   29  O   UNL     1      -8.064   9.160  70.487  1.00  0.00    -0.126 OA 
BRANCH  29  30
HETATM   30  C   UNL     1      -8.974   9.847  69.604  1.00  0.00    -0.216 C  
HETATM   31  O   UNL     1      -9.968   9.028  68.983  1.00  0.00    -0.175 OA 
HETATM   32  C   UNL     1     -10.919   9.807  68.240  1.00  0.00    -0.164 C  
HETATM   33  C   UNL     1     -10.282  10.594  67.064  1.00  0.00    -0.220 C  
HETATM   34  C   UNL     1      -9.184  11.532  67.636  1.00  0.00    -0.171 C  
HETATM   35  O   UNL     1      -9.691   9.658  66.148  1.00  0.00    -0.212 OA 
HETATM   36  C   UNL     1     -11.389  11.357  66.321  1.00  0.00    -0.140 C  
HETATM   37  H   UNL     1      -6.863  12.240  68.569  1.00  0.00     0.000 HD 
HETATM   38  H   UNL     1      -9.302  10.140  65.428  1.00  0.00     0.000 HD 
HETATM   39  C   UNL     1      -8.199  10.737  68.560  1.00  0.00    -0.136 C  
HETATM   40  O   UNL     1      -7.330  11.704  69.198  1.00  0.00    -0.102 OA 
BRANCH  34  41
HETATM   41  N   UNL     1      -8.472  12.473  66.719  1.00  0.00    -0.367 NA 
HETATM   42  C   UNL     1      -9.269  13.450  65.998  1.00  0.00     0.112 C  
HETATM   43  H   UNL     1      -7.459  12.430  66.603  1.00  0.00     0.000 HD 
ENDBRANCH  34  41
ENDBRANCH  29  30
ENDBRANCH  23  29
ENDBRANCH  14  15
ENDBRANCH   9  14
ENDBRANCH   4   5
ENDBRANCH   2   4
TORSDOF 7
ENDMDL
MODEL      342
REMARK 921   NORMALIZED FREE ENERGY PREDICTED BY IDOCK:    6.25 KCAL/MOL
REMARK 922        TOTAL FREE ENERGY PREDICTED BY IDOCK:    7.09 KCAL/MOL
REMARK 923 INTER-LIGAND FREE ENERGY PREDICTED BY IDOCK:   -4.23 KCAL/MOL
REMARK 924 INTRA-LIGAND FREE ENERGY PREDICTED BY IDOCK:   11.33 KCAL/MOL
REMARK 927      BINDING AFFINITY PREDICTED BY RF-SCORE:    0.00 PKD
ROOT
HETATM    1  C   UNL     1      -9.473   4.455  73.384  1.00  0.00    -0.117 C  
HETATM    2  N   UNL     1     -10.903   4.646  73.569  1.00  0.00    -0.259 NA 
HETATM    3  H   UNL     1     -11.218   4.190  74.425  1.00  0.00     0.000 HD 
ENDROOT
BRANCH   2   4
HETATM    4  C   UNL     1     -11.322   6.056  73.551  1.00  0.00     0.303 C  
BRANCH   4   5
HETATM    5  C   UNL     1     -10.643   6.951  72.479  1.00  0.00    -0.222 C  
HETATM    6  C   UNL     1      -9.762   8.042  73.059  1.00  0.00    -0.348 C  
HETATM    7  C   UNL     1      -9.112   8.819  71.914  1.00  0.00    -0.291 C  
HETATM    8  C   UNL     1     -10.121   9.217  70.814  1.00  0.00    -0.268 C  
HETATM    9  C   UNL     1     -11.188   8.087  70.457  1.00  0.00    -0.250 C  
HETATM   10  N   UNL     1      -9.385   9.823  69.680  1.00  0.00    -0.206 NA 
HETATM   11  O   UNL     1     -11.683   7.575  71.691  1.00  0.00    -0.265 OA 
HETATM   12  H1  UNL     1     -10.052  10.086  68.954  1.00  0.00     0.000 HD 
HETATM   13  H2  UNL     1      -8.647   9.215  69.326  1.00  0.00     0.000 HD 
BRANCH   9  14
HETATM   14  O   UNL     1     -10.744   7.039  69.563  1.00  0.00    -0.226 OA 
BRANCH  14  15
HETATM   15  C   UNL     1      -9.286   6.890  69.297  1.00  0.00    -0.144 C  
HETATM   16  C   UNL     1      -8.365   7.301  70.478  1.00  0.00    -0.133 C  
HETATM   17  N   UNL     1      -8.431   6.298  71.560  1.00  0.00    -0.129 NA 
HETATM   18  C   UNL     1      -6.885   7.415  70.055  1.00  0.00    -0.055 C  
HETATM   19  H2  UNL     1      -8.218   5.360  71.222  1.00  0.00     0.000 HD 
HETATM   20  H1  UNL     1      -7.826   6.567  72.335  1.00  0.00     0.000 HD 
HETATM   21  C   UNL     1      -6.675   8.378  68.876  1.00  0.00    -0.053 C  
HETATM   22  N   UNL     1      -5.244   8.609  68.650  1.00  0.00    -0.033 NA 
HETATM   23  C   UNL     1      -7.351   7.841  67.600  1.00  0.00    -0.092 C  
HETATM   24  C   UNL     1      -8.840   7.506  67.931  1.00  0.00    -0.126 C  
HETATM   25  O   UNL     1      -9.397   6.722  66.850  1.00  0.00    -0.139 OA 
HETATM   26  H1  UNL     1      -5.104   9.248  67.868  1.00  0.00     0.000 HD 
HETATM   27  H2  UNL     1      -4.735   7.735  68.521  1.00  0.00     0.000 HD 
HETATM   28  H   UNL     1      -9.126   7.096  66.020  1.00  0.00     0.000 HD 
BRANCH  23  29
HETATM   29  O   UNL     1      -7.390   8.883  66.583  1.00  0.00    -0.084 OA 
BRANCH  29  30
HETATM   30  C   UNL     1      -7.196  10.278  66.896  1.00  0.00    -0.093 C  
HETATM   31  O   UNL     1      -6.308  10.548  67.984  1.00  0.00    -0.058 OA 
HETATM   32  C   UNL     1      -6.056  11.953  68.135  1.00  0.00    -0.051 C  
HETATM   33  C   UNL     1      -7.330  12.773  68.469  1.00  0.00    -0.115 C  
HETATM   34  C   UNL     1      -8.366  12.557  67.332  1.00  0.00    -0.182 C  
HETATM   35  O   UNL     1      -7.870  12.303  69.714  1.00  0.00     0.351 OA 
HETATM   36  C   UNL     1      -6.939  14.249  68.644  1.00  0.00    -0.105 C  
HETATM   37  H   UNL     1     -10.227  11.367  65.959  1.00  0.00     0.000 HD 
HETATM   38  H   UNL     1      -8.650  12.805  69.918  1.00  0.00     0.000 HD 
HETATM   39  C   UNL     1      -8.571  11.029  67.051  1.00  0.00    -0.140 C  
HETATM   40  O   UNL     1      -9.397  10.915  65.866  1.00  0.00    -0.185 OA 
BRANCH  34  41
HETATM   41  N   UNL     1      -9.658  13.310  67.363  1.00  0.00    -0.217 NA 
HETATM   42  C   UNL     1     -10.182  13.806  66.103  1.00  0.00    -0.301 C  
HETATM   43  H   UNL     1     -10.153  13.469  68.240  1.00  0.00     0.000 HD 
ENDBRANCH  34  41
ENDBRANCH  29  30
ENDBRANCH  23  29
ENDBRANCH  14  15
ENDBRANCH   9  14
ENDBRANCH   4   5
ENDBRANCH   2   4
TORSDOF 7
ENDMDL
MODEL      343
REMARK 921   NORMALIZED FREE ENERGY PREDICTED BY IDOCK:    6.36 KCAL/MOL
REMARK 922        TOTAL FREE ENERGY PREDICTED BY IDOCK:    7.25 KCAL/MOL
REMARK 923 INTER-LIGAND FREE ENERGY PREDICTED BY IDOCK:   -2.03 KCAL/MOL
REMARK 924 INTRA-LIGAND FREE ENERGY PREDICTED BY IDOCK:    9.28 KCAL/MOL
REMARK 927      BINDING AFFINITY PREDICTED BY RF-SCORE:    0.00 PKD
ROOT
HETATM    1  C   UNL     1     -12.084   8.567  71.238  1.00  0.00    -0.286 C  
HETATM    2  N   UNL     1     -11.435   7.638  70.325  1.00  0.00    -0.456 NA 
HETATM    3  H   UNL     1     -11.939   6.751  70.298  1.00  0.00     0.000 HD 
ENDROOT
BRANCH   2   4
HETATM    4  C   UNL     1     -11.250   8.169  68.967  1.00  0.00     0.417 C  
BRANCH   4   5
HETATM    5  C   UNL     1     -11.280   9.716  68.834  1.00  0.00     0.025 C  
HETATM    6  C   UNL     1     -12.639  10.331  69.117  1.00  0.00     0.964 C  
HETATM    7  C   UNL     1     -12.531  11.851  69.006  1.00  0.00     0.348 C  
HETATM    8  C   UNL     1     -11.788  12.305  67.731  1.00  0.00    -0.273 C  
HETATM    9  C   UNL     1     -10.511  11.424  67.362  1.00  0.00    -0.205 C  
HETATM   10  N   UNL     1     -11.592  13.773  67.781  1.00  0.00    -0.325 NA 
HETATM   11  O   UNL     1     -10.898  10.058  67.481  1.00  0.00    -0.277 OA 
HETATM   12  H1  UNL     1     -11.102  14.073  66.939  1.00  0.00     0.000 HD 
HETATM   13  H2  UNL     1     -11.119  14.073  68.634  1.00  0.00     0.000 HD 
BRANCH   9  14
HETATM   14  O   UNL     1      -9.292  11.718  68.083  1.00  0.00    -0.178 OA 
BRANCH  14  15
HETATM   15  C   UNL     1      -8.381  10.596  68.444  1.00  0.00    -0.127 C  
HETATM   16  C   UNL     1      -6.881  10.983  68.549  1.00  0.00    -0.064 C  
HETATM   17  N   UNL     1      -6.636  11.783  69.766  1.00  0.00    -0.297 NA 
HETATM   18  C   UNL     1      -5.960   9.748  68.623  1.00  0.00    -0.042 C  
HETATM   19  H2  UNL     1      -6.963  11.306  70.606  1.00  0.00     0.000 HD 
HETATM   20  H1  UNL     1      -5.651  12.038  69.834  1.00  0.00     0.000 HD 
HETATM   21  C   UNL     1      -6.163   8.781  67.447  1.00  0.00    -0.056 C  
HETATM   22  N   UNL     1      -5.129   7.739  67.454  1.00  0.00    -0.026 NA 
HETATM   23  C   UNL     1      -7.570   8.156  67.487  1.00  0.00    -0.101 C  
HETATM   24  C   UNL     1      -8.621   9.306  67.593  1.00  0.00    -0.116 C  
HETATM   25  O   UNL     1      -9.906   8.739  67.940  1.00  0.00    -0.156 OA 
HETATM   26  H1  UNL     1      -5.264   7.097  66.674  1.00  0.00     0.000 HD 
HETATM   27  H2  UNL     1      -5.093   7.248  68.347  1.00  0.00     0.000 HD 
HETATM   28  H   UNL     1     -10.052   7.955  67.423  1.00  0.00     0.000 HD 
BRANCH  23  29
HETATM   29  O   UNL     1      -7.846   7.476  66.228  1.00  0.00    -0.096 OA 
BRANCH  29  30
HETATM   30  C   UNL     1      -7.937   6.040  66.128  1.00  0.00    -0.107 C  
HETATM   31  O   UNL     1      -6.803   5.388  65.549  1.00  0.00    -0.057 OA 
HETATM   32  C   UNL     1      -6.911   3.958  65.621  1.00  0.00    -0.057 C  
HETATM   33  C   UNL     1      -8.120   3.393  64.831  1.00  0.00    -0.090 C  
HETATM   34  C   UNL     1      -9.419   4.035  65.392  1.00  0.00    -0.172 C  
HETATM   35  O   UNL     1      -7.969   3.739  63.445  1.00  0.00    -0.080 OA 
HETATM   36  C   UNL     1      -8.116   1.861  64.945  1.00  0.00    -0.078 C  
HETATM   37  H   UNL     1     -11.263   5.834  65.743  1.00  0.00     0.000 HD 
HETATM   38  H   UNL     1      -8.709   3.393  62.961  1.00  0.00     0.000 HD 
HETATM   39  C   UNL     1      -9.287   5.596  65.450  1.00  0.00     0.119 C  
HETATM   40  O   UNL     1     -10.449   6.101  66.152  1.00  0.00     0.030 OA 
BRANCH  34  41
HETATM   41  N   UNL     1     -10.745   3.593  64.862  1.00  0.00    -0.468 NA 
HETATM   42  C   UNL     1     -11.117   4.024  63.526  1.00  0.00     0.260 C  
HETATM   43  H   UNL     1     -11.366   3.008  65.420  1.00  0.00     0.000 HD 
ENDBRANCH  34  41
ENDBRANCH  29  30
ENDBRANCH  23  29
ENDBRANCH  14  15
ENDBRANCH   9  14
ENDBRANCH   4   5
ENDBRANCH   2   4
TORSDOF 7
ENDMDL
MODEL      344
REMARK 921   NORMALIZED FREE ENERGY PREDICTED BY IDOCK:    6.80 KCAL/MOL
REMARK 922        TOTAL FREE ENERGY PREDICTED BY IDOCK:    7.87 KCAL/MOL
REMARK 923 INTER-LIGAND FREE ENERGY PREDICTED BY IDOCK:   -2.23 KCAL/MOL
REMARK 924 INTRA-LIGAND FREE ENERGY PREDICTED BY IDOCK:   10.10 KCAL/MOL
REMARK 927      BINDING AFFINITY PREDICTED BY RF-SCORE:    0.00 PKD
ROOT
HETATM    1  C   UNL     1     -12.083   8.567  71.239  1.00  0.00    -0.286 C  
HETATM    2  N   UNL     1     -11.443   7.639  70.318  1.00  0.00    -0.456 NA 
HETATM    3  H   UNL     1     -11.955   6.758  70.284  1.00  0.00     0.000 HD 
ENDROOT
BRANCH   2   4
HETATM    4  C   UNL     1     -11.253   8.180  68.964  1.00  0.00     0.417 C  
BRANCH   4   5
HETATM    5  C   UNL     1     -11.269   9.728  68.844  1.00  0.00    -0.030 C  
HETATM    6  C   UNL     1     -12.622  10.352  69.130  1.00  0.00     0.795 C  
HETATM    7  C   UNL     1     -12.500  11.873  69.031  1.00  0.00     0.348 C  
HETATM    8  C   UNL     1     -11.751  12.330  67.761  1.00  0.00    -0.337 C  
HETATM    9  C   UNL     1     -10.482  11.440  67.386  1.00  0.00    -0.205 C  
HETATM   10  N   UNL     1     -11.543  13.796  67.824  1.00  0.00    -0.325 NA 
HETATM   11  O   UNL     1     -10.881  10.077  67.495  1.00  0.00    -0.277 OA 
HETATM   12  H1  UNL     1     -11.048  14.098  66.985  1.00  0.00     0.000 HD 
HETATM   13  H2  UNL     1     -11.068  14.085  68.679  1.00  0.00     0.000 HD 
BRANCH   9  14
HETATM   14  O   UNL     1      -9.261  11.717  68.112  1.00  0.00    -0.174 OA 
BRANCH  14  15
HETATM   15  C   UNL     1      -8.361  10.584  68.464  1.00  0.00    -0.129 C  
HETATM   16  C   UNL     1      -6.858  10.958  68.576  1.00  0.00    -0.059 C  
HETATM   17  N   UNL     1      -6.609  11.745  69.802  1.00  0.00    -0.297 NA 
HETATM   18  C   UNL     1      -5.947   9.715  68.641  1.00  0.00    -0.042 C  
HETATM   19  H2  UNL     1      -6.942  11.262  70.636  1.00  0.00     0.000 HD 
HETATM   20  H1  UNL     1      -5.622  11.990  69.875  1.00  0.00     0.000 HD 
HETATM   21  C   UNL     1      -6.155   8.761  67.455  1.00  0.00    -0.051 C  
HETATM   22  N   UNL     1      -5.130   7.711  67.454  1.00  0.00    -0.025 NA 
HETATM   23  C   UNL     1      -7.568   8.148  67.485  1.00  0.00    -0.101 C  
HETATM   24  C   UNL     1      -8.609   9.305  67.600  1.00  0.00    -0.116 C  
HETATM   25  O   UNL     1      -9.900   8.745  67.939  1.00  0.00    -0.156 OA 
HETATM   26  H1  UNL     1      -5.268   7.078  66.667  1.00  0.00     0.000 HD 
HETATM   27  H2  UNL     1      -5.099   7.211  68.342  1.00  0.00     0.000 HD 
HETATM   28  H   UNL     1     -10.050   7.967  67.413  1.00  0.00     0.000 HD 
BRANCH  23  29
HETATM   29  O   UNL     1      -7.846   7.482  66.219  1.00  0.00    -0.096 OA 
BRANCH  29  30
HETATM   30  C   UNL     1      -8.130   6.071  66.132  1.00  0.00    -0.110 C  
HETATM   31  O   UNL     1      -9.503   5.729  65.921  1.00  0.00    -0.133 OA 
HETATM   32  C   UNL     1      -9.678   4.321  65.701  1.00  0.00    -0.205 C  
HETATM   33  C   UNL     1      -9.251   3.453  66.914  1.00  0.00    -0.180 C  
HETATM   34  C   UNL     1      -7.757   3.742  67.224  1.00  0.00    -0.079 C  
HETATM   35  O   UNL     1     -10.060   3.810  68.046  1.00  0.00     0.087 OA 
HETATM   36  C   UNL     1      -9.516   1.976  66.584  1.00  0.00     0.201 C  
HETATM   37  H   UNL     1      -5.691   5.004  68.174  1.00  0.00     0.000 HD 
HETATM   38  H   UNL     1      -9.798   3.278  68.788  1.00  0.00     0.000 HD 
HETATM   39  C   UNL     1      -7.502   5.283  67.343  1.00  0.00    -0.084 C  
HETATM   40  O   UNL     1      -6.070   5.478  67.443  1.00  0.00    -0.027 OA 
BRANCH  34  41
HETATM   41  N   UNL     1      -7.067   2.965  68.299  1.00  0.00    -0.049 NA 
HETATM   42  C   UNL     1      -7.405   3.269  69.678  1.00  0.00    -0.045 C  
HETATM   43  H   UNL     1      -6.381   2.244  68.071  1.00  0.00     0.000 HD 
ENDBRANCH  34  41
ENDBRANCH  29  30
ENDBRANCH  23  29
ENDBRANCH  14  15
ENDBRANCH   9  14
ENDBRANCH   4   5
ENDBRANCH   2   4
TORSDOF 7
ENDMDL
MODEL      345
REMARK 921   NORMALIZED FREE ENERGY PREDICTED BY IDOCK:    7.14 KCAL/MOL
REMARK 922        TOTAL FREE ENERGY PREDICTED BY IDOCK:    8.35 KCAL/MOL
REMARK 923 INTER-LIGAND FREE ENERGY PREDICTED BY IDOCK:    3.84 KCAL/MOL
REMARK 924 INTRA-LIGAND FREE ENERGY PREDICTED BY IDOCK:    4.51 KCAL/MOL
REMARK 927      BINDING AFFINITY PREDICTED BY RF-SCORE:    0.00 PKD
ROOT
HETATM    1  C   UNL     1     -13.773   9.961  72.027  1.00  0.00    -0.211 C  
HETATM    2  N   UNL     1     -12.851  10.747  72.833  1.00  0.00     0.984 NA 
HETATM    3  H   UNL     1     -11.954  10.269  72.919  1.00  0.00     0.000 HD 
ENDROOT
BRANCH   2   4
HETATM    4  C   UNL     1     -12.660  12.122  72.348  1.00  0.00     1.003 C  
BRANCH   4   5
HETATM    5  C   UNL     1     -12.266  12.265  70.853  1.00  0.00    -0.197 C  
HETATM    6  C   UNL     1     -12.841  13.499  70.181  1.00  0.00     0.075 C  
HETATM    7  C   UNL     1     -12.344  13.557  68.737  1.00  0.00     0.013 C  
HETATM    8  C   UNL     1     -12.486  12.207  68.002  1.00  0.00     1.049 C  
HETATM    9  C   UNL     1     -12.110  10.933  68.884  1.00  0.00    -0.116 C  
HETATM   10  N   UNL     1     -11.843  12.310  66.671  1.00  0.00    -0.594 NA 
HETATM   11  O   UNL     1     -12.746  11.097  70.148  1.00  0.00    -0.206 OA 
HETATM   12  H1  UNL     1     -11.936  11.418  66.186  1.00  0.00     0.000 HD 
HETATM   13  H2  UNL     1     -10.872  12.619  66.732  1.00  0.00     0.000 HD 
BRANCH   9  14
HETATM   14  O   UNL     1     -10.701  10.628  69.011  1.00  0.00    -0.193 OA 
BRANCH  14  15
HETATM   15  C   UNL     1     -10.103   9.604  68.109  1.00  0.00    -0.175 C  
HETATM   16  C   UNL     1     -11.100   8.533  67.589  1.00  0.00     0.401 C  
HETATM   17  N   UNL     1     -12.011   9.117  66.583  1.00  0.00     3.773 NA 
HETATM   18  C   UNL     1     -10.385   7.342  66.918  1.00  0.00    -0.367 C  
HETATM   19  H2  UNL     1     -11.500   9.560  65.820  1.00  0.00     0.000 HD 
HETATM   20  H1  UNL     1     -12.666   8.413  66.242  1.00  0.00     0.000 HD 
HETATM   21  C   UNL     1      -9.344   6.679  67.832  1.00  0.00    -0.109 C  
HETATM   22  N   UNL     1      -8.847   5.437  67.229  1.00  0.00    -0.107 NA 
HETATM   23  C   UNL     1      -8.183   7.645  68.134  1.00  0.00    -0.124 C  
HETATM   24  C   UNL     1      -8.779   8.987  68.665  1.00  0.00    -0.133 C  
HETATM   25  O   UNL     1      -7.743   9.997  68.658  1.00  0.00    -0.082 OA 
HETATM   26  H1  UNL     1      -8.156   4.997  67.836  1.00  0.00     0.000 HD 
HETATM   27  H2  UNL     1      -8.482   5.592  66.290  1.00  0.00     0.000 HD 
HETATM   28  H   UNL     1      -6.938   9.622  68.996  1.00  0.00     0.000 HD 
BRANCH  23  29
HETATM   29  O   UNL     1      -7.364   7.113  69.216  1.00  0.00    -0.086 OA 
BRANCH  29  30
HETATM   30  C   UNL     1      -7.441   5.737  69.640  1.00  0.00    -0.075 C  
HETATM   31  O   UNL     1      -8.033   4.834  68.702  1.00  0.00    -0.079 OA 
HETATM   32  C   UNL     1      -7.938   3.469  69.137  1.00  0.00    -0.053 C  
HETATM   33  C   UNL     1      -8.695   3.193  70.463  1.00  0.00    -0.072 C  
HETATM   34  C   UNL     1      -8.116   4.125  71.564  1.00  0.00    -0.082 C  
HETATM   35  O   UNL     1     -10.089   3.481  70.268  1.00  0.00     0.071 OA 
HETATM   36  C   UNL     1      -8.558   1.703  70.812  1.00  0.00    -0.088 C  
HETATM   37  H   UNL     1      -7.754   6.306  72.931  1.00  0.00     0.000 HD 
HETATM   38  H   UNL     1     -10.552   3.312  71.080  1.00  0.00     0.000 HD 
HETATM   39  C   UNL     1      -8.084   5.613  71.072  1.00  0.00    -0.119 C  
HETATM   40  O   UNL     1      -7.366   6.381  72.068  1.00  0.00    -0.089 OA 
BRANCH  34  41
HETATM   41  N   UNL     1      -8.612   3.998  72.968  1.00  0.00    -0.098 NA 
HETATM   42  C   UNL     1      -7.662   3.591  73.988  1.00  0.00    -0.066 C  
HETATM   43  H   UNL     1      -9.587   4.191  73.202  1.00  0.00     0.000 HD 
ENDBRANCH  34  41
ENDBRANCH  29  30
ENDBRANCH  23  29
ENDBRANCH  14  15
ENDBRANCH   9  14
ENDBRANCH   4   5
ENDBRANCH   2   4
TORSDOF 7
ENDMDL
MODEL      346
REMARK 921   NORMALIZED FREE ENERGY PREDICTED BY IDOCK:    7.45 KCAL/MOL
REMARK 922        TOTAL FREE ENERGY PREDICTED BY IDOCK:    8.78 KCAL/MOL
REMARK 923 INTER-LIGAND FREE ENERGY PREDICTED BY IDOCK:    0.23 KCAL/MOL
REMARK 924 INTRA-LIGAND FREE ENERGY PREDICTED BY IDOCK:    8.55 KCAL/MOL
REMARK 927      BINDING AFFINITY PREDICTED BY RF-SCORE:    0.00 PKD
ROOT
HETATM    1  C   UNL     1      -8.414  12.194  63.326  1.00  0.00     2.049 C  
HETATM    2  N   UNL     1      -8.808  12.797  64.591  1.00  0.00     1.060 NA 
HETATM    3  H   UNL     1      -9.636  13.380  64.467  1.00  0.00     0.000 HD 
ENDROOT
BRANCH   2   4
HETATM    4  C   UNL     1      -9.017  11.826  65.675  1.00  0.00     0.047 C  
BRANCH   4   5
HETATM    5  C   UNL     1      -8.012  10.644  65.728  1.00  0.00    -0.152 C  
HETATM    6  C   UNL     1      -6.558  11.075  65.791  1.00  0.00     0.073 C  
HETATM    7  C   UNL     1      -5.674   9.832  65.892  1.00  0.00    -0.051 C  
HETATM    8  C   UNL     1      -6.057   8.742  64.869  1.00  0.00    -0.064 C  
HETATM    9  C   UNL     1      -7.627   8.543  64.672  1.00  0.00    -0.102 C  
HETATM   10  N   UNL     1      -5.259   7.522  65.138  1.00  0.00    -0.028 NA 
HETATM   11  O   UNL     1      -8.199   9.841  64.540  1.00  0.00    -0.137 OA 
HETATM   12  H1  UNL     1      -5.513   6.802  64.462  1.00  0.00     0.000 HD 
HETATM   13  H2  UNL     1      -5.355   7.201  66.102  1.00  0.00     0.000 HD 
BRANCH   9  14
HETATM   14  O   UNL     1      -8.306   7.739  65.666  1.00  0.00    -0.128 OA 
BRANCH  14  15
HETATM   15  C   UNL     1      -9.613   8.212  66.202  1.00  0.00    -0.118 C  
HETATM   16  C   UNL     1     -10.077   9.593  65.663  1.00  0.00    -0.161 C  
HETATM   17  N   UNL     1     -10.515   9.480  64.256  1.00  0.00     0.925 NA 
HETATM   18  C   UNL     1     -11.264  10.167  66.464  1.00  0.00     0.441 C  
HETATM   19  H2  UNL     1     -11.235   8.767  64.140  1.00  0.00     0.000 HD 
HETATM   20  H1  UNL     1     -10.819  10.386  63.902  1.00  0.00     0.000 HD 
HETATM   21  C   UNL     1     -10.973  10.271  67.969  1.00  0.00    -0.289 C  
HETATM   22  N   UNL     1     -12.043  11.008  68.649  1.00  0.00    -0.748 NA 
HETATM   23  C   UNL     1     -10.789   8.874  68.591  1.00  0.00     0.009 C  
HETATM   24  C   UNL     1      -9.722   8.096  67.758  1.00  0.00    -0.157 C  
HETATM   25  O   UNL     1      -9.762   6.698  68.128  1.00  0.00    -0.130 OA 
HETATM   26  H1  UNL     1     -11.850  11.078  69.648  1.00  0.00     0.000 HD 
HETATM   27  H2  UNL     1     -12.960  10.599  68.468  1.00  0.00     0.000 HD 
HETATM   28  H   UNL     1      -9.829   6.627  69.074  1.00  0.00     0.000 HD 
BRANCH  23  29
HETATM   29  O   UNL     1     -10.237   8.997  69.934  1.00  0.00    -0.188 OA 
BRANCH  29  30
HETATM   30  C   UNL     1     -10.134   7.875  70.834  1.00  0.00    -0.190 C  
HETATM   31  O   UNL     1     -11.149   7.793  71.837  1.00  0.00    -0.240 OA 
HETATM   32  C   UNL     1     -11.059   6.576  72.594  1.00  0.00    -0.257 C  
HETATM   33  C   UNL     1      -9.731   6.442  73.384  1.00  0.00    -0.165 C  
HETATM   34  C   UNL     1      -8.550   6.509  72.377  1.00  0.00    -0.119 C  
HETATM   35  O   UNL     1      -9.636   7.530  74.317  1.00  0.00    -0.409 OA 
HETATM   36  C   UNL     1      -9.759   5.129  74.182  1.00  0.00    -0.165 C  
HETATM   37  H   UNL     1      -6.792   7.582  70.790  1.00  0.00     0.000 HD 
HETATM   38  H   UNL     1      -8.822   7.448  74.800  1.00  0.00     0.000 HD 
HETATM   39  C   UNL     1      -8.686   7.761  71.444  1.00  0.00    -0.128 C  
HETATM   40  O   UNL     1      -7.665   7.651  70.422  1.00  0.00    -0.087 OA 
BRANCH  34  41
HETATM   41  N   UNL     1      -7.152   6.314  72.871  1.00  0.00    -0.079 NA 
HETATM   42  C   UNL     1      -6.971   5.633  74.140  1.00  0.00    -0.081 C  
HETATM   43  H   UNL     1      -6.352   6.649  72.333  1.00  0.00     0.000 HD 
ENDBRANCH  34  41
ENDBRANCH  29  30
ENDBRANCH  23  29
ENDBRANCH  14  15
ENDBRANCH   9  14
ENDBRANCH   4   5
ENDBRANCH   2   4
TORSDOF 7
ENDMDL
MODEL      347
REMARK 921   NORMALIZED FREE ENERGY PREDICTED BY IDOCK:    8.66 KCAL/MOL
REMARK 922        TOTAL FREE ENERGY PREDICTED BY IDOCK:   10.50 KCAL/MOL
REMARK 923 INTER-LIGAND FREE ENERGY PREDICTED BY IDOCK:    8.91 KCAL/MOL
REMARK 924 INTRA-LIGAND FREE ENERGY PREDICTED BY IDOCK:    1.59 KCAL/MOL
REMARK 927      BINDING AFFINITY PREDICTED BY RF-SCORE:    0.00 PKD
ROOT
HETATM    1  C   UNL     1     -13.797  10.291  70.098  1.00  0.00     1.420 C  
HETATM    2  N   UNL     1     -13.449   9.139  69.279  1.00  0.00     3.675 NA 
HETATM    3  H   UNL     1     -13.929   9.180  68.381  1.00  0.00     0.000 HD 
ENDROOT
BRANCH   2   4
HETATM    4  C   UNL     1     -12.002   8.962  69.085  1.00  0.00     1.634 C  
BRANCH   4   5
HETATM    5  C   UNL     1     -11.391   9.679  67.850  1.00  0.00     0.317 C  
HETATM    6  C   UNL     1     -10.344   8.858  67.119  1.00  0.00    -0.351 C  
HETATM    7  C   UNL     1      -9.858   9.643  65.900  1.00  0.00    -0.358 C  
HETATM    8  C   UNL     1      -9.517  11.111  66.233  1.00  0.00    -0.196 C  
HETATM    9  C   UNL     1     -10.541  11.817  67.232  1.00  0.00    -0.224 C  
HETATM   10  N   UNL     1      -9.207  11.833  64.977  1.00  0.00    -0.422 NA 
HETATM   11  O   UNL     1     -10.775  10.906  68.303  1.00  0.00    -0.178 OA 
HETATM   12  H1  UNL     1      -8.982  12.803  65.197  1.00  0.00     0.000 HD 
HETATM   13  H2  UNL     1      -9.956  11.755  64.289  1.00  0.00     0.000 HD 
BRANCH   9  14
HETATM   14  O   UNL     1     -11.770  12.314  66.653  1.00  0.00    -0.452 OA 
BRANCH  14  15
HETATM   15  C   UNL     1     -11.968  13.786  66.541  1.00  0.00    -0.434 C  
HETATM   16  C   UNL     1     -11.508  14.404  65.192  1.00  0.00    -0.362 C  
HETATM   17  N   UNL     1     -12.443  14.037  64.108  1.00  0.00    -0.696 NA 
HETATM   18  C   UNL     1     -11.453  15.945  65.241  1.00  0.00     0.078 C  
HETATM   19  H2  UNL     1     -13.404  14.292  64.334  1.00  0.00     0.000 HD 
HETATM   20  H1  UNL     1     -12.141  14.442  63.223  1.00  0.00     0.000 HD 
HETATM   21  C   UNL     1     -10.567  16.474  66.380  1.00  0.00    -0.221 C  
HETATM   22  N   UNL     1     -10.382  17.924  66.256  1.00  0.00    -0.379 NA 
HETATM   23  C   UNL     1     -11.165  16.113  67.753  1.00  0.00    -0.199 C  
HETATM   24  C   UNL     1     -11.445  14.578  67.784  1.00  0.00    -0.340 C  
HETATM   25  O   UNL     1     -12.280  14.274  68.926  1.00  0.00    -0.503 OA 
HETATM   26  H1  UNL     1      -9.795  18.275  67.012  1.00  0.00     0.000 HD 
HETATM   27  H2  UNL     1     -11.274  18.417  66.209  1.00  0.00     0.000 HD 
HETATM   28  H   UNL     1     -11.962  14.755  69.682  1.00  0.00     0.000 HD 
BRANCH  23  29
HETATM   29  O   UNL     1     -10.184  16.364  68.802  1.00  0.00    -0.230 OA 
BRANCH  29  30
HETATM   30  C   UNL     1      -9.101  17.302  68.640  1.00  0.00    -0.260 C  
HETATM   31  O   UNL     1      -8.413  17.240  67.388  1.00  0.00    -0.197 OA 
HETATM   32  C   UNL     1      -7.451  18.298  67.250  1.00  0.00    -0.213 C  
HETATM   33  C   UNL     1      -6.320  18.240  68.311  1.00  0.00    -0.198 C  
HETATM   34  C   UNL     1      -6.965  18.312  69.723  1.00  0.00     0.258 C  
HETATM   35  O   UNL     1      -5.611  17.000  68.164  1.00  0.00    -0.116 OA 
HETATM   36  C   UNL     1      -5.334  19.389  68.048  1.00  0.00    -0.181 C  
HETATM   37  H   UNL     1      -8.184  17.477  71.862  1.00  0.00     0.000 HD 
HETATM   38  H   UNL     1      -4.919  16.965  68.813  1.00  0.00     0.000 HD 
HETATM   39  C   UNL     1      -8.111  17.253  69.864  1.00  0.00     1.518 C  
HETATM   40  O   UNL     1      -8.781  17.507  71.123  1.00  0.00     6.464 OA 
BRANCH  34  41
HETATM   41  N   UNL     1      -6.084  18.364  70.930  1.00  0.00     0.387 NA 
HETATM   42  C   UNL     1      -5.148  17.273  71.133  1.00  0.00    -0.134 C  
HETATM   43  H   UNL     1      -6.139  19.142  71.588  1.00  0.00     0.000 HD 
ENDBRANCH  34  41
ENDBRANCH  29  30
ENDBRANCH  23  29
ENDBRANCH  14  15
ENDBRANCH   9  14
ENDBRANCH   4   5
ENDBRANCH   2   4
TORSDOF 7
ENDMDL
MODEL      348
REMARK 921   NORMALIZED FREE ENERGY PREDICTED BY IDOCK:    8.76 KCAL/MOL
REMARK 922        TOTAL FREE ENERGY PREDICTED BY IDOCK:   10.64 KCAL/MOL
REMARK 923 INTER-LIGAND FREE ENERGY PREDICTED BY IDOCK:   -2.14 KCAL/MOL
REMARK 924 INTRA-LIGAND FREE ENERGY PREDICTED BY IDOCK:   12.77 KCAL/MOL
REMARK 927      BINDING AFFINITY PREDICTED BY RF-SCORE:    0.00 PKD
ROOT
HETATM    1  C   UNL     1     -11.004  14.967  70.599  1.00  0.00    -0.153 C  
HETATM    2  N   UNL     1     -10.987  16.421  70.537  1.00  0.00    -0.272 NA 
HETATM    3  H   UNL     1     -10.736  16.815  71.443  1.00  0.00     0.000 HD 
ENDROOT
BRANCH   2   4
HETATM    4  C   UNL     1     -10.122  16.962  69.479  1.00  0.00    -0.083 C  
BRANCH   4   5
HETATM    5  C   UNL     1      -8.833  16.151  69.176  1.00  0.00    -0.239 C  
HETATM    6  C   UNL     1      -9.007  14.649  69.310  1.00  0.00     0.044 C  
HETATM    7  C   UNL     1      -7.693  13.960  68.938  1.00  0.00    -0.041 C  
HETATM    8  C   UNL     1      -6.467  14.606  69.619  1.00  0.00    -0.149 C  
HETATM    9  C   UNL     1      -6.503  16.200  69.668  1.00  0.00    -0.190 C  
HETATM   10  N   UNL     1      -5.233  13.983  69.087  1.00  0.00    -0.074 NA 
HETATM   11  O   UNL     1      -7.807  16.576  70.102  1.00  0.00     0.978 OA 
HETATM   12  H1  UNL     1      -4.424  14.409  69.537  1.00  0.00     0.000 HD 
HETATM   13  H2  UNL     1      -5.182  14.031  68.069  1.00  0.00     0.000 HD 
BRANCH   9  14
HETATM   14  O   UNL     1      -6.101  16.892  68.463  1.00  0.00    -0.139 OA 
BRANCH  14  15
HETATM   15  C   UNL     1      -7.153  17.469  67.580  1.00  0.00    -0.168 C  
HETATM   16  C   UNL     1      -7.763  18.806  68.084  1.00  0.00    -0.285 C  
HETATM   17  N   UNL     1      -6.796  19.911  67.920  1.00  0.00    -0.253 NA 
HETATM   18  C   UNL     1      -9.037  19.199  67.307  1.00  0.00    -0.334 C  
HETATM   19  H2  UNL     1      -6.464  19.985  66.959  1.00  0.00     0.000 HD 
HETATM   20  H1  UNL     1      -7.197  20.789  68.251  1.00  0.00     0.000 HD 
HETATM   21  C   UNL     1     -10.111  18.100  67.329  1.00  0.00    -0.347 C  
HETATM   22  N   UNL     1     -11.368  18.598  66.760  1.00  0.00     0.547 NA 
HETATM   23  C   UNL     1      -9.628  16.845  66.576  1.00  0.00    -0.278 C  
HETATM   24  C   UNL     1      -8.236  16.429  67.146  1.00  0.00    -0.180 C  
HETATM   25  O   UNL     1      -7.634  15.458  66.258  1.00  0.00    -0.094 OA 
HETATM   26  H1  UNL     1     -12.081  17.869  66.775  1.00  0.00     0.000 HD 
HETATM   27  H2  UNL     1     -11.235  18.980  65.824  1.00  0.00     0.000 HD 
HETATM   28  H   UNL     1      -8.293  14.826  65.994  1.00  0.00     0.000 HD 
BRANCH  23  29
HETATM   29  O   UNL     1     -10.524  15.729  66.848  1.00  0.00    -0.304 OA 
BRANCH  29  30
HETATM   30  C   UNL     1     -11.127  14.946  65.797  1.00  0.00    -0.342 C  
HETATM   31  O   UNL     1     -12.408  14.389  66.099  1.00  0.00    -0.401 OA 
HETATM   32  C   UNL     1     -13.001  13.753  64.956  1.00  0.00    -0.162 C  
HETATM   33  C   UNL     1     -12.176  12.549  64.428  1.00  0.00    -0.449 C  
HETATM   34  C   UNL     1     -10.754  13.052  64.056  1.00  0.00    -0.357 C  
HETATM   35  O   UNL     1     -12.085  11.560  65.466  1.00  0.00    -0.059 OA 
HETATM   36  C   UNL     1     -12.917  11.925  63.236  1.00  0.00    -0.166 C  
HETATM   37  H   UNL     1      -8.291  13.802  64.417  1.00  0.00     0.000 HD 
HETATM   38  H   UNL     1     -11.581  10.824  65.142  1.00  0.00     0.000 HD 
HETATM   39  C   UNL     1     -10.125  13.866  65.239  1.00  0.00    -0.303 C  
HETATM   40  O   UNL     1      -8.895  14.454  64.753  1.00  0.00     2.338 OA 
BRANCH  34  41
HETATM   41  N   UNL     1      -9.780  12.104  63.435  1.00  0.00    -0.645 NA 
HETATM   42  C   UNL     1      -8.787  11.490  64.299  1.00  0.00     0.424 C  
HETATM   43  H   UNL     1      -9.811  11.895  62.437  1.00  0.00     0.000 HD 
ENDBRANCH  34  41
ENDBRANCH  29  30
ENDBRANCH  23  29
ENDBRANCH  14  15
ENDBRANCH   9  14
ENDBRANCH   4   5
ENDBRANCH   2   4
TORSDOF 7
ENDMDL
MODEL      349
REMARK 921   NORMALIZED FREE ENERGY PREDICTED BY IDOCK:    9.52 KCAL/MOL
REMARK 922        TOTAL FREE ENERGY PREDICTED BY IDOCK:   11.70 KCAL/MOL
REMARK 923 INTER-LIGAND FREE ENERGY PREDICTED BY IDOCK:    8.84 KCAL/MOL
REMARK 924 INTRA-LIGAND FREE ENERGY PREDICTED BY IDOCK:    2.87 KCAL/MOL
REMARK 927      BINDING AFFINITY PREDICTED BY RF-SCORE:    0.00 PKD
ROOT
HETATM    1  C   UNL     1     -10.103   9.192  71.410  1.00  0.00    -0.322 C  
HETATM    2  N   UNL     1      -9.381  10.415  71.729  1.00  0.00     3.456 NA 
HETATM    3  H   UNL     1      -9.475  10.639  72.719  1.00  0.00     0.000 HD 
ENDROOT
BRANCH   2   4
HETATM    4  C   UNL     1      -7.964  10.388  71.337  1.00  0.00     3.413 C  
BRANCH   4   5
HETATM    5  C   UNL     1      -7.542  11.410  70.246  1.00  0.00     1.787 C  
HETATM    6  C   UNL     1      -6.352  12.268  70.634  1.00  0.00     0.619 C  
HETATM    7  C   UNL     1      -6.002  13.191  69.468  1.00  0.00    -0.108 C  
HETATM    8  C   UNL     1      -7.239  13.903  68.878  1.00  0.00    -0.103 C  
HETATM    9  C   UNL     1      -8.534  12.981  68.755  1.00  0.00     0.150 C  
HETATM   10  N   UNL     1      -6.834  14.650  67.664  1.00  0.00    -0.178 NA 
HETATM   11  O   UNL     1      -8.668  12.281  69.989  1.00  0.00     2.492 OA 
HETATM   12  H1  UNL     1      -7.651  15.119  67.274  1.00  0.00     0.000 HD 
HETATM   13  H2  UNL     1      -6.365  14.055  66.980  1.00  0.00     0.000 HD 
BRANCH   9  14
HETATM   14  O   UNL     1      -8.592  12.098  67.610  1.00  0.00    -0.149 OA 
BRANCH  14  15
HETATM   15  C   UNL     1      -7.527  11.071  67.439  1.00  0.00    -0.106 C  
HETATM   16  C   UNL     1      -6.605  11.289  66.208  1.00  0.00    -0.018 C  
HETATM   17  N   UNL     1      -5.692  12.427  66.440  1.00  0.00    -0.196 NA 
HETATM   18  C   UNL     1      -5.727  10.056  65.907  1.00  0.00    -0.068 C  
HETATM   19  H2  UNL     1      -5.155  12.314  67.299  1.00  0.00     0.000 HD 
HETATM   20  H1  UNL     1      -5.087  12.570  65.631  1.00  0.00     0.000 HD 
HETATM   21  C   UNL     1      -6.549   8.772  65.717  1.00  0.00    -0.060 C  
HETATM   22  N   UNL     1      -5.694   7.682  65.232  1.00  0.00    -0.037 NA 
HETATM   23  C   UNL     1      -7.255   8.373  67.026  1.00  0.00    -0.080 C  
HETATM   24  C   UNL     1      -8.056   9.604  67.553  1.00  0.00    -0.114 C  
HETATM   25  O   UNL     1      -8.465   9.351  68.918  1.00  0.00    -0.117 OA 
HETATM   26  H1  UNL     1      -6.239   6.830  65.105  1.00  0.00     0.000 HD 
HETATM   27  H2  UNL     1      -4.890   7.532  65.841  1.00  0.00     0.000 HD 
HETATM   28  H   UNL     1      -8.787   8.459  68.987  1.00  0.00     0.000 HD 
BRANCH  23  29
HETATM   29  O   UNL     1      -8.243   7.335  66.760  1.00  0.00    -0.116 OA 
BRANCH  29  30
HETATM   30  C   UNL     1      -7.898   5.936  66.696  1.00  0.00    -0.101 C  
HETATM   31  O   UNL     1      -8.094   5.309  65.426  1.00  0.00    -0.111 OA 
HETATM   32  C   UNL     1      -7.591   3.964  65.408  1.00  0.00    -0.082 C  
HETATM   33  C   UNL     1      -8.312   3.026  66.412  1.00  0.00    -0.098 C  
HETATM   34  C   UNL     1      -8.151   3.616  67.840  1.00  0.00    -0.084 C  
HETATM   35  O   UNL     1      -9.706   2.964  66.068  1.00  0.00    -0.387 OA 
HETATM   36  C   UNL     1      -7.724   1.613  66.282  1.00  0.00    -0.066 C  
HETATM   37  H   UNL     1      -8.620   5.160  69.879  1.00  0.00     0.000 HD 
HETATM   38  H   UNL     1     -10.147   2.389  66.683  1.00  0.00     0.000 HD 
HETATM   39  C   UNL     1      -8.569   5.126  67.869  1.00  0.00    -0.103 C  
HETATM   40  O   UNL     1      -8.215   5.648  69.172  1.00  0.00    -0.098 OA 
BRANCH  34  41
HETATM   41  N   UNL     1      -8.680   2.855  69.013  1.00  0.00    -0.075 NA 
HETATM   42  C   UNL     1      -9.012   3.604  70.212  1.00  0.00    -0.103 C  
HETATM   43  H   UNL     1      -8.804   1.843  68.972  1.00  0.00     0.000 HD 
ENDBRANCH  34  41
ENDBRANCH  29  30
ENDBRANCH  23  29
ENDBRANCH  14  15
ENDBRANCH   9  14
ENDBRANCH   4   5
ENDBRANCH   2   4
TORSDOF 7
ENDMDL
MODEL      350
REMARK 921   NORMALIZED FREE ENERGY PREDICTED BY IDOCK:    9.89 KCAL/MOL
REMARK 922        TOTAL FREE ENERGY PREDICTED BY IDOCK:   12.23 KCAL/MOL
REMARK 923 INTER-LIGAND FREE ENERGY PREDICTED BY IDOCK:   11.73 KCAL/MOL
REMARK 924 INTRA-LIGAND FREE ENERGY PREDICTED BY IDOCK:    0.50 KCAL/MOL
REMARK 927      BINDING AFFINITY PREDICTED BY RF-SCORE:    0.00 PKD
ROOT
HETATM    1  C   UNL     1     -12.920  11.781  66.225  1.00  0.00     4.351 C  
HETATM    2  N   UNL     1     -13.837  12.279  65.211  1.00  0.00     2.021 NA 
HETATM    3  H   UNL     1     -14.372  13.070  65.568  1.00  0.00     0.000 HD 
ENDROOT
BRANCH   2   4
HETATM    4  C   UNL     1     -13.187  12.626  63.939  1.00  0.00     0.435 C  
BRANCH   4   5
HETATM    5  C   UNL     1     -11.644  12.456  63.897  1.00  0.00    -0.441 C  
HETATM    6  C   UNL     1     -10.932  13.505  63.062  1.00  0.00     2.101 C  
HETATM    7  C   UNL     1      -9.425  13.265  63.140  1.00  0.00     4.713 C  
HETATM    8  C   UNL     1      -9.043  11.786  62.915  1.00  0.00     0.257 C  
HETATM    9  C   UNL     1     -10.017  10.738  63.621  1.00  0.00    -0.345 C  
HETATM   10  N   UNL     1      -7.592  11.618  63.161  1.00  0.00     0.714 NA 
HETATM   11  O   UNL     1     -11.351  11.153  63.341  1.00  0.00    -0.153 OA 
HETATM   12  H1  UNL     1      -7.340  10.641  63.012  1.00  0.00     0.000 HD 
HETATM   13  H2  UNL     1      -7.312  11.954  64.083  1.00  0.00     0.000 HD 
BRANCH   9  14
HETATM   14  O   UNL     1      -9.797  10.500  65.031  1.00  0.00    -0.258 OA 
BRANCH  14  15
HETATM   15  C   UNL     1      -8.447  10.062  65.484  1.00  0.00    -0.147 C  
HETATM   16  C   UNL     1      -8.392   8.623  66.067  1.00  0.00    -0.131 C  
HETATM   17  N   UNL     1      -8.529   7.621  64.989  1.00  0.00    -0.331 NA 
HETATM   18  C   UNL     1      -7.059   8.334  66.789  1.00  0.00    -0.077 C  
HETATM   19  H2  UNL     1      -7.836   7.759  64.253  1.00  0.00     0.000 HD 
HETATM   20  H1  UNL     1      -8.493   6.677  65.372  1.00  0.00     0.000 HD 
HETATM   21  C   UNL     1      -6.748   9.352  67.896  1.00  0.00    -0.067 C  
HETATM   22  N   UNL     1      -5.588   8.918  68.683  1.00  0.00    -0.040 NA 
HETATM   23  C   UNL     1      -6.514  10.754  67.303  1.00  0.00    -0.070 C  
HETATM   24  C   UNL     1      -7.725  11.115  66.387  1.00  0.00    -0.124 C  
HETATM   25  O   UNL     1      -7.385  12.272  65.589  1.00  0.00     1.023 OA 
HETATM   26  H1  UNL     1      -5.381   9.594  69.417  1.00  0.00     0.000 HD 
HETATM   27  H2  UNL     1      -4.776   8.739  68.092  1.00  0.00     0.000 HD 
HETATM   28  H   UNL     1      -6.946  12.912  66.137  1.00  0.00     0.000 HD 
BRANCH  23  29
HETATM   29  O   UNL     1      -6.506  11.749  68.368  1.00  0.00    -0.050 OA 
BRANCH  29  30
HETATM   30  C   UNL     1      -6.630  13.162  68.108  1.00  0.00    -0.107 C  
HETATM   31  O   UNL     1      -5.439  13.931  68.297  1.00  0.00    -0.094 OA 
HETATM   32  C   UNL     1      -5.608  15.294  67.879  1.00  0.00    -0.129 C  
HETATM   33  C   UNL     1      -6.687  16.056  68.692  1.00  0.00    -0.125 C  
HETATM   34  C   UNL     1      -8.038  15.303  68.544  1.00  0.00    -0.143 C  
HETATM   35  O   UNL     1      -6.294  16.081  70.073  1.00  0.00    -0.177 OA 
HETATM   36  C   UNL     1      -6.757  17.506  68.188  1.00  0.00    -0.191 C  
HETATM   37  H   UNL     1      -9.850  13.492  68.989  1.00  0.00     0.000 HD 
HETATM   38  H   UNL     1      -6.955  16.548  70.570  1.00  0.00     0.000 HD 
HETATM   39  C   UNL     1      -7.863  13.779  68.869  1.00  0.00     0.005 C  
HETATM   40  O   UNL     1      -9.106  13.120  68.530  1.00  0.00    -0.155 OA 
BRANCH  34  41
HETATM   41  N   UNL     1      -9.271  15.880  69.161  1.00  0.00    -0.240 NA 
HETATM   42  C   UNL     1      -9.896  17.010  68.496  1.00  0.00    -0.290 C  
HETATM   43  H   UNL     1      -9.661  15.492  70.020  1.00  0.00     0.000 HD 
ENDBRANCH  34  41
ENDBRANCH  29  30
ENDBRANCH  23  29
ENDBRANCH  14  15
ENDBRANCH   9  14
ENDBRANCH   4   5
ENDBRANCH   2   4
TORSDOF 7
ENDMDL
MODEL      351
REMARK 921   NORMALIZED FREE ENERGY PREDICTED BY IDOCK:   12.80 KCAL/MOL
REMARK 922        TOTAL FREE ENERGY PREDICTED BY IDOCK:   16.33 KCAL/MOL
REMARK 923 INTER-LIGAND FREE ENERGY PREDICTED BY IDOCK:   -4.32 KCAL/MOL
REMARK 924 INTRA-LIGAND FREE ENERGY PREDICTED BY IDOCK:   20.66 KCAL/MOL
REMARK 927      BINDING AFFINITY PREDICTED BY RF-SCORE:    0.00 PKD
ROOT
HETATM    1  C   UNL     1      -9.580   4.662  72.911  1.00  0.00    -0.131 C  
HETATM    2  N   UNL     1      -9.442   5.998  73.471  1.00  0.00    -0.138 NA 
HETATM    3  H   UNL     1      -8.470   6.184  73.717  1.00  0.00     0.000 HD 
ENDROOT
BRANCH   2   4
HETATM    4  C   UNL     1      -9.972   7.063  72.608  1.00  0.00    -0.173 C  
BRANCH   4   5
HETATM    5  C   UNL     1      -9.721   6.890  71.085  1.00  0.00    -0.173 C  
HETATM    6  C   UNL     1     -10.825   6.141  70.362  1.00  0.00    -0.374 C  
HETATM    7  C   UNL     1     -10.491   6.080  68.871  1.00  0.00    -0.309 C  
HETATM    8  C   UNL     1      -9.034   5.649  68.603  1.00  0.00    -0.111 C  
HETATM    9  C   UNL     1      -7.962   6.289  69.596  1.00  0.00    -0.112 C  
HETATM   10  N   UNL     1      -8.753   5.767  67.153  1.00  0.00    -0.109 NA 
HETATM   11  O   UNL     1      -8.485   6.159  70.915  1.00  0.00    -0.125 OA 
HETATM   12  H1  UNL     1      -7.790   5.482  66.975  1.00  0.00     0.000 HD 
HETATM   13  H2  UNL     1      -8.954   6.700  66.793  1.00  0.00     0.000 HD 
BRANCH   9  14
HETATM   14  O   UNL     1      -7.535   7.640  69.301  1.00  0.00    -0.089 OA 
BRANCH  14  15
HETATM   15  C   UNL     1      -8.408   8.502  68.457  1.00  0.00    -0.123 C  
HETATM   16  C   UNL     1      -7.653   9.573  67.623  1.00  0.00    -0.094 C  
HETATM   17  N   UNL     1      -6.926   8.940  66.503  1.00  0.00    -0.079 NA 
HETATM   18  C   UNL     1      -8.607  10.620  67.011  1.00  0.00    -0.128 C  
HETATM   19  H2  UNL     1      -7.544   8.374  65.922  1.00  0.00     0.000 HD 
HETATM   20  H1  UNL     1      -6.431   9.643  65.955  1.00  0.00     0.000 HD 
HETATM   21  C   UNL     1      -9.488  11.311  68.064  1.00  0.00    -0.173 C  
HETATM   22  N   UNL     1     -10.220  12.432  67.465  1.00  0.00    -0.207 NA 
HETATM   23  C   UNL     1     -10.459  10.307  68.713  1.00  0.00    -0.203 C  
HETATM   24  C   UNL     1      -9.636   9.085  69.230  1.00  0.00    -0.162 C  
HETATM   25  O   UNL     1     -10.547   8.008  69.556  1.00  0.00    -0.227 OA 
HETATM   26  H1  UNL     1     -10.805  12.891  68.163  1.00  0.00     0.000 HD 
HETATM   27  H2  UNL     1     -10.761  12.140  66.651  1.00  0.00     0.000 HD 
HETATM   28  H   UNL     1     -11.293   8.362  70.026  1.00  0.00     0.000 HD 
BRANCH  23  29
HETATM   29  O   UNL     1     -11.075  10.903  69.891  1.00  0.00    -0.266 OA 
BRANCH  29  30
HETATM   30  C   UNL     1     -11.087  12.327  70.121  1.00  0.00     0.627 C  
HETATM   31  O   UNL     1     -12.377  12.907  70.331  1.00  0.00    -0.323 OA 
HETATM   32  C   UNL     1     -12.289  14.293  70.697  1.00  0.00    -0.361 C  
HETATM   33  C   UNL     1     -11.648  15.178  69.596  1.00  0.00    -0.311 C  
HETATM   34  C   UNL     1     -10.224  14.636  69.295  1.00  0.00    -0.147 C  
HETATM   35  O   UNL     1     -12.456  15.101  68.411  1.00  0.00    -0.491 OA 
HETATM   36  C   UNL     1     -11.639  16.638  70.075  1.00  0.00     0.387 C  
HETATM   37  H   UNL     1      -8.397  13.096  68.270  1.00  0.00     0.000 HD 
HETATM   38  H   UNL     1     -12.064  15.644  67.737  1.00  0.00     0.000 HD 
HETATM   39  C   UNL     1     -10.264  13.093  69.018  1.00  0.00     0.107 C  
HETATM   40  O   UNL     1      -8.893  12.634  68.935  1.00  0.00     0.117 OA 
BRANCH  34  41
HETATM   41  N   UNL     1      -9.349  15.366  68.329  1.00  0.00    -0.190 NA 
HETATM   42  C   UNL     1      -9.724  15.345  66.926  1.00  0.00    -0.231 C  
HETATM   43  H   UNL     1      -8.516  15.864  68.644  1.00  0.00     0.000 HD 
ENDBRANCH  34  41
ENDBRANCH  29  30
ENDBRANCH  23  29
ENDBRANCH  14  15
ENDBRANCH   9  14
ENDBRANCH   4   5
ENDBRANCH   2   4
TORSDOF 7
ENDMDL
MODEL      352
REMARK 921   NORMALIZED FREE ENERGY PREDICTED BY IDOCK:   14.33 KCAL/MOL
REMARK 922        TOTAL FREE ENERGY PREDICTED BY IDOCK:   18.49 KCAL/MOL
REMARK 923 INTER-LIGAND FREE ENERGY PREDICTED BY IDOCK:    3.97 KCAL/MOL
REMARK 924 INTRA-LIGAND FREE ENERGY PREDICTED BY IDOCK:   14.51 KCAL/MOL
REMARK 927      BINDING AFFINITY PREDICTED BY RF-SCORE:    0.00 PKD
ROOT
HETATM    1  C   UNL     1      -9.523   4.492  73.473  1.00  0.00    -0.117 C  
HETATM    2  N   UNL     1     -10.934   4.484  73.827  1.00  0.00    -0.291 NA 
HETATM    3  H   UNL     1     -11.075   4.023  74.725  1.00  0.00     0.000 HD 
ENDROOT
BRANCH   2   4
HETATM    4  C   UNL     1     -11.556   5.817  73.825  1.00  0.00     1.123 C  
BRANCH   4   5
HETATM    5  C   UNL     1     -11.178   6.740  72.636  1.00  0.00    -0.255 C  
HETATM    6  C   UNL     1     -10.530   8.047  73.054  1.00  0.00    -0.341 C  
HETATM    7  C   UNL     1     -10.159   8.842  71.802  1.00  0.00    -0.407 C  
HETATM    8  C   UNL     1     -11.309   8.906  70.773  1.00  0.00    -0.278 C  
HETATM    9  C   UNL     1     -12.112   7.540  70.595  1.00  0.00    -0.087 C  
HETATM   10  N   UNL     1     -10.815   9.556  69.536  1.00  0.00    -0.253 NA 
HETATM   11  O   UNL     1     -12.387   7.044  71.902  1.00  0.00    -0.324 OA 
HETATM   12  H1  UNL     1     -11.574   9.598  68.856  1.00  0.00     0.000 HD 
HETATM   13  H2  UNL     1      -9.985   9.097  69.161  1.00  0.00     0.000 HD 
BRANCH   9  14
HETATM   14  O   UNL     1     -11.507   6.541  69.741  1.00  0.00    -0.388 OA 
BRANCH  14  15
HETATM   15  C   UNL     1     -10.061   6.662  69.406  1.00  0.00    -0.173 C  
HETATM   16  C   UNL     1      -9.282   7.706  70.252  1.00  0.00    -0.157 C  
HETATM   17  N   UNL     1      -9.084   7.213  71.631  1.00  0.00    -0.137 NA 
HETATM   18  C   UNL     1      -7.885   8.007  69.672  1.00  0.00    -0.104 C  
HETATM   19  H2  UNL     1      -8.630   6.300  71.645  1.00  0.00     0.000 HD 
HETATM   20  H1  UNL     1      -8.573   7.898  72.186  1.00  0.00     0.000 HD 
HETATM   21  C   UNL     1      -7.934   8.463  68.205  1.00  0.00    -0.119 C  
HETATM   22  N   UNL     1      -6.614   8.931  67.769  1.00  0.00    -0.061 NA 
HETATM   23  C   UNL     1      -8.442   7.329  67.295  1.00  0.00    -0.118 C  
HETATM   24  C   UNL     1      -9.790   6.795  67.872  1.00  0.00    -0.129 C  
HETATM   25  O   UNL     1     -10.120   5.545  67.221  1.00  0.00    -0.149 OA 
HETATM   26  H1  UNL     1      -6.646   9.234  66.795  1.00  0.00     0.000 HD 
HETATM   27  H2  UNL     1      -5.892   8.227  67.923  1.00  0.00     0.000 HD 
HETATM   28  H   UNL     1      -9.955   5.626  66.288  1.00  0.00     0.000 HD 
BRANCH  23  29
HETATM   29  O   UNL     1      -8.753   7.857  65.972  1.00  0.00    -0.145 OA 
BRANCH  29  30
HETATM   30  C   UNL     1      -8.929   9.267  65.724  1.00  0.00    -0.192 C  
HETATM   31  O   UNL     1      -8.190  10.142  66.580  1.00  0.00    -0.121 OA 
HETATM   32  C   UNL     1      -8.305  11.515  66.175  1.00  0.00    -0.018 C  
HETATM   33  C   UNL     1      -9.759  12.053  66.240  1.00  0.00    -0.235 C  
HETATM   34  C   UNL     1     -10.653  11.171  65.327  1.00  0.00    -0.238 C  
HETATM   35  O   UNL     1     -10.222  11.971  67.598  1.00  0.00    -0.195 OA 
HETATM   36  C   UNL     1      -9.759  13.532  65.824  1.00  0.00    -0.156 C  
HETATM   37  H   UNL     1     -12.089   9.126  64.607  1.00  0.00     0.000 HD 
HETATM   38  H   UNL     1     -11.111  12.301  67.637  1.00  0.00     0.000 HD 
HETATM   39  C   UNL     1     -10.455   9.651  65.655  1.00  0.00     0.338 C  
HETATM   40  O   UNL     1     -11.169   8.895  64.648  1.00  0.00     6.733 OA 
BRANCH  34  41
HETATM   41  N   UNL     1     -12.092  11.531  65.139  1.00  0.00     0.083 NA 
HETATM   42  C   UNL     1     -12.674  11.328  63.824  1.00  0.00     0.885 C  
HETATM   43  H   UNL     1     -12.646  11.906  65.909  1.00  0.00     0.000 HD 
ENDBRANCH  34  41
ENDBRANCH  29  30
ENDBRANCH  23  29
ENDBRANCH  14  15
ENDBRANCH   9  14
ENDBRANCH   4   5
ENDBRANCH   2   4
TORSDOF 7
ENDMDL
MODEL      353
REMARK 921   NORMALIZED FREE ENERGY PREDICTED BY IDOCK:   16.27 KCAL/MOL
REMARK 922        TOTAL FREE ENERGY PREDICTED BY IDOCK:   21.22 KCAL/MOL
REMARK 923 INTER-LIGAND FREE ENERGY PREDICTED BY IDOCK:   -3.10 KCAL/MOL
REMARK 924 INTRA-LIGAND FREE ENERGY PREDICTED BY IDOCK:   24.32 KCAL/MOL
REMARK 927      BINDING AFFINITY PREDICTED BY RF-SCORE:    0.00 PKD
ROOT
HETATM    1  C   UNL     1     -11.113   8.220  71.498  1.00  0.00    -0.259 C  
HETATM    2  N   UNL     1     -10.298   7.432  70.586  1.00  0.00    -0.210 NA 
HETATM    3  H   UNL     1     -10.619   6.464  70.564  1.00  0.00     0.000 HD 
ENDROOT
BRANCH   2   4
HETATM    4  C   UNL     1     -10.226   7.984  69.225  1.00  0.00    -0.213 C  
BRANCH   4   5
HETATM    5  C   UNL     1     -10.670   9.463  69.068  1.00  0.00    -0.187 C  
HETATM    6  C   UNL     1     -12.129   9.707  69.411  1.00  0.00     0.677 C  
HETATM    7  C   UNL     1     -12.431  11.198  69.269  1.00  0.00    -0.008 C  
HETATM    8  C   UNL     1     -11.894  11.794  67.950  1.00  0.00    -0.219 C  
HETATM    9  C   UNL     1     -10.448  11.269  67.530  1.00  0.00    -0.201 C  
HETATM   10  N   UNL     1     -12.092  13.262  67.966  1.00  0.00    -0.295 NA 
HETATM   11  O   UNL     1     -10.454   9.854  67.692  1.00  0.00    -0.210 OA 
HETATM   12  H1  UNL     1     -11.737  13.656  67.095  1.00  0.00     0.000 HD 
HETATM   13  H2  UNL     1     -11.676  13.701  68.788  1.00  0.00     0.000 HD 
BRANCH   9  14
HETATM   14  O   UNL     1      -9.318  11.895  68.182  1.00  0.00    -0.180 OA 
BRANCH  14  15
HETATM   15  C   UNL     1      -8.332  11.035  68.895  1.00  0.00    -0.123 C  
HETATM   16  C   UNL     1      -6.845  11.393  68.628  1.00  0.00    -0.078 C  
HETATM   17  N   UNL     1      -6.482  12.650  69.314  1.00  0.00    -0.107 NA 
HETATM   18  C   UNL     1      -5.879  10.303  69.137  1.00  0.00    -0.037 C  
HETATM   19  H2  UNL     1      -6.689  12.611  70.312  1.00  0.00     0.000 HD 
HETATM   20  H1  UNL     1      -5.506  12.885  69.138  1.00  0.00     0.000 HD 
HETATM   21  C   UNL     1      -6.189   8.914  68.558  1.00  0.00    -0.053 C  
HETATM   22  N   UNL     1      -5.126   7.963  68.906  1.00  0.00    -0.022 NA 
HETATM   23  C   UNL     1      -7.559   8.408  69.048  1.00  0.00    -0.092 C  
HETATM   24  C   UNL     1      -8.628   9.506  68.754  1.00  0.00    -0.123 C  
HETATM   25  O   UNL     1      -9.841   9.188  69.474  1.00  0.00    -0.168 OA 
HETATM   26  H1  UNL     1      -5.332   7.041  68.522  1.00  0.00     0.000 HD 
HETATM   27  H2  UNL     1      -4.965   7.927  69.913  1.00  0.00     0.000 HD 
HETATM   28  H   UNL     1     -10.021   8.258  69.388  1.00  0.00     0.000 HD 
BRANCH  23  29
HETATM   29  O   UNL     1      -7.960   7.239  68.275  1.00  0.00    -0.119 OA 
BRANCH  29  30
HETATM   30  C   UNL     1      -7.796   5.893  68.766  1.00  0.00    -0.095 C  
HETATM   31  O   UNL     1      -6.457   5.516  69.096  1.00  0.00    -0.035 OA 
HETATM   32  C   UNL     1      -6.400   4.220  69.712  1.00  0.00    -0.028 C  
HETATM   33  C   UNL     1      -6.902   3.079  68.788  1.00  0.00    -0.044 C  
HETATM   34  C   UNL     1      -8.367   3.388  68.376  1.00  0.00    -0.081 C  
HETATM   35  O   UNL     1      -6.069   3.030  67.619  1.00  0.00    -0.026 OA 
HETATM   36  C   UNL     1      -6.762   1.741  69.531  1.00  0.00    -0.029 C  
HETATM   37  H   UNL     1     -10.321   4.490  67.061  1.00  0.00     0.000 HD 
HETATM   38  H   UNL     1      -6.376   2.332  67.054  1.00  0.00     0.000 HD 
HETATM   39  C   UNL     1      -8.491   4.847  67.817  1.00  0.00    -0.104 C  
HETATM   40  O   UNL     1      -9.902   5.121  67.634  1.00  0.00    -0.144 OA 
BRANCH  34  41
HETATM   41  N   UNL     1      -9.123   2.395  67.552  1.00  0.00    -0.165 NA 
HETATM   42  C   UNL     1      -8.780   2.281  66.146  1.00  0.00    -0.120 C  
HETATM   43  H   UNL     1      -9.854   1.816  67.965  1.00  0.00     0.000 HD 
ENDBRANCH  34  41
ENDBRANCH  29  30
ENDBRANCH  23  29
ENDBRANCH  14  15
ENDBRANCH   9  14
ENDBRANCH   4   5
ENDBRANCH   2   4
TORSDOF 7
ENDMDL
MODEL      354
REMARK 921   NORMALIZED FREE ENERGY PREDICTED BY IDOCK:   16.46 KCAL/MOL
REMARK 922        TOTAL FREE ENERGY PREDICTED BY IDOCK:   21.48 KCAL/MOL
REMARK 923 INTER-LIGAND FREE ENERGY PREDICTED BY IDOCK:   -2.91 KCAL/MOL
REMARK 924 INTRA-LIGAND FREE ENERGY PREDICTED BY IDOCK:   24.39 KCAL/MOL
REMARK 927      BINDING AFFINITY PREDICTED BY RF-SCORE:    0.00 PKD
ROOT
HETATM    1  C   UNL     1     -11.113   8.220  71.498  1.00  0.00    -0.259 C  
HETATM    2  N   UNL     1     -10.298   7.432  70.586  1.00  0.00    -0.210 NA 
HETATM    3  H   UNL     1     -10.619   6.464  70.564  1.00  0.00     0.000 HD 
ENDROOT
BRANCH   2   4
HETATM    4  C   UNL     1     -10.226   7.984  69.225  1.00  0.00    -0.213 C  
BRANCH   4   5
HETATM    5  C   UNL     1     -10.670   9.463  69.068  1.00  0.00    -0.187 C  
HETATM    6  C   UNL     1     -12.129   9.707  69.411  1.00  0.00     0.677 C  
HETATM    7  C   UNL     1     -12.431  11.198  69.269  1.00  0.00    -0.008 C  
HETATM    8  C   UNL     1     -11.894  11.794  67.950  1.00  0.00    -0.219 C  
HETATM    9  C   UNL     1     -10.448  11.269  67.530  1.00  0.00    -0.201 C  
HETATM   10  N   UNL     1     -12.092  13.262  67.966  1.00  0.00    -0.295 NA 
HETATM   11  O   UNL     1     -10.454   9.854  67.692  1.00  0.00    -0.210 OA 
HETATM   12  H1  UNL     1     -11.737  13.656  67.095  1.00  0.00     0.000 HD 
HETATM   13  H2  UNL     1     -11.676  13.701  68.788  1.00  0.00     0.000 HD 
BRANCH   9  14
HETATM   14  O   UNL     1      -9.318  11.895  68.182  1.00  0.00    -0.180 OA 
BRANCH  14  15
HETATM   15  C   UNL     1      -8.332  11.035  68.895  1.00  0.00    -0.123 C  
HETATM   16  C   UNL     1      -6.845  11.393  68.628  1.00  0.00    -0.078 C  
HETATM   17  N   UNL     1      -6.482  12.650  69.314  1.00  0.00    -0.107 NA 
HETATM   18  C   UNL     1      -5.879  10.303  69.137  1.00  0.00    -0.037 C  
HETATM   19  H2  UNL     1      -6.689  12.611  70.312  1.00  0.00     0.000 HD 
HETATM   20  H1  UNL     1      -5.506  12.885  69.138  1.00  0.00     0.000 HD 
HETATM   21  C   UNL     1      -6.189   8.914  68.558  1.00  0.00    -0.053 C  
HETATM   22  N   UNL     1      -5.126   7.963  68.906  1.00  0.00    -0.022 NA 
HETATM   23  C   UNL     1      -7.559   8.408  69.048  1.00  0.00    -0.092 C  
HETATM   24  C   UNL     1      -8.628   9.506  68.754  1.00  0.00    -0.123 C  
HETATM   25  O   UNL     1      -9.841   9.188  69.474  1.00  0.00    -0.168 OA 
HETATM   26  H1  UNL     1      -5.332   7.041  68.522  1.00  0.00     0.000 HD 
HETATM   27  H2  UNL     1      -4.965   7.927  69.913  1.00  0.00     0.000 HD 
HETATM   28  H   UNL     1     -10.021   8.258  69.388  1.00  0.00     0.000 HD 
BRANCH  23  29
HETATM   29  O   UNL     1      -7.960   7.239  68.275  1.00  0.00    -0.119 OA 
BRANCH  29  30
HETATM   30  C   UNL     1      -7.361   6.907  67.006  1.00  0.00    -0.086 C  
HETATM   31  O   UNL     1      -8.026   7.431  65.854  1.00  0.00    -0.105 OA 
HETATM   32  C   UNL     1      -7.288   7.180  64.648  1.00  0.00    -0.079 C  
HETATM   33  C   UNL     1      -7.117   5.670  64.336  1.00  0.00    -0.053 C  
HETATM   34  C   UNL     1      -6.387   5.000  65.533  1.00  0.00    -0.035 C  
HETATM   35  O   UNL     1      -8.416   5.081  64.169  1.00  0.00    -0.132 OA 
HETATM   36  C   UNL     1      -6.350   5.520  63.013  1.00  0.00    -0.021 C  
HETATM   37  H   UNL     1      -6.093   3.928  67.884  1.00  0.00     0.000 HD 
HETATM   38  H   UNL     1      -8.311   4.157  63.979  1.00  0.00     0.000 HD 
HETATM   39  C   UNL     1      -7.093   5.360  66.886  1.00  0.00    -0.066 C  
HETATM   40  O   UNL     1      -6.254   4.861  67.956  1.00  0.00    -0.032 OA 
BRANCH  34  41
HETATM   41  N   UNL     1      -6.016   3.554  65.450  1.00  0.00    -0.022 NA 
HETATM   42  C   UNL     1      -7.004   2.630  64.923  1.00  0.00    -0.049 C  
HETATM   43  H   UNL     1      -5.098   3.228  65.754  1.00  0.00     0.000 HD 
ENDBRANCH  34  41
ENDBRANCH  29  30
ENDBRANCH  23  29
ENDBRANCH  14  15
ENDBRANCH   9  14
ENDBRANCH   4   5
ENDBRANCH   2   4
TORSDOF 7
ENDMDL
MODEL      355
REMARK 921   NORMALIZED FREE ENERGY PREDICTED BY IDOCK:   17.11 KCAL/MOL
REMARK 922        TOTAL FREE ENERGY PREDICTED BY IDOCK:   22.40 KCAL/MOL
REMARK 923 INTER-LIGAND FREE ENERGY PREDICTED BY IDOCK:   19.62 KCAL/MOL
REMARK 924 INTRA-LIGAND FREE ENERGY PREDICTED BY IDOCK:    2.78 KCAL/MOL
REMARK 927      BINDING AFFINITY PREDICTED BY RF-SCORE:    0.00 PKD
ROOT
HETATM    1  C   UNL     1      -7.078  13.668  64.381  1.00  0.00    18.446 C  
HETATM    2  N   UNL     1      -7.508  12.480  65.104  1.00  0.00     3.260 NA 
HETATM    3  H   UNL     1      -7.042  11.650  64.738  1.00  0.00     0.000 HD 
ENDROOT
BRANCH   2   4
HETATM    4  C   UNL     1      -7.333  12.573  66.560  1.00  0.00     0.715 C  
BRANCH   4   5
HETATM    5  C   UNL     1      -6.933  11.257  67.281  1.00  0.00    -0.109 C  
HETATM    6  C   UNL     1      -5.681  11.378  68.131  1.00  0.00    -0.045 C  
HETATM    7  C   UNL     1      -5.419  10.041  68.825  1.00  0.00    -0.035 C  
HETATM    8  C   UNL     1      -5.522   8.838  67.863  1.00  0.00    -0.035 C  
HETATM    9  C   UNL     1      -6.724   8.929  66.818  1.00  0.00    -0.072 C  
HETATM   10  N   UNL     1      -5.411   7.583  68.643  1.00  0.00    -0.021 NA 
HETATM   11  O   UNL     1      -6.704  10.245  66.273  1.00  0.00    -0.091 OA 
HETATM   12  H1  UNL     1      -5.479   6.789  68.008  1.00  0.00     0.000 HD 
HETATM   13  H2  UNL     1      -6.094   7.535  69.400  1.00  0.00     0.000 HD 
BRANCH   9  14
HETATM   14  O   UNL     1      -8.033   8.553  67.305  1.00  0.00    -0.100 OA 
BRANCH  14  15
HETATM   15  C   UNL     1      -8.683   7.332  66.751  1.00  0.00    -0.130 C  
HETATM   16  C   UNL     1      -9.974   6.889  67.492  1.00  0.00    -0.149 C  
HETATM   17  N   UNL     1     -11.088   7.812  67.189  1.00  0.00    -0.417 NA 
HETATM   18  C   UNL     1     -10.431   5.475  67.080  1.00  0.00    -0.321 C  
HETATM   19  H2  UNL     1     -11.241   7.905  66.185  1.00  0.00     0.000 HD 
HETATM   20  H1  UNL     1     -11.935   7.521  67.676  1.00  0.00     0.000 HD 
HETATM   21  C   UNL     1      -9.336   4.415  67.273  1.00  0.00    -0.155 C  
HETATM   22  N   UNL     1      -9.881   3.069  67.066  1.00  0.00    -0.282 NA 
HETATM   23  C   UNL     1      -8.147   4.675  66.328  1.00  0.00    -0.103 C  
HETATM   24  C   UNL     1      -7.683   6.154  66.510  1.00  0.00    -0.103 C  
HETATM   25  O   UNL     1      -6.788   6.504  65.428  1.00  0.00    -0.046 OA 
HETATM   26  H1  UNL     1      -9.155   2.365  67.194  1.00  0.00     0.000 HD 
HETATM   27  H2  UNL     1     -10.339   2.980  66.159  1.00  0.00     0.000 HD 
HETATM   28  H   UNL     1      -6.181   5.788  65.281  1.00  0.00     0.000 HD 
BRANCH  23  29
HETATM   29  O   UNL     1      -7.013   3.847  66.718  1.00  0.00    -0.057 OA 
BRANCH  29  30
HETATM   30  C   UNL     1      -6.773   3.459  68.086  1.00  0.00    -0.045 C  
HETATM   31  O   UNL     1      -7.254   2.164  68.454  1.00  0.00    -0.043 OA 
HETATM   32  C   UNL     1      -6.847   1.796  69.781  1.00  0.00    -0.033 C  
HETATM   33  C   UNL     1      -7.410   2.738  70.878  1.00  0.00    -0.033 C  
HETATM   34  C   UNL     1      -6.932   4.186  70.576  1.00  0.00    -0.034 C  
HETATM   35  O   UNL     1      -8.845   2.684  70.843  1.00  0.00    -0.070 OA 
HETATM   36  C   UNL     1      -6.945   2.233  72.252  1.00  0.00    -0.026 C  
HETATM   37  H   UNL     1      -6.893   6.525  69.442  1.00  0.00     0.000 HD 
HETATM   38  H   UNL     1      -9.189   3.261  71.515  1.00  0.00     0.000 HD 
HETATM   39  C   UNL     1      -7.245   4.576  69.091  1.00  0.00    -0.052 C  
HETATM   40  O   UNL     1      -6.608   5.851  68.836  1.00  0.00    -0.050 OA 
BRANCH  34  41
HETATM   41  N   UNL     1      -7.263   5.283  71.536  1.00  0.00    -0.072 NA 
HETATM   42  C   UNL     1      -6.600   5.275  72.828  1.00  0.00    -0.068 C  
HETATM   43  H   UNL     1      -7.932   6.013  71.292  1.00  0.00     0.000 HD 
ENDBRANCH  34  41
ENDBRANCH  29  30
ENDBRANCH  23  29
ENDBRANCH  14  15
ENDBRANCH   9  14
ENDBRANCH   4   5
ENDBRANCH   2   4
TORSDOF 7
ENDMDL
MODEL      356
REMARK 921   NORMALIZED FREE ENERGY PREDICTED BY IDOCK:   17.69 KCAL/MOL
REMARK 922        TOTAL FREE ENERGY PREDICTED BY IDOCK:   23.21 KCAL/MOL
REMARK 923 INTER-LIGAND FREE ENERGY PREDICTED BY IDOCK:   23.41 KCAL/MOL
REMARK 924 INTRA-LIGAND FREE ENERGY PREDICTED BY IDOCK:   -0.20 KCAL/MOL
REMARK 927      BINDING AFFINITY PREDICTED BY RF-SCORE:    0.00 PKD
ROOT
HETATM    1  C   UNL     1      -7.271   6.246  66.436  1.00  0.00    -0.069 C  
HETATM    2  N   UNL     1      -7.257   7.615  66.927  1.00  0.00    -0.086 NA 
HETATM    3  H   UNL     1      -6.980   8.259  66.186  1.00  0.00     0.000 HD 
ENDROOT
BRANCH   2   4
HETATM    4  C   UNL     1      -8.525   8.042  67.536  1.00  0.00    -0.127 C  
BRANCH   4   5
HETATM    5  C   UNL     1      -9.075   9.416  67.065  1.00  0.00    -0.134 C  
HETATM    6  C   UNL     1      -8.419   9.939  65.800  1.00  0.00    -0.142 C  
HETATM    7  C   UNL     1      -9.077  11.263  65.409  1.00  0.00    -0.162 C  
HETATM    8  C   UNL     1      -9.218  12.234  66.601  1.00  0.00    -0.208 C  
HETATM    9  C   UNL     1      -9.658  11.541  67.968  1.00  0.00    -0.180 C  
HETATM   10  N   UNL     1      -9.998  13.418  66.171  1.00  0.00    -0.291 NA 
HETATM   11  O   UNL     1      -8.855  10.375  68.124  1.00  0.00    -0.128 OA 
HETATM   12  H1  UNL     1     -10.092  14.059  66.958  1.00  0.00     0.000 HD 
HETATM   13  H2  UNL     1     -10.901  13.163  65.770  1.00  0.00     0.000 HD 
BRANCH   9  14
HETATM   14  O   UNL     1     -11.070  11.265  68.127  1.00  0.00    -0.219 OA 
BRANCH  14  15
HETATM   15  C   UNL     1     -11.931  12.282  68.791  1.00  0.00    -0.231 C  
HETATM   16  C   UNL     1     -12.357  13.467  67.883  1.00  0.00     0.061 C  
HETATM   17  N   UNL     1     -13.363  13.029  66.894  1.00  0.00     2.124 NA 
HETATM   18  C   UNL     1     -12.983  14.626  68.686  1.00  0.00     1.516 C  
HETATM   19  H2  UNL     1     -14.167  12.587  67.342  1.00  0.00     0.000 HD 
HETATM   20  H1  UNL     1     -13.642  13.807  66.298  1.00  0.00     0.000 HD 
HETATM   21  C   UNL     1     -12.067  15.138  69.808  1.00  0.00    -0.319 C  
HETATM   22  N   UNL     1     -12.615  16.363  70.401  1.00  0.00    -0.042 NA 
HETATM   23  C   UNL     1     -11.859  14.055  70.883  1.00  0.00    -0.173 C  
HETATM   24  C   UNL     1     -11.385  12.743  70.182  1.00  0.00     0.252 C  
HETATM   25  O   UNL     1     -11.483  11.645  71.119  1.00  0.00     0.214 OA 
HETATM   26  H1  UNL     1     -12.008  16.702  71.146  1.00  0.00     0.000 HD 
HETATM   27  H2  UNL     1     -13.574  16.231  70.724  1.00  0.00     0.000 HD 
HETATM   28  H   UNL     1     -11.151  11.926  71.965  1.00  0.00     0.000 HD 
BRANCH  23  29
HETATM   29  O   UNL     1     -10.777  14.445  71.777  1.00  0.00     1.408 OA 
BRANCH  29  30
HETATM   30  C   UNL     1      -9.469  14.816  71.294  1.00  0.00     3.195 C  
HETATM   31  O   UNL     1      -9.222  14.542  69.912  1.00  0.00     0.438 OA 
HETATM   32  C   UNL     1      -7.960  15.073  69.478  1.00  0.00    -0.135 C  
HETATM   33  C   UNL     1      -6.745  14.448  70.214  1.00  0.00    -0.005 C  
HETATM   34  C   UNL     1      -6.911  14.701  71.738  1.00  0.00     1.760 C  
HETATM   35  O   UNL     1      -6.724  13.035  69.957  1.00  0.00    -0.357 OA 
HETATM   36  C   UNL     1      -5.454  15.057  69.647  1.00  0.00    -0.096 C  
HETATM   37  H   UNL     1      -7.790  14.347  74.160  1.00  0.00     0.000 HD 
HETATM   38  H   UNL     1      -5.981  12.654  70.408  1.00  0.00     0.000 HD 
HETATM   39  C   UNL     1      -8.331  14.251  72.225  1.00  0.00     7.991 C  
HETATM   40  O   UNL     1      -8.476  14.688  73.598  1.00  0.00     6.503 OA 
BRANCH  34  41
HETATM   41  N   UNL     1      -5.826  14.276  72.675  1.00  0.00    -0.172 NA 
HETATM   42  C   UNL     1      -5.759  12.872  73.041  1.00  0.00     1.226 C  
HETATM   43  H   UNL     1      -5.155  14.950  73.044  1.00  0.00     0.000 HD 
ENDBRANCH  34  41
ENDBRANCH  29  30
ENDBRANCH  23  29
ENDBRANCH  14  15
ENDBRANCH   9  14
ENDBRANCH   4   5
ENDBRANCH   2   4
TORSDOF 7
ENDMDL
MODEL      357
REMARK 921   NORMALIZED FREE ENERGY PREDICTED BY IDOCK:   18.03 KCAL/MOL
REMARK 922        TOTAL FREE ENERGY PREDICTED BY IDOCK:   23.69 KCAL/MOL
REMARK 923 INTER-LIGAND FREE ENERGY PREDICTED BY IDOCK:   22.50 KCAL/MOL
REMARK 924 INTRA-LIGAND FREE ENERGY PREDICTED BY IDOCK:    1.19 KCAL/MOL
REMARK 927      BINDING AFFINITY PREDICTED BY RF-SCORE:    0.00 PKD
ROOT
HETATM    1  C   UNL     1     -11.813   2.840  68.598  1.00  0.00    15.673 C  
HETATM    2  N   UNL     1     -11.880   4.194  69.127  1.00  0.00     9.455 NA 
HETATM    3  H   UNL     1     -12.806   4.384  69.509  1.00  0.00     0.000 HD 
ENDROOT
BRANCH   2   4
HETATM    4  C   UNL     1     -10.838   4.498  70.119  1.00  0.00     1.335 C  
BRANCH   4   5
HETATM    5  C   UNL     1      -9.551   3.634  70.037  1.00  0.00    -0.173 C  
HETATM    6  C   UNL     1      -9.714   2.233  70.600  1.00  0.00    -0.077 C  
HETATM    7  C   UNL     1      -8.403   1.468  70.417  1.00  0.00    -0.062 C  
HETATM    8  C   UNL     1      -7.169   2.282  70.861  1.00  0.00    -0.033 C  
HETATM    9  C   UNL     1      -7.212   3.823  70.451  1.00  0.00    -0.041 C  
HETATM   10  N   UNL     1      -5.941   1.532  70.507  1.00  0.00    -0.017 NA 
HETATM   11  O   UNL     1      -8.510   4.307  70.783  1.00  0.00    -0.076 OA 
HETATM   12  H1  UNL     1      -5.126   2.070  70.800  1.00  0.00     0.000 HD 
HETATM   13  H2  UNL     1      -5.908   1.286  69.518  1.00  0.00     0.000 HD 
BRANCH   9  14
HETATM   14  O   UNL     1      -6.836   4.140  69.091  1.00  0.00    -0.044 OA 
BRANCH  14  15
HETATM   15  C   UNL     1      -7.902   4.497  68.114  1.00  0.00    -0.080 C  
HETATM   16  C   UNL     1      -7.846   3.714  66.774  1.00  0.00    -0.084 C  
HETATM   17  N   UNL     1      -8.277   2.315  66.973  1.00  0.00    -0.076 NA 
HETATM   18  C   UNL     1      -8.768   4.324  65.699  1.00  0.00    -0.120 C  
HETATM   19  H2  UNL     1      -9.199   2.259  67.406  1.00  0.00     0.000 HD 
HETATM   20  H1  UNL     1      -8.239   1.801  66.094  1.00  0.00     0.000 HD 
HETATM   21  C   UNL     1      -8.480   5.811  65.441  1.00  0.00    -0.151 C  
HETATM   22  N   UNL     1      -9.234   6.286  64.275  1.00  0.00     0.391 NA 
HETATM   23  C   UNL     1      -8.805   6.658  66.686  1.00  0.00    -0.136 C  
HETATM   24  C   UNL     1      -8.067   6.039  67.914  1.00  0.00    -0.106 C  
HETATM   25  O   UNL     1      -8.598   6.623  69.126  1.00  0.00    -0.129 OA 
HETATM   26  H1  UNL     1      -9.044   7.273  64.104  1.00  0.00     0.000 HD 
HETATM   27  H2  UNL     1     -10.234   6.104  64.371  1.00  0.00     0.000 HD 
HETATM   28  H   UNL     1      -8.698   7.560  69.004  1.00  0.00     0.000 HD 
BRANCH  23  29
HETATM   29  O   UNL     1      -8.264   8.002  66.527  1.00  0.00    -0.109 OA 
BRANCH  29  30
HETATM   30  C   UNL     1      -8.814   9.144  67.215  1.00  0.00    -0.124 C  
HETATM   31  O   UNL     1      -9.113   8.945  68.599  1.00  0.00    -0.137 OA 
HETATM   32  C   UNL     1      -9.515  10.165  69.242  1.00  0.00    -0.218 C  
HETATM   33  C   UNL     1     -10.817  10.769  68.652  1.00  0.00    -0.220 C  
HETATM   34  C   UNL     1     -10.595  11.036  67.138  1.00  0.00    -0.250 C  
HETATM   35  O   UNL     1     -11.885   9.824  68.827  1.00  0.00    -0.273 OA 
HETATM   36  C   UNL     1     -11.172  12.043  69.435  1.00  0.00    -0.263 C  
HETATM   37  H   UNL     1     -10.409  10.510  64.598  1.00  0.00     0.000 HD 
HETATM   38  H   UNL     1     -12.682  10.195  68.466  1.00  0.00     0.000 HD 
HETATM   39  C   UNL     1     -10.031   9.759  66.426  1.00  0.00    -0.247 C  
HETATM   40  O   UNL     1      -9.675  10.139  65.074  1.00  0.00    -0.276 OA 
BRANCH  34  41
HETATM   41  N   UNL     1     -11.671  11.703  66.344  1.00  0.00    -0.439 NA 
HETATM   42  C   UNL     1     -12.034  13.062  66.704  1.00  0.00    -0.387 C  
HETATM   43  H   UNL     1     -12.135  11.219  65.575  1.00  0.00     0.000 HD 
ENDBRANCH  34  41
ENDBRANCH  29  30
ENDBRANCH  23  29
ENDBRANCH  14  15
ENDBRANCH   9  14
ENDBRANCH   4   5
ENDBRANCH   2   4
TORSDOF 7
ENDMDL
MODEL      358
REMARK 921   NORMALIZED FREE ENERGY PREDICTED BY IDOCK:   19.73 KCAL/MOL
REMARK 922        TOTAL FREE ENERGY PREDICTED BY IDOCK:   26.09 KCAL/MOL
REMARK 923 INTER-LIGAND FREE ENERGY PREDICTED BY IDOCK:   23.69 KCAL/MOL
REMARK 924 INTRA-LIGAND FREE ENERGY PREDICTED BY IDOCK:    2.40 KCAL/MOL
REMARK 927      BINDING AFFINITY PREDICTED BY RF-SCORE:    0.00 PKD
ROOT
HETATM    1  C   UNL     1     -12.508   3.723  67.317  1.00  0.00    18.259 C  
HETATM    2  N   UNL     1     -12.653   4.768  66.314  1.00  0.00     5.949 NA 
HETATM    3  H   UNL     1     -13.630   5.044  66.223  1.00  0.00     0.000 HD 
ENDROOT
BRANCH   2   4
HETATM    4  C   UNL     1     -11.804   5.944  66.554  1.00  0.00     1.976 C  
BRANCH   4   5
HETATM    5  C   UNL     1     -10.285   5.663  66.717  1.00  0.00    -0.230 C  
HETATM    6  C   UNL     1      -9.580   5.327  65.415  1.00  0.00     0.044 C  
HETATM    7  C   UNL     1      -8.091   5.123  65.694  1.00  0.00    -0.115 C  
HETATM    8  C   UNL     1      -7.831   4.208  66.910  1.00  0.00    -0.097 C  
HETATM    9  C   UNL     1      -8.808   4.459  68.145  1.00  0.00    -0.109 C  
HETATM   10  N   UNL     1      -6.378   4.191  67.201  1.00  0.00    -0.039 NA 
HETATM   11  O   UNL     1     -10.130   4.546  67.622  1.00  0.00    -0.116 OA 
HETATM   12  H1  UNL     1      -6.206   3.587  68.004  1.00  0.00     0.000 HD 
HETATM   13  H2  UNL     1      -5.997   5.128  67.333  1.00  0.00     0.000 HD 
BRANCH   9  14
HETATM   14  O   UNL     1      -8.482   5.571  69.011  1.00  0.00    -0.100 OA 
BRANCH  14  15
HETATM   15  C   UNL     1      -7.504   6.589  68.537  1.00  0.00    -0.088 C  
HETATM   16  C   UNL     1      -6.147   6.589  69.293  1.00  0.00    -0.026 C  
HETATM   17  N   UNL     1      -5.343   5.409  68.915  1.00  0.00    -0.003 NA 
HETATM   18  C   UNL     1      -5.298   7.837  68.976  1.00  0.00    -0.019 C  
HETATM   19  H2  UNL     1      -5.213   5.345  67.906  1.00  0.00     0.000 HD 
HETATM   20  H1  UNL     1      -4.452   5.408  69.412  1.00  0.00     0.000 HD 
HETATM   21  C   UNL     1      -6.044   9.152  69.253  1.00  0.00    -0.041 C  
HETATM   22  N   UNL     1      -5.133  10.295  69.135  1.00  0.00    -0.035 NA 
HETATM   23  C   UNL     1      -7.248   9.310  68.305  1.00  0.00    -0.077 C  
HETATM   24  C   UNL     1      -8.120   8.018  68.389  1.00  0.00    -0.122 C  
HETATM   25  O   UNL     1      -9.067   8.017  67.294  1.00  0.00    -0.131 OA 
HETATM   26  H1  UNL     1      -5.627  11.167  69.318  1.00  0.00     0.000 HD 
HETATM   27  H2  UNL     1      -4.660  10.311  68.231  1.00  0.00     0.000 HD 
HETATM   28  H   UNL     1      -9.441   8.886  67.204  1.00  0.00     0.000 HD 
BRANCH  23  29
HETATM   29  O   UNL     1      -8.100  10.400  68.763  1.00  0.00    -0.109 OA 
BRANCH  29  30
HETATM   30  C   UNL     1      -8.689  11.355  67.857  1.00  0.00    -0.145 C  
HETATM   31  O   UNL     1      -8.168  12.685  67.938  1.00  0.00    -0.146 OA 
HETATM   32  C   UNL     1      -8.701  13.533  66.909  1.00  0.00    -0.145 C  
HETATM   33  C   UNL     1     -10.238  13.719  67.002  1.00  0.00    -0.254 C  
HETATM   34  C   UNL     1     -10.910  12.321  66.913  1.00  0.00    -0.251 C  
HETATM   35  O   UNL     1     -10.555  14.330  68.262  1.00  0.00    -0.235 OA 
HETATM   36  C   UNL     1     -10.691  14.669  65.882  1.00  0.00    -0.312 C  
HETATM   37  H   UNL     1     -11.753   9.996  67.714  1.00  0.00     0.000 HD 
HETATM   38  H   UNL     1     -11.496  14.444  68.319  1.00  0.00     0.000 HD 
HETATM   39  C   UNL     1     -10.262  11.328  67.937  1.00  0.00    -0.181 C  
HETATM   40  O   UNL     1     -10.804  10.013  67.665  1.00  0.00    -0.270 OA 
BRANCH  34  41
HETATM   41  N   UNL     1     -12.401  12.224  66.888  1.00  0.00    -0.253 NA 
HETATM   42  C   UNL     1     -13.109  12.937  65.840  1.00  0.00     1.107 C  
HETATM   43  H   UNL     1     -12.904  11.673  67.584  1.00  0.00     0.000 HD 
ENDBRANCH  34  41
ENDBRANCH  29  30
ENDBRANCH  23  29
ENDBRANCH  14  15
ENDBRANCH   9  14
ENDBRANCH   4   5
ENDBRANCH   2   4
TORSDOF 7
ENDMDL
MODEL      359
REMARK 921   NORMALIZED FREE ENERGY PREDICTED BY IDOCK:   19.81 KCAL/MOL
REMARK 922        TOTAL FREE ENERGY PREDICTED BY IDOCK:   26.20 KCAL/MOL
REMARK 923 INTER-LIGAND FREE ENERGY PREDICTED BY IDOCK:   -3.58 KCAL/MOL
REMARK 924 INTRA-LIGAND FREE ENERGY PREDICTED BY IDOCK:   29.78 KCAL/MOL
REMARK 927      BINDING AFFINITY PREDICTED BY RF-SCORE:    0.00 PKD
ROOT
HETATM    1  C   UNL     1     -10.654  12.791  68.996  1.00  0.00    -0.045 C  
HETATM    2  N   UNL     1     -10.612  11.603  69.835  1.00  0.00    -0.172 NA 
HETATM    3  H   UNL     1     -11.440  11.027  69.681  1.00  0.00     0.000 HD 
ENDROOT
BRANCH   2   4
HETATM    4  C   UNL     1      -9.388  10.803  69.676  1.00  0.00     0.251 C  
BRANCH   4   5
HETATM    5  C   UNL     1      -8.362  11.334  68.639  1.00  0.00    -0.146 C  
HETATM    6  C   UNL     1      -8.516  10.728  67.256  1.00  0.00    -0.124 C  
HETATM    7  C   UNL     1      -7.490  11.363  66.317  1.00  0.00     0.047 C  
HETATM    8  C   UNL     1      -6.072  11.413  66.926  1.00  0.00    -0.135 C  
HETATM    9  C   UNL     1      -6.032  11.804  68.472  1.00  0.00    -0.049 C  
HETATM   10  N   UNL     1      -5.183  12.177  66.022  1.00  0.00    -0.036 NA 
HETATM   11  O   UNL     1      -7.034  11.030  69.125  1.00  0.00    -0.083 OA 
HETATM   12  H1  UNL     1      -4.246  12.210  66.424  1.00  0.00     0.000 HD 
HETATM   13  H2  UNL     1      -5.548  13.107  65.812  1.00  0.00     0.000 HD 
BRANCH   9  14
HETATM   14  O   UNL     1      -6.132  13.213  68.785  1.00  0.00    -0.071 OA 
BRANCH  14  15
HETATM   15  C   UNL     1      -6.708  14.136  67.768  1.00  0.00    -0.177 C  
HETATM   16  C   UNL     1      -6.607  15.644  68.126  1.00  0.00    -0.127 C  
HETATM   17  N   UNL     1      -5.213  16.116  67.995  1.00  0.00    -0.108 NA 
HETATM   18  C   UNL     1      -7.473  16.526  67.203  1.00  0.00    -0.217 C  
HETATM   19  H2  UNL     1      -4.832  15.920  67.069  1.00  0.00     0.000 HD 
HETATM   20  H1  UNL     1      -5.146  17.106  68.230  1.00  0.00     0.000 HD 
HETATM   21  C   UNL     1      -8.949  16.098  67.182  1.00  0.00    -0.200 C  
HETATM   22  N   UNL     1      -9.760  17.085  66.461  1.00  0.00    -0.269 NA 
HETATM   23  C   UNL     1      -9.106  14.698  66.558  1.00  0.00    -0.237 C  
HETATM   24  C   UNL     1      -8.137  13.717  67.290  1.00  0.00    -0.139 C  
HETATM   25  O   UNL     1      -8.042  12.492  66.526  1.00  0.00    -0.401 OA 
HETATM   26  H1  UNL     1     -10.739  16.801  66.447  1.00  0.00     0.000 HD 
HETATM   27  H2  UNL     1      -9.402  17.256  65.522  1.00  0.00     0.000 HD 
HETATM   28  H   UNL     1      -8.911  12.237  66.236  1.00  0.00     0.000 HD 
BRANCH  23  29
HETATM   29  O   UNL     1     -10.450  14.193  66.805  1.00  0.00    -0.273 OA 
BRANCH  29  30
HETATM   30  C   UNL     1     -11.310  14.746  67.823  1.00  0.00    -0.330 C  
HETATM   31  O   UNL     1     -10.941  16.041  68.305  1.00  0.00    -0.305 OA 
HETATM   32  C   UNL     1     -11.925  16.579  69.203  1.00  0.00     0.427 C  
HETATM   33  C   UNL     1     -12.110  15.731  70.489  1.00  0.00    -0.374 C  
HETATM   34  C   UNL     1     -12.526  14.293  70.075  1.00  0.00    -0.300 C  
HETATM   35  O   UNL     1     -10.863  15.690  71.200  1.00  0.00    -0.272 OA 
HETATM   36  C   UNL     1     -13.151  16.416  71.388  1.00  0.00     1.601 C  
HETATM   37  H   UNL     1     -12.243  11.849  69.233  1.00  0.00     0.000 HD 
HETATM   38  H   UNL     1     -10.977  15.171  71.987  1.00  0.00     0.000 HD 
HETATM   39  C   UNL     1     -11.545  13.720  68.994  1.00  0.00    -0.313 C  
HETATM   40  O   UNL     1     -12.102  12.468  68.526  1.00  0.00    -0.266 OA 
BRANCH  34  41
HETATM   41  N   UNL     1     -12.857  13.291  71.133  1.00  0.00    -0.315 NA 
HETATM   42  C   UNL     1     -13.104  13.782  72.477  1.00  0.00    -0.419 C  
HETATM   43  H   UNL     1     -12.908  12.295  70.918  1.00  0.00     0.000 HD 
ENDBRANCH  34  41
ENDBRANCH  29  30
ENDBRANCH  23  29
ENDBRANCH  14  15
ENDBRANCH   9  14
ENDBRANCH   4   5
ENDBRANCH   2   4
TORSDOF 7
ENDMDL
MODEL      360
REMARK 921   NORMALIZED FREE ENERGY PREDICTED BY IDOCK:   25.37 KCAL/MOL
REMARK 922        TOTAL FREE ENERGY PREDICTED BY IDOCK:   34.05 KCAL/MOL
REMARK 923 INTER-LIGAND FREE ENERGY PREDICTED BY IDOCK:   28.35 KCAL/MOL
REMARK 924 INTRA-LIGAND FREE ENERGY PREDICTED BY IDOCK:    5.70 KCAL/MOL
REMARK 927      BINDING AFFINITY PREDICTED BY RF-SCORE:    0.00 PKD
ROOT
HETATM    1  C   UNL     1     -13.574  11.390  65.991  1.00  0.00    10.018 C  
HETATM    2  N   UNL     1     -12.856  10.398  66.778  1.00  0.00     6.615 NA 
HETATM    3  H   UNL     1     -13.452  10.029  67.518  1.00  0.00     0.000 HD 
ENDROOT
BRANCH   2   4
HETATM    4  C   UNL     1     -12.284   9.305  65.979  1.00  0.00     9.568 C  
BRANCH   4   5
HETATM    5  C   UNL     1     -10.735   9.271  65.886  1.00  0.00     0.992 C  
HETATM    6  C   UNL     1     -10.102  10.634  65.674  1.00  0.00    -0.335 C  
HETATM    7  C   UNL     1      -8.581  10.479  65.651  1.00  0.00    -0.182 C  
HETATM    8  C   UNL     1      -8.112   9.320  64.746  1.00  0.00    -0.133 C  
HETATM    9  C   UNL     1      -9.009   8.004  64.842  1.00  0.00     0.384 C  
HETATM   10  N   UNL     1      -6.650   9.143  64.904  1.00  0.00    -0.069 NA 
HETATM   11  O   UNL     1     -10.370   8.420  64.775  1.00  0.00     3.010 OA 
HETATM   12  H1  UNL     1      -6.340   8.377  64.306  1.00  0.00     0.000 HD 
HETATM   13  H2  UNL     1      -6.378   9.009  65.878  1.00  0.00     0.000 HD 
BRANCH   9  14
HETATM   14  O   UNL     1      -8.753   7.128  65.965  1.00  0.00    -0.147 OA 
BRANCH  14  15
HETATM   15  C   UNL     1      -7.845   7.595  67.049  1.00  0.00    -0.112 C  
HETATM   16  C   UNL     1      -6.352   7.214  66.856  1.00  0.00    -0.050 C  
HETATM   17  N   UNL     1      -5.744   8.024  65.781  1.00  0.00    -0.037 NA 
HETATM   18  C   UNL     1      -5.517   7.451  68.131  1.00  0.00    -0.026 C  
HETATM   19  H2  UNL     1      -5.861   9.024  65.947  1.00  0.00     0.000 HD 
HETATM   20  H1  UNL     1      -4.764   7.773  65.654  1.00  0.00     0.000 HD 
HETATM   21  C   UNL     1      -6.082   6.721  69.359  1.00  0.00    -0.026 C  
HETATM   22  N   UNL     1      -5.147   6.809  70.486  1.00  0.00    -0.018 NA 
HETATM   23  C   UNL     1      -7.462   7.287  69.748  1.00  0.00    -0.093 C  
HETATM   24  C   UNL     1      -8.377   7.274  68.484  1.00  0.00    -0.125 C  
HETATM   25  O   UNL     1      -9.553   8.076  68.745  1.00  0.00    -0.147 OA 
HETATM   26  H1  UNL     1      -5.522   6.324  71.301  1.00  0.00     0.000 HD 
HETATM   27  H2  UNL     1      -4.900   7.775  70.699  1.00  0.00     0.000 HD 
HETATM   28  H   UNL     1      -9.876   7.881  69.617  1.00  0.00     0.000 HD 
BRANCH  23  29
HETATM   29  O   UNL     1      -8.103   6.409  70.717  1.00  0.00    -0.116 OA 
BRANCH  29  30
HETATM   30  C   UNL     1      -9.535   6.258  70.796  1.00  0.00    -0.172 C  
HETATM   31  O   UNL     1     -10.284   7.476  70.814  1.00  0.00    -0.194 OA 
HETATM   32  C   UNL     1     -11.698   7.238  70.745  1.00  0.00    -0.299 C  
HETATM   33  C   UNL     1     -12.245   6.437  71.956  1.00  0.00    -0.269 C  
HETATM   34  C   UNL     1     -11.498   5.076  72.023  1.00  0.00     0.366 C  
HETATM   35  O   UNL     1     -11.998   7.185  73.157  1.00  0.00    -0.336 OA 
HETATM   36  C   UNL     1     -13.765   6.274  71.798  1.00  0.00     0.530 C  
HETATM   37  H   UNL     1      -9.582   3.401  72.553  1.00  0.00     0.000 HD 
HETATM   38  H   UNL     1     -12.333   6.694  73.897  1.00  0.00     0.000 HD 
HETATM   39  C   UNL     1      -9.947   5.290  71.969  1.00  0.00    -0.187 C  
HETATM   40  O   UNL     1      -9.334   3.984  71.846  1.00  0.00    -0.120 OA 
BRANCH  34  41
HETATM   41  N   UNL     1     -11.899   4.068  73.052  1.00  0.00     0.206 NA 
HETATM   42  C   UNL     1     -10.927   3.718  74.072  1.00  0.00    -0.146 C  
HETATM   43  H   UNL     1     -12.826   3.641  73.038  1.00  0.00     0.000 HD 
ENDBRANCH  34  41
ENDBRANCH  29  30
ENDBRANCH  23  29
ENDBRANCH  14  15
ENDBRANCH   9  14
ENDBRANCH   4   5
ENDBRANCH   2   4
TORSDOF 7
ENDMDL
MODEL      361
REMARK 921   NORMALIZED FREE ENERGY PREDICTED BY IDOCK:   29.25 KCAL/MOL
REMARK 922        TOTAL FREE ENERGY PREDICTED BY IDOCK:   39.51 KCAL/MOL
REMARK 923 INTER-LIGAND FREE ENERGY PREDICTED BY IDOCK:   19.69 KCAL/MOL
REMARK 924 INTRA-LIGAND FREE ENERGY PREDICTED BY IDOCK:   19.83 KCAL/MOL
REMARK 927      BINDING AFFINITY PREDICTED BY RF-SCORE:    0.00 PKD
ROOT
HETATM    1  C   UNL     1     -11.033  14.941  70.729  1.00  0.00    -0.049 C  
HETATM    2  N   UNL     1     -10.935  16.386  70.875  1.00  0.00    -0.077 NA 
HETATM    3  H   UNL     1     -10.898  16.644  71.861  1.00  0.00     0.000 HD 
ENDROOT
BRANCH   2   4
HETATM    4  C   UNL     1      -9.812  16.984  70.140  1.00  0.00     1.123 C  
BRANCH   4   5
HETATM    5  C   UNL     1      -8.539  16.104  70.013  1.00  0.00     0.956 C  
HETATM    6  C   UNL     1      -8.825  14.656  69.658  1.00  0.00     0.323 C  
HETATM    7  C   UNL     1      -7.500  13.908  69.512  1.00  0.00     0.284 C  
HETATM    8  C   UNL     1      -6.526  14.184  70.677  1.00  0.00     0.042 C  
HETATM    9  C   UNL     1      -6.491  15.703  71.163  1.00  0.00     1.152 C  
HETATM   10  N   UNL     1      -5.221  13.549  70.378  1.00  0.00    -0.100 NA 
HETATM   11  O   UNL     1      -7.844  16.135  71.281  1.00  0.00     4.029 OA 
HETATM   12  H1  UNL     1      -4.578  13.732  71.148  1.00  0.00     0.000 HD 
HETATM   13  H2  UNL     1      -4.843  13.845  69.478  1.00  0.00     0.000 HD 
BRANCH   9  14
HETATM   14  O   UNL     1      -5.687  16.614  70.378  1.00  0.00    -0.194 OA 
BRANCH  14  15
HETATM   15  C   UNL     1      -6.369  17.680  69.592  1.00  0.00    -0.182 C  
HETATM   16  C   UNL     1      -6.463  19.056  70.308  1.00  0.00     0.139 C  
HETATM   17  N   UNL     1      -5.140  19.711  70.350  1.00  0.00    -0.193 NA 
HETATM   18  C   UNL     1      -7.428  20.024  69.594  1.00  0.00     0.150 C  
HETATM   19  H2  UNL     1      -4.729  19.796  69.420  1.00  0.00     0.000 HD 
HETATM   20  H1  UNL     1      -5.202  20.613  70.820  1.00  0.00     0.000 HD 
HETATM   21  C   UNL     1      -8.836  19.438  69.413  1.00  0.00     0.147 C  
HETATM   22  N   UNL     1      -9.761  20.465  68.921  1.00  0.00     0.142 NA 
HETATM   23  C   UNL     1      -8.809  18.225  68.463  1.00  0.00    -0.304 C  
HETATM   24  C   UNL     1      -7.728  17.220  68.972  1.00  0.00    -0.166 C  
HETATM   25  O   UNL     1      -7.472  16.240  67.940  1.00  0.00    -0.125 OA 
HETATM   26  H1  UNL     1     -10.696  20.076  68.801  1.00  0.00     0.000 HD 
HETATM   27  H2  UNL     1      -9.420  20.903  68.065  1.00  0.00     0.000 HD 
HETATM   28  H   UNL     1      -8.299  15.960  67.563  1.00  0.00     0.000 HD 
BRANCH  23  29
HETATM   29  O   UNL     1     -10.080  17.515  68.528  1.00  0.00    -0.319 OA 
BRANCH  29  30
HETATM   30  C   UNL     1     -10.865  17.225  67.354  1.00  0.00    -0.167 C  
HETATM   31  O   UNL     1     -12.197  16.768  67.600  1.00  0.00     1.177 OA 
HETATM   32  C   UNL     1     -12.955  16.643  66.386  1.00  0.00     6.138 C  
HETATM   33  C   UNL     1     -12.368  15.598  65.401  1.00  0.00     0.974 C  
HETATM   34  C   UNL     1     -10.910  16.011  65.056  1.00  0.00    -0.404 C  
HETATM   35  O   UNL     1     -12.370  14.310  66.037  1.00  0.00    -0.432 OA 
HETATM   36  C   UNL     1     -13.273  15.521  64.162  1.00  0.00     1.822 C  
HETATM   37  H   UNL     1      -8.341  16.269  65.361  1.00  0.00     0.000 HD 
HETATM   38  H   UNL     1     -12.011  13.671  65.434  1.00  0.00     0.000 HD 
HETATM   39  C   UNL     1     -10.086  16.282  66.361  1.00  0.00    -0.305 C  
HETATM   40  O   UNL     1      -8.811  16.838  65.959  1.00  0.00    -0.447 OA 
BRANCH  34  41
HETATM   41  N   UNL     1     -10.141  15.216  64.050  1.00  0.00     0.888 NA 
HETATM   42  C   UNL     1      -9.139  14.288  64.544  1.00  0.00     3.668 C  
HETATM   43  H   UNL     1     -10.315  15.322  63.051  1.00  0.00     0.000 HD 
ENDBRANCH  34  41
ENDBRANCH  29  30
ENDBRANCH  23  29
ENDBRANCH  14  15
ENDBRANCH   9  14
ENDBRANCH   4   5
ENDBRANCH   2   4
TORSDOF 7
ENDMDL
MODEL      362
REMARK 921   NORMALIZED FREE ENERGY PREDICTED BY IDOCK:   34.78 KCAL/MOL
REMARK 922        TOTAL FREE ENERGY PREDICTED BY IDOCK:   47.30 KCAL/MOL
REMARK 923 INTER-LIGAND FREE ENERGY PREDICTED BY IDOCK:   33.52 KCAL/MOL
REMARK 924 INTRA-LIGAND FREE ENERGY PREDICTED BY IDOCK:   13.78 KCAL/MOL
REMARK 927      BINDING AFFINITY PREDICTED BY RF-SCORE:    0.00 PKD
ROOT
HETATM    1  C   UNL     1     -13.651  18.992  65.929  1.00  0.00    16.627 C  
HETATM    2  N   UNL     1     -12.625  19.504  65.033  1.00  0.00     7.464 NA 
HETATM    3  H   UNL     1     -12.730  20.511  64.906  1.00  0.00     0.000 HD 
ENDROOT
BRANCH   2   4
HETATM    4  C   UNL     1     -11.253  19.176  65.449  1.00  0.00     0.822 C  
BRANCH   4   5
HETATM    5  C   UNL     1     -11.064  17.794  66.131  1.00  0.00     0.532 C  
HETATM    6  C   UNL     1     -12.366  17.117  66.521  1.00  0.00     4.370 C  
HETATM    7  C   UNL     1     -12.054  15.752  67.132  1.00  0.00     0.932 C  
HETATM    8  C   UNL     1     -10.931  15.813  68.190  1.00  0.00    -0.330 C  
HETATM    9  C   UNL     1      -9.714  16.770  67.806  1.00  0.00    -0.248 C  
HETATM   10  N   UNL     1     -10.589  14.435  68.613  1.00  0.00    -0.245 NA 
HETATM   11  O   UNL     1     -10.275  17.989  67.328  1.00  0.00    -0.333 OA 
HETATM   12  H1  UNL     1      -9.847  14.476  69.312  1.00  0.00     0.000 HD 
HETATM   13  H2  UNL     1     -10.346  13.836  67.825  1.00  0.00     0.000 HD 
BRANCH   9  14
HETATM   14  O   UNL     1      -8.725  16.225  66.901  1.00  0.00    -0.178 OA 
BRANCH  14  15
HETATM   15  C   UNL     1      -7.680  15.312  67.442  1.00  0.00    -0.197 C  
HETATM   16  C   UNL     1      -6.356  15.286  66.631  1.00  0.00     1.677 C  
HETATM   17  N   UNL     1      -5.596  16.536  66.838  1.00  0.00    -0.339 NA 
HETATM   18  C   UNL     1      -5.435  14.121  67.049  1.00  0.00     1.256 C  
HETATM   19  H2  UNL     1      -5.431  16.720  67.827  1.00  0.00     0.000 HD 
HETATM   20  H1  UNL     1      -4.727  16.519  66.305  1.00  0.00     0.000 HD 
HETATM   21  C   UNL     1      -6.126  12.752  66.955  1.00  0.00     0.583 C  
HETATM   22  N   UNL     1      -5.156  11.671  67.160  1.00  0.00    -0.077 NA 
HETATM   23  C   UNL     1      -7.282  12.649  67.967  1.00  0.00    -0.112 C  
HETATM   24  C   UNL     1      -8.219  13.883  67.777  1.00  0.00    -0.173 C  
HETATM   25  O   UNL     1      -9.121  13.968  68.905  1.00  0.00    -0.372 OA 
HETATM   26  H1  UNL     1      -5.614  10.762  67.097  1.00  0.00     0.000 HD 
HETATM   27  H2  UNL     1      -4.647  11.780  68.038  1.00  0.00     0.000 HD 
HETATM   28  H   UNL     1      -9.449  13.099  69.109  1.00  0.00     0.000 HD 
BRANCH  23  29
HETATM   29  O   UNL     1      -8.097  11.477  67.672  1.00  0.00    -0.120 OA 
BRANCH  29  30
HETATM   30  C   UNL     1      -9.524  11.454  67.881  1.00  0.00    -0.174 C  
HETATM   31  O   UNL     1     -10.177  12.725  67.822  1.00  0.00    -0.214 OA 
HETATM   32  C   UNL     1     -11.606  12.599  67.893  1.00  0.00    -0.349 C  
HETATM   33  C   UNL     1     -12.101  11.977  69.225  1.00  0.00    -0.190 C  
HETATM   34  C   UNL     1     -11.453  10.574  69.385  1.00  0.00    -0.262 C  
HETATM   35  O   UNL     1     -11.695  12.825  70.311  1.00  0.00    -0.521 OA 
HETATM   36  C   UNL     1     -13.637  11.924  69.207  1.00  0.00     4.591 C  
HETATM   37  H   UNL     1      -9.625   8.812  69.945  1.00  0.00     0.000 HD 
HETATM   38  H   UNL     1     -11.999  12.444  71.126  1.00  0.00     0.000 HD 
HETATM   39  C   UNL     1      -9.900  10.653  69.184  1.00  0.00    -0.200 C  
HETATM   40  O   UNL     1      -9.398   9.295  69.160  1.00  0.00    -0.151 OA 
BRANCH  34  41
HETATM   41  N   UNL     1     -11.835   9.717  70.549  1.00  0.00    -0.389 NA 
HETATM   42  C   UNL     1     -13.244   9.625  70.888  1.00  0.00    -0.153 C  
HETATM   43  H   UNL     1     -11.129   9.213  71.086  1.00  0.00     0.000 HD 
ENDBRANCH  34  41
ENDBRANCH  29  30
ENDBRANCH  23  29
ENDBRANCH  14  15
ENDBRANCH   9  14
ENDBRANCH   4   5
ENDBRANCH   2   4
TORSDOF 7
ENDMDL
MODEL      363
REMARK 921   NORMALIZED FREE ENERGY PREDICTED BY IDOCK:   39.24 KCAL/MOL
REMARK 922        TOTAL FREE ENERGY PREDICTED BY IDOCK:   53.58 KCAL/MOL
REMARK 923 INTER-LIGAND FREE ENERGY PREDICTED BY IDOCK:   37.02 KCAL/MOL
REMARK 924 INTRA-LIGAND FREE ENERGY PREDICTED BY IDOCK:   16.56 KCAL/MOL
REMARK 927      BINDING AFFINITY PREDICTED BY RF-SCORE:    0.00 PKD
ROOT
HETATM    1  C   UNL     1     -11.163   2.198  73.810  1.00  0.00    -0.198 C  
HETATM    2  N   UNL     1     -10.582   3.300  74.562  1.00  0.00    -0.169 NA 
HETATM    3  H   UNL     1      -9.564   3.233  74.567  1.00  0.00     0.000 HD 
ENDROOT
BRANCH   2   4
HETATM    4  C   UNL     1     -11.012   4.628  74.101  1.00  0.00    -0.093 C  
BRANCH   4   5
HETATM    5  C   UNL     1     -11.302   4.756  72.580  1.00  0.00    -0.011 C  
HETATM    6  C   UNL     1     -12.780   4.767  72.235  1.00  0.00     2.065 C  
HETATM    7  C   UNL     1     -12.938   4.948  70.726  1.00  0.00     9.149 C  
HETATM    8  C   UNL     1     -12.016   4.014  69.912  1.00  0.00    11.497 C  
HETATM    9  C   UNL     1     -10.545   3.855  70.509  1.00  0.00     1.293 C  
HETATM   10  N   UNL     1     -12.119   4.364  68.476  1.00  0.00    10.121 NA 
HETATM   11  O   UNL     1     -10.684   3.633  71.909  1.00  0.00     0.194 OA 
HETATM   12  H1  UNL     1     -11.510   3.746  67.939  1.00  0.00     0.000 HD 
HETATM   13  H2  UNL     1     -11.923   5.349  68.301  1.00  0.00     0.000 HD 
BRANCH   9  14
HETATM   14  O   UNL     1      -9.607   4.915  70.208  1.00  0.00    -0.161 OA 
BRANCH  14  15
HETATM   15  C   UNL     1     -10.037   6.021  69.308  1.00  0.00    -0.185 C  
HETATM   16  C   UNL     1     -10.759   5.561  68.012  1.00  0.00    -0.086 C  
HETATM   17  N   UNL     1     -12.119   5.072  68.321  1.00  0.00     6.213 NA 
HETATM   18  C   UNL     1     -10.910   6.705  66.987  1.00  0.00    -0.467 C  
HETATM   19  H2  UNL     1     -12.664   5.766  68.833  1.00  0.00     0.000 HD 
HETATM   20  H1  UNL     1     -12.593   4.770  67.470  1.00  0.00     0.000 HD 
HETATM   21  C   UNL     1      -9.569   7.362  66.626  1.00  0.00    -0.190 C  
HETATM   22  N   UNL     1      -9.739   8.293  65.505  1.00  0.00    -0.220 NA 
HETATM   23  C   UNL     1      -8.963   8.079  67.847  1.00  0.00    -0.129 C  
HETATM   24  C   UNL     1      -8.912   7.073  69.039  1.00  0.00    -0.133 C  
HETATM   25  O   UNL     1      -8.642   7.802  70.260  1.00  0.00    -0.135 OA 
HETATM   26  H1  UNL     1      -8.849   8.730  65.265  1.00  0.00     0.000 HD 
HETATM   27  H2  UNL     1     -10.463   8.987  65.695  1.00  0.00     0.000 HD 
HETATM   28  H   UNL     1      -7.958   8.442  70.097  1.00  0.00     0.000 HD 
BRANCH  23  29
HETATM   29  O   UNL     1      -7.580   8.445  67.571  1.00  0.00    -0.095 OA 
BRANCH  29  30
HETATM   30  C   UNL     1      -7.133   9.816  67.538  1.00  0.00    -0.088 C  
HETATM   31  O   UNL     1      -6.100  10.150  68.469  1.00  0.00    -0.044 OA 
HETATM   32  C   UNL     1      -5.612  11.487  68.272  1.00  0.00    -0.045 C  
HETATM   33  C   UNL     1      -6.696  12.574  68.497  1.00  0.00    -0.078 C  
HETATM   34  C   UNL     1      -7.872  12.308  67.518  1.00  0.00    -0.166 C  
HETATM   35  O   UNL     1      -7.164  12.488  69.852  1.00  0.00    -0.113 OA 
HETATM   36  C   UNL     1      -6.059  13.958  68.298  1.00  0.00    -0.112 C  
HETATM   37  H   UNL     1     -10.037  11.204  66.593  1.00  0.00     0.000 HD 
HETATM   38  H   UNL     1      -7.827  13.154  69.989  1.00  0.00     0.000 HD 
HETATM   39  C   UNL     1      -8.347  10.817  67.612  1.00  0.00    -0.119 C  
HETATM   40  O   UNL     1      -9.305  10.600  66.548  1.00  0.00    -0.162 OA 
BRANCH  34  41
HETATM   41  N   UNL     1      -9.016  13.268  67.465  1.00  0.00    -0.196 NA 
HETATM   42  C   UNL     1      -9.864  13.376  68.639  1.00  0.00    -0.112 C  
HETATM   43  H   UNL     1      -9.195  13.830  66.632  1.00  0.00     0.000 HD 
ENDBRANCH  34  41
ENDBRANCH  29  30
ENDBRANCH  23  29
ENDBRANCH  14  15
ENDBRANCH   9  14
ENDBRANCH   4   5
ENDBRANCH   2   4
TORSDOF 7
ENDMDL
MODEL      364
REMARK 921   NORMALIZED FREE ENERGY PREDICTED BY IDOCK:   40.10 KCAL/MOL
REMARK 922        TOTAL FREE ENERGY PREDICTED BY IDOCK:   54.80 KCAL/MOL
REMARK 923 INTER-LIGAND FREE ENERGY PREDICTED BY IDOCK:   37.89 KCAL/MOL
REMARK 924 INTRA-LIGAND FREE ENERGY PREDICTED BY IDOCK:   16.91 KCAL/MOL
REMARK 927      BINDING AFFINITY PREDICTED BY RF-SCORE:    0.00 PKD
ROOT
HETATM    1  C   UNL     1      -8.486   9.755  70.447  1.00  0.00    -0.058 C  
HETATM    2  N   UNL     1      -8.169  11.116  70.042  1.00  0.00     0.276 NA 
HETATM    3  H   UNL     1      -8.953  11.531  69.539  1.00  0.00     0.000 HD 
ENDROOT
BRANCH   2   4
HETATM    4  C   UNL     1      -7.748  11.985  71.151  1.00  0.00     7.440 C  
BRANCH   4   5
HETATM    5  C   UNL     1      -7.655  13.501  70.827  1.00  0.00     3.545 C  
HETATM    6  C   UNL     1      -7.219  14.355  72.004  1.00  0.00     3.373 C  
HETATM    7  C   UNL     1      -7.115  15.811  71.551  1.00  0.00     3.409 C  
HETATM    8  C   UNL     1      -8.347  16.274  70.743  1.00  0.00     3.674 C  
HETATM    9  C   UNL     1      -8.902  15.194  69.709  1.00  0.00     0.059 C  
HETATM   10  N   UNL     1      -8.095  17.636  70.215  1.00  0.00     2.548 NA 
HETATM   11  O   UNL     1      -8.961  13.948  70.397  1.00  0.00     2.544 OA 
HETATM   12  H1  UNL     1      -8.909  17.941  69.682  1.00  0.00     0.000 HD 
HETATM   13  H2  UNL     1      -7.233  17.688  69.672  1.00  0.00     0.000 HD 
BRANCH   9  14
HETATM   14  O   UNL     1      -8.207  15.094  68.444  1.00  0.00    -0.135 OA 
BRANCH  14  15
HETATM   15  C   UNL     1      -7.662  13.772  68.026  1.00  0.00    -0.152 C  
HETATM   16  C   UNL     1      -6.115  13.716  67.901  1.00  0.00    -0.151 C  
HETATM   17  N   UNL     1      -5.486  13.730  69.238  1.00  0.00    -0.078 NA 
HETATM   18  C   UNL     1      -5.630  12.439  67.184  1.00  0.00    -0.048 C  
HETATM   19  H2  UNL     1      -5.846  12.984  69.834  1.00  0.00     0.000 HD 
HETATM   20  H1  UNL     1      -4.471  13.694  69.156  1.00  0.00     0.000 HD 
HETATM   21  C   UNL     1      -6.267  12.255  65.798  1.00  0.00     2.934 C  
HETATM   22  N   UNL     1      -5.624  11.150  65.079  1.00  0.00    -0.481 NA 
HETATM   23  C   UNL     1      -7.785  12.020  65.918  1.00  0.00     0.999 C  
HETATM   24  C   UNL     1      -8.397  13.164  66.787  1.00  0.00     0.080 C  
HETATM   25  O   UNL     1      -9.745  12.798  67.165  1.00  0.00    -0.207 OA 
HETATM   26  H1  UNL     1      -6.046  11.027  64.160  1.00  0.00     0.000 HD 
HETATM   27  H2  UNL     1      -5.638  10.286  65.622  1.00  0.00     0.000 HD 
HETATM   28  H   UNL     1     -10.191  12.428  66.412  1.00  0.00     0.000 HD 
BRANCH  23  29
HETATM   29  O   UNL     1      -8.410  12.134  64.607  1.00  0.00     1.548 OA 
BRANCH  29  30
HETATM   30  C   UNL     1      -9.669  12.807  64.405  1.00  0.00     0.127 C  
HETATM   31  O   UNL     1      -9.754  13.618  63.230  1.00  0.00     2.704 OA 
HETATM   32  C   UNL     1     -11.080  14.132  63.027  1.00  0.00     3.289 C  
HETATM   33  C   UNL     1     -11.558  15.064  64.171  1.00  0.00    -0.050 C  
HETATM   34  C   UNL     1     -11.514  14.270  65.505  1.00  0.00    -0.329 C  
HETATM   35  O   UNL     1     -10.673  16.193  64.248  1.00  0.00    -0.825 OA 
HETATM   36  C   UNL     1     -12.965  15.582  63.833  1.00  0.00     1.371 C  
HETATM   37  H   UNL     1     -10.487  13.190  67.636  1.00  0.00     0.000 HD 
HETATM   38  H   UNL     1     -10.966  16.764  64.948  1.00  0.00     0.000 HD 
HETATM   39  C   UNL     1     -10.118  13.586  65.698  1.00  0.00    -0.278 C  
HETATM   40  O   UNL     1     -10.217  12.720  66.856  1.00  0.00    -0.233 OA 
BRANCH  34  41
HETATM   41  N   UNL     1     -12.013  14.913  66.759  1.00  0.00    -0.227 NA 
HETATM   42  C   UNL     1     -11.845  16.350  66.896  1.00  0.00     1.222 C  
HETATM   43  H   UNL     1     -12.456  14.362  67.494  1.00  0.00     0.000 HD 
ENDBRANCH  34  41
ENDBRANCH  29  30
ENDBRANCH  23  29
ENDBRANCH  14  15
ENDBRANCH   9  14
ENDBRANCH   4   5
ENDBRANCH   2   4
TORSDOF 7
ENDMDL
MODEL      365
REMARK 921   NORMALIZED FREE ENERGY PREDICTED BY IDOCK:   41.96 KCAL/MOL
REMARK 922        TOTAL FREE ENERGY PREDICTED BY IDOCK:   57.42 KCAL/MOL
REMARK 923 INTER-LIGAND FREE ENERGY PREDICTED BY IDOCK:   46.86 KCAL/MOL
REMARK 924 INTRA-LIGAND FREE ENERGY PREDICTED BY IDOCK:   10.56 KCAL/MOL
REMARK 927      BINDING AFFINITY PREDICTED BY RF-SCORE:    0.00 PKD
ROOT
HETATM    1  C   UNL     1     -10.572  12.633  67.990  1.00  0.00    -0.221 C  
HETATM    2  N   UNL     1     -10.109  11.484  68.753  1.00  0.00    -0.303 NA 
HETATM    3  H   UNL     1     -10.866  10.813  68.886  1.00  0.00     0.000 HD 
ENDROOT
BRANCH   2   4
HETATM    4  C   UNL     1      -8.928  10.823  68.177  1.00  0.00    -0.140 C  
BRANCH   4   5
HETATM    5  C   UNL     1      -8.308  11.510  66.930  1.00  0.00    -0.166 C  
HETATM    6  C   UNL     1      -8.918  11.063  65.614  1.00  0.00    -0.212 C  
HETATM    7  C   UNL     1      -8.265  11.841  64.472  1.00  0.00     1.581 C  
HETATM    8  C   UNL     1      -6.725  11.874  64.576  1.00  0.00     4.232 C  
HETATM    9  C   UNL     1      -6.167  12.085  66.055  1.00  0.00     1.400 C  
HETATM   10  N   UNL     1      -6.188  12.773  63.527  1.00  0.00     8.106 NA 
HETATM   11  O   UNL     1      -6.894  11.202  66.905  1.00  0.00    -0.108 OA 
HETATM   12  H1  UNL     1      -5.171  12.794  63.595  1.00  0.00     0.000 HD 
HETATM   13  H2  UNL     1      -6.600  13.705  63.566  1.00  0.00     0.000 HD 
BRANCH   9  14
HETATM   14  O   UNL     1      -6.153  13.443  66.553  1.00  0.00     1.229 OA 
BRANCH  14  15
HETATM   15  C   UNL     1      -6.945  14.481  65.835  1.00  0.00     6.121 C  
HETATM   16  C   UNL     1      -6.333  15.908  65.871  1.00  0.00     3.751 C  
HETATM   17  N   UNL     1      -5.144  15.984  64.997  1.00  0.00     5.327 NA 
HETATM   18  C   UNL     1      -7.324  16.984  65.385  1.00  0.00     1.767 C  
HETATM   19  H2  UNL     1      -5.354  15.686  64.045  1.00  0.00     0.000 HD 
HETATM   20  H1  UNL     1      -4.742  16.921  65.022  1.00  0.00     0.000 HD 
HETATM   21  C   UNL     1      -8.649  16.970  66.163  1.00  0.00    -0.217 C  
HETATM   22  N   UNL     1      -9.467  18.135  65.806  1.00  0.00    -0.416 NA 
HETATM   23  C   UNL     1      -9.420  15.661  65.912  1.00  0.00    -0.341 C  
HETATM   24  C   UNL     1      -8.466  14.460  66.198  1.00  0.00     0.827 C  
HETATM   25  O   UNL     1      -9.062  13.249  65.677  1.00  0.00    -0.302 OA 
HETATM   26  H1  UNL     1     -10.346  18.126  66.323  1.00  0.00     0.000 HD 
HETATM   27  H2  UNL     1      -9.619  18.196  64.800  1.00  0.00     0.000 HD 
HETATM   28  H   UNL     1      -9.987  13.236  65.898  1.00  0.00     0.000 HD 
BRANCH  23  29
HETATM   29  O   UNL     1     -10.516  15.540  66.865  1.00  0.00    -0.289 OA 
BRANCH  29  30
HETATM   30  C   UNL     1     -10.544  16.271  68.108  1.00  0.00    -0.307 C  
HETATM   31  O   UNL     1     -11.417  17.403  68.138  1.00  0.00     0.143 OA 
HETATM   32  C   UNL     1     -11.498  17.984  69.449  1.00  0.00     2.858 C  
HETATM   33  C   UNL     1     -10.141  18.535  69.960  1.00  0.00     1.073 C  
HETATM   34  C   UNL     1      -9.112  17.370  69.977  1.00  0.00     1.878 C  
HETATM   35  O   UNL     1      -9.692  19.565  69.066  1.00  0.00    -0.412 OA 
HETATM   36  C   UNL     1     -10.351  19.163  71.347  1.00  0.00     2.895 C  
HETATM   37  H   UNL     1      -7.380  15.669  69.047  1.00  0.00     0.000 HD 
HETATM   38  H   UNL     1      -8.861  19.902  69.380  1.00  0.00     0.000 HD 
HETATM   39  C   UNL     1      -9.090  16.628  68.597  1.00  0.00    -0.245 C  
HETATM   40  O   UNL     1      -8.257  15.453  68.752  1.00  0.00    -0.147 OA 
BRANCH  34  41
HETATM   41  N   UNL     1      -7.739  17.612  70.517  1.00  0.00     3.114 NA 
HETATM   42  C   UNL     1      -7.519  18.819  71.294  1.00  0.00     4.383 C  
HETATM   43  H   UNL     1      -6.982  16.950  70.346  1.00  0.00     0.000 HD 
ENDBRANCH  34  41
ENDBRANCH  29  30
ENDBRANCH  23  29
ENDBRANCH  14  15
ENDBRANCH   9  14
ENDBRANCH   4   5
ENDBRANCH   2   4
TORSDOF 7
ENDMDL
MODEL      366
REMARK 921   NORMALIZED FREE ENERGY PREDICTED BY IDOCK:   51.53 KCAL/MOL
REMARK 922        TOTAL FREE ENERGY PREDICTED BY IDOCK:   70.90 KCAL/MOL
REMARK 923 INTER-LIGAND FREE ENERGY PREDICTED BY IDOCK:   45.24 KCAL/MOL
REMARK 924 INTRA-LIGAND FREE ENERGY PREDICTED BY IDOCK:   25.66 KCAL/MOL
REMARK 927      BINDING AFFINITY PREDICTED BY RF-SCORE:    0.00 PKD
ROOT
HETATM    1  C   UNL     1     -13.681  18.991  65.921  1.00  0.00    17.542 C  
HETATM    2  N   UNL     1     -12.658  19.414  64.977  1.00  0.00     7.795 NA 
HETATM    3  H   UNL     1     -12.767  20.402  64.750  1.00  0.00     0.000 HD 
ENDROOT
BRANCH   2   4
HETATM    4  C   UNL     1     -11.285  19.132  65.420  1.00  0.00     0.822 C  
BRANCH   4   5
HETATM    5  C   UNL     1     -11.110  17.895  66.343  1.00  0.00     0.523 C  
HETATM    6  C   UNL     1     -12.416  17.345  66.887  1.00  0.00     4.907 C  
HETATM    7  C   UNL     1     -12.121  16.107  67.733  1.00  0.00     0.847 C  
HETATM    8  C   UNL     1     -10.962  16.326  68.729  1.00  0.00    -0.343 C  
HETATM    9  C   UNL     1      -9.733  17.155  68.140  1.00  0.00    -0.276 C  
HETATM   10  N   UNL     1     -10.642  15.040  69.392  1.00  0.00    -0.249 NA 
HETATM   11  O   UNL     1     -10.277  18.283  67.460  1.00  0.00    -0.333 OA 
HETATM   12  H1  UNL     1      -9.877  15.186  70.050  1.00  0.00     0.000 HD 
HETATM   13  H2  UNL     1     -10.442  14.297  68.722  1.00  0.00     0.000 HD 
BRANCH   9  14
HETATM   14  O   UNL     1      -8.790  16.421  67.325  1.00  0.00    -0.183 OA 
BRANCH  14  15
HETATM   15  C   UNL     1      -7.713  15.642  67.997  1.00  0.00    -0.126 C  
HETATM   16  C   UNL     1      -6.482  15.328  67.103  1.00  0.00     0.253 C  
HETATM   17  N   UNL     1      -5.679  16.548  66.880  1.00  0.00    -0.336 NA 
HETATM   18  C   UNL     1      -5.547  14.279  67.739  1.00  0.00    -0.046 C  
HETATM   19  H2  UNL     1      -5.406  16.989  67.758  1.00  0.00     0.000 HD 
HETATM   20  H1  UNL     1      -4.871  16.342  66.293  1.00  0.00     0.000 HD 
HETATM   21  C   UNL     1      -6.272  12.973  68.096  1.00  0.00    -0.102 C  
HETATM   22  N   UNL     1      -5.308  11.943  68.501  1.00  0.00    -0.052 NA 
HETATM   23  C   UNL     1      -7.317  13.210  69.203  1.00  0.00     0.131 C  
HETATM   24  C   UNL     1      -8.243  14.389  68.767  1.00  0.00    -0.126 C  
HETATM   25  O   UNL     1      -9.019  14.824  69.908  1.00  0.00    -0.385 OA 
HETATM   26  H1  UNL     1      -5.789  11.076  68.738  1.00  0.00     0.000 HD 
HETATM   27  H2  UNL     1      -4.708  12.264  69.261  1.00  0.00     0.000 HD 
HETATM   28  H   UNL     1      -9.341  14.063  70.376  1.00  0.00     0.000 HD 
BRANCH  23  29
HETATM   29  O   UNL     1      -8.183  12.044  69.325  1.00  0.00     0.295 OA 
BRANCH  29  30
HETATM   30  C   UNL     1      -9.578  12.149  69.674  1.00  0.00     1.610 C  
HETATM   31  O   UNL     1     -10.214  10.925  70.051  1.00  0.00     0.093 OA 
HETATM   32  C   UNL     1     -11.554  11.138  70.522  1.00  0.00    -0.187 C  
HETATM   33  C   UNL     1     -12.494  11.742  69.445  1.00  0.00     0.139 C  
HETATM   34  C   UNL     1     -11.895  13.094  68.970  1.00  0.00    -0.313 C  
HETATM   35  O   UNL     1     -12.573  10.831  68.337  1.00  0.00    -0.402 OA 
HETATM   36  C   UNL     1     -13.901  11.892  70.043  1.00  0.00     4.017 C  
HETATM   37  H   UNL     1     -10.346  14.716  67.655  1.00  0.00     0.000 HD 
HETATM   38  H   UNL     1     -13.149  11.200  67.679  1.00  0.00     0.000 HD 
HETATM   39  C   UNL     1     -10.389  12.924  68.569  1.00  0.00    -0.229 C  
HETATM   40  O   UNL     1      -9.857  14.248  68.322  1.00  0.00    -0.221 OA 
BRANCH  34  41
HETATM   41  N   UNL     1     -12.655  13.931  67.992  1.00  0.00    -0.196 NA 
HETATM   42  C   UNL     1     -14.082  14.096  68.208  1.00  0.00    10.371 C  
HETATM   43  H   UNL     1     -12.187  14.371  67.200  1.00  0.00     0.000 HD 
ENDBRANCH  34  41
ENDBRANCH  29  30
ENDBRANCH  23  29
ENDBRANCH  14  15
ENDBRANCH   9  14
ENDBRANCH   4   5
ENDBRANCH   2   4
TORSDOF 7
ENDMDL
MODEL      367
REMARK 921   NORMALIZED FREE ENERGY PREDICTED BY IDOCK:   56.42 KCAL/MOL
REMARK 922        TOTAL FREE ENERGY PREDICTED BY IDOCK:   77.80 KCAL/MOL
REMARK 923 INTER-LIGAND FREE ENERGY PREDICTED BY IDOCK:   46.82 KCAL/MOL
REMARK 924 INTRA-LIGAND FREE ENERGY PREDICTED BY IDOCK:   30.98 KCAL/MOL
REMARK 927      BINDING AFFINITY PREDICTED BY RF-SCORE:    0.00 PKD
ROOT
HETATM    1  C   UNL     1     -13.706  18.983  65.893  1.00  0.00    17.542 C  
HETATM    2  N   UNL     1     -12.834  19.390  64.802  1.00  0.00    10.637 NA 
HETATM    3  H   UNL     1     -12.964  20.378  64.588  1.00  0.00     0.000 HD 
ENDROOT
BRANCH   2   4
HETATM    4  C   UNL     1     -11.413  19.093  65.034  1.00  0.00     2.392 C  
BRANCH   4   5
HETATM    5  C   UNL     1     -11.114  17.875  65.949  1.00  0.00     0.511 C  
HETATM    6  C   UNL     1     -11.960  16.653  65.640  1.00  0.00     2.056 C  
HETATM    7  C   UNL     1     -11.542  15.511  66.566  1.00  0.00     0.182 C  
HETATM    8  C   UNL     1     -11.424  15.950  68.041  1.00  0.00    -0.236 C  
HETATM    9  C   UNL     1     -10.755  17.383  68.252  1.00  0.00    -0.327 C  
HETATM   10  N   UNL     1     -10.867  14.831  68.837  1.00  0.00    -0.245 NA 
HETATM   11  O   UNL     1     -11.364  18.269  67.318  1.00  0.00     0.155 OA 
HETATM   12  H1  UNL     1     -10.789  15.121  69.811  1.00  0.00     0.000 HD 
HETATM   13  H2  UNL     1      -9.982  14.490  68.461  1.00  0.00     0.000 HD 
BRANCH   9  14
HETATM   14  O   UNL     1      -9.310  17.435  68.202  1.00  0.00    -0.261 OA 
BRANCH  14  15
HETATM   15  C   UNL     1      -8.537  17.144  69.441  1.00  0.00     0.345 C  
HETATM   16  C   UNL     1      -7.046  17.578  69.394  1.00  0.00    -0.046 C  
HETATM   17  N   UNL     1      -6.931  19.048  69.477  1.00  0.00    -0.195 NA 
HETATM   18  C   UNL     1      -6.227  16.991  70.563  1.00  0.00     0.591 C  
HETATM   19  H2  UNL     1      -7.407  19.420  70.298  1.00  0.00     0.000 HD 
HETATM   20  H1  UNL     1      -5.952  19.332  69.446  1.00  0.00     0.000 HD 
HETATM   21  C   UNL     1      -6.318  15.459  70.644  1.00  0.00     0.221 C  
HETATM   22  N   UNL     1      -5.366  14.940  71.633  1.00  0.00    -0.094 NA 
HETATM   23  C   UNL     1      -7.754  15.011  70.978  1.00  0.00     2.145 C  
HETATM   24  C   UNL     1      -8.732  15.684  69.964  1.00  0.00     0.453 C  
HETATM   25  O   UNL     1     -10.088  15.528  70.444  1.00  0.00    -0.362 OA 
HETATM   26  H1  UNL     1      -5.426  13.924  71.687  1.00  0.00     0.000 HD 
HETATM   27  H2  UNL     1      -5.493  15.377  72.546  1.00  0.00     0.000 HD 
HETATM   28  H   UNL     1     -10.207  14.640  70.762  1.00  0.00     0.000 HD 
BRANCH  23  29
HETATM   29  O   UNL     1      -7.885  13.575  70.770  1.00  0.00     2.901 OA 
BRANCH  29  30
HETATM   30  C   UNL     1      -9.116  12.966  70.327  1.00  0.00     4.889 C  
HETATM   31  O   UNL     1      -9.169  11.541  70.424  1.00  0.00     2.604 OA 
HETATM   32  C   UNL     1     -10.473  11.029  70.105  1.00  0.00     0.525 C  
HETATM   33  C   UNL     1     -10.909  11.330  68.646  1.00  0.00    -0.204 C  
HETATM   34  C   UNL     1     -10.895  12.869  68.435  1.00  0.00    -0.254 C  
HETATM   35  O   UNL     1      -9.976  10.709  67.747  1.00  0.00    -0.163 OA 
HETATM   36  C   UNL     1     -12.293  10.708  68.404  1.00  0.00     0.938 C  
HETATM   37  H   UNL     1      -9.910  15.232  67.984  1.00  0.00     0.000 HD 
HETATM   38  H   UNL     1     -10.244  10.892  66.855  1.00  0.00     0.000 HD 
HETATM   39  C   UNL     1      -9.528  13.481  68.897  1.00  0.00     0.165 C  
HETATM   40  O   UNL     1      -9.662  14.922  68.847  1.00  0.00    -0.214 OA 
BRANCH  34  41
HETATM   41  N   UNL     1     -11.364  13.435  67.134  1.00  0.00    -0.302 NA 
HETATM   42  C   UNL     1     -12.577  12.887  66.554  1.00  0.00     0.467 C  
HETATM   43  H   UNL     1     -10.848  14.183  66.668  1.00  0.00     0.000 HD 
ENDBRANCH  34  41
ENDBRANCH  29  30
ENDBRANCH  23  29
ENDBRANCH  14  15
ENDBRANCH   9  14
ENDBRANCH   4   5
ENDBRANCH   2   4
TORSDOF 7
ENDMDL
