MODEL        1
REMARK 921   NORMALIZED FREE ENERGY PREDICTED BY IDOCK:   -8.40 KCAL/MOL
REMARK 922        TOTAL FREE ENERGY PREDICTED BY IDOCK:  -10.40 KCAL/MOL
REMARK 923 INTER-LIGAND FREE ENERGY PREDICTED BY IDOCK:   -9.87 KCAL/MOL
REMARK 924 INTRA-LIGAND FREE ENERGY PREDICTED BY IDOCK:   -0.53 KCAL/MOL
REMARK 927      BINDING AFFINITY PREDICTED BY RF-SCORE:    0.00 PKD
ROOT
HETATM    1  C   UNL     1     -11.326  16.181  68.898  1.00  0.00    -0.350 C  
HETATM    2  O   UNL     1     -11.324  15.043  68.036  1.00  0.00    -0.302 OA 
ENDROOT
BRANCH   2   3
HETATM    3  C   UNL     1     -10.523  13.840  68.368  1.00  0.00    -0.252 C  
HETATM    4  C   UNL     1      -9.537  13.649  67.187  1.00  0.00    -0.241 C  
HETATM    5  C   UNL     1     -10.227  12.875  66.064  1.00  0.00    -0.293 C  
HETATM    6  O   UNL     1      -8.476   6.078  66.716  1.00  0.00    -0.109 OA 
HETATM    7  C   UNL     1      -7.358  10.129  66.112  1.00  0.00    -0.115 A  
HETATM    8  C   UNL     1      -9.158   6.504  67.642  1.00  0.00    -0.112 C  
HETATM    9  C   UNL     1     -11.171  11.769  66.579  1.00  0.00    -0.321 C  
HETATM   10  H   UNL     1     -10.189   4.708  68.109  1.00  0.00     0.000 HD 
HETATM   11  O   UNL     1     -12.102  12.172  67.648  1.00  0.00    -0.522 OA 
HETATM   12  C   UNL     1      -7.373  10.431  64.751  1.00  0.00    -0.038 A  
HETATM   13  C   UNL     1      -8.441   9.989  63.974  1.00  0.00    -0.179 A  
HETATM   14  C   UNL     1     -11.469  12.619  68.868  1.00  0.00    -0.306 C  
HETATM   15  N   UNL     1     -10.078   5.700  68.322  1.00  0.00    -0.156 N  
HETATM   16  N   UNL     1     -11.207  11.349  69.613  1.00  0.00    -0.252 NA 
HETATM   17  C   UNL     1     -12.304  13.429  69.918  1.00  0.00    -0.259 C  
HETATM   18  C   UNL     1      -9.648   9.620  64.582  1.00  0.00    -0.147 A  
HETATM   19  C   UNL     1     -12.008  10.648  70.643  1.00  0.00    -0.367 A  
HETATM   20  C   UNL     1     -11.766   9.202  70.625  1.00  0.00    -0.256 A  
HETATM   21  N   UNL     1     -10.392  10.572  66.881  1.00  0.00    -0.229 NA 
HETATM   22  C   UNL     1     -10.868   6.356  69.352  1.00  0.00    -0.321 C  
HETATM   23  C   UNL     1     -10.752   8.968  69.699  1.00  0.00    -0.228 A  
HETATM   24  C   UNL     1     -12.519   8.342  71.466  1.00  0.00    -0.340 A  
HETATM   25  C   UNL     1     -10.541  10.246  69.186  1.00  0.00    -0.230 A  
HETATM   26  C   UNL     1     -13.453   8.845  72.362  1.00  0.00    -0.499 A  
HETATM   27  C   UNL     1     -13.650  10.205  72.442  1.00  0.00    -0.109 A  
HETATM   28  C   UNL     1      -9.783  10.216  68.050  1.00  0.00    -0.142 A  
HETATM   29  C   UNL     1      -8.840   9.143  67.997  1.00  0.00    -0.129 C  
HETATM   30  C   UNL     1     -12.953  11.098  71.608  1.00  0.00    -0.548 A  
HETATM   31  C   UNL     1      -8.456   9.414  66.657  1.00  0.00    -0.130 A  
HETATM   32  C   UNL     1      -9.310   7.792  68.257  1.00  0.00    -0.143 C  
HETATM   33  C   UNL     1      -9.682   9.721  65.974  1.00  0.00    -0.255 A  
HETATM   34  C   UNL     1     -10.321   7.712  69.233  1.00  0.00    -0.218 A  
BRANCH   4  35
HETATM   35  N   UNL     1      -8.878  14.972  66.698  1.00  0.00    -0.275 N  
HETATM   36  C   UNL     1      -9.592  15.832  65.742  1.00  0.00    -0.320 C  
HETATM   37  C   UNL     1      -7.717  15.585  67.209  1.00  0.00    -0.212 C  
HETATM   38  O   UNL     1      -7.308  16.690  66.811  1.00  0.00    -0.199 OA 
BRANCH  37  39
HETATM   39  C   UNL     1      -6.846  14.937  68.209  1.00  0.00    -0.121 A  
HETATM   40  C   UNL     1      -6.208  14.684  70.536  1.00  0.00    -0.149 A  
HETATM   41  C   UNL     1      -6.994  15.296  69.554  1.00  0.00    -0.191 A  
HETATM   42  C   UNL     1      -5.266  13.727  70.178  1.00  0.00    -0.096 A  
HETATM   43  C   UNL     1      -5.161  13.335  68.842  1.00  0.00    -0.066 A  
HETATM   44  C   UNL     1      -5.990  13.895  67.876  1.00  0.00    -0.143 A  
ENDBRANCH  37  39
ENDBRANCH   4  35
ENDBRANCH   2   3
TORSDOF 3
ENDMDL
MODEL        2
REMARK 921   NORMALIZED FREE ENERGY PREDICTED BY IDOCK:   -8.33 KCAL/MOL
REMARK 922        TOTAL FREE ENERGY PREDICTED BY IDOCK:  -10.32 KCAL/MOL
REMARK 923 INTER-LIGAND FREE ENERGY PREDICTED BY IDOCK:   -9.77 KCAL/MOL
REMARK 924 INTRA-LIGAND FREE ENERGY PREDICTED BY IDOCK:   -0.56 KCAL/MOL
REMARK 927      BINDING AFFINITY PREDICTED BY RF-SCORE:    0.00 PKD
ROOT
HETATM    1  C   UNL     1     -11.201  16.206  68.703  1.00  0.00    -0.369 C  
HETATM    2  O   UNL     1     -11.347  14.994  67.960  1.00  0.00    -0.302 OA 
ENDROOT
BRANCH   2   3
HETATM    3  C   UNL     1     -10.521  13.804  68.279  1.00  0.00    -0.248 C  
HETATM    4  C   UNL     1      -9.547  13.634  67.085  1.00  0.00    -0.241 C  
HETATM    5  C   UNL     1     -10.239  12.850  65.969  1.00  0.00    -0.293 C  
HETATM    6  O   UNL     1      -8.364   6.082  66.580  1.00  0.00    -0.109 OA 
HETATM    7  C   UNL     1      -7.324  10.154  65.972  1.00  0.00    -0.118 A  
HETATM    8  C   UNL     1      -9.041   6.495  67.515  1.00  0.00    -0.115 C  
HETATM    9  C   UNL     1     -11.157  11.727  66.493  1.00  0.00    -0.310 C  
HETATM   10  H   UNL     1     -10.034   4.680  67.991  1.00  0.00     0.000 HD 
HETATM   11  O   UNL     1     -12.081  12.111  67.575  1.00  0.00    -0.534 OA 
HETATM   12  C   UNL     1      -7.361  10.459  64.612  1.00  0.00    -0.026 A  
HETATM   13  C   UNL     1      -8.431  10.001  63.848  1.00  0.00    -0.179 A  
HETATM   14  C   UNL     1     -11.440  12.566  68.788  1.00  0.00    -0.310 C  
HETATM   15  N   UNL     1      -9.938   5.673  68.206  1.00  0.00    -0.145 N  
HETATM   16  N   UNL     1     -11.147  11.299  69.527  1.00  0.00    -0.252 NA 
HETATM   17  C   UNL     1     -12.274  13.359  69.852  1.00  0.00    -0.337 C  
HETATM   18  C   UNL     1      -9.624   9.609  64.471  1.00  0.00    -0.094 A  
HETATM   19  C   UNL     1     -11.922  10.582  70.565  1.00  0.00    -0.342 A  
HETATM   20  C   UNL     1     -11.655   9.140  70.540  1.00  0.00    -0.238 A  
HETATM   21  N   UNL     1     -10.354  10.543  66.782  1.00  0.00    -0.237 NA 
HETATM   22  C   UNL     1     -10.726   6.313  69.247  1.00  0.00    -0.305 C  
HETATM   23  C   UNL     1     -10.649   8.926  69.600  1.00  0.00    -0.230 A  
HETATM   24  C   UNL     1     -12.382   8.265  71.388  1.00  0.00    -0.326 A  
HETATM   25  C   UNL     1     -10.467  10.208  69.087  1.00  0.00    -0.222 A  
HETATM   26  C   UNL     1     -13.313   8.750  72.298  1.00  0.00    -0.460 A  
HETATM   27  C   UNL     1     -13.532  10.106  72.384  1.00  0.00    -0.164 A  
HETATM   28  C   UNL     1      -9.724  10.195  67.942  1.00  0.00    -0.146 A  
HETATM   29  C   UNL     1      -8.763   9.137  67.874  1.00  0.00    -0.128 C  
HETATM   30  C   UNL     1     -12.861  11.013  71.543  1.00  0.00    -0.555 A  
HETATM   31  C   UNL     1      -8.401   9.418  66.530  1.00  0.00    -0.119 A  
HETATM   32  C   UNL     1      -9.206   7.778  68.136  1.00  0.00    -0.138 C  
HETATM   33  C   UNL     1      -9.641   9.706  65.863  1.00  0.00    -0.257 A  
HETATM   34  C   UNL     1     -10.204   7.678  69.125  1.00  0.00    -0.204 A  
BRANCH   4  35
HETATM   35  N   UNL     1      -8.918  14.969  66.591  1.00  0.00    -0.271 N  
HETATM   36  C   UNL     1      -9.626  15.782  65.590  1.00  0.00    -0.264 C  
HETATM   37  C   UNL     1      -7.800  15.634  67.131  1.00  0.00    -0.217 C  
HETATM   38  O   UNL     1      -7.415  16.744  66.723  1.00  0.00    -0.191 OA 
BRANCH  37  39
HETATM   39  C   UNL     1      -6.944  15.039  68.176  1.00  0.00    -0.130 A  
HETATM   40  C   UNL     1      -5.291  13.372  68.789  1.00  0.00    -0.071 A  
HETATM   41  C   UNL     1      -6.138  13.946  67.835  1.00  0.00    -0.153 A  
HETATM   42  C   UNL     1      -5.258  13.874  70.084  1.00  0.00    -0.094 A  
HETATM   43  C   UNL     1      -6.025  14.997  70.404  1.00  0.00    -0.134 A  
HETATM   44  C   UNL     1      -6.815  15.609  69.436  1.00  0.00    -0.186 A  
ENDBRANCH  37  39
ENDBRANCH   4  35
ENDBRANCH   2   3
TORSDOF 3
ENDMDL
MODEL        3
REMARK 921   NORMALIZED FREE ENERGY PREDICTED BY IDOCK:   -7.55 KCAL/MOL
REMARK 922        TOTAL FREE ENERGY PREDICTED BY IDOCK:   -9.40 KCAL/MOL
REMARK 923 INTER-LIGAND FREE ENERGY PREDICTED BY IDOCK:   -8.84 KCAL/MOL
REMARK 924 INTRA-LIGAND FREE ENERGY PREDICTED BY IDOCK:   -0.57 KCAL/MOL
REMARK 927      BINDING AFFINITY PREDICTED BY RF-SCORE:    0.00 PKD
ROOT
HETATM    1  C   UNL     1     -11.774  15.245  68.838  1.00  0.00    -0.342 C  
HETATM    2  O   UNL     1     -11.588  14.156  67.932  1.00  0.00    -0.299 OA 
ENDROOT
BRANCH   2   3
HETATM    3  C   UNL     1     -10.533  13.141  68.172  1.00  0.00    -0.248 C  
HETATM    4  C   UNL     1      -9.602  13.197  66.935  1.00  0.00    -0.248 C  
HETATM    5  C   UNL     1     -10.182  12.326  65.819  1.00  0.00    -0.281 C  
HETATM    6  O   UNL     1      -7.012   6.036  66.101  1.00  0.00    -0.059 OA 
HETATM    7  C   UNL     1      -6.805  10.248  65.604  1.00  0.00    -0.133 A  
HETATM    8  C   UNL     1      -7.711   6.283  67.079  1.00  0.00    -0.100 C  
HETATM    9  C   UNL     1     -10.841  11.031  66.338  1.00  0.00    -0.191 C  
HETATM   10  H   UNL     1      -8.313   4.297  67.527  1.00  0.00     0.000 HD 
HETATM   11  O   UNL     1     -11.770  11.198  67.470  1.00  0.00    -0.574 OA 
HETATM   12  C   UNL     1      -6.964  10.578  64.259  1.00  0.00     0.121 A  
HETATM   13  C   UNL     1      -7.961   9.943  63.522  1.00  0.00    -0.155 A  
HETATM   14  C   UNL     1     -11.172  11.734  68.672  1.00  0.00    -0.257 C  
HETATM   15  N   UNL     1      -8.400   5.283  67.774  1.00  0.00    -0.099 N  
HETATM   16  N   UNL     1     -10.606  10.527  69.351  1.00  0.00    -0.226 NA 
HETATM   17  C   UNL     1     -12.093  12.319  69.797  1.00  0.00    -0.298 C  
HETATM   18  C   UNL     1      -9.025   9.310  64.178  1.00  0.00    -0.125 A  
HETATM   19  C   UNL     1     -11.178   9.644  70.392  1.00  0.00    -0.283 A  
HETATM   20  C   UNL     1     -10.641   8.283  70.303  1.00  0.00    -0.230 A  
HETATM   21  N   UNL     1      -9.812  10.018  66.550  1.00  0.00    -0.198 NA 
HETATM   22  C   UNL     1      -9.246   5.728  68.869  1.00  0.00    -0.115 C  
HETATM   23  C   UNL     1      -9.658   8.295  69.316  1.00  0.00    -0.164 A  
HETATM   24  C   UNL     1     -11.145   7.260  71.147  1.00  0.00    -0.275 A  
HETATM   25  C   UNL     1      -9.750   9.602  68.844  1.00  0.00    -0.162 A  
HETATM   26  C   UNL     1     -12.108   7.528  72.111  1.00  0.00    -0.305 A  
HETATM   27  C   UNL     1     -12.579   8.813  72.256  1.00  0.00    -0.460 A  
HETATM   28  C   UNL     1      -9.073   9.766  67.669  1.00  0.00    -0.131 A  
HETATM   29  C   UNL     1      -7.931   8.918  67.523  1.00  0.00    -0.101 C  
HETATM   30  C   UNL     1     -12.136   9.857  71.423  1.00  0.00    -0.501 A  
HETATM   31  C   UNL     1      -7.693   9.301  66.177  1.00  0.00    -0.096 A  
HETATM   32  C   UNL     1      -8.091   7.491  67.752  1.00  0.00    -0.119 C  
HETATM   33  C   UNL     1      -8.995   9.362  65.573  1.00  0.00    -0.204 A  
HETATM   34  C   UNL     1      -9.003   7.171  68.777  1.00  0.00    -0.128 A  
BRANCH   4  35
HETATM   35  N   UNL     1      -9.266  14.642  66.465  1.00  0.00    -0.273 N  
HETATM   36  C   UNL     1     -10.167  15.333  65.530  1.00  0.00    -0.388 C  
HETATM   37  C   UNL     1      -8.268  15.494  66.979  1.00  0.00    -0.240 C  
HETATM   38  O   UNL     1      -8.124  16.668  66.599  1.00  0.00    -0.213 OA 
BRANCH  37  39
HETATM   39  C   UNL     1      -7.261  15.043  67.960  1.00  0.00    -0.140 A  
HETATM   40  C   UNL     1      -6.538  14.935  70.273  1.00  0.00    -0.095 A  
HETATM   41  C   UNL     1      -7.453  15.368  69.308  1.00  0.00    -0.207 A  
HETATM   42  C   UNL     1      -5.425  14.193  69.895  1.00  0.00    -0.099 A  
HETATM   43  C   UNL     1      -5.268  13.827  68.557  1.00  0.00    -0.091 A  
HETATM   44  C   UNL     1      -6.215  14.200  67.608  1.00  0.00    -0.102 A  
ENDBRANCH  37  39
ENDBRANCH   4  35
ENDBRANCH   2   3
TORSDOF 3
ENDMDL
MODEL        4
REMARK 921   NORMALIZED FREE ENERGY PREDICTED BY IDOCK:   -7.47 KCAL/MOL
REMARK 922        TOTAL FREE ENERGY PREDICTED BY IDOCK:   -9.31 KCAL/MOL
REMARK 923 INTER-LIGAND FREE ENERGY PREDICTED BY IDOCK:   -9.59 KCAL/MOL
REMARK 924 INTRA-LIGAND FREE ENERGY PREDICTED BY IDOCK:    0.29 KCAL/MOL
REMARK 927      BINDING AFFINITY PREDICTED BY RF-SCORE:    0.00 PKD
ROOT
HETATM    1  C   UNL     1     -10.942   6.089  71.374  1.00  0.00    -0.276 C  
HETATM    2  O   UNL     1     -10.175   7.162  70.824  1.00  0.00    -0.197 OA 
ENDROOT
BRANCH   2   3
HETATM    3  C   UNL     1     -10.748   8.047  69.780  1.00  0.00    -0.231 C  
HETATM    4  C   UNL     1      -9.976   7.719  68.477  1.00  0.00    -0.182 C  
HETATM    5  C   UNL     1      -8.675   8.521  68.438  1.00  0.00    -0.143 C  
HETATM    6  O   UNL     1      -9.806  14.313  64.583  1.00  0.00    -0.130 OA 
HETATM    7  C   UNL     1      -9.672  10.083  64.926  1.00  0.00    -0.377 A  
HETATM    8  C   UNL     1     -10.446  14.281  65.629  1.00  0.00    -0.324 C  
HETATM    9  C   UNL     1      -8.821   9.945  69.012  1.00  0.00    -0.156 C  
HETATM   10  H   UNL     1     -10.509  16.369  66.007  1.00  0.00     0.000 HD 
HETATM   11  O   UNL     1      -9.509  10.041  70.312  1.00  0.00    -0.179 OA 
HETATM   12  C   UNL     1      -8.392   9.620  64.623  1.00  0.00    -0.162 A  
HETATM   13  C   UNL     1      -7.291  10.291  65.146  1.00  0.00    -0.127 A  
HETATM   14  C   UNL     1     -10.878   9.576  70.310  1.00  0.00    -0.269 C  
HETATM   15  N   UNL     1     -10.759  15.440  66.347  1.00  0.00    -0.310 N  
HETATM   16  N   UNL     1     -11.652  10.768  69.843  1.00  0.00    -0.301 NA 
HETATM   17  C   UNL     1     -11.588   9.259  71.671  1.00  0.00    -0.463 C  
HETATM   18  C   UNL     1      -7.442  11.136  66.254  1.00  0.00    -0.064 A  
HETATM   19  C   UNL     1     -12.336  11.838  70.604  1.00  0.00    -0.328 A  
HETATM   20  C   UNL     1     -12.385  13.093  69.849  1.00  0.00    -0.201 A  
HETATM   21  N   UNL     1      -9.357  10.828  67.982  1.00  0.00    -0.147 NA 
HETATM   22  C   UNL     1     -11.462  15.247  67.605  1.00  0.00    -0.280 C  
HETATM   23  C   UNL     1     -11.861  12.831  68.585  1.00  0.00    -0.341 A  
HETATM   24  C   UNL     1     -12.905  14.268  70.451  1.00  0.00    -0.276 A  
HETATM   25  C   UNL     1     -11.466  11.502  68.715  1.00  0.00    -0.287 A  
HETATM   26  C   UNL     1     -13.432  14.249  71.735  1.00  0.00    -0.464 A  
HETATM   27  C   UNL     1     -13.456  13.066  72.439  1.00  0.00    -0.615 A  
HETATM   28  C   UNL     1     -10.660  11.109  67.686  1.00  0.00    -0.211 A  
HETATM   29  C   UNL     1     -10.921  11.772  66.445  1.00  0.00    -0.341 C  
HETATM   30  C   UNL     1     -12.923  11.880  71.900  1.00  0.00    -0.434 A  
HETATM   31  C   UNL     1      -9.798  11.202  65.789  1.00  0.00    -0.279 A  
HETATM   32  C   UNL     1     -10.987  13.224  66.434  1.00  0.00    -0.301 C  
HETATM   33  C   UNL     1      -8.739  11.247  66.759  1.00  0.00    -0.166 A  
HETATM   34  C   UNL     1     -11.555  13.784  67.595  1.00  0.00    -0.381 A  
BRANCH   4  35
HETATM   35  N   UNL     1      -9.759   6.196  68.241  1.00  0.00    -0.120 N  
HETATM   36  C   UNL     1     -10.775   5.418  67.516  1.00  0.00    -0.058 C  
HETATM   37  C   UNL     1      -8.581   5.458  68.472  1.00  0.00    -0.098 C  
HETATM   38  O   UNL     1      -8.470   4.256  68.174  1.00  0.00    -0.092 OA 
BRANCH  37  39
HETATM   39  C   UNL     1      -7.402   6.028  69.153  1.00  0.00    -0.084 A  
HETATM   40  C   UNL     1      -6.217   6.439  71.230  1.00  0.00    -0.040 A  
HETATM   41  C   UNL     1      -7.331   5.937  70.548  1.00  0.00    -0.085 A  
HETATM   42  C   UNL     1      -5.183   7.044  70.525  1.00  0.00    -0.023 A  
HETATM   43  C   UNL     1      -5.236   7.084  69.130  1.00  0.00    -0.014 A  
HETATM   44  C   UNL     1      -6.312   6.523  68.450  1.00  0.00    -0.037 A  
ENDBRANCH  37  39
ENDBRANCH   4  35
ENDBRANCH   2   3
TORSDOF 3
ENDMDL
MODEL        5
REMARK 921   NORMALIZED FREE ENERGY PREDICTED BY IDOCK:   -7.37 KCAL/MOL
REMARK 922        TOTAL FREE ENERGY PREDICTED BY IDOCK:   -9.19 KCAL/MOL
REMARK 923 INTER-LIGAND FREE ENERGY PREDICTED BY IDOCK:   -9.65 KCAL/MOL
REMARK 924 INTRA-LIGAND FREE ENERGY PREDICTED BY IDOCK:    0.46 KCAL/MOL
REMARK 927      BINDING AFFINITY PREDICTED BY RF-SCORE:    0.00 PKD
ROOT
HETATM    1  C   UNL     1      -5.133  12.666  71.577  1.00  0.00    -0.130 C  
HETATM    2  O   UNL     1      -5.488  12.375  70.224  1.00  0.00    -0.108 OA 
ENDROOT
BRANCH   2   3
HETATM    3  C   UNL     1      -6.908  12.364  69.797  1.00  0.00     0.238 C  
HETATM    4  C   UNL     1      -7.188  10.925  69.295  1.00  0.00    -0.128 C  
HETATM    5  C   UNL     1      -6.751  10.798  67.834  1.00  0.00    -0.064 C  
HETATM    6  O   UNL     1     -12.433  11.754  63.775  1.00  0.00    -0.421 OA 
HETATM    7  C   UNL     1     -10.383   9.579  66.790  1.00  0.00    -0.298 A  
HETATM    8  C   UNL     1     -12.101  12.753  64.404  1.00  0.00    -0.416 C  
HETATM    9  C   UNL     1      -7.035  12.066  67.003  1.00  0.00    -0.095 C  
HETATM   10  H   UNL     1     -12.740  14.217  63.006  1.00  0.00     0.000 HD 
HETATM   11  O   UNL     1      -6.611  13.338  67.615  1.00  0.00    -0.147 OA 
HETATM   12  C   UNL     1      -9.619   8.566  66.212  1.00  0.00    -0.306 A  
HETATM   13  C   UNL     1      -8.869   8.853  65.075  1.00  0.00    -0.183 A  
HETATM   14  C   UNL     1      -7.255  13.651  68.871  1.00  0.00    -0.083 C  
HETATM   15  N   UNL     1     -12.280  14.046  63.900  1.00  0.00    -0.396 N  
HETATM   16  N   UNL     1      -8.533  14.309  68.455  1.00  0.00    -0.165 NA 
HETATM   17  C   UNL     1      -6.634  14.745  69.806  1.00  0.00    -0.169 C  
HETATM   18  C   UNL     1      -8.556  10.181  64.755  1.00  0.00    -0.191 A  
HETATM   19  C   UNL     1      -8.872  15.739  68.272  1.00  0.00    -0.180 A  
HETATM   20  C   UNL     1      -9.929  15.921  67.273  1.00  0.00    -0.240 A  
HETATM   21  N   UNL     1      -8.423  12.049  66.555  1.00  0.00    -0.121 NA 
HETATM   22  C   UNL     1     -11.775  15.133  64.724  1.00  0.00    -0.331 C  
HETATM   23  C   UNL     1     -10.360  14.651  66.898  1.00  0.00    -0.264 A  
HETATM   24  C   UNL     1     -10.320  17.226  66.878  1.00  0.00    -0.310 A  
HETATM   25  C   UNL     1      -9.487  13.835  67.612  1.00  0.00    -0.217 A  
HETATM   26  C   UNL     1      -9.762  18.355  67.462  1.00  0.00    -0.308 A  
HETATM   27  C   UNL     1      -8.813  18.207  68.449  1.00  0.00    -0.305 A  
HETATM   28  C   UNL     1      -9.533  12.541  67.179  1.00  0.00    -0.208 A  
HETATM   29  C   UNL     1     -10.806  12.134  66.669  1.00  0.00    -0.307 C  
HETATM   30  C   UNL     1      -8.367  16.936  68.854  1.00  0.00    -0.208 A  
HETATM   31  C   UNL     1     -10.334  10.875  66.214  1.00  0.00    -0.306 A  
HETATM   32  C   UNL     1     -11.450  12.965  65.665  1.00  0.00    -0.368 C  
HETATM   33  C   UNL     1      -9.048  11.148  65.632  1.00  0.00    -0.205 A  
HETATM   34  C   UNL     1     -11.238  14.347  65.839  1.00  0.00    -0.324 A  
BRANCH   4  35
HETATM   35  N   UNL     1      -6.590   9.813  70.206  1.00  0.00    -0.087 N  
HETATM   36  C   UNL     1      -5.132   9.637  70.281  1.00  0.00    -0.028 C  
HETATM   37  C   UNL     1      -7.275   9.035  71.160  1.00  0.00    -0.097 C  
HETATM   38  O   UNL     1      -6.700   8.224  71.907  1.00  0.00    -0.063 OA 
BRANCH  37  39
HETATM   39  C   UNL     1      -8.744   9.061  71.306  1.00  0.00    -0.240 A  
HETATM   40  C   UNL     1     -10.897   9.718  70.400  1.00  0.00    -0.370 A  
HETATM   41  C   UNL     1      -9.501   9.696  70.314  1.00  0.00    -0.300 A  
HETATM   42  C   UNL     1     -11.538   9.122  71.479  1.00  0.00    -0.439 A  
HETATM   43  C   UNL     1     -10.781   8.444  72.437  1.00  0.00    -0.405 A  
HETATM   44  C   UNL     1      -9.398   8.365  72.315  1.00  0.00    -0.356 A  
ENDBRANCH  37  39
ENDBRANCH   4  35
ENDBRANCH   2   3
TORSDOF 3
ENDMDL
MODEL        6
REMARK 921   NORMALIZED FREE ENERGY PREDICTED BY IDOCK:   -7.20 KCAL/MOL
REMARK 922        TOTAL FREE ENERGY PREDICTED BY IDOCK:   -8.98 KCAL/MOL
REMARK 923 INTER-LIGAND FREE ENERGY PREDICTED BY IDOCK:   -9.65 KCAL/MOL
REMARK 924 INTRA-LIGAND FREE ENERGY PREDICTED BY IDOCK:    0.67 KCAL/MOL
REMARK 927      BINDING AFFINITY PREDICTED BY RF-SCORE:    0.00 PKD
ROOT
HETATM    1  C   UNL     1     -11.538  15.127  69.130  1.00  0.00    -0.323 C  
HETATM    2  O   UNL     1     -11.546  13.863  68.463  1.00  0.00    -0.288 OA 
ENDROOT
BRANCH   2   3
HETATM    3  C   UNL     1     -10.700  12.745  68.945  1.00  0.00    -0.163 C  
HETATM    4  C   UNL     1      -9.528  12.635  67.936  1.00  0.00    -0.204 C  
HETATM    5  C   UNL     1      -9.962  11.786  66.740  1.00  0.00    -0.224 C  
HETATM    6  O   UNL     1      -7.723   5.191  67.827  1.00  0.00    -0.086 OA 
HETATM    7  C   UNL     1      -6.898   9.323  67.301  1.00  0.00    -0.080 A  
HETATM    8  C   UNL     1      -8.577   5.562  68.625  1.00  0.00    -0.103 C  
HETATM    9  C   UNL     1     -10.870  10.603  67.131  1.00  0.00    -0.270 C  
HETATM   10  H   UNL     1      -9.501   3.682  68.973  1.00  0.00     0.000 HD 
HETATM   11  O   UNL     1     -11.989  10.928  68.033  1.00  0.00    -0.586 OA 
HETATM   12  C   UNL     1      -6.727   9.607  65.946  1.00  0.00    -0.084 A  
HETATM   13  C   UNL     1      -7.616   9.059  65.025  1.00  0.00    -0.103 A  
HETATM   14  C   UNL     1     -11.598  11.446  69.324  1.00  0.00    -0.317 C  
HETATM   15  N   UNL     1      -9.515   4.682  69.175  1.00  0.00    -0.143 N  
HETATM   16  N   UNL     1     -11.341  10.214  70.133  1.00  0.00    -0.282 NA 
HETATM   17  C   UNL     1     -12.657  12.186  70.212  1.00  0.00    -0.040 C  
HETATM   18  C   UNL     1      -8.865   8.584  65.448  1.00  0.00    -0.173 A  
HETATM   19  C   UNL     1     -12.226   9.453  71.044  1.00  0.00    -0.279 A  
HETATM   20  C   UNL     1     -11.854   8.036  71.101  1.00  0.00    -0.307 A  
HETATM   21  N   UNL     1     -10.042   9.488  67.580  1.00  0.00    -0.191 NA 
HETATM   22  C   UNL     1     -10.513   5.273  70.054  1.00  0.00    -0.281 C  
HETATM   23  C   UNL     1     -10.690   7.888  70.349  1.00  0.00    -0.233 A  
HETATM   24  C   UNL     1     -12.647   7.118  71.836  1.00  0.00    -0.328 A  
HETATM   25  C   UNL     1     -10.518   9.174  69.841  1.00  0.00    -0.223 A  
HETATM   26  C   UNL     1     -13.751   7.541  72.565  1.00  0.00     0.362 A  
HETATM   27  C   UNL     1     -14.081   8.877  72.578  1.00  0.00    -0.441 A  
HETATM   28  C   UNL     1      -9.593   9.204  68.838  1.00  0.00    -0.152 A  
HETATM   29  C   UNL     1      -8.560   8.222  68.958  1.00  0.00    -0.135 C  
HETATM   30  C   UNL     1     -13.346   9.823  71.840  1.00  0.00    -0.530 A  
HETATM   31  C   UNL     1      -7.997   8.513  67.688  1.00  0.00    -0.107 A  
HETATM   32  C   UNL     1      -8.939   6.836  69.177  1.00  0.00    -0.132 C  
HETATM   33  C   UNL     1      -9.124   8.697  66.815  1.00  0.00    -0.149 A  
HETATM   34  C   UNL     1     -10.080   6.672  69.986  1.00  0.00    -0.199 A  
BRANCH   4  35
HETATM   35  N   UNL     1      -8.924  14.008  67.521  1.00  0.00    -0.185 N  
HETATM   36  C   UNL     1      -7.811  14.579  68.294  1.00  0.00    -0.131 C  
HETATM   37  C   UNL     1      -9.183  14.729  66.339  1.00  0.00    -0.269 C  
HETATM   38  O   UNL     1      -8.590  15.783  66.049  1.00  0.00    -0.277 OA 
BRANCH  37  39
HETATM   39  C   UNL     1     -10.233  14.337  65.377  1.00  0.00    -0.395 A  
HETATM   40  C   UNL     1     -12.407  14.784  64.400  1.00  0.00    -0.389 A  
HETATM   41  C   UNL     1     -11.401  15.105  65.317  1.00  0.00    -0.318 A  
HETATM   42  C   UNL     1     -12.257  13.691  63.554  1.00  0.00    -0.329 A  
HETATM   43  C   UNL     1     -11.066  12.962  63.583  1.00  0.00    -0.371 A  
HETATM   44  C   UNL     1     -10.039  13.323  64.448  1.00  0.00    -0.190 A  
ENDBRANCH  37  39
ENDBRANCH   4  35
ENDBRANCH   2   3
TORSDOF 3
ENDMDL
MODEL        7
REMARK 921   NORMALIZED FREE ENERGY PREDICTED BY IDOCK:   -7.15 KCAL/MOL
REMARK 922        TOTAL FREE ENERGY PREDICTED BY IDOCK:   -8.93 KCAL/MOL
REMARK 923 INTER-LIGAND FREE ENERGY PREDICTED BY IDOCK:   -8.90 KCAL/MOL
REMARK 924 INTRA-LIGAND FREE ENERGY PREDICTED BY IDOCK:   -0.03 KCAL/MOL
REMARK 927      BINDING AFFINITY PREDICTED BY RF-SCORE:    0.00 PKD
ROOT
HETATM    1  C   UNL     1      -7.130   8.903  70.117  1.00  0.00    -0.048 C  
HETATM    2  O   UNL     1      -7.334   9.613  68.894  1.00  0.00    -0.071 OA 
ENDROOT
BRANCH   2   3
HETATM    3  C   UNL     1      -8.271  10.762  68.831  1.00  0.00    -0.149 C  
HETATM    4  C   UNL     1      -9.393  10.338  67.850  1.00  0.00    -0.138 C  
HETATM    5  C   UNL     1      -8.952  10.623  66.414  1.00  0.00    -0.176 C  
HETATM    6  O   UNL     1     -11.644  16.853  64.509  1.00  0.00    -0.754 OA 
HETATM    7  C   UNL     1     -12.186  12.843  65.797  1.00  0.00    -0.498 A  
HETATM    8  C   UNL     1     -10.812  16.927  65.406  1.00  0.00    -0.106 C  
HETATM    9  C   UNL     1      -8.140  11.927  66.275  1.00  0.00     0.189 C  
HETATM   10  H   UNL     1     -10.024  18.840  64.929  1.00  0.00     0.000 HD 
HETATM   11  O   UNL     1      -7.050  12.106  67.251  1.00  0.00    -0.134 OA 
HETATM   12  C   UNL     1     -12.269  11.995  64.694  1.00  0.00    -0.289 A  
HETATM   13  C   UNL     1     -11.370  12.163  63.644  1.00  0.00    -0.545 A  
HETATM   14  C   UNL     1      -7.475  12.162  68.631  1.00  0.00    -0.105 C  
HETATM   15  N   UNL     1      -9.959  18.028  65.542  1.00  0.00     0.286 N  
HETATM   16  N   UNL     1      -7.848  13.598  68.826  1.00  0.00    -0.092 NA 
HETATM   17  C   UNL     1      -6.420  11.959  69.773  1.00  0.00    -0.077 C  
HETATM   18  C   UNL     1     -10.176  12.868  63.847  1.00  0.00    -0.162 A  
HETATM   19  C   UNL     1      -7.060  14.742  69.337  1.00  0.00    -0.170 A  
HETATM   20  C   UNL     1      -7.521  16.014  68.771  1.00  0.00    -0.176 A  
HETATM   21  N   UNL     1      -9.056  13.059  66.183  1.00  0.00    -0.002 NA 
HETATM   22  C   UNL     1      -8.973  17.949  66.609  1.00  0.00    -0.268 C  
HETATM   23  C   UNL     1      -8.651  15.734  68.005  1.00  0.00    -0.163 A  
HETATM   24  C   UNL     1      -6.824  17.217  69.055  1.00  0.00    -0.231 A  
HETATM   25  C   UNL     1      -8.717  14.346  68.098  1.00  0.00    -0.175 A  
HETATM   26  C   UNL     1      -5.735  17.233  69.916  1.00  0.00    -0.236 A  
HETATM   27  C   UNL     1      -5.325  16.061  70.511  1.00  0.00    -0.166 A  
HETATM   28  C   UNL     1      -9.586  13.818  67.186  1.00  0.00    -0.244 A  
HETATM   29  C   UNL     1     -10.683  14.673  66.852  1.00  0.00    -0.294 C  
HETATM   30  C   UNL     1      -5.961  14.837  70.237  1.00  0.00    -0.160 A  
HETATM   31  C   UNL     1     -11.160  13.823  65.820  1.00  0.00    -0.290 A  
HETATM   32  C   UNL     1     -10.401  16.044  66.459  1.00  0.00    -0.303 C  
HETATM   33  C   UNL     1      -9.980  13.372  65.134  1.00  0.00    -0.167 A  
HETATM   34  C   UNL     1      -9.316  16.627  67.142  1.00  0.00    -0.236 A  
BRANCH   4  35
HETATM   35  N   UNL     1      -9.889   8.877  68.055  1.00  0.00    -0.161 N  
HETATM   36  C   UNL     1      -9.285   7.785  67.275  1.00  0.00    -0.139 C  
HETATM   37  C   UNL     1     -10.749   8.403  69.066  1.00  0.00    -0.080 C  
HETATM   38  O   UNL     1     -11.027   7.199  69.204  1.00  0.00    -0.198 OA 
BRANCH  37  39
HETATM   39  C   UNL     1     -11.451   9.302  70.003  1.00  0.00    -0.077 A  
HETATM   40  C   UNL     1     -12.409  11.488  70.439  1.00  0.00    -0.390 A  
HETATM   41  C   UNL     1     -11.719  10.613  69.592  1.00  0.00    -0.368 A  
HETATM   42  C   UNL     1     -12.817  11.063  71.697  1.00  0.00    -0.540 A  
HETATM   43  C   UNL     1     -12.593   9.739  72.079  1.00  0.00    -0.432 A  
HETATM   44  C   UNL     1     -11.968   8.851  71.210  1.00  0.00    -0.365 A  
ENDBRANCH  37  39
ENDBRANCH   4  35
ENDBRANCH   2   3
TORSDOF 3
ENDMDL
MODEL        8
REMARK 921   NORMALIZED FREE ENERGY PREDICTED BY IDOCK:   -7.05 KCAL/MOL
REMARK 922        TOTAL FREE ENERGY PREDICTED BY IDOCK:   -8.81 KCAL/MOL
REMARK 923 INTER-LIGAND FREE ENERGY PREDICTED BY IDOCK:   -9.22 KCAL/MOL
REMARK 924 INTRA-LIGAND FREE ENERGY PREDICTED BY IDOCK:    0.41 KCAL/MOL
REMARK 927      BINDING AFFINITY PREDICTED BY RF-SCORE:    0.00 PKD
ROOT
HETATM    1  C   UNL     1     -13.109  10.267  72.033  1.00  0.00    -0.425 C  
HETATM    2  O   UNL     1     -11.810  10.049  71.479  1.00  0.00    -0.377 OA 
ENDROOT
BRANCH   2   3
HETATM    3  C   UNL     1     -11.651   9.468  70.123  1.00  0.00    -0.111 C  
HETATM    4  C   UNL     1     -10.904   8.125  70.324  1.00  0.00    -0.244 C  
HETATM    5  C   UNL     1      -9.398   8.382  70.387  1.00  0.00    -0.170 C  
HETATM    6  O   UNL     1      -6.726   7.231  63.967  1.00  0.00    -0.046 OA 
HETATM    7  C   UNL     1      -8.777   5.829  67.410  1.00  0.00    -0.107 A  
HETATM    8  C   UNL     1      -7.489   8.189  64.021  1.00  0.00    -0.115 C  
HETATM    9  C   UNL     1      -8.928   9.487  69.419  1.00  0.00    -0.172 C  
HETATM   10  H   UNL     1      -6.582   9.382  62.517  1.00  0.00     0.000 HD 
HETATM   11  O   UNL     1      -9.719  10.730  69.439  1.00  0.00    -0.173 OA 
HETATM   12  C   UNL     1      -7.864   5.332  68.340  1.00  0.00    -0.087 A  
HETATM   13  C   UNL     1      -6.702   6.055  68.596  1.00  0.00    -0.061 A  
HETATM   14  C   UNL     1     -11.106  10.574  69.067  1.00  0.00    -0.249 C  
HETATM   15  N   UNL     1      -7.320   9.323  63.218  1.00  0.00    -0.095 N  
HETATM   16  N   UNL     1     -11.079  10.648  67.573  1.00  0.00    -0.312 NA 
HETATM   17  C   UNL     1     -12.132  11.707  69.416  1.00  0.00    -0.328 C  
HETATM   18  C   UNL     1      -6.630   7.414  68.260  1.00  0.00    -0.050 A  
HETATM   19  C   UNL     1     -11.277  11.795  66.657  1.00  0.00    -0.323 A  
HETATM   20  C   UNL     1     -10.547  11.614  65.398  1.00  0.00    -0.331 A  
HETATM   21  N   UNL     1      -8.742   8.916  68.089  1.00  0.00    -0.133 NA 
HETATM   22  C   UNL     1      -8.259  10.412  63.438  1.00  0.00    -0.142 C  
HETATM   23  C   UNL     1      -9.986  10.340  65.431  1.00  0.00    -0.371 A  
HETATM   24  C   UNL     1     -10.524  12.653  64.432  1.00  0.00    -0.398 A  
HETATM   25  C   UNL     1     -10.337   9.910  66.708  1.00  0.00    -0.217 A  
HETATM   26  C   UNL     1     -11.232  13.832  64.622  1.00  0.00    -0.383 A  
HETATM   27  C   UNL     1     -11.977  13.996  65.768  1.00  0.00    -0.417 A  
HETATM   28  C   UNL     1      -9.646   8.791  67.074  1.00  0.00    -0.179 A  
HETATM   29  C   UNL     1      -9.295   7.932  65.985  1.00  0.00    -0.129 C  
HETATM   30  C   UNL     1     -12.008  13.011  66.771  1.00  0.00    -0.434 A  
HETATM   31  C   UNL     1      -8.499   7.074  66.789  1.00  0.00    -0.118 A  
HETATM   32  C   UNL     1      -8.629   8.511  64.830  1.00  0.00    -0.135 C  
HETATM   33  C   UNL     1      -7.771   7.952  67.663  1.00  0.00    -0.117 A  
HETATM   34  C   UNL     1      -9.060   9.813  64.510  1.00  0.00    -0.297 A  
BRANCH   4  35
HETATM   35  N   UNL     1     -11.428   7.287  71.527  1.00  0.00    -0.254 N  
HETATM   36  C   UNL     1     -12.840   6.874  71.567  1.00  0.00    -0.333 C  
HETATM   37  C   UNL     1     -10.661   6.679  72.540  1.00  0.00    -0.229 C  
HETATM   38  O   UNL     1     -11.159   5.955  73.419  1.00  0.00    -0.238 OA 
BRANCH  37  39
HETATM   39  C   UNL     1      -9.211   6.909  72.690  1.00  0.00    -0.151 A  
HETATM   40  C   UNL     1      -7.417   8.150  73.752  1.00  0.00    -0.211 A  
HETATM   41  C   UNL     1      -8.783   7.919  73.559  1.00  0.00    -0.321 A  
HETATM   42  C   UNL     1      -6.478   7.386  73.069  1.00  0.00    -0.060 A  
HETATM   43  C   UNL     1      -6.910   6.346  72.244  1.00  0.00    -0.069 A  
HETATM   44  C   UNL     1      -8.268   6.073  72.106  1.00  0.00    -0.111 A  
ENDBRANCH  37  39
ENDBRANCH   4  35
ENDBRANCH   2   3
TORSDOF 3
ENDMDL
MODEL        9
REMARK 921   NORMALIZED FREE ENERGY PREDICTED BY IDOCK:   -6.89 KCAL/MOL
REMARK 922        TOTAL FREE ENERGY PREDICTED BY IDOCK:   -8.63 KCAL/MOL
REMARK 923 INTER-LIGAND FREE ENERGY PREDICTED BY IDOCK:   -8.75 KCAL/MOL
REMARK 924 INTRA-LIGAND FREE ENERGY PREDICTED BY IDOCK:    0.13 KCAL/MOL
REMARK 927      BINDING AFFINITY PREDICTED BY RF-SCORE:    0.00 PKD
ROOT
HETATM    1  C   UNL     1     -10.082  12.460  64.879  1.00  0.00    -0.236 C  
HETATM    2  O   UNL     1      -9.105  12.747  65.881  1.00  0.00     0.019 OA 
ENDROOT
BRANCH   2   3
HETATM    3  C   UNL     1      -9.121  12.034  67.182  1.00  0.00    -0.186 C  
HETATM    4  C   UNL     1      -8.535  10.628  66.902  1.00  0.00    -0.127 C  
HETATM    5  C   UNL     1      -9.642   9.706  66.388  1.00  0.00    -0.268 C  
HETATM    6  O   UNL     1     -12.093   5.994  71.856  1.00  0.00    -0.249 OA 
HETATM    7  C   UNL     1      -8.898   7.096  69.287  1.00  0.00    -0.136 A  
HETATM    8  C   UNL     1     -12.318   7.197  71.934  1.00  0.00    -0.317 C  
HETATM    9  C   UNL     1     -11.002   9.947  67.075  1.00  0.00    -0.027 C  
HETATM   10  H   UNL     1     -14.152   7.093  72.999  1.00  0.00     0.000 HD 
HETATM   11  O   UNL     1     -11.430  11.354  67.167  1.00  0.00    -0.450 OA 
HETATM   12  C   UNL     1      -8.855   6.243  68.185  1.00  0.00    -0.113 A  
HETATM   13  C   UNL     1     -10.045   5.912  67.541  1.00  0.00    -0.197 A  
HETATM   14  C   UNL     1     -10.550  12.207  67.932  1.00  0.00    -0.207 C  
HETATM   15  N   UNL     1     -13.470   7.702  72.547  1.00  0.00     0.264 N  
HETATM   16  N   UNL     1     -11.007  12.006  69.343  1.00  0.00    -0.130 NA 
HETATM   17  C   UNL     1     -10.667  13.764  67.788  1.00  0.00    -0.254 C  
HETATM   18  C   UNL     1     -11.185   6.709  67.717  1.00  0.00    -0.244 A  
HETATM   19  C   UNL     1     -11.970  12.770  70.167  1.00  0.00    -0.296 A  
HETATM   20  C   UNL     1     -12.612  11.922  71.176  1.00  0.00    -0.390 A  
HETATM   21  N   UNL     1     -11.035   9.226  68.344  1.00  0.00    -0.062 NA 
HETATM   22  C   UNL     1     -13.641   9.146  72.504  1.00  0.00    -0.436 C  
HETATM   23  C   UNL     1     -12.006  10.670  71.103  1.00  0.00    -0.401 A  
HETATM   24  C   UNL     1     -13.646  12.445  71.996  1.00  0.00    -0.349 A  
HETATM   25  C   UNL     1     -11.141  10.839  70.024  1.00  0.00    -0.255 A  
HETATM   26  C   UNL     1     -14.033  13.775  71.908  1.00  0.00    -0.464 A  
HETATM   27  C   UNL     1     -13.400  14.606  71.012  1.00  0.00    -0.410 A  
HETATM   28  C   UNL     1     -10.644   9.647  69.581  1.00  0.00    -0.233 A  
HETATM   29  C   UNL     1     -10.504   8.651  70.599  1.00  0.00    -0.243 C  
HETATM   30  C   UNL     1     -12.391  14.130  70.154  1.00  0.00    -0.413 A  
HETATM   31  C   UNL     1     -10.153   7.623  69.685  1.00  0.00    -0.194 A  
HETATM   32  C   UNL     1     -11.643   8.370  71.457  1.00  0.00    -0.338 C  
HETATM   33  C   UNL     1     -11.031   7.809  68.562  1.00  0.00     0.186 A  
HETATM   34  C   UNL     1     -12.424   9.500  71.766  1.00  0.00    -0.484 A  
BRANCH   4  35
HETATM   35  N   UNL     1      -7.279  10.641  65.982  1.00  0.00    -0.137 N  
HETATM   36  C   UNL     1      -7.375  10.119  64.610  1.00  0.00    -0.129 C  
HETATM   37  C   UNL     1      -6.051  11.285  66.227  1.00  0.00    -0.084 C  
HETATM   38  O   UNL     1      -5.127  11.313  65.396  1.00  0.00    -0.289 OA 
BRANCH  37  39
HETATM   39  C   UNL     1      -5.726  11.920  67.521  1.00  0.00    -0.097 A  
HETATM   40  C   UNL     1      -5.459  13.957  68.810  1.00  0.00    -0.082 A  
HETATM   41  C   UNL     1      -5.732  13.317  67.597  1.00  0.00    -0.090 A  
HETATM   42  C   UNL     1      -5.165  13.206  69.943  1.00  0.00    -0.089 A  
HETATM   43  C   UNL     1      -5.213  11.813  69.873  1.00  0.00    -0.078 A  
HETATM   44  C   UNL     1      -5.552  11.178  68.682  1.00  0.00    -0.043 A  
ENDBRANCH  37  39
ENDBRANCH   4  35
ENDBRANCH   2   3
TORSDOF 3
ENDMDL
MODEL       10
REMARK 921   NORMALIZED FREE ENERGY PREDICTED BY IDOCK:   -6.87 KCAL/MOL
REMARK 922        TOTAL FREE ENERGY PREDICTED BY IDOCK:   -8.60 KCAL/MOL
REMARK 923 INTER-LIGAND FREE ENERGY PREDICTED BY IDOCK:   -8.79 KCAL/MOL
REMARK 924 INTRA-LIGAND FREE ENERGY PREDICTED BY IDOCK:    0.19 KCAL/MOL
REMARK 927      BINDING AFFINITY PREDICTED BY RF-SCORE:    0.00 PKD
ROOT
HETATM    1  C   UNL     1     -11.915  13.974  69.424  1.00  0.00    -0.343 C  
HETATM    2  O   UNL     1     -11.579  12.813  68.662  1.00  0.00    -0.270 OA 
ENDROOT
BRANCH   2   3
HETATM    3  C   UNL     1     -10.343  12.046  68.951  1.00  0.00    -0.092 C  
HETATM    4  C   UNL     1      -9.402  12.289  67.743  1.00  0.00    -0.194 C  
HETATM    5  C   UNL     1      -9.746  11.306  66.622  1.00  0.00    -0.222 C  
HETATM    6  O   UNL     1      -5.328   5.835  67.099  1.00  0.00    -0.005 OA 
HETATM    7  C   UNL     1      -6.000   9.991  66.547  1.00  0.00    -0.060 A  
HETATM    8  C   UNL     1      -6.096   5.935  68.049  1.00  0.00    -0.021 C  
HETATM    9  C   UNL     1     -10.133   9.906  67.139  1.00  0.00    -0.215 C  
HETATM   10  H   UNL     1      -6.279   3.870  68.507  1.00  0.00     0.000 HD 
HETATM   11  O   UNL     1     -11.115   9.880  68.238  1.00  0.00    -0.230 OA 
HETATM   12  C   UNL     1      -6.179  10.269  65.192  1.00  0.00    -0.127 A  
HETATM   13  C   UNL     1      -6.992   9.432  64.433  1.00  0.00    -0.101 A  
HETATM   14  C   UNL     1     -10.686  10.540  69.450  1.00  0.00    -0.241 C  
HETATM   15  N   UNL     1      -6.581   4.817  68.736  1.00  0.00    -0.044 N  
HETATM   16  N   UNL     1      -9.901   9.485  70.164  1.00  0.00    -0.228 NA 
HETATM   17  C   UNL     1     -11.748  10.925  70.537  1.00  0.00    -0.441 C  
HETATM   18  C   UNL     1      -7.921   8.593  65.064  1.00  0.00    -0.131 A  
HETATM   19  C   UNL     1     -10.309   8.509  71.199  1.00  0.00    -0.215 A  
HETATM   20  C   UNL     1      -9.493   7.292  71.148  1.00  0.00    -0.156 A  
HETATM   21  N   UNL     1      -8.921   9.135  67.399  1.00  0.00    -0.118 NA 
HETATM   22  C   UNL     1      -7.540   5.081  69.798  1.00  0.00    -0.060 C  
HETATM   23  C   UNL     1      -8.501   7.505  70.193  1.00  0.00    -0.136 A  
HETATM   24  C   UNL     1      -9.798   6.191  71.990  1.00  0.00    -0.174 A  
HETATM   25  C   UNL     1      -8.852   8.759  69.699  1.00  0.00    -0.141 A  
HETATM   26  C   UNL     1     -10.828   6.257  72.918  1.00  0.00    -0.284 A  
HETATM   27  C   UNL     1     -11.566   7.414  73.029  1.00  0.00    -0.112 A  
HETATM   28  C   UNL     1      -8.185   9.054  68.545  1.00  0.00    -0.112 A  
HETATM   29  C   UNL     1      -6.884   8.466  68.448  1.00  0.00    -0.065 C  
HETATM   30  C   UNL     1     -11.325   8.521  72.196  1.00  0.00    -0.442 A  
HETATM   31  C   UNL     1      -6.687   8.882  67.105  1.00  0.00    -0.066 A  
HETATM   32  C   UNL     1      -6.746   7.040  68.693  1.00  0.00    -0.063 C  
HETATM   33  C   UNL     1      -7.951   8.660  66.458  1.00  0.00    -0.099 A  
HETATM   34  C   UNL     1      -7.605   6.542  69.692  1.00  0.00    -0.098 A  
BRANCH   4  35
HETATM   35  N   UNL     1      -9.364  13.769  67.263  1.00  0.00    -0.230 N  
HETATM   36  C   UNL     1      -8.510  14.740  67.964  1.00  0.00    -0.151 C  
HETATM   37  C   UNL     1      -9.916  14.295  66.079  1.00  0.00    -0.319 C  
HETATM   38  O   UNL     1      -9.765  15.479  65.733  1.00  0.00    -0.329 OA 
BRANCH  37  39
HETATM   39  C   UNL     1     -10.783  13.505  65.183  1.00  0.00    -0.349 A  
HETATM   40  C   UNL     1     -13.014  12.731  64.625  1.00  0.00    -0.231 A  
HETATM   41  C   UNL     1     -12.153  13.444  65.465  1.00  0.00    -0.467 A  
HETATM   42  C   UNL     1     -12.510  12.066  63.513  1.00  0.00    -0.654 A  
HETATM   43  C   UNL     1     -11.151  12.174  63.208  1.00  0.00    -0.408 A  
HETATM   44  C   UNL     1     -10.309  12.940  64.006  1.00  0.00    -0.346 A  
ENDBRANCH  37  39
ENDBRANCH   4  35
ENDBRANCH   2   3
TORSDOF 3
ENDMDL
MODEL       11
REMARK 921   NORMALIZED FREE ENERGY PREDICTED BY IDOCK:   -6.76 KCAL/MOL
REMARK 922        TOTAL FREE ENERGY PREDICTED BY IDOCK:   -8.47 KCAL/MOL
REMARK 923 INTER-LIGAND FREE ENERGY PREDICTED BY IDOCK:   -9.31 KCAL/MOL
REMARK 924 INTRA-LIGAND FREE ENERGY PREDICTED BY IDOCK:    0.84 KCAL/MOL
REMARK 927      BINDING AFFINITY PREDICTED BY RF-SCORE:    0.00 PKD
ROOT
HETATM    1  C   UNL     1     -12.492  10.448  71.491  1.00  0.00    -0.404 C  
HETATM    2  O   UNL     1     -11.189  10.333  70.915  1.00  0.00    -0.336 OA 
ENDROOT
BRANCH   2   3
HETATM    3  C   UNL     1     -11.002   9.733  69.571  1.00  0.00    -0.227 C  
HETATM    4  C   UNL     1      -9.958   8.603  69.754  1.00  0.00    -0.190 C  
HETATM    5  C   UNL     1      -8.548   9.193  69.683  1.00  0.00    -0.143 C  
HETATM    6  O   UNL     1      -6.167   8.339  63.103  1.00  0.00    -0.079 OA 
HETATM    7  C   UNL     1      -7.587   6.693  66.751  1.00  0.00    -0.091 A  
HETATM    8  C   UNL     1      -7.121   9.105  63.189  1.00  0.00    -0.088 C  
HETATM    9  C   UNL     1      -8.415  10.323  68.642  1.00  0.00    -0.127 C  
HETATM   10  H   UNL     1      -6.621  10.391  61.576  1.00  0.00     0.000 HD 
HETATM   11  O   UNL     1      -9.463  11.358  68.687  1.00  0.00    -0.192 OA 
HETATM   12  C   UNL     1      -6.519   6.462  67.618  1.00  0.00    -0.052 A  
HETATM   13  C   UNL     1      -5.536   7.438  67.752  1.00  0.00    -0.026 A  
HETATM   14  C   UNL     1     -10.802  10.877  68.437  1.00  0.00    -0.222 C  
HETATM   15  N   UNL     1      -7.274  10.204  62.338  1.00  0.00    -0.125 N  
HETATM   16  N   UNL     1     -10.903  10.879  66.944  1.00  0.00    -0.266 NA 
HETATM   17  C   UNL     1     -12.029  11.769  68.832  1.00  0.00    -0.332 C  
HETATM   18  C   UNL     1      -5.798   8.759  67.365  1.00  0.00    -0.043 A  
HETATM   19  C   UNL     1     -11.423  11.904  66.011  1.00  0.00    -0.281 A  
HETATM   20  C   UNL     1     -10.766  11.826  64.702  1.00  0.00    -0.363 A  
HETATM   21  N   UNL     1      -8.203   9.741  67.321  1.00  0.00    -0.117 NA 
HETATM   22  C   UNL     1      -8.415  11.066  62.599  1.00  0.00    -0.172 C  
HETATM   23  C   UNL     1      -9.929  10.713  64.730  1.00  0.00    -0.391 A  
HETATM   24  C   UNL     1     -11.050  12.793  63.702  1.00  0.00    -0.443 A  
HETATM   25  C   UNL     1     -10.078  10.282  66.046  1.00  0.00    -0.244 A  
HETATM   26  C   UNL     1     -11.991  13.792  63.911  1.00  0.00    -0.414 A  
HETATM   27  C   UNL     1     -12.667  13.845  65.109  1.00  0.00    -0.434 A  
HETATM   28  C   UNL     1      -9.127   9.365  66.390  1.00  0.00    -0.161 A  
HETATM   29  C   UNL     1      -8.672   8.551  65.305  1.00  0.00    -0.175 C  
HETATM   30  C   UNL     1     -12.399  12.930  66.144  1.00  0.00    -0.266 A  
HETATM   31  C   UNL     1      -7.644   7.935  66.067  1.00  0.00    -0.086 A  
HETATM   32  C   UNL     1      -8.241   9.205  64.080  1.00  0.00    -0.168 C  
HETATM   33  C   UNL     1      -7.073   8.998  66.848  1.00  0.00    -0.078 A  
HETATM   34  C   UNL     1      -8.979  10.359  63.753  1.00  0.00    -0.247 A  
BRANCH   4  35
HETATM   35  N   UNL     1     -10.189   7.732  71.023  1.00  0.00    -0.197 N  
HETATM   36  C   UNL     1     -10.457   8.382  72.315  1.00  0.00    -0.337 C  
HETATM   37  C   UNL     1     -10.371   6.336  71.076  1.00  0.00    -0.211 C  
HETATM   38  O   UNL     1     -10.633   5.730  72.130  1.00  0.00    -0.205 OA 
BRANCH  37  39
HETATM   39  C   UNL     1     -10.192   5.462  69.900  1.00  0.00    -0.351 A  
HETATM   40  C   UNL     1     -10.476   5.131  67.513  1.00  0.00    -0.148 A  
HETATM   41  C   UNL     1     -10.651   5.916  68.658  1.00  0.00    -0.323 A  
HETATM   42  C   UNL     1      -9.857   3.890  67.608  1.00  0.00    -0.069 A  
HETATM   43  C   UNL     1      -9.354   3.467  68.840  1.00  0.00    -0.237 A  
HETATM   44  C   UNL     1      -9.469   4.278  69.964  1.00  0.00    -0.254 A  
ENDBRANCH  37  39
ENDBRANCH   4  35
ENDBRANCH   2   3
TORSDOF 3
ENDMDL
MODEL       12
REMARK 921   NORMALIZED FREE ENERGY PREDICTED BY IDOCK:   -6.50 KCAL/MOL
REMARK 922        TOTAL FREE ENERGY PREDICTED BY IDOCK:   -8.17 KCAL/MOL
REMARK 923 INTER-LIGAND FREE ENERGY PREDICTED BY IDOCK:   -8.60 KCAL/MOL
REMARK 924 INTRA-LIGAND FREE ENERGY PREDICTED BY IDOCK:    0.43 KCAL/MOL
REMARK 927      BINDING AFFINITY PREDICTED BY RF-SCORE:    0.00 PKD
ROOT
HETATM    1  C   UNL     1      -8.657   7.387  65.756  1.00  0.00    -0.136 C  
HETATM    2  O   UNL     1      -8.436   8.567  66.531  1.00  0.00    -0.109 OA 
ENDROOT
BRANCH   2   3
HETATM    3  C   UNL     1      -9.554   9.488  66.847  1.00  0.00    -0.165 C  
HETATM    4  C   UNL     1      -9.192  10.838  66.177  1.00  0.00    -0.180 C  
HETATM    5  C   UNL     1      -8.275  11.639  67.102  1.00  0.00    -0.165 C  
HETATM    6  O   UNL     1     -12.270  16.177  70.726  1.00  0.00    -0.291 OA 
HETATM    7  C   UNL     1     -10.784  14.715  67.026  1.00  0.00    -0.290 A  
HETATM    8  C   UNL     1     -12.493  15.001  70.991  1.00  0.00    -0.338 C  
HETATM    9  C   UNL     1      -8.640  11.493  68.594  1.00  0.00    -0.109 C  
HETATM   10  H   UNL     1     -13.044  15.250  73.026  1.00  0.00     0.000 HD 
HETATM   11  O   UNL     1      -8.860  10.114  69.065  1.00  0.00    -0.145 OA 
HETATM   12  C   UNL     1      -9.598  15.370  66.696  1.00  0.00    -0.276 A  
HETATM   13  C   UNL     1      -8.638  15.565  67.685  1.00  0.00    -0.175 A  
HETATM   14  C   UNL     1      -9.950   9.419  68.419  1.00  0.00    -0.170 C  
HETATM   15  N   UNL     1     -12.881  14.586  72.269  1.00  0.00    -0.334 N  
HETATM   16  N   UNL     1     -11.151   9.847  69.201  1.00  0.00    -0.196 NA 
HETATM   17  C   UNL     1     -10.046   7.858  68.534  1.00  0.00    -0.216 C  
HETATM   18  C   UNL     1      -8.661  14.788  68.851  1.00  0.00    -0.160 A  
HETATM   19  C   UNL     1     -11.831   9.216  70.355  1.00  0.00    -0.020 A  
HETATM   20  C   UNL     1     -12.495  10.211  71.203  1.00  0.00    -0.490 A  
HETATM   21  N   UNL     1      -9.721  12.418  68.919  1.00  0.00     0.065 NA 
HETATM   22  C   UNL     1     -13.042  13.152  72.459  1.00  0.00    -0.215 C  
HETATM   23  C   UNL     1     -12.362  11.444  70.568  1.00  0.00    -0.439 A  
HETATM   24  C   UNL     1     -13.113   9.816  72.418  1.00  0.00    -0.344 A  
HETATM   25  C   UNL     1     -11.572  11.111  69.470  1.00  0.00    -0.321 A  
HETATM   26  C   UNL     1     -13.159   8.483  72.804  1.00  0.00    -0.082 A  
HETATM   27  C   UNL     1     -12.599   7.524  71.990  1.00  0.00    -0.268 A  
HETATM   28  C   UNL     1     -11.070  12.219  68.852  1.00  0.00    -0.242 A  
HETATM   29  C   UNL     1     -11.907  13.375  68.941  1.00  0.00    -0.373 C  
HETATM   30  C   UNL     1     -11.946   7.867  70.792  1.00  0.00    -0.146 A  
HETATM   31  C   UNL     1     -10.946  14.240  68.354  1.00  0.00    -0.267 A  
HETATM   32  C   UNL     1     -12.401  13.777  70.248  1.00  0.00    -0.407 C  
HETATM   33  C   UNL     1      -9.691  13.850  68.935  1.00  0.00    -0.006 A  
HETATM   34  C   UNL     1     -12.695  12.701  71.107  1.00  0.00    -0.347 A  
BRANCH   4  35
HETATM   35  N   UNL     1      -8.623  10.692  64.735  1.00  0.00    -0.163 N  
HETATM   36  C   UNL     1      -7.413   9.888  64.506  1.00  0.00    -0.140 C  
HETATM   37  C   UNL     1      -9.240  11.089  63.532  1.00  0.00    -0.221 C  
HETATM   38  O   UNL     1      -8.748  10.857  62.414  1.00  0.00    -0.260 OA 
BRANCH  37  39
HETATM   39  C   UNL     1     -10.487  11.879  63.497  1.00  0.00    -0.505 A  
HETATM   40  C   UNL     1     -12.877  11.944  63.087  1.00  0.00    -0.160 A  
HETATM   41  C   UNL     1     -11.669  11.239  63.106  1.00  0.00     0.409 A  
HETATM   42  C   UNL     1     -12.906  13.287  63.442  1.00  0.00     0.342 A  
HETATM   43  C   UNL     1     -11.733  13.905  63.882  1.00  0.00    -0.241 A  
HETATM   44  C   UNL     1     -10.546  13.185  63.965  1.00  0.00    -0.303 A  
ENDBRANCH  37  39
ENDBRANCH   4  35
ENDBRANCH   2   3
TORSDOF 3
ENDMDL
MODEL       13
REMARK 921   NORMALIZED FREE ENERGY PREDICTED BY IDOCK:   -6.48 KCAL/MOL
REMARK 922        TOTAL FREE ENERGY PREDICTED BY IDOCK:   -8.14 KCAL/MOL
REMARK 923 INTER-LIGAND FREE ENERGY PREDICTED BY IDOCK:   -8.59 KCAL/MOL
REMARK 924 INTRA-LIGAND FREE ENERGY PREDICTED BY IDOCK:    0.45 KCAL/MOL
REMARK 927      BINDING AFFINITY PREDICTED BY RF-SCORE:    0.00 PKD
ROOT
HETATM    1  C   UNL     1      -6.914  10.031  63.466  1.00  0.00    -0.131 C  
HETATM    2  O   UNL     1      -7.822   9.250  64.245  1.00  0.00    -0.113 OA 
ENDROOT
BRANCH   2   3
HETATM    3  C   UNL     1      -7.947   9.465  65.708  1.00  0.00    -0.110 C  
HETATM    4  C   UNL     1      -7.704   8.081  66.361  1.00  0.00    -0.092 C  
HETATM    5  C   UNL     1      -9.010   7.284  66.370  1.00  0.00    -0.184 C  
HETATM    6  O   UNL     1     -12.021   8.115  72.689  1.00  0.00    -0.381 OA 
HETATM    7  C   UNL     1      -8.761   6.806  70.304  1.00  0.00    -0.144 A  
HETATM    8  C   UNL     1     -11.966   9.146  72.028  1.00  0.00    -0.350 C  
HETATM    9  C   UNL     1     -10.252   8.156  66.645  1.00  0.00    -0.259 C  
HETATM   10  H   UNL     1     -13.733  10.067  72.759  1.00  0.00     0.000 HD 
HETATM   11  O   UNL     1     -10.349   9.396  65.854  1.00  0.00    -0.191 OA 
HETATM   12  C   UNL     1      -8.954   5.480  69.918  1.00  0.00    -0.144 A  
HETATM   13  C   UNL     1     -10.211   5.085  69.469  1.00  0.00    -0.286 A  
HETATM   14  C   UNL     1      -9.271  10.335  66.064  1.00  0.00    -0.164 C  
HETATM   15  N   UNL     1     -12.950  10.137  72.109  1.00  0.00    -0.396 N  
HETATM   16  N   UNL     1      -9.706  11.104  67.272  1.00  0.00    -0.165 NA 
HETATM   17  C   UNL     1      -9.039  11.489  65.029  1.00  0.00     0.049 C  
HETATM   18  C   UNL     1     -11.135   6.043  69.029  1.00  0.00    -0.377 A  
HETATM   19  C   UNL     1     -10.440  12.383  67.392  1.00  0.00    -0.215 A  
HETATM   20  C   UNL     1     -11.217  12.448  68.634  1.00  0.00    -0.314 A  
HETATM   21  N   UNL     1     -10.399   8.348  68.084  1.00  0.00    -0.211 NA 
HETATM   22  C   UNL     1     -12.793  11.274  71.216  1.00  0.00    -0.389 C  
HETATM   23  C   UNL     1     -10.911  11.303  69.367  1.00  0.00    -0.282 A  
HETATM   24  C   UNL     1     -12.074  13.551  68.884  1.00  0.00    -0.315 A  
HETATM   25  C   UNL     1     -10.074  10.622  68.487  1.00  0.00    -0.172 A  
HETATM   26  C   UNL     1     -12.155  14.617  67.998  1.00  0.00    -0.206 A  
HETATM   27  C   UNL     1     -11.386  14.608  66.857  1.00  0.00    -0.361 A  
HETATM   28  C   UNL     1      -9.875   9.328  68.876  1.00  0.00    -0.165 A  
HETATM   29  C   UNL     1      -9.923   9.123  70.291  1.00  0.00    -0.246 C  
HETATM   30  C   UNL     1     -10.545  13.524  66.546  1.00  0.00    -0.281 A  
HETATM   31  C   UNL     1      -9.849   7.709  70.189  1.00  0.00    -0.184 A  
HETATM   32  C   UNL     1     -11.063   9.642  71.030  1.00  0.00    -0.438 C  
HETATM   33  C   UNL     1     -10.705   7.370  69.085  1.00  0.00    -0.166 A  
HETATM   34  C   UNL     1     -11.557  10.867  70.540  1.00  0.00    -0.397 A  
BRANCH   4  35
HETATM   35  N   UNL     1      -6.514   7.293  65.741  1.00  0.00    -0.044 N  
HETATM   36  C   UNL     1      -5.161   7.867  65.778  1.00  0.00    -0.025 C  
HETATM   37  C   UNL     1      -6.520   5.957  65.293  1.00  0.00    -0.042 C  
HETATM   38  O   UNL     1      -5.497   5.379  64.887  1.00  0.00    -0.012 OA 
BRANCH  37  39
HETATM   39  C   UNL     1      -7.753   5.152  65.197  1.00  0.00    -0.084 A  
HETATM   40  C   UNL     1      -9.582   4.332  63.829  1.00  0.00    -0.097 A  
HETATM   41  C   UNL     1      -8.425   5.107  63.970  1.00  0.00    -0.123 A  
HETATM   42  C   UNL     1     -10.076   3.615  64.912  1.00  0.00    -0.100 A  
HETATM   43  C   UNL     1      -9.372   3.622  66.118  1.00  0.00    -0.181 A  
HETATM   44  C   UNL     1      -8.185   4.338  66.237  1.00  0.00    -0.102 A  
ENDBRANCH  37  39
ENDBRANCH   4  35
ENDBRANCH   2   3
TORSDOF 3
ENDMDL
MODEL       14
REMARK 921   NORMALIZED FREE ENERGY PREDICTED BY IDOCK:   -6.43 KCAL/MOL
REMARK 922        TOTAL FREE ENERGY PREDICTED BY IDOCK:   -8.08 KCAL/MOL
REMARK 923 INTER-LIGAND FREE ENERGY PREDICTED BY IDOCK:   -9.03 KCAL/MOL
REMARK 924 INTRA-LIGAND FREE ENERGY PREDICTED BY IDOCK:    0.95 KCAL/MOL
REMARK 927      BINDING AFFINITY PREDICTED BY RF-SCORE:    0.00 PKD
ROOT
HETATM    1  C   UNL     1     -11.400  14.681  69.057  1.00  0.00    -0.277 C  
HETATM    2  O   UNL     1     -11.396  13.433  68.361  1.00  0.00    -0.257 OA 
ENDROOT
BRANCH   2   3
HETATM    3  C   UNL     1     -10.393  12.388  68.682  1.00  0.00    -0.182 C  
HETATM    4  C   UNL     1      -9.315  12.481  67.572  1.00  0.00    -0.187 C  
HETATM    5  C   UNL     1      -9.763  11.672  66.355  1.00  0.00    -0.236 C  
HETATM    6  O   UNL     1      -6.736   5.317  66.734  1.00  0.00    -0.057 OA 
HETATM    7  C   UNL     1      -6.413   9.542  66.462  1.00  0.00    -0.067 A  
HETATM    8  C   UNL     1      -7.547   5.533  67.628  1.00  0.00    -0.088 C  
HETATM    9  C   UNL     1     -10.498  10.368  66.728  1.00  0.00    -0.225 C  
HETATM   10  H   UNL     1      -8.227   3.541  67.906  1.00  0.00     0.000 HD 
HETATM   11  O   UNL     1     -11.558  10.502  67.744  1.00  0.00    -0.462 OA 
HETATM   12  C   UNL     1      -6.401   9.935  65.124  1.00  0.00    -0.102 A  
HETATM   13  C   UNL     1      -7.306   9.352  64.241  1.00  0.00    -0.109 A  
HETATM   14  C   UNL     1     -11.107  10.973  69.033  1.00  0.00    -0.244 C  
HETATM   15  N   UNL     1      -8.330   4.517  68.186  1.00  0.00    -0.094 N  
HETATM   16  N   UNL     1     -10.645   9.727  69.720  1.00  0.00    -0.239 NA 
HETATM   17  C   UNL     1     -12.152  11.525  70.063  1.00  0.00    -0.408 C  
HETATM   18  C   UNL     1      -8.452   8.711  64.731  1.00  0.00    -0.168 A  
HETATM   19  C   UNL     1     -11.354   8.809  70.641  1.00  0.00    -0.254 A  
HETATM   20  C   UNL     1     -10.828   7.443  70.556  1.00  0.00    -0.259 A  
HETATM   21  N   UNL     1      -9.518   9.327  67.018  1.00  0.00    -0.153 NA 
HETATM   22  C   UNL     1      -9.300   4.929  69.188  1.00  0.00    -0.128 C  
HETATM   23  C   UNL     1      -9.730   7.481  69.699  1.00  0.00    -0.167 A  
HETATM   24  C   UNL     1     -11.446   6.393  71.283  1.00  0.00    -0.371 A  
HETATM   25  C   UNL     1      -9.746   8.809  69.280  1.00  0.00    -0.172 A  
HETATM   26  C   UNL     1     -12.517   6.637  72.132  1.00  0.00    -0.207 A  
HETATM   27  C   UNL     1     -12.986   7.923  72.277  1.00  0.00    -0.126 A  
HETATM   28  C   UNL     1      -8.926   9.012  68.207  1.00  0.00    -0.133 A  
HETATM   29  C   UNL     1      -7.786   8.150  68.164  1.00  0.00    -0.110 C  
HETATM   30  C   UNL     1     -12.429   8.994  71.555  1.00  0.00    -0.395 A  
HETATM   31  C   UNL     1      -7.378   8.588  66.876  1.00  0.00    -0.083 A  
HETATM   32  C   UNL     1      -7.992   6.717  68.305  1.00  0.00    -0.111 C  
HETATM   33  C   UNL     1      -8.595   8.700  66.119  1.00  0.00    -0.142 A  
HETATM   34  C   UNL     1      -9.028   6.370  69.193  1.00  0.00    -0.129 A  
BRANCH   4  35
HETATM   35  N   UNL     1      -8.904  13.939  67.215  1.00  0.00    -0.211 N  
HETATM   36  C   UNL     1      -7.800  14.585  67.942  1.00  0.00    -0.147 C  
HETATM   37  C   UNL     1      -9.339  14.701  66.112  1.00  0.00    -0.230 C  
HETATM   38  O   UNL     1      -8.892  15.833  65.857  1.00  0.00    -0.302 OA 
BRANCH  37  39
HETATM   39  C   UNL     1     -10.414  14.252  65.206  1.00  0.00    -0.408 A  
HETATM   40  C   UNL     1     -12.652  14.591  64.333  1.00  0.00    -0.180 A  
HETATM   41  C   UNL     1     -11.618  14.966  65.197  1.00  0.00    -0.330 A  
HETATM   42  C   UNL     1     -12.493  13.498  63.489  1.00  0.00    -0.234 A  
HETATM   43  C   UNL     1     -11.271  12.823  63.465  1.00  0.00    -0.429 A  
HETATM   44  C   UNL     1     -10.220  13.239  64.276  1.00  0.00    -0.221 A  
ENDBRANCH  37  39
ENDBRANCH   4  35
ENDBRANCH   2   3
TORSDOF 3
ENDMDL
MODEL       15
REMARK 921   NORMALIZED FREE ENERGY PREDICTED BY IDOCK:   -6.28 KCAL/MOL
REMARK 922        TOTAL FREE ENERGY PREDICTED BY IDOCK:   -7.90 KCAL/MOL
REMARK 923 INTER-LIGAND FREE ENERGY PREDICTED BY IDOCK:   -7.79 KCAL/MOL
REMARK 924 INTRA-LIGAND FREE ENERGY PREDICTED BY IDOCK:   -0.12 KCAL/MOL
REMARK 927      BINDING AFFINITY PREDICTED BY RF-SCORE:    0.00 PKD
ROOT
HETATM    1  C   UNL     1      -7.446   4.520  70.340  1.00  0.00    -0.050 C  
HETATM    2  O   UNL     1      -7.056   5.635  69.537  1.00  0.00    -0.061 OA 
ENDROOT
BRANCH   2   3
HETATM    3  C   UNL     1      -7.994   6.225  68.551  1.00  0.00    -0.105 C  
HETATM    4  C   UNL     1      -7.272   6.148  67.182  1.00  0.00    -0.075 C  
HETATM    5  C   UNL     1      -6.349   7.356  67.021  1.00  0.00    -0.052 C  
HETATM    6  O   UNL     1      -9.793  12.243  63.286  1.00  0.00    -0.390 OA 
HETATM    7  C   UNL     1      -8.137   8.347  63.617  1.00  0.00    -0.142 A  
HETATM    8  C   UNL     1     -10.287  12.022  64.387  1.00  0.00    -0.305 C  
HETATM    9  C   UNL     1      -6.940   8.655  67.606  1.00  0.00    -0.075 C  
HETATM   10  H   UNL     1     -11.054  13.964  64.768  1.00  0.00     0.000 HD 
HETATM   11  O   UNL     1      -7.502   8.545  68.964  1.00  0.00    -0.085 OA 
HETATM   12  C   UNL     1      -6.808   8.356  63.196  1.00  0.00    -0.089 A  
HETATM   13  C   UNL     1      -5.975   9.390  63.614  1.00  0.00    -0.090 A  
HETATM   14  C   UNL     1      -8.611   7.627  69.089  1.00  0.00    -0.139 C  
HETATM   15  N   UNL     1     -10.927  13.019  65.130  1.00  0.00    -0.288 N  
HETATM   16  N   UNL     1      -9.796   8.451  68.696  1.00  0.00    -0.165 NA 
HETATM   17  C   UNL     1      -9.041   7.125  70.511  1.00  0.00    -0.155 C  
HETATM   18  C   UNL     1      -6.320  10.163  64.731  1.00  0.00    -0.131 A  
HETATM   19  C   UNL     1     -10.746   9.236  69.518  1.00  0.00    -0.222 A  
HETATM   20  C   UNL     1     -11.303  10.367  68.770  1.00  0.00    -0.275 A  
HETATM   21  N   UNL     1      -7.843   9.257  66.630  1.00  0.00    -0.103 NA 
HETATM   22  C   UNL     1     -11.404  12.632  66.449  1.00  0.00    -0.331 C  
HETATM   23  C   UNL     1     -10.832  10.265  67.463  1.00  0.00    -0.355 A  
HETATM   24  C   UNL     1     -12.152  11.302  69.417  1.00  0.00    -0.384 A  
HETATM   25  C   UNL     1      -9.981   9.166  67.556  1.00  0.00    -0.205 A  
HETATM   26  C   UNL     1     -12.524  11.140  70.745  1.00  0.00    -0.479 A  
HETATM   27  C   UNL     1     -12.065  10.049  71.448  1.00  0.00    -0.498 A  
HETATM   28  C   UNL     1      -9.181   9.049  66.456  1.00  0.00    -0.179 A  
HETATM   29  C   UNL     1      -9.767   9.535  65.245  1.00  0.00    -0.268 C  
HETATM   30  C   UNL     1     -11.195   9.111  70.863  1.00  0.00    -0.359 A  
HETATM   31  C   UNL     1      -8.577   9.377  64.487  1.00  0.00    -0.219 A  
HETATM   32  C   UNL     1     -10.345  10.869  65.239  1.00  0.00    -0.334 C  
HETATM   33  C   UNL     1      -7.522   9.826  65.355  1.00  0.00    -0.121 A  
HETATM   34  C   UNL     1     -10.972  11.230  66.448  1.00  0.00    -0.285 A  
BRANCH   4  35
HETATM   35  N   UNL     1      -6.550   4.793  66.927  1.00  0.00    -0.049 N  
HETATM   36  C   UNL     1      -5.429   4.390  67.790  1.00  0.00    -0.016 C  
HETATM   37  C   UNL     1      -6.958   3.760  66.059  1.00  0.00    -0.062 C  
HETATM   38  O   UNL     1      -6.362   2.672  65.980  1.00  0.00    -0.024 OA 
BRANCH  37  39
HETATM   39  C   UNL     1      -8.084   3.908  65.116  1.00  0.00    -0.097 A  
HETATM   40  C   UNL     1     -10.457   3.652  64.679  1.00  0.00    -0.083 A  
HETATM   41  C   UNL     1      -9.358   3.502  65.531  1.00  0.00    -0.158 A  
HETATM   42  C   UNL     1     -10.285   4.192  63.410  1.00  0.00    -0.067 A  
HETATM   43  C   UNL     1      -9.022   4.643  63.022  1.00  0.00    -0.123 A  
HETATM   44  C   UNL     1      -7.944   4.556  63.896  1.00  0.00    -0.093 A  
ENDBRANCH  37  39
ENDBRANCH   4  35
ENDBRANCH   2   3
TORSDOF 3
ENDMDL
MODEL       16
REMARK 921   NORMALIZED FREE ENERGY PREDICTED BY IDOCK:   -6.26 KCAL/MOL
REMARK 922        TOTAL FREE ENERGY PREDICTED BY IDOCK:   -7.88 KCAL/MOL
REMARK 923 INTER-LIGAND FREE ENERGY PREDICTED BY IDOCK:   -7.40 KCAL/MOL
REMARK 924 INTRA-LIGAND FREE ENERGY PREDICTED BY IDOCK:   -0.48 KCAL/MOL
REMARK 927      BINDING AFFINITY PREDICTED BY RF-SCORE:    0.00 PKD
ROOT
HETATM    1  C   UNL     1      -9.420  11.357  65.294  1.00  0.00    -0.209 C  
HETATM    2  O   UNL     1      -9.766  10.011  65.628  1.00  0.00    -0.230 OA 
ENDROOT
BRANCH   2   3
HETATM    3  C   UNL     1      -9.272   9.389  66.881  1.00  0.00    -0.140 C  
HETATM    4  C   UNL     1      -8.307   8.258  66.440  1.00  0.00    -0.117 C  
HETATM    5  C   UNL     1      -9.110   6.993  66.133  1.00  0.00    -0.149 C  
HETATM    6  O   UNL     1      -8.974   2.887  71.860  1.00  0.00    -0.080 OA 
HETATM    7  C   UNL     1      -6.943   4.915  68.731  1.00  0.00    -0.052 A  
HETATM    8  C   UNL     1      -9.577   3.941  72.022  1.00  0.00    -0.145 C  
HETATM    9  C   UNL     1     -10.300   6.780  67.091  1.00  0.00    -0.258 C  
HETATM   10  H   UNL     1     -11.007   3.257  73.434  1.00  0.00     0.000 HD 
HETATM   11  O   UNL     1     -11.158   7.957  67.314  1.00  0.00    -0.079 OA 
HETATM   12  C   UNL     1      -6.834   4.085  67.616  1.00  0.00    -0.051 A  
HETATM   13  C   UNL     1      -7.941   3.341  67.218  1.00  0.00    -0.078 A  
HETATM   14  C   UNL     1     -10.490   9.091  67.912  1.00  0.00    -0.234 C  
HETATM   15  N   UNL     1     -10.683   4.045  72.873  1.00  0.00    -0.160 N  
HETATM   16  N   UNL     1     -10.553   8.801  69.378  1.00  0.00    -0.225 NA 
HETATM   17  C   UNL     1     -11.161  10.506  67.846  1.00  0.00    -0.367 C  
HETATM   18  C   UNL     1      -9.224   3.705  67.648  1.00  0.00    -0.225 A  
HETATM   19  C   UNL     1     -11.533   9.221  70.406  1.00  0.00    -0.213 A  
HETATM   20  C   UNL     1     -11.625   8.245  71.497  1.00  0.00    -0.326 A  
HETATM   21  N   UNL     1      -9.826   6.142  68.315  1.00  0.00    -0.121 NA 
HETATM   22  C   UNL     1     -11.345   5.339  72.913  1.00  0.00    -0.301 C  
HETATM   23  C   UNL     1     -10.653   7.275  71.260  1.00  0.00    -0.236 A  
HETATM   24  C   UNL     1     -12.586   8.413  72.526  1.00  0.00    -0.311 A  
HETATM   25  C   UNL     1     -10.137   7.687  70.034  1.00  0.00    -0.204 A  
HETATM   26  C   UNL     1     -13.417   9.525  72.563  1.00  0.00    -0.381 A  
HETATM   27  C   UNL     1     -13.303  10.487  71.585  1.00  0.00    -0.423 A  
HETATM   28  C   UNL     1      -9.361   6.721  69.460  1.00  0.00    -0.146 A  
HETATM   29  C   UNL     1      -8.684   5.876  70.394  1.00  0.00    -0.139 C  
HETATM   30  C   UNL     1     -12.389  10.352  70.525  1.00  0.00    -0.410 A  
HETATM   31  C   UNL     1      -8.195   4.995  69.394  1.00  0.00    -0.082 A  
HETATM   32  C   UNL     1      -9.458   5.255  71.457  1.00  0.00    -0.191 C  
HETATM   33  C   UNL     1      -9.291   4.824  68.481  1.00  0.00    -0.133 A  
HETATM   34  C   UNL     1     -10.500   6.060  71.955  1.00  0.00    -0.251 A  
BRANCH   4  35
HETATM   35  N   UNL     1      -7.347   8.665  65.285  1.00  0.00    -0.083 N  
HETATM   36  C   UNL     1      -7.552   8.113  63.937  1.00  0.00    -0.127 C  
HETATM   37  C   UNL     1      -6.373   9.683  65.306  1.00  0.00    -0.081 C  
HETATM   38  O   UNL     1      -5.704   9.996  64.306  1.00  0.00    -0.097 OA 
BRANCH  37  39
HETATM   39  C   UNL     1      -6.009  10.415  66.535  1.00  0.00    -0.070 A  
HETATM   40  C   UNL     1      -5.165  10.340  68.808  1.00  0.00    -0.038 A  
HETATM   41  C   UNL     1      -5.547   9.682  67.635  1.00  0.00    -0.036 A  
HETATM   42  C   UNL     1      -5.257  11.725  68.893  1.00  0.00    -0.050 A  
HETATM   43  C   UNL     1      -5.668  12.454  67.775  1.00  0.00    -0.105 A  
HETATM   44  C   UNL     1      -5.983  11.803  66.586  1.00  0.00    -0.040 A  
ENDBRANCH  37  39
ENDBRANCH   4  35
ENDBRANCH   2   3
TORSDOF 3
ENDMDL
MODEL       17
REMARK 921   NORMALIZED FREE ENERGY PREDICTED BY IDOCK:   -6.20 KCAL/MOL
REMARK 922        TOTAL FREE ENERGY PREDICTED BY IDOCK:   -7.81 KCAL/MOL
REMARK 923 INTER-LIGAND FREE ENERGY PREDICTED BY IDOCK:   -7.36 KCAL/MOL
REMARK 924 INTRA-LIGAND FREE ENERGY PREDICTED BY IDOCK:   -0.46 KCAL/MOL
REMARK 927      BINDING AFFINITY PREDICTED BY RF-SCORE:    0.00 PKD
ROOT
HETATM    1  C   UNL     1      -9.519  12.084  65.809  1.00  0.00    -0.175 C  
HETATM    2  O   UNL     1      -9.578  10.660  65.916  1.00  0.00    -0.187 OA 
ENDROOT
BRANCH   2   3
HETATM    3  C   UNL     1      -9.103   9.970  67.140  1.00  0.00    -0.138 C  
HETATM    4  C   UNL     1      -8.022   8.966  66.666  1.00  0.00    -0.103 C  
HETATM    5  C   UNL     1      -8.694   7.672  66.203  1.00  0.00    -0.176 C  
HETATM    6  O   UNL     1      -8.525   3.092  71.558  1.00  0.00    -0.063 OA 
HETATM    7  C   UNL     1      -6.504   5.551  68.747  1.00  0.00    -0.043 A  
HETATM    8  C   UNL     1      -9.225   4.076  71.770  1.00  0.00    -0.128 C  
HETATM    9  C   UNL     1      -9.913   7.279  67.062  1.00  0.00    -0.224 C  
HETATM   10  H   UNL     1     -10.667   3.154  73.027  1.00  0.00     0.000 HD 
HETATM   11  O   UNL     1     -10.880   8.358  67.330  1.00  0.00    -0.225 OA 
HETATM   12  C   UNL     1      -6.263   4.836  67.574  1.00  0.00    -0.039 A  
HETATM   13  C   UNL     1      -7.278   4.044  67.046  1.00  0.00    -0.068 A  
HETATM   14  C   UNL     1     -10.346   9.483  68.063  1.00  0.00    -0.214 C  
HETATM   15  N   UNL     1     -10.381   4.013  72.556  1.00  0.00    -0.171 N  
HETATM   16  N   UNL     1     -10.466   9.059  69.493  1.00  0.00    -0.216 NA 
HETATM   17  C   UNL     1     -11.132  10.840  68.075  1.00  0.00    -0.359 C  
HETATM   18  C   UNL     1      -8.610   4.263  67.423  1.00  0.00    -0.107 A  
HETATM   19  C   UNL     1     -11.534   9.304  70.489  1.00  0.00    -0.248 A  
HETATM   20  C   UNL     1     -11.602   8.230  71.484  1.00  0.00    -0.326 A  
HETATM   21  N   UNL     1      -9.455   6.574  68.255  1.00  0.00    -0.120 NA 
HETATM   22  C   UNL     1     -11.153   5.241  72.664  1.00  0.00    -0.260 C  
HETATM   23  C   UNL     1     -10.539   7.367  71.228  1.00  0.00    -0.231 A  
HETATM   24  C   UNL     1     -12.631   8.226  72.462  1.00  0.00    -0.265 A  
HETATM   25  C   UNL     1      -9.993   7.927  70.076  1.00  0.00    -0.191 A  
HETATM   26  C   UNL     1     -13.554   9.260  72.541  1.00  0.00    -0.478 A  
HETATM   27  C   UNL     1     -13.470  10.312  71.657  1.00  0.00    -0.360 A  
HETATM   28  C   UNL     1      -9.106   7.083  69.472  1.00  0.00    -0.146 A  
HETATM   29  C   UNL     1      -8.412   6.215  70.372  1.00  0.00    -0.133 C  
HETATM   30  C   UNL     1     -12.489  10.347  70.649  1.00  0.00    -0.437 A  
HETATM   31  C   UNL     1      -7.794   5.469  69.334  1.00  0.00    -0.087 A  
HETATM   32  C   UNL     1      -9.188   5.440  71.327  1.00  0.00    -0.173 C  
HETATM   33  C   UNL     1      -8.818   5.293  68.342  1.00  0.00    -0.101 A  
HETATM   34  C   UNL     1     -10.321   6.110  71.826  1.00  0.00    -0.250 A  
BRANCH   4  35
HETATM   35  N   UNL     1      -7.037   9.551  65.613  1.00  0.00    -0.090 N  
HETATM   36  C   UNL     1      -7.181   9.182  64.196  1.00  0.00    -0.096 C  
HETATM   37  C   UNL     1      -6.097  10.581  65.807  1.00  0.00    -0.133 C  
HETATM   38  O   UNL     1      -5.406  11.045  64.883  1.00  0.00    -0.188 OA 
BRANCH  37  39
HETATM   39  C   UNL     1      -5.796  11.149  67.136  1.00  0.00    -0.072 A  
HETATM   40  C   UNL     1      -5.728  13.096  68.581  1.00  0.00    -0.074 A  
HETATM   41  C   UNL     1      -5.973  12.524  67.328  1.00  0.00    -0.111 A  
HETATM   42  C   UNL     1      -5.293  12.303  69.636  1.00  0.00    -0.078 A  
HETATM   43  C   UNL     1      -5.170  10.925  69.452  1.00  0.00    -0.037 A  
HETATM   44  C   UNL     1      -5.480  10.347  68.225  1.00  0.00    -0.033 A  
ENDBRANCH  37  39
ENDBRANCH   4  35
ENDBRANCH   2   3
TORSDOF 3
ENDMDL
MODEL       18
REMARK 921   NORMALIZED FREE ENERGY PREDICTED BY IDOCK:   -6.16 KCAL/MOL
REMARK 922        TOTAL FREE ENERGY PREDICTED BY IDOCK:   -7.77 KCAL/MOL
REMARK 923 INTER-LIGAND FREE ENERGY PREDICTED BY IDOCK:   -7.76 KCAL/MOL
REMARK 924 INTRA-LIGAND FREE ENERGY PREDICTED BY IDOCK:   -0.01 KCAL/MOL
REMARK 927      BINDING AFFINITY PREDICTED BY RF-SCORE:    0.00 PKD
ROOT
HETATM    1  C   UNL     1      -7.676   4.629  70.722  1.00  0.00    -0.061 C  
HETATM    2  O   UNL     1      -7.283   5.790  69.987  1.00  0.00    -0.065 OA 
ENDROOT
BRANCH   2   3
HETATM    3  C   UNL     1      -8.204   6.415  69.007  1.00  0.00    -0.115 C  
HETATM    4  C   UNL     1      -7.436   6.441  67.662  1.00  0.00    -0.093 C  
HETATM    5  C   UNL     1      -6.542   7.681  67.607  1.00  0.00    -0.062 C  
HETATM    6  O   UNL     1      -9.994  12.699  64.060  1.00  0.00    -0.312 OA 
HETATM    7  C   UNL     1      -8.244   8.834  64.210  1.00  0.00    -0.164 A  
HETATM    8  C   UNL     1     -10.518  12.398  65.127  1.00  0.00    -0.292 C  
HETATM    9  C   UNL     1      -7.188   8.925  68.249  1.00  0.00    -0.079 C  
HETATM   10  H   UNL     1     -11.350  14.293  65.600  1.00  0.00     0.000 HD 
HETATM   11  O   UNL     1      -7.791   8.717  69.578  1.00  0.00    -0.087 OA 
HETATM   12  C   UNL     1      -6.902   8.903  63.837  1.00  0.00    -0.087 A  
HETATM   13  C   UNL     1      -6.112   9.930  64.345  1.00  0.00    -0.117 A  
HETATM   14  C   UNL     1      -8.877   7.765  69.609  1.00  0.00    -0.139 C  
HETATM   15  N   UNL     1     -11.210  13.330  65.908  1.00  0.00    -0.288 N  
HETATM   16  N   UNL     1     -10.071   8.582  69.226  1.00  0.00    -0.197 NA 
HETATM   17  C   UNL     1      -9.340   7.165  70.981  1.00  0.00    -0.158 C  
HETATM   18  C   UNL     1      -6.515  10.624  65.495  1.00  0.00    -0.066 A  
HETATM   19  C   UNL     1     -11.068   9.289  70.060  1.00  0.00    -0.205 A  
HETATM   20  C   UNL     1     -11.631  10.450  69.364  1.00  0.00    -0.272 A  
HETATM   21  N   UNL     1      -8.074   9.563  67.281  1.00  0.00    -0.109 NA 
HETATM   22  C   UNL     1     -11.719  12.850  67.183  1.00  0.00    -0.377 C  
HETATM   23  C   UNL     1     -11.115  10.441  68.070  1.00  0.00    -0.359 A  
HETATM   24  C   UNL     1     -12.527  11.321  70.037  1.00  0.00    -0.251 A  
HETATM   25  C   UNL     1     -10.238   9.360  68.125  1.00  0.00    -0.200 A  
HETATM   26  C   UNL     1     -12.938  11.068  71.339  1.00  0.00    -0.517 A  
HETATM   27  C   UNL     1     -12.472   9.948  71.990  1.00  0.00    -0.353 A  
HETATM   28  C   UNL     1      -9.399   9.333  67.049  1.00  0.00    -0.144 A  
HETATM   29  C   UNL     1      -9.959   9.877  65.850  1.00  0.00    -0.347 C  
HETATM   30  C   UNL     1     -11.558   9.071  71.379  1.00  0.00    -0.396 A  
HETATM   31  C   UNL     1      -8.740   9.797  65.126  1.00  0.00    -0.192 A  
HETATM   32  C   UNL     1     -10.573  11.194  65.906  1.00  0.00    -0.294 C  
HETATM   33  C   UNL     1      -7.727  10.218  66.055  1.00  0.00    -0.130 A  
HETATM   34  C   UNL     1     -11.248  11.464  67.112  1.00  0.00    -0.363 A  
BRANCH   4  35
HETATM   35  N   UNL     1      -6.669   5.123  67.350  1.00  0.00    -0.054 N  
HETATM   36  C   UNL     1      -5.427   4.814  68.075  1.00  0.00    -0.016 C  
HETATM   37  C   UNL     1      -7.117   4.043  66.565  1.00  0.00    -0.064 C  
HETATM   38  O   UNL     1      -6.469   2.989  66.437  1.00  0.00    -0.031 OA 
BRANCH  37  39
HETATM   39  C   UNL     1      -8.358   4.095  65.767  1.00  0.00    -0.109 A  
HETATM   40  C   UNL     1      -9.425   3.916  63.596  1.00  0.00    -0.145 A  
HETATM   41  C   UNL     1      -8.269   3.903  64.384  1.00  0.00    -0.090 A  
HETATM   42  C   UNL     1     -10.666   4.136  64.183  1.00  0.00    -0.108 A  
HETATM   43  C   UNL     1     -10.753   4.275  65.570  1.00  0.00    -0.038 A  
HETATM   44  C   UNL     1      -9.611   4.193  66.359  1.00  0.00    -0.215 A  
ENDBRANCH  37  39
ENDBRANCH   4  35
ENDBRANCH   2   3
TORSDOF 3
ENDMDL
MODEL       19
REMARK 921   NORMALIZED FREE ENERGY PREDICTED BY IDOCK:   -6.12 KCAL/MOL
REMARK 922        TOTAL FREE ENERGY PREDICTED BY IDOCK:   -7.72 KCAL/MOL
REMARK 923 INTER-LIGAND FREE ENERGY PREDICTED BY IDOCK:   -8.08 KCAL/MOL
REMARK 924 INTRA-LIGAND FREE ENERGY PREDICTED BY IDOCK:    0.36 KCAL/MOL
REMARK 927      BINDING AFFINITY PREDICTED BY RF-SCORE:    0.00 PKD
ROOT
HETATM    1  C   UNL     1      -7.483   4.039  66.327  1.00  0.00    -0.088 C  
HETATM    2  O   UNL     1      -8.472   4.482  67.257  1.00  0.00    -0.104 OA 
ENDROOT
BRANCH   2   3
HETATM    3  C   UNL     1      -8.418   5.850  67.830  1.00  0.00    -0.107 C  
HETATM    4  C   UNL     1      -8.788   5.696  69.327  1.00  0.00    -0.111 C  
HETATM    5  C   UNL     1     -10.309   5.696  69.480  1.00  0.00    -0.345 C  
HETATM    6  O   UNL     1     -12.325  12.240  71.156  1.00  0.00    -0.305 OA 
HETATM    7  C   UNL     1     -10.111   8.726  72.040  1.00  0.00    -0.397 A  
HETATM    8  C   UNL     1     -11.847  12.142  70.031  1.00  0.00    -0.306 C  
HETATM    9  C   UNL     1     -11.017   6.672  68.518  1.00  0.00    -0.244 C  
HETATM   10  H   UNL     1     -12.979  13.671  69.089  1.00  0.00     0.000 HD 
HETATM   11  O   UNL     1     -10.588   6.604  67.110  1.00  0.00    -0.247 OA 
HETATM   12  C   UNL     1     -10.895   7.842  72.781  1.00  0.00    -0.451 A  
HETATM   13  C   UNL     1     -12.216   7.629  72.398  1.00  0.00    -0.208 A  
HETATM   14  C   UNL     1      -9.195   6.916  66.885  1.00  0.00    -0.145 C  
HETATM   15  N   UNL     1     -12.279  12.939  68.966  1.00  0.00    -0.124 N  
HETATM   16  N   UNL     1      -9.182   8.409  66.787  1.00  0.00    -0.160 NA 
HETATM   17  C   UNL     1      -8.523   6.511  65.528  1.00  0.00    -0.139 C  
HETATM   18  C   UNL     1     -12.634   7.953  71.101  1.00  0.00    -0.194 A  
HETATM   19  C   UNL     1      -9.261   9.303  65.609  1.00  0.00    -0.231 A  
HETATM   20  C   UNL     1      -9.866  10.595  65.949  1.00  0.00    -0.296 A  
HETATM   21  N   UNL     1     -10.993   8.015  69.089  1.00  0.00    -0.013 NA 
HETATM   22  C   UNL     1     -11.674  12.666  67.671  1.00  0.00    -0.361 C  
HETATM   23  C   UNL     1     -10.069  10.601  67.327  1.00  0.00    -0.238 A  
HETATM   24  C   UNL     1     -10.128  11.550  64.933  1.00  0.00    -0.314 A  
HETATM   25  C   UNL     1      -9.667   9.314  67.676  1.00  0.00    -0.157 A  
HETATM   26  C   UNL     1      -9.767  11.316  63.612  1.00  0.00    -0.351 A  
HETATM   27  C   UNL     1      -9.138  10.137  63.282  1.00  0.00    -0.293 A  
HETATM   28  C   UNL     1     -10.049   8.991  68.947  1.00  0.00    -0.196 A  
HETATM   29  C   UNL     1     -10.116  10.103  69.844  1.00  0.00    -0.268 C  
HETATM   30  C   UNL     1      -8.886   9.144  64.245  1.00  0.00    -0.139 A  
HETATM   31  C   UNL     1     -10.686   9.345  70.900  1.00  0.00    -0.393 A  
HETATM   32  C   UNL     1     -10.866  11.280  69.436  1.00  0.00    -0.239 C  
HETATM   33  C   UNL     1     -11.655   8.494  70.266  1.00  0.00     0.007 A  
HETATM   34  C   UNL     1     -10.784  11.567  68.060  1.00  0.00    -0.241 A  
BRANCH   4  35
HETATM   35  N   UNL     1      -8.107   4.481  70.022  1.00  0.00    -0.066 N  
HETATM   36  C   UNL     1      -8.117   3.165  69.365  1.00  0.00    -0.048 C  
HETATM   37  C   UNL     1      -7.278   4.507  71.161  1.00  0.00    -0.044 C  
HETATM   38  O   UNL     1      -6.706   3.494  71.601  1.00  0.00    -0.025 OA 
BRANCH  37  39
HETATM   39  C   UNL     1      -7.076   5.722  71.975  1.00  0.00    -0.087 A  
HETATM   40  C   UNL     1      -7.507   6.917  74.042  1.00  0.00    -0.102 A  
HETATM   41  C   UNL     1      -7.696   5.796  73.227  1.00  0.00    -0.099 A  
HETATM   42  C   UNL     1      -6.713   7.971  73.603  1.00  0.00    -0.132 A  
HETATM   43  C   UNL     1      -6.055   7.868  72.376  1.00  0.00    -0.043 A  
HETATM   44  C   UNL     1      -6.190   6.723  71.598  1.00  0.00    -0.038 A  
ENDBRANCH  37  39
ENDBRANCH   4  35
ENDBRANCH   2   3
TORSDOF 3
ENDMDL
MODEL       20
REMARK 921   NORMALIZED FREE ENERGY PREDICTED BY IDOCK:   -5.96 KCAL/MOL
REMARK 922        TOTAL FREE ENERGY PREDICTED BY IDOCK:   -7.53 KCAL/MOL
REMARK 923 INTER-LIGAND FREE ENERGY PREDICTED BY IDOCK:   -8.33 KCAL/MOL
REMARK 924 INTRA-LIGAND FREE ENERGY PREDICTED BY IDOCK:    0.80 KCAL/MOL
REMARK 927      BINDING AFFINITY PREDICTED BY RF-SCORE:    0.00 PKD
ROOT
HETATM    1  C   UNL     1     -10.354   6.894  73.980  1.00  0.00    -0.320 C  
HETATM    2  O   UNL     1     -10.982   6.326  72.828  1.00  0.00    -0.239 OA 
ENDROOT
BRANCH   2   3
HETATM    3  C   UNL     1     -10.949   7.029  71.522  1.00  0.00    -0.234 C  
HETATM    4  C   UNL     1      -9.772   6.401  70.733  1.00  0.00    -0.180 C  
HETATM    5  C   UNL     1      -8.465   7.088  71.132  1.00  0.00    -0.119 C  
HETATM    6  O   UNL     1      -7.091  12.083  66.352  1.00  0.00     0.166 OA 
HETATM    7  C   UNL     1      -7.720   8.002  67.340  1.00  0.00    -0.102 A  
HETATM    8  C   UNL     1      -8.096  12.300  67.019  1.00  0.00    -0.141 C  
HETATM    9  C   UNL     1      -8.624   8.603  71.372  1.00  0.00    -0.192 C  
HETATM   10  H   UNL     1      -8.004  14.421  67.022  1.00  0.00     0.000 HD 
HETATM   11  O   UNL     1      -9.757   8.998  72.228  1.00  0.00    -0.260 OA 
HETATM   12  C   UNL     1      -6.508   7.401  67.680  1.00  0.00    -0.056 A  
HETATM   13  C   UNL     1      -5.628   8.083  68.515  1.00  0.00    -0.032 A  
HETATM   14  C   UNL     1     -11.059   8.637  71.714  1.00  0.00    -0.326 C  
HETATM   15  N   UNL     1      -8.502  13.596  67.357  1.00  0.00    -0.191 N  
HETATM   16  N   UNL     1     -11.398   9.766  70.792  1.00  0.00    -0.314 NA 
HETATM   17  C   UNL     1     -12.296   8.641  72.677  1.00  0.00    -0.282 C  
HETATM   18  C   UNL     1      -6.091   9.136  69.316  1.00  0.00    -0.041 A  
HETATM   19  C   UNL     1     -12.168  11.009  71.026  1.00  0.00    -0.351 A  
HETATM   20  C   UNL     1     -11.726  12.094  70.145  1.00  0.00    -0.301 A  
HETATM   21  N   UNL     1      -8.564   9.304  70.094  1.00  0.00    -0.177 NA 
HETATM   22  C   UNL     1      -9.674  13.700  68.212  1.00  0.00    -0.231 C  
HETATM   23  C   UNL     1     -10.779  11.555  69.276  1.00  0.00    -0.171 A  
HETATM   24  C   UNL     1     -12.269  13.396  70.288  1.00  0.00    -0.405 A  
HETATM   25  C   UNL     1     -10.667  10.252  69.755  1.00  0.00    -0.285 A  
HETATM   26  C   UNL     1     -13.267  13.664  71.215  1.00  0.00    -0.308 A  
HETATM   27  C   UNL     1     -13.744  12.645  72.009  1.00  0.00    -0.301 A  
HETATM   28  C   UNL     1      -9.579   9.612  69.235  1.00  0.00    -0.185 A  
HETATM   29  C   UNL     1      -9.218  10.037  67.918  1.00  0.00    -0.145 C  
HETATM   30  C   UNL     1     -13.217  11.343  71.928  1.00  0.00    -0.485 A  
HETATM   31  C   UNL     1      -8.021   9.274  67.892  1.00  0.00    -0.100 A  
HETATM   32  C   UNL     1      -9.063  11.460  67.665  1.00  0.00    -0.155 C  
HETATM   33  C   UNL     1      -7.450   9.433  69.201  1.00  0.00    -0.073 A  
HETATM   34  C   UNL     1      -9.965  12.273  68.379  1.00  0.00    -0.210 A  
BRANCH   4  35
HETATM   35  N   UNL     1      -9.700   4.850  70.839  1.00  0.00    -0.181 N  
HETATM   36  C   UNL     1      -9.948   4.195  72.133  1.00  0.00    -0.174 C  
HETATM   37  C   UNL     1      -9.611   3.927  69.778  1.00  0.00    -0.201 C  
HETATM   38  O   UNL     1      -9.643   2.696  69.951  1.00  0.00    -0.111 OA 
BRANCH  37  39
HETATM   39  C   UNL     1      -9.397   4.340  68.377  1.00  0.00    -0.209 A  
HETATM   40  C   UNL     1      -7.987   4.291  66.403  1.00  0.00    -0.098 A  
HETATM   41  C   UNL     1      -8.215   3.945  67.740  1.00  0.00    -0.094 A  
HETATM   42  C   UNL     1      -8.928   5.041  65.707  1.00  0.00    -0.145 A  
HETATM   43  C   UNL     1     -10.128   5.386  66.333  1.00  0.00    -0.239 A  
HETATM   44  C   UNL     1     -10.382   4.983  67.639  1.00  0.00    -0.131 A  
ENDBRANCH  37  39
ENDBRANCH   4  35
ENDBRANCH   2   3
TORSDOF 3
ENDMDL
MODEL       21
REMARK 921   NORMALIZED FREE ENERGY PREDICTED BY IDOCK:   -5.73 KCAL/MOL
REMARK 922        TOTAL FREE ENERGY PREDICTED BY IDOCK:   -7.27 KCAL/MOL
REMARK 923 INTER-LIGAND FREE ENERGY PREDICTED BY IDOCK:   -7.76 KCAL/MOL
REMARK 924 INTRA-LIGAND FREE ENERGY PREDICTED BY IDOCK:    0.49 KCAL/MOL
REMARK 927      BINDING AFFINITY PREDICTED BY RF-SCORE:    0.00 PKD
ROOT
HETATM    1  C   UNL     1      -8.895   6.374  72.105  1.00  0.00    -0.136 C  
HETATM    2  O   UNL     1      -8.205   6.975  71.007  1.00  0.00    -0.115 OA 
ENDROOT
BRANCH   2   3
HETATM    3  C   UNL     1      -8.923   7.318  69.755  1.00  0.00    -0.142 C  
HETATM    4  C   UNL     1      -8.124   6.644  68.611  1.00  0.00    -0.119 C  
HETATM    5  C   UNL     1      -6.967   7.551  68.192  1.00  0.00    -0.072 C  
HETATM    6  O   UNL     1      -9.048  11.273  62.579  1.00  0.00    -0.339 OA 
HETATM    7  C   UNL     1      -8.241   7.539  64.431  1.00  0.00    -0.018 A  
HETATM    8  C   UNL     1      -9.663  11.541  63.606  1.00  0.00    -0.309 C  
HETATM    9  C   UNL     1      -7.331   9.050  68.216  1.00  0.00    -0.082 C  
HETATM   10  H   UNL     1     -10.052  13.588  63.200  1.00  0.00     0.000 HD 
HETATM   11  O   UNL     1      -8.010   9.522  69.435  1.00  0.00    -0.085 OA 
HETATM   12  C   UNL     1      -6.908   7.184  64.229  1.00  0.00    -0.047 A  
HETATM   13  C   UNL     1      -5.920   8.152  64.393  1.00  0.00    -0.056 A  
HETATM   14  C   UNL     1      -9.287   8.899  69.698  1.00  0.00    -0.163 C  
HETATM   15  N   UNL     1     -10.148  12.826  63.872  1.00  0.00    -0.275 N  
HETATM   16  N   UNL     1     -10.247   9.708  68.884  1.00  0.00    -0.193 NA 
HETATM   17  C   UNL     1      -9.922   9.011  71.127  1.00  0.00    -0.365 C  
HETATM   18  C   UNL     1      -6.191   9.316  65.125  1.00  0.00    -0.068 A  
HETATM   19  C   UNL     1     -11.082  10.875  69.249  1.00  0.00    -0.248 A  
HETATM   20  C   UNL     1     -11.339  11.740  68.093  1.00  0.00    -0.348 A  
HETATM   21  N   UNL     1      -8.013   9.401  66.975  1.00  0.00    -0.102 NA 
HETATM   22  C   UNL     1     -10.796  13.015  65.160  1.00  0.00    -0.300 C  
HETATM   23  C   UNL     1     -10.795  11.105  66.979  1.00  0.00    -0.338 A  
HETATM   24  C   UNL     1     -12.032  12.967  68.259  1.00  0.00    -0.297 A  
HETATM   25  C   UNL     1     -10.193   9.990  67.556  1.00  0.00    -0.212 A  
HETATM   26  C   UNL     1     -12.534  13.350  69.496  1.00  0.00    -0.018 A  
HETATM   27  C   UNL     1     -12.361  12.522  70.582  1.00  0.00    -0.369 A  
HETATM   28  C   UNL     1      -9.347   9.363  66.687  1.00  0.00    -0.163 A  
HETATM   29  C   UNL     1      -9.724   9.473  65.312  1.00  0.00    -0.268 C  
HETATM   30  C   UNL     1     -11.654  11.311  70.477  1.00  0.00    -0.233 A  
HETATM   31  C   UNL     1      -8.533   8.868  64.833  1.00  0.00    -0.195 A  
HETATM   32  C   UNL     1     -10.020  10.792  64.777  1.00  0.00    -0.382 C  
HETATM   33  C   UNL     1      -7.483   9.420  65.643  1.00  0.00    -0.095 A  
HETATM   34  C   UNL     1     -10.656  11.655  65.690  1.00  0.00    -0.324 A  
BRANCH   4  35
HETATM   35  N   UNL     1      -7.671   5.189  68.932  1.00  0.00    -0.080 N  
HETATM   36  C   UNL     1      -6.919   4.916  70.166  1.00  0.00    -0.049 C  
HETATM   37  C   UNL     1      -8.060   4.010  68.267  1.00  0.00    -0.080 C  
HETATM   38  O   UNL     1      -7.713   2.878  68.645  1.00  0.00    -0.051 OA 
BRANCH  37  39
HETATM   39  C   UNL     1      -8.853   4.020  67.021  1.00  0.00    -0.130 A  
HETATM   40  C   UNL     1      -9.162   3.182  64.766  1.00  0.00    -0.145 A  
HETATM   41  C   UNL     1      -8.424   3.224  65.953  1.00  0.00    -0.111 A  
HETATM   42  C   UNL     1     -10.317   3.944  64.637  1.00  0.00    -0.213 A  
HETATM   43  C   UNL     1     -10.768   4.695  65.725  1.00  0.00    -0.195 A  
HETATM   44  C   UNL     1     -10.070   4.681  66.927  1.00  0.00    -0.227 A  
ENDBRANCH  37  39
ENDBRANCH   4  35
ENDBRANCH   2   3
TORSDOF 3
ENDMDL
MODEL       22
REMARK 921   NORMALIZED FREE ENERGY PREDICTED BY IDOCK:   -5.64 KCAL/MOL
REMARK 922        TOTAL FREE ENERGY PREDICTED BY IDOCK:   -7.16 KCAL/MOL
REMARK 923 INTER-LIGAND FREE ENERGY PREDICTED BY IDOCK:   -6.59 KCAL/MOL
REMARK 924 INTRA-LIGAND FREE ENERGY PREDICTED BY IDOCK:   -0.56 KCAL/MOL
REMARK 927      BINDING AFFINITY PREDICTED BY RF-SCORE:    0.00 PKD
ROOT
HETATM    1  C   UNL     1     -12.002  12.485  69.425  1.00  0.00    -0.256 C  
HETATM    2  O   UNL     1     -11.703  11.247  68.777  1.00  0.00    -0.295 OA 
ENDROOT
BRANCH   2   3
HETATM    3  C   UNL     1     -10.366  10.620  68.917  1.00  0.00    -0.207 C  
HETATM    4  C   UNL     1      -9.740  10.638  67.500  1.00  0.00    -0.166 C  
HETATM    5  C   UNL     1     -10.225   9.421  66.710  1.00  0.00    -0.320 C  
HETATM    6  O   UNL     1      -5.309   4.396  67.230  1.00  0.00    -0.011 OA 
HETATM    7  C   UNL     1      -6.478   8.297  66.028  1.00  0.00    -0.049 A  
HETATM    8  C   UNL     1      -5.858   4.664  68.293  1.00  0.00    -0.025 C  
HETATM    9  C   UNL     1     -10.355   8.150  67.574  1.00  0.00    -0.261 C  
HETATM   10  H   UNL     1      -5.739   2.741  69.186  1.00  0.00     0.000 HD 
HETATM   11  O   UNL     1     -11.066   8.317  68.854  1.00  0.00     0.076 OA 
HETATM   12  C   UNL     1      -6.974   8.266  64.725  1.00  0.00    -0.075 A  
HETATM   13  C   UNL     1      -7.851   7.247  64.361  1.00  0.00    -0.126 A  
HETATM   14  C   UNL     1     -10.447   9.244  69.774  1.00  0.00    -0.222 C  
HETATM   15  N   UNL     1      -6.072   3.700  69.285  1.00  0.00    -0.027 N  
HETATM   16  N   UNL     1      -9.428   8.407  70.482  1.00  0.00    -0.166 NA 
HETATM   17  C   UNL     1     -11.278   9.806  70.979  1.00  0.00    -0.451 C  
HETATM   18  C   UNL     1      -8.535   6.522  65.346  1.00  0.00    -0.119 A  
HETATM   19  C   UNL     1      -9.506   7.661  71.758  1.00  0.00    -0.145 A  
HETATM   20  C   UNL     1      -8.609   6.501  71.763  1.00  0.00    -0.124 A  
HETATM   21  N   UNL     1      -9.048   7.511  67.692  1.00  0.00    -0.126 NA 
HETATM   22  C   UNL     1      -6.797   4.143  70.465  1.00  0.00    -0.033 C  
HETATM   23  C   UNL     1      -7.875   6.548  70.580  1.00  0.00    -0.106 A  
HETATM   24  C   UNL     1      -8.617   5.597  72.856  1.00  0.00    -0.122 A  
HETATM   25  C   UNL     1      -8.442   7.647  69.940  1.00  0.00    -0.137 A  
HETATM   26  C   UNL     1      -9.421   5.814  73.967  1.00  0.00    -0.141 A  
HETATM   27  C   UNL     1     -10.223   6.932  74.012  1.00  0.00    -0.384 A  
HETATM   28  C   UNL     1      -8.074   7.715  68.627  1.00  0.00    -0.127 A  
HETATM   29  C   UNL     1      -6.777   7.182  68.349  1.00  0.00    -0.057 C  
HETATM   30  C   UNL     1     -10.277   7.842  72.941  1.00  0.00    -0.377 A  
HETATM   31  C   UNL     1      -6.918   7.304  66.941  1.00  0.00    -0.077 A  
HETATM   32  C   UNL     1      -6.454   5.850  68.836  1.00  0.00    -0.049 C  
HETATM   33  C   UNL     1      -8.266   6.889  66.666  1.00  0.00    -0.115 A  
HETATM   34  C   UNL     1      -7.022   5.542  70.087  1.00  0.00    -0.064 A  
BRANCH   4  35
HETATM   35  N   UNL     1      -9.948  11.979  66.737  1.00  0.00    -0.199 N  
HETATM   36  C   UNL     1     -11.172  12.188  65.950  1.00  0.00    -0.339 C  
HETATM   37  C   UNL     1      -9.176  13.152  66.852  1.00  0.00    -0.236 C  
HETATM   38  O   UNL     1      -9.465  14.209  66.264  1.00  0.00    -0.283 OA 
BRANCH  37  39
HETATM   39  C   UNL     1      -7.916  13.208  67.620  1.00  0.00    -0.174 A  
HETATM   40  C   UNL     1      -5.567  12.621  67.776  1.00  0.00    -0.122 A  
HETATM   41  C   UNL     1      -6.788  12.568  67.094  1.00  0.00    -0.058 A  
HETATM   42  C   UNL     1      -5.475  13.297  68.987  1.00  0.00    -0.070 A  
HETATM   43  C   UNL     1      -6.591  13.978  69.479  1.00  0.00    -0.115 A  
HETATM   44  C   UNL     1      -7.785  13.981  68.766  1.00  0.00    -0.112 A  
ENDBRANCH  37  39
ENDBRANCH   4  35
ENDBRANCH   2   3
TORSDOF 3
ENDMDL
MODEL       23
REMARK 921   NORMALIZED FREE ENERGY PREDICTED BY IDOCK:   -5.63 KCAL/MOL
REMARK 922        TOTAL FREE ENERGY PREDICTED BY IDOCK:   -7.14 KCAL/MOL
REMARK 923 INTER-LIGAND FREE ENERGY PREDICTED BY IDOCK:   -7.62 KCAL/MOL
REMARK 924 INTRA-LIGAND FREE ENERGY PREDICTED BY IDOCK:    0.48 KCAL/MOL
REMARK 927      BINDING AFFINITY PREDICTED BY RF-SCORE:    0.00 PKD
ROOT
HETATM    1  C   UNL     1      -8.720  10.366  64.495  1.00  0.00    -0.194 C  
HETATM    2  O   UNL     1      -9.199   9.109  64.977  1.00  0.00    -0.208 OA 
ENDROOT
BRANCH   2   3
HETATM    3  C   UNL     1      -8.805   8.609  66.317  1.00  0.00    -0.157 C  
HETATM    4  C   UNL     1      -8.022   7.296  66.065  1.00  0.00    -0.115 C  
HETATM    5  C   UNL     1      -9.006   6.133  65.925  1.00  0.00    -0.133 C  
HETATM    6  O   UNL     1      -9.493   2.932  72.186  1.00  0.00    -0.109 OA 
HETATM    7  C   UNL     1      -7.178   4.156  68.844  1.00  0.00    -0.055 A  
HETATM    8  C   UNL     1      -9.931   4.077  72.181  1.00  0.00    -0.172 C  
HETATM    9  C   UNL     1     -10.215   6.242  66.877  1.00  0.00    -0.209 C  
HETATM   10  H   UNL     1     -11.448   3.827  73.645  1.00  0.00     0.000 HD 
HETATM   11  O   UNL     1     -10.885   7.554  66.909  1.00  0.00    -0.345 OA 
HETATM   12  C   UNL     1      -7.195   3.165  67.863  1.00  0.00    -0.050 A  
HETATM   13  C   UNL     1      -8.402   2.545  67.552  1.00  0.00    -0.094 A  
HETATM   14  C   UNL     1     -10.054   8.650  67.353  1.00  0.00    -0.229 C  
HETATM   15  N   UNL     1     -11.008   4.467  72.983  1.00  0.00    -0.233 N  
HETATM   16  N   UNL     1     -10.161   8.590  68.844  1.00  0.00    -0.204 NA 
HETATM   17  C   UNL     1     -10.504  10.124  67.068  1.00  0.00    -0.302 C  
HETATM   18  C   UNL     1      -9.616   3.155  67.896  1.00  0.00    -0.130 A  
HETATM   19  C   UNL     1     -11.066   9.296  69.778  1.00  0.00    -0.150 A  
HETATM   20  C   UNL     1     -11.305   8.514  70.996  1.00  0.00    -0.313 A  
HETATM   21  N   UNL     1      -9.843   5.726  68.191  1.00  0.00    -0.128 NA 
HETATM   22  C   UNL     1     -11.467   5.838  72.822  1.00  0.00    -0.255 C  
HETATM   23  C   UNL     1     -10.491   7.386  70.923  1.00  0.00    -0.225 A  
HETATM   24  C   UNL     1     -12.231   8.973  71.969  1.00  0.00    -0.446 A  
HETATM   25  C   UNL     1      -9.918   7.534  69.662  1.00  0.00    -0.184 A  
HETATM   26  C   UNL     1     -12.884  10.189  71.826  1.00  0.00    -0.554 A  
HETATM   27  C   UNL     1     -12.626  10.971  70.723  1.00  0.00    -0.463 A  
HETATM   28  C   UNL     1      -9.296   6.390  69.251  1.00  0.00    -0.137 A  
HETATM   29  C   UNL     1      -8.755   5.598  70.312  1.00  0.00    -0.134 C  
HETATM   30  C   UNL     1     -11.742  10.547  69.713  1.00  0.00    -0.354 A  
HETATM   31  C   UNL     1      -8.404   4.517  69.460  1.00  0.00    -0.082 A  
HETATM   32  C   UNL     1      -9.615   5.261  71.435  1.00  0.00    -0.209 C  
HETATM   33  C   UNL     1      -9.513   4.381  68.557  1.00  0.00    -0.156 A  
HETATM   34  C   UNL     1     -10.524   6.277  71.789  1.00  0.00    -0.249 A  
BRANCH   4  35
HETATM   35  N   UNL     1      -7.011   7.382  64.885  1.00  0.00    -0.050 N  
HETATM   36  C   UNL     1      -5.969   8.420  64.891  1.00  0.00    -0.052 C  
HETATM   37  C   UNL     1      -6.827   6.442  63.852  1.00  0.00    -0.041 C  
HETATM   38  O   UNL     1      -5.934   6.551  62.993  1.00  0.00    -0.029 OA 
BRANCH  37  39
HETATM   39  C   UNL     1      -7.723   5.286  63.655  1.00  0.00    -0.080 A  
HETATM   40  C   UNL     1      -9.635   4.328  62.509  1.00  0.00    -0.129 A  
HETATM   41  C   UNL     1      -8.781   5.410  62.746  1.00  0.00    -0.009 A  
HETATM   42  C   UNL     1      -9.446   3.129  63.186  1.00  0.00    -0.094 A  
HETATM   43  C   UNL     1      -8.358   2.995  64.051  1.00  0.00    -0.086 A  
HETATM   44  C   UNL     1      -7.470   4.049  64.234  1.00  0.00    -0.071 A  
ENDBRANCH  37  39
ENDBRANCH   4  35
ENDBRANCH   2   3
TORSDOF 3
ENDMDL
MODEL       24
REMARK 921   NORMALIZED FREE ENERGY PREDICTED BY IDOCK:   -5.57 KCAL/MOL
REMARK 922        TOTAL FREE ENERGY PREDICTED BY IDOCK:   -7.07 KCAL/MOL
REMARK 923 INTER-LIGAND FREE ENERGY PREDICTED BY IDOCK:   -7.43 KCAL/MOL
REMARK 924 INTRA-LIGAND FREE ENERGY PREDICTED BY IDOCK:    0.37 KCAL/MOL
REMARK 927      BINDING AFFINITY PREDICTED BY RF-SCORE:    0.00 PKD
ROOT
HETATM    1  C   UNL     1      -8.767  13.284  66.629  1.00  0.00     0.001 C  
HETATM    2  O   UNL     1      -8.956  11.871  66.535  1.00  0.00    -0.200 OA 
ENDROOT
BRANCH   2   3
HETATM    3  C   UNL     1      -8.588  10.979  67.661  1.00  0.00    -0.125 C  
HETATM    4  C   UNL     1      -7.494  10.030  67.110  1.00  0.00    -0.091 C  
HETATM    5  C   UNL     1      -8.154   8.850  66.395  1.00  0.00    -0.110 C  
HETATM    6  O   UNL     1      -8.479   3.467  70.934  1.00  0.00    -0.064 OA 
HETATM    7  C   UNL     1      -6.205   6.280  68.712  1.00  0.00    -0.036 A  
HETATM    8  C   UNL     1      -9.174   4.425  71.253  1.00  0.00    -0.137 C  
HETATM    9  C   UNL     1      -9.442   8.362  67.090  1.00  0.00    -0.163 C  
HETATM   10  H   UNL     1     -10.724   3.359  72.236  1.00  0.00     0.000 HD 
HETATM   11  O   UNL     1     -10.406   9.414  67.459  1.00  0.00    -0.222 OA 
HETATM   12  C   UNL     1      -5.888   5.755  67.459  1.00  0.00    -0.017 A  
HETATM   13  C   UNL     1      -6.876   5.091  66.738  1.00  0.00    -0.063 A  
HETATM   14  C   UNL     1      -9.907  10.389  68.402  1.00  0.00    -0.162 C  
HETATM   15  N   UNL     1     -10.387   4.273  71.933  1.00  0.00    -0.123 N  
HETATM   16  N   UNL     1     -10.143   9.746  69.731  1.00  0.00    -0.223 NA 
HETATM   17  C   UNL     1     -10.665  11.750  68.577  1.00  0.00    -0.251 C  
HETATM   18  C   UNL     1      -8.228   5.287  67.049  1.00  0.00    -0.108 A  
HETATM   19  C   UNL     1     -11.278   9.860  70.675  1.00  0.00    -0.344 A  
HETATM   20  C   UNL     1     -11.443   8.643  71.475  1.00  0.00    -0.363 A  
HETATM   21  N   UNL     1      -9.089   7.461  68.182  1.00  0.00    -0.132 NA 
HETATM   22  C   UNL     1     -11.142   5.491  72.183  1.00  0.00    -0.210 C  
HETATM   23  C   UNL     1     -10.380   7.800  71.159  1.00  0.00    -0.218 A  
HETATM   24  C   UNL     1     -12.542   8.515  72.363  1.00  0.00    -0.409 A  
HETATM   25  C   UNL     1      -9.738   8.521  70.155  1.00  0.00    -0.170 A  
HETATM   26  C   UNL     1     -13.449   9.551  72.542  1.00  0.00    -0.381 A  
HETATM   27  C   UNL     1     -13.277  10.728  71.849  1.00  0.00    -0.524 A  
HETATM   28  C   UNL     1      -8.824   7.757  69.488  1.00  0.00    -0.139 A  
HETATM   29  C   UNL     1      -8.217   6.734  70.282  1.00  0.00    -0.125 C  
HETATM   30  C   UNL     1     -12.223  10.894  70.933  1.00  0.00    -0.485 A  
HETATM   31  C   UNL     1      -7.536   6.146  69.184  1.00  0.00    -0.090 A  
HETATM   32  C   UNL     1      -9.077   5.841  71.041  1.00  0.00    -0.157 C  
HETATM   33  C   UNL     1      -8.486   6.163  68.105  1.00  0.00    -0.116 A  
HETATM   34  C   UNL     1     -10.232   6.458  71.559  1.00  0.00    -0.221 A  
BRANCH   4  35
HETATM   35  N   UNL     1      -6.421  10.746  66.238  1.00  0.00    -0.124 N  
HETATM   36  C   UNL     1      -5.477  11.682  66.867  1.00  0.00    -0.129 C  
HETATM   37  C   UNL     1      -6.090  10.468  64.897  1.00  0.00    -0.068 C  
HETATM   38  O   UNL     1      -5.158  11.036  64.302  1.00  0.00    -0.230 OA 
BRANCH  37  39
HETATM   39  C   UNL     1      -6.868   9.533  64.060  1.00  0.00    -0.105 A  
HETATM   40  C   UNL     1      -8.705   9.187  62.514  1.00  0.00    -0.213 A  
HETATM   41  C   UNL     1      -7.960  10.033  63.342  1.00  0.00    -0.156 A  
HETATM   42  C   UNL     1      -8.372   7.841  62.413  1.00  0.00    -0.081 A  
HETATM   43  C   UNL     1      -7.250   7.360  63.091  1.00  0.00    -0.079 A  
HETATM   44  C   UNL     1      -6.470   8.218  63.860  1.00  0.00    -0.071 A  
ENDBRANCH  37  39
ENDBRANCH   4  35
ENDBRANCH   2   3
TORSDOF 3
ENDMDL
MODEL       25
REMARK 921   NORMALIZED FREE ENERGY PREDICTED BY IDOCK:   -5.47 KCAL/MOL
REMARK 922        TOTAL FREE ENERGY PREDICTED BY IDOCK:   -6.96 KCAL/MOL
REMARK 923 INTER-LIGAND FREE ENERGY PREDICTED BY IDOCK:   -7.64 KCAL/MOL
REMARK 924 INTRA-LIGAND FREE ENERGY PREDICTED BY IDOCK:    0.68 KCAL/MOL
REMARK 927      BINDING AFFINITY PREDICTED BY RF-SCORE:    0.00 PKD
ROOT
HETATM    1  C   UNL     1      -9.678   9.803  65.757  1.00  0.00    -0.273 C  
HETATM    2  O   UNL     1      -8.949   9.340  66.896  1.00  0.00    -0.128 OA 
ENDROOT
BRANCH   2   3
HETATM    3  C   UNL     1      -9.548   8.359  67.833  1.00  0.00    -0.156 C  
HETATM    4  C   UNL     1      -9.488   9.021  69.234  1.00  0.00    -0.157 C  
HETATM    5  C   UNL     1      -8.114   8.773  69.858  1.00  0.00    -0.109 C  
HETATM    6  O   UNL     1      -8.642   3.188  74.126  1.00  0.00    -0.075 OA 
HETATM    7  C   UNL     1      -9.798   7.131  73.058  1.00  0.00    -0.233 A  
HETATM    8  C   UNL     1      -8.806   2.922  72.940  1.00  0.00    -0.083 C  
HETATM    9  C   UNL     1      -7.549   7.372  69.547  1.00  0.00    -0.099 C  
HETATM   10  H   UNL     1      -8.024   0.948  72.963  1.00  0.00     0.000 HD 
HETATM   11  O   UNL     1      -7.615   6.956  68.135  1.00  0.00    -0.103 OA 
HETATM   12  C   UNL     1      -8.963   8.058  73.680  1.00  0.00    -0.313 A  
HETATM   13  C   UNL     1      -7.590   7.827  73.694  1.00  0.00    -0.174 A  
HETATM   14  C   UNL     1      -8.951   6.869  67.589  1.00  0.00    -0.116 C  
HETATM   15  N   UNL     1      -8.418   1.695  72.391  1.00  0.00    -0.053 N  
HETATM   16  N   UNL     1      -9.403   5.499  67.985  1.00  0.00    -0.109 NA 
HETATM   17  C   UNL     1      -9.149   6.825  66.035  1.00  0.00    -0.103 C  
HETATM   18  C   UNL     1      -7.018   6.932  72.780  1.00  0.00    -0.070 A  
HETATM   19  C   UNL     1      -9.347   4.213  67.253  1.00  0.00    -0.176 A  
HETATM   20  C   UNL     1      -9.261   3.072  68.170  1.00  0.00    -0.248 A  
HETATM   21  N   UNL     1      -8.113   6.405  70.484  1.00  0.00    -0.115 NA 
HETATM   22  C   UNL     1      -8.608   1.544  70.957  1.00  0.00    -0.050 C  
HETATM   23  C   UNL     1      -9.379   3.577  69.463  1.00  0.00    -0.243 A  
HETATM   24  C   UNL     1      -9.091   1.758  67.662  1.00  0.00    -0.181 A  
HETATM   25  C   UNL     1      -9.429   4.948  69.226  1.00  0.00    -0.142 A  
HETATM   26  C   UNL     1      -9.062   1.512  66.296  1.00  0.00    -0.043 A  
HETATM   27  C   UNL     1      -9.206   2.560  65.416  1.00  0.00    -0.096 A  
HETATM   28  C   UNL     1      -9.256   5.668  70.373  1.00  0.00    -0.152 A  
HETATM   29  C   UNL     1      -9.736   5.020  71.555  1.00  0.00    -0.227 C  
HETATM   30  C   UNL     1      -9.345   3.885  65.868  1.00  0.00    -0.165 A  
HETATM   31  C   UNL     1      -9.206   6.005  72.430  1.00  0.00    -0.143 A  
HETATM   32  C   UNL     1      -9.316   3.653  71.816  1.00  0.00    -0.195 C  
HETATM   33  C   UNL     1      -7.907   6.314  71.899  1.00  0.00    -0.101 A  
HETATM   34  C   UNL     1      -9.177   2.862  70.660  1.00  0.00    -0.207 A  
BRANCH   4  35
HETATM   35  N   UNL     1      -9.896  10.523  69.238  1.00  0.00    -0.218 N  
HETATM   36  C   UNL     1      -9.160  11.480  68.398  1.00  0.00    -0.185 C  
HETATM   37  C   UNL     1     -11.046  11.091  69.820  1.00  0.00    -0.235 C  
HETATM   38  O   UNL     1     -11.336  12.295  69.702  1.00  0.00    -0.225 OA 
BRANCH  37  39
HETATM   39  C   UNL     1     -11.968  10.324  70.681  1.00  0.00    -0.436 A  
HETATM   40  C   UNL     1     -13.768  10.340  72.307  1.00  0.00    -0.067 A  
HETATM   41  C   UNL     1     -12.858  11.030  71.498  1.00  0.00    -0.555 A  
HETATM   42  C   UNL     1     -13.781   8.951  72.313  1.00  0.00    -0.527 A  
HETATM   43  C   UNL     1     -12.927   8.253  71.456  1.00  0.00    -0.310 A  
HETATM   44  C   UNL     1     -12.070   8.941  70.603  1.00  0.00    -0.045 A  
ENDBRANCH  37  39
ENDBRANCH   4  35
ENDBRANCH   2   3
TORSDOF 3
ENDMDL
MODEL       26
REMARK 921   NORMALIZED FREE ENERGY PREDICTED BY IDOCK:   -5.44 KCAL/MOL
REMARK 922        TOTAL FREE ENERGY PREDICTED BY IDOCK:   -6.92 KCAL/MOL
REMARK 923 INTER-LIGAND FREE ENERGY PREDICTED BY IDOCK:   -7.34 KCAL/MOL
REMARK 924 INTRA-LIGAND FREE ENERGY PREDICTED BY IDOCK:    0.42 KCAL/MOL
REMARK 927      BINDING AFFINITY PREDICTED BY RF-SCORE:    0.00 PKD
ROOT
HETATM    1  C   UNL     1     -13.067  13.363  72.398  1.00  0.00    -0.366 C  
HETATM    2  O   UNL     1     -12.957  13.193  70.983  1.00  0.00    -0.242 OA 
ENDROOT
BRANCH   2   3
HETATM    3  C   UNL     1     -11.746  12.580  70.385  1.00  0.00    -0.012 C  
HETATM    4  C   UNL     1     -11.373  13.476  69.176  1.00  0.00    -0.282 C  
HETATM    5  C   UNL     1     -12.188  13.050  67.954  1.00  0.00    -0.072 C  
HETATM    6  O   UNL     1      -8.208   8.696  64.095  1.00  0.00    -0.160 OA 
HETATM    7  C   UNL     1      -8.864  12.506  65.851  1.00  0.00     0.361 A  
HETATM    8  C   UNL     1      -8.514   8.244  65.193  1.00  0.00    -0.146 C  
HETATM    9  C   UNL     1     -12.391  11.524  67.860  1.00  0.00     0.826 C  
HETATM   10  H   UNL     1      -8.585   6.189  64.665  1.00  0.00     0.000 HD 
HETATM   11  O   UNL     1     -12.836  10.862  69.099  1.00  0.00    -0.137 OA 
HETATM   12  C   UNL     1      -9.570  13.323  64.969  1.00  0.00     0.222 A  
HETATM   13  C   UNL     1     -10.659  12.792  64.282  1.00  0.00    -0.424 A  
HETATM   14  C   UNL     1     -11.920  10.976  70.211  1.00  0.00    -0.365 C  
HETATM   15  N   UNL     1      -8.724   6.877  65.405  1.00  0.00    -0.041 N  
HETATM   16  N   UNL     1     -10.958   9.851  69.989  1.00  0.00    -0.271 NA 
HETATM   17  C   UNL     1     -12.426  10.670  71.663  1.00  0.00    -0.416 C  
HETATM   18  C   UNL     1     -11.283  11.626  64.747  1.00  0.00    -0.300 A  
HETATM   19  C   UNL     1     -10.949   8.467  70.515  1.00  0.00    -0.241 A  
HETATM   20  C   UNL     1     -10.280   7.543  69.595  1.00  0.00    -0.205 A  
HETATM   21  N   UNL     1     -11.215  10.917  67.245  1.00  0.00    -0.388 NA 
HETATM   22  C   UNL     1      -9.152   6.491  66.741  1.00  0.00    -0.144 C  
HETATM   23  C   UNL     1      -9.759   8.308  68.554  1.00  0.00    -0.165 A  
HETATM   24  C   UNL     1     -10.262   6.151  69.869  1.00  0.00    -0.246 A  
HETATM   25  C   UNL     1     -10.225   9.579  68.879  1.00  0.00    -0.199 A  
HETATM   26  C   UNL     1     -10.817   5.638  71.034  1.00  0.00    -0.289 A  
HETATM   27  C   UNL     1     -11.393   6.495  71.944  1.00  0.00    -0.327 A  
HETATM   28  C   UNL     1     -10.077  10.454  67.841  1.00  0.00    -0.171 A  
HETATM   29  C   UNL     1      -8.958  10.181  66.994  1.00  0.00    -0.148 C  
HETATM   30  C   UNL     1     -11.466   7.879  71.704  1.00  0.00    -0.304 A  
HETATM   31  C   UNL     1      -9.310  11.172  66.041  1.00  0.00    -0.228 A  
HETATM   32  C   UNL     1      -8.795   8.834  66.471  1.00  0.00    -0.156 C  
HETATM   33  C   UNL     1     -10.736  11.065  65.903  1.00  0.00    -0.160 A  
HETATM   34  C   UNL     1      -9.190   7.818  67.363  1.00  0.00    -0.156 A  
BRANCH   4  35
HETATM   35  N   UNL     1     -11.469  15.001  69.469  1.00  0.00    -0.275 N  
HETATM   36  C   UNL     1     -12.650  15.537  70.164  1.00  0.00    -0.267 C  
HETATM   37  C   UNL     1     -10.450  15.963  69.322  1.00  0.00    -0.253 C  
HETATM   38  O   UNL     1     -10.590  17.150  69.660  1.00  0.00    -0.249 OA 
BRANCH  37  39
HETATM   39  C   UNL     1      -9.153  15.660  68.684  1.00  0.00    -0.205 A  
HETATM   40  C   UNL     1      -7.017  14.515  68.794  1.00  0.00    -0.104 A  
HETATM   41  C   UNL     1      -8.245  14.849  69.375  1.00  0.00    -0.084 A  
HETATM   42  C   UNL     1      -6.688  14.999  67.534  1.00  0.00    -0.178 A  
HETATM   43  C   UNL     1      -7.620  15.762  66.828  1.00  0.00    -0.177 A  
HETATM   44  C   UNL     1      -8.867  16.037  67.379  1.00  0.00    -0.197 A  
ENDBRANCH  37  39
ENDBRANCH   4  35
ENDBRANCH   2   3
TORSDOF 3
ENDMDL
MODEL       27
REMARK 921   NORMALIZED FREE ENERGY PREDICTED BY IDOCK:   -5.09 KCAL/MOL
REMARK 922        TOTAL FREE ENERGY PREDICTED BY IDOCK:   -6.51 KCAL/MOL
REMARK 923 INTER-LIGAND FREE ENERGY PREDICTED BY IDOCK:   -6.77 KCAL/MOL
REMARK 924 INTRA-LIGAND FREE ENERGY PREDICTED BY IDOCK:    0.25 KCAL/MOL
REMARK 927      BINDING AFFINITY PREDICTED BY RF-SCORE:    0.00 PKD
ROOT
HETATM    1  C   UNL     1      -7.164   8.824  70.548  1.00  0.00    -0.059 C  
HETATM    2  O   UNL     1      -7.150   9.654  69.385  1.00  0.00    -0.055 OA 
ENDROOT
BRANCH   2   3
HETATM    3  C   UNL     1      -8.090  10.794  69.254  1.00  0.00    -0.096 C  
HETATM    4  C   UNL     1      -9.214  10.309  68.303  1.00  0.00    -0.139 C  
HETATM    5  C   UNL     1      -8.776  10.507  66.851  1.00  0.00    -0.130 C  
HETATM    6  O   UNL     1     -11.489  16.603  64.578  1.00  0.00    -0.792 OA 
HETATM    7  C   UNL     1     -12.018  12.678  66.109  1.00  0.00    -0.458 A  
HETATM    8  C   UNL     1     -10.655  16.734  65.467  1.00  0.00    -0.230 C  
HETATM    9  C   UNL     1      -7.968  11.802  66.632  1.00  0.00    -0.070 C  
HETATM   10  H   UNL     1      -9.874  18.616  64.872  1.00  0.00     0.000 HD 
HETATM   11  O   UNL     1      -6.876  12.043  67.592  1.00  0.00    -0.092 OA 
HETATM   12  C   UNL     1     -12.101  11.764  65.059  1.00  0.00     0.082 A  
HETATM   13  C   UNL     1     -11.204  11.870  64.000  1.00  0.00    -0.470 A  
HETATM   14  C   UNL     1      -7.298  12.182  68.968  1.00  0.00     0.000 C  
HETATM   15  N   UNL     1      -9.804  17.843  65.534  1.00  0.00     0.349 N  
HETATM   16  N   UNL     1      -7.675  13.626  69.075  1.00  0.00     0.012 NA 
HETATM   17  C   UNL     1      -6.240  12.051  70.117  1.00  0.00    -0.075 C  
HETATM   18  C   UNL     1     -10.012  12.589  64.156  1.00  0.00    -0.226 A  
HETATM   19  C   UNL     1      -6.889  14.801  69.514  1.00  0.00    -0.169 A  
HETATM   20  C   UNL     1      -7.354  16.035  68.873  1.00  0.00    -0.176 A  
HETATM   21  N   UNL     1      -8.887  12.924  66.474  1.00  0.00    -0.089 NA 
HETATM   22  C   UNL     1      -8.816  17.831  66.601  1.00  0.00    -0.264 C  
HETATM   23  C   UNL     1      -8.485  15.706  68.129  1.00  0.00    -0.147 A  
HETATM   24  C   UNL     1      -6.660  17.254  69.082  1.00  0.00    -0.239 A  
HETATM   25  C   UNL     1      -8.547  14.327  68.306  1.00  0.00    -0.176 A  
HETATM   26  C   UNL     1      -5.569  17.326  69.938  1.00  0.00    -0.230 A  
HETATM   27  C   UNL     1      -5.154  16.193  70.602  1.00  0.00    -0.192 A  
HETATM   28  C   UNL     1      -9.417  13.742  67.430  1.00  0.00    -0.224 A  
HETATM   29  C   UNL     1     -10.517  14.572  67.047  1.00  0.00    -0.268 C  
HETATM   30  C   UNL     1      -5.788  14.953  70.404  1.00  0.00    -0.152 A  
HETATM   31  C   UNL     1     -10.994  13.660  66.069  1.00  0.00    -0.288 A  
HETATM   32  C   UNL     1     -10.239  15.917  66.571  1.00  0.00    -0.297 C  
HETATM   33  C   UNL     1      -9.815  13.171  65.410  1.00  0.00    -0.106 A  
HETATM   34  C   UNL     1      -9.154  16.543  67.215  1.00  0.00    -0.214 A  
BRANCH   4  35
HETATM   35  N   UNL     1      -9.705   8.861  68.598  1.00  0.00    -0.158 N  
HETATM   36  C   UNL     1     -10.726   8.634  69.632  1.00  0.00    -0.200 C  
HETATM   37  C   UNL     1      -9.434   7.701  67.847  1.00  0.00    -0.143 C  
HETATM   38  O   UNL     1      -9.939   6.595  68.109  1.00  0.00    -0.139 OA 
BRANCH  37  39
HETATM   39  C   UNL     1      -8.469   7.680  66.730  1.00  0.00    -0.127 A  
HETATM   40  C   UNL     1      -6.207   7.253  65.964  1.00  0.00    -0.041 A  
HETATM   41  C   UNL     1      -7.145   7.313  67.000  1.00  0.00    -0.087 A  
HETATM   42  C   UNL     1      -6.582   7.572  64.664  1.00  0.00    -0.040 A  
HETATM   43  C   UNL     1      -7.915   7.885  64.393  1.00  0.00    -0.132 A  
HETATM   44  C   UNL     1      -8.862   7.878  65.413  1.00  0.00    -0.020 A  
ENDBRANCH  37  39
ENDBRANCH   4  35
ENDBRANCH   2   3
TORSDOF 3
ENDMDL
MODEL       28
REMARK 921   NORMALIZED FREE ENERGY PREDICTED BY IDOCK:   -5.09 KCAL/MOL
REMARK 922        TOTAL FREE ENERGY PREDICTED BY IDOCK:   -6.51 KCAL/MOL
REMARK 923 INTER-LIGAND FREE ENERGY PREDICTED BY IDOCK:   -7.77 KCAL/MOL
REMARK 924 INTRA-LIGAND FREE ENERGY PREDICTED BY IDOCK:    1.26 KCAL/MOL
REMARK 927      BINDING AFFINITY PREDICTED BY RF-SCORE:    0.00 PKD
ROOT
HETATM    1  C   UNL     1      -8.096   3.068  68.474  1.00  0.00    -0.060 C  
HETATM    2  O   UNL     1      -6.997   3.977  68.392  1.00  0.00    -0.047 OA 
ENDROOT
BRANCH   2   3
HETATM    3  C   UNL     1      -7.178   5.417  68.699  1.00  0.00    -0.066 C  
HETATM    4  C   UNL     1      -7.564   5.484  70.198  1.00  0.00    -0.074 C  
HETATM    5  C   UNL     1      -9.071   5.266  70.348  1.00  0.00    -0.173 C  
HETATM    6  O   UNL     1     -12.150  11.593  70.771  1.00  0.00    -0.364 OA 
HETATM    7  C   UNL     1      -9.435   8.707  72.297  1.00  0.00    -0.336 A  
HETATM    8  C   UNL     1     -11.628  11.368  69.684  1.00  0.00    -0.330 C  
HETATM    9  C   UNL     1      -9.895   5.921  69.220  1.00  0.00    -0.160 C  
HETATM   10  H   UNL     1     -12.959  12.494  68.473  1.00  0.00     0.000 HD 
HETATM   11  O   UNL     1      -9.417   5.664  67.850  1.00  0.00    -0.110 OA 
HETATM   12  C   UNL     1     -10.090   7.860  73.190  1.00  0.00    -0.362 A  
HETATM   13  C   UNL     1     -11.349   7.369  72.853  1.00  0.00    -0.322 A  
HETATM   14  C   UNL     1      -8.085   6.151  67.571  1.00  0.00    -0.109 C  
HETATM   15  N   UNL     1     -12.149  11.875  68.489  1.00  0.00    -0.197 N  
HETATM   16  N   UNL     1      -8.307   7.583  67.196  1.00  0.00    -0.120 NA 
HETATM   17  C   UNL     1      -7.315   5.617  66.314  1.00  0.00    -0.078 C  
HETATM   18  C   UNL     1     -11.773   7.377  71.517  1.00  0.00    -0.314 A  
HETATM   19  C   UNL     1      -8.490   8.219  65.872  1.00  0.00    -0.140 A  
HETATM   20  C   UNL     1      -9.303   9.436  65.964  1.00  0.00    -0.279 A  
HETATM   21  N   UNL     1     -10.101   7.332  69.530  1.00  0.00    -0.178 NA 
HETATM   22  C   UNL     1     -11.469  11.469  67.269  1.00  0.00    -0.263 C  
HETATM   23  C   UNL     1      -9.547   9.663  67.316  1.00  0.00    -0.203 A  
HETATM   24  C   UNL     1      -9.681  10.133  64.787  1.00  0.00    -0.389 A  
HETATM   25  C   UNL     1      -8.956   8.545  67.900  1.00  0.00    -0.137 A  
HETATM   26  C   UNL     1      -9.248   9.721  63.534  1.00  0.00    -0.227 A  
HETATM   27  C   UNL     1      -8.430   8.619  63.430  1.00  0.00    -0.081 A  
HETATM   28  C   UNL     1      -9.320   8.404  69.209  1.00  0.00    -0.154 A  
HETATM   29  C   UNL     1      -9.591   9.637  69.882  1.00  0.00    -0.260 C  
HETATM   30  C   UNL     1      -8.053   7.874  64.562  1.00  0.00    -0.114 A  
HETATM   31  C   UNL     1     -10.065   9.004  71.061  1.00  0.00    -0.352 A  
HETATM   32  C   UNL     1     -10.505  10.582  69.262  1.00  0.00    -0.258 C  
HETATM   33  C   UNL     1     -10.867   7.906  70.596  1.00  0.00    -0.237 A  
HETATM   34  C   UNL     1     -10.428  10.620  67.856  1.00  0.00    -0.243 A  
BRANCH   4  35
HETATM   35  N   UNL     1      -6.721   4.545  71.108  1.00  0.00    -0.030 N  
HETATM   36  C   UNL     1      -5.259   4.500  70.954  1.00  0.00     0.000 C  
HETATM   37  C   UNL     1      -7.163   3.834  72.242  1.00  0.00    -0.048 C  
HETATM   38  O   UNL     1      -6.398   3.170  72.962  1.00  0.00    -0.012 OA 
BRANCH  37  39
HETATM   39  C   UNL     1      -8.586   3.757  72.630  1.00  0.00    -0.098 A  
HETATM   40  C   UNL     1     -10.712   2.603  72.456  1.00  0.00    -0.005 A  
HETATM   41  C   UNL     1      -9.368   2.729  72.091  1.00  0.00    -0.168 A  
HETATM   42  C   UNL     1     -11.281   3.507  73.344  1.00  0.00    -0.258 A  
HETATM   43  C   UNL     1     -10.482   4.498  73.919  1.00  0.00    -0.306 A  
HETATM   44  C   UNL     1      -9.129   4.580  73.608  1.00  0.00    -0.105 A  
ENDBRANCH  37  39
ENDBRANCH   4  35
ENDBRANCH   2   3
TORSDOF 3
ENDMDL
MODEL       29
REMARK 921   NORMALIZED FREE ENERGY PREDICTED BY IDOCK:   -5.08 KCAL/MOL
REMARK 922        TOTAL FREE ENERGY PREDICTED BY IDOCK:   -6.50 KCAL/MOL
REMARK 923 INTER-LIGAND FREE ENERGY PREDICTED BY IDOCK:   -8.16 KCAL/MOL
REMARK 924 INTRA-LIGAND FREE ENERGY PREDICTED BY IDOCK:    1.67 KCAL/MOL
REMARK 927      BINDING AFFINITY PREDICTED BY RF-SCORE:    0.00 PKD
ROOT
HETATM    1  C   UNL     1     -12.104  11.546  68.712  1.00  0.00    -0.170 C  
HETATM    2  O   UNL     1     -10.778  12.004  68.985  1.00  0.00    -0.206 OA 
ENDROOT
BRANCH   2   3
HETATM    3  C   UNL     1      -9.614  11.100  68.818  1.00  0.00    -0.172 C  
HETATM    4  C   UNL     1      -8.931  11.530  67.494  1.00  0.00    -0.159 C  
HETATM    5  C   UNL     1      -9.626  10.846  66.316  1.00  0.00    -0.234 C  
HETATM    6  O   UNL     1      -5.922   5.083  64.655  1.00  0.00    -0.020 OA 
HETATM    7  C   UNL     1      -6.176   9.298  65.103  1.00  0.00    -0.068 A  
HETATM    8  C   UNL     1      -6.451   5.030  65.761  1.00  0.00    -0.040 C  
HETATM    9  C   UNL     1     -10.064   9.400  66.624  1.00  0.00    -0.262 C  
HETATM   10  H   UNL     1      -6.787   2.935  65.834  1.00  0.00     0.000 HD 
HETATM   11  O   UNL     1     -10.783   9.209  67.896  1.00  0.00    -0.230 OA 
HETATM   12  C   UNL     1      -6.605   9.879  63.911  1.00  0.00    -0.126 A  
HETATM   13  C   UNL     1      -7.660   9.293  63.216  1.00  0.00    -0.106 A  
HETATM   14  C   UNL     1     -10.026   9.552  69.079  1.00  0.00    -0.180 C  
HETATM   15  N   UNL     1      -6.912   3.829  66.310  1.00  0.00    -0.061 N  
HETATM   16  N   UNL     1      -9.243   8.310  69.367  1.00  0.00    -0.154 NA 
HETATM   17  C   UNL     1     -10.774   9.769  70.439  1.00  0.00    -0.368 C  
HETATM   18  C   UNL     1      -8.529   8.409  63.870  1.00  0.00     0.008 A  
HETATM   19  C   UNL     1      -9.538   7.164  70.257  1.00  0.00    -0.169 A  
HETATM   20  C   UNL     1      -8.909   5.929  69.777  1.00  0.00    -0.129 A  
HETATM   21  N   UNL     1      -8.930   8.501  66.435  1.00  0.00    -0.154 NA 
HETATM   22  C   UNL     1      -7.581   3.926  67.598  1.00  0.00    -0.068 C  
HETATM   23  C   UNL     1      -8.127   6.271  68.676  1.00  0.00    -0.109 A  
HETATM   24  C   UNL     1      -9.161   4.698  70.434  1.00  0.00    -0.187 A  
HETATM   25  C   UNL     1      -8.416   7.626  68.534  1.00  0.00    -0.129 A  
HETATM   26  C   UNL     1      -9.952   4.637  71.574  1.00  0.00    -0.265 A  
HETATM   27  C   UNL     1     -10.500   5.794  72.080  1.00  0.00    -0.258 A  
HETATM   28  C   UNL     1      -7.981   8.115  67.336  1.00  0.00    -0.117 A  
HETATM   29  C   UNL     1      -6.815   7.465  66.822  1.00  0.00    -0.066 C  
HETATM   30  C   UNL     1     -10.308   7.035  71.447  1.00  0.00    -0.211 A  
HETATM   31  C   UNL     1      -6.860   8.149  65.579  1.00  0.00    -0.062 A  
HETATM   32  C   UNL     1      -6.806   6.013  66.743  1.00  0.00    -0.059 C  
HETATM   33  C   UNL     1      -8.250   8.171  65.217  1.00  0.00    -0.149 A  
HETATM   34  C   UNL     1      -7.485   5.375  67.799  1.00  0.00    -0.080 A  
BRANCH   4  35
HETATM   35  N   UNL     1      -8.813  13.072  67.319  1.00  0.00    -0.199 N  
HETATM   36  C   UNL     1      -7.799  13.817  68.081  1.00  0.00    -0.149 C  
HETATM   37  C   UNL     1      -9.446  13.869  66.345  1.00  0.00    -0.250 C  
HETATM   38  O   UNL     1      -9.228  15.087  66.226  1.00  0.00    -0.289 OA 
BRANCH  37  39
HETATM   39  C   UNL     1     -10.479  13.343  65.431  1.00  0.00    -0.310 A  
HETATM   40  C   UNL     1     -11.017  12.286  63.314  1.00  0.00    -0.373 A  
HETATM   41  C   UNL     1     -10.073  12.822  64.197  1.00  0.00    -0.260 A  
HETATM   42  C   UNL     1     -12.365  12.284  63.653  1.00  0.00    -0.664 A  
HETATM   43  C   UNL     1     -12.757  12.757  64.907  1.00  0.00    -0.479 A  
HETATM   44  C   UNL     1     -11.810  13.226  65.811  1.00  0.00    -0.428 A  
ENDBRANCH  37  39
ENDBRANCH   4  35
ENDBRANCH   2   3
TORSDOF 3
ENDMDL
MODEL       30
REMARK 921   NORMALIZED FREE ENERGY PREDICTED BY IDOCK:   -5.07 KCAL/MOL
REMARK 922        TOTAL FREE ENERGY PREDICTED BY IDOCK:   -6.49 KCAL/MOL
REMARK 923 INTER-LIGAND FREE ENERGY PREDICTED BY IDOCK:   -7.20 KCAL/MOL
REMARK 924 INTRA-LIGAND FREE ENERGY PREDICTED BY IDOCK:    0.71 KCAL/MOL
REMARK 927      BINDING AFFINITY PREDICTED BY RF-SCORE:    0.00 PKD
ROOT
HETATM    1  C   UNL     1      -5.968   3.607  66.977  1.00  0.00    -0.024 C  
HETATM    2  O   UNL     1      -6.109   4.938  67.476  1.00  0.00    -0.028 OA 
ENDROOT
BRANCH   2   3
HETATM    3  C   UNL     1      -7.438   5.596  67.519  1.00  0.00    -0.081 C  
HETATM    4  C   UNL     1      -7.322   6.844  66.607  1.00  0.00    -0.077 C  
HETATM    5  C   UNL     1      -6.725   8.005  67.403  1.00  0.00    -0.069 C  
HETATM    6  O   UNL     1     -12.044  12.004  69.729  1.00  0.00    -0.294 OA 
HETATM    7  C   UNL     1      -9.850  10.293  66.522  1.00  0.00    -0.265 A  
HETATM    8  C   UNL     1     -12.019  10.881  70.219  1.00  0.00    -0.361 C  
HETATM    9  C   UNL     1      -7.215   8.055  68.865  1.00  0.00    -0.075 C  
HETATM   10  H   UNL     1     -12.841  11.361  72.117  1.00  0.00     0.000 HD 
HETATM   11  O   UNL     1      -7.164   6.777  69.598  1.00  0.00    -0.076 OA 
HETATM   12  C   UNL     1      -8.817  11.148  66.141  1.00  0.00    -0.195 A  
HETATM   13  C   UNL     1      -8.045  11.756  67.127  1.00  0.00    -0.169 A  
HETATM   14  C   UNL     1      -7.984   5.725  69.042  1.00  0.00    -0.098 C  
HETATM   15  N   UNL     1     -12.445  10.628  71.528  1.00  0.00    -0.380 N  
HETATM   16  N   UNL     1      -9.333   5.981  69.637  1.00  0.00    -0.143 NA 
HETATM   17  C   UNL     1      -7.731   4.240  69.473  1.00  0.00    -0.054 C  
HETATM   18  C   UNL     1      -8.022  11.230  68.426  1.00  0.00    -0.140 A  
HETATM   19  C   UNL     1      -9.977   5.428  70.850  1.00  0.00    -0.202 A  
HETATM   20  C   UNL     1     -10.944   6.367  71.426  1.00  0.00    -0.316 A  
HETATM   21  N   UNL     1      -8.509   8.726  68.918  1.00  0.00    -0.130 NA 
HETATM   22  C   UNL     1     -12.292   9.261  72.001  1.00  0.00    -0.363 C  
HETATM   23  C   UNL     1     -11.026   7.453  70.557  1.00  0.00    -0.270 A  
HETATM   24  C   UNL     1     -11.588   6.065  72.653  1.00  0.00    -0.266 A  
HETATM   25  C   UNL     1     -10.060   7.127  69.608  1.00  0.00    -0.192 A  
HETATM   26  C   UNL     1     -11.370   4.859  73.305  1.00  0.00    -0.408 A  
HETATM   27  C   UNL     1     -10.516   3.934  72.749  1.00  0.00    -0.231 A  
HETATM   28  C   UNL     1      -9.760   8.190  68.806  1.00  0.00    -0.153 A  
HETATM   29  C   UNL     1     -10.845   9.098  68.596  1.00  0.00    -0.092 C  
HETATM   30  C   UNL     1      -9.827   4.198  71.551  1.00  0.00    -0.255 A  
HETATM   31  C   UNL     1     -10.048  10.049  67.906  1.00  0.00    -0.203 A  
HETATM   32  C   UNL     1     -11.564   9.601  69.756  1.00  0.00    -0.022 C  
HETATM   33  C   UNL     1      -8.812  10.098  68.636  1.00  0.00    -0.136 A  
HETATM   34  C   UNL     1     -11.699   8.666  70.800  1.00  0.00    -0.239 A  
BRANCH   4  35
HETATM   35  N   UNL     1      -6.574   6.577  65.268  1.00  0.00    -0.041 N  
HETATM   36  C   UNL     1      -5.201   7.073  65.088  1.00  0.00    -0.027 C  
HETATM   37  C   UNL     1      -6.979   5.725  64.221  1.00  0.00    -0.051 C  
HETATM   38  O   UNL     1      -6.276   5.507  63.220  1.00  0.00    -0.021 OA 
BRANCH  37  39
HETATM   39  C   UNL     1      -8.305   5.076  64.188  1.00  0.00    -0.133 A  
HETATM   40  C   UNL     1      -9.975   3.858  62.918  1.00  0.00    -0.166 A  
HETATM   41  C   UNL     1      -8.738   4.509  62.984  1.00  0.00    -0.119 A  
HETATM   42  C   UNL     1     -10.786   3.786  64.045  1.00  0.00    -0.256 A  
HETATM   43  C   UNL     1     -10.324   4.307  65.255  1.00  0.00    -0.220 A  
HETATM   44  C   UNL     1      -9.065   4.893  65.336  1.00  0.00    -0.155 A  
ENDBRANCH  37  39
ENDBRANCH   4  35
ENDBRANCH   2   3
TORSDOF 3
ENDMDL
MODEL       31
REMARK 921   NORMALIZED FREE ENERGY PREDICTED BY IDOCK:   -4.94 KCAL/MOL
REMARK 922        TOTAL FREE ENERGY PREDICTED BY IDOCK:   -6.33 KCAL/MOL
REMARK 923 INTER-LIGAND FREE ENERGY PREDICTED BY IDOCK:   -7.18 KCAL/MOL
REMARK 924 INTRA-LIGAND FREE ENERGY PREDICTED BY IDOCK:    0.84 KCAL/MOL
REMARK 927      BINDING AFFINITY PREDICTED BY RF-SCORE:    0.00 PKD
ROOT
HETATM    1  C   UNL     1     -10.783   5.784  70.822  1.00  0.00    -0.271 C  
HETATM    2  O   UNL     1      -9.765   6.770  70.638  1.00  0.00    -0.172 OA 
ENDROOT
BRANCH   2   3
HETATM    3  C   UNL     1      -9.953   7.884  69.676  1.00  0.00    -0.191 C  
HETATM    4  C   UNL     1      -8.728   7.834  68.727  1.00  0.00    -0.128 C  
HETATM    5  C   UNL     1      -7.558   8.585  69.363  1.00  0.00    -0.090 C  
HETATM    6  O   UNL     1      -7.488  15.126  66.738  1.00  0.00    -0.050 OA 
HETATM    7  C   UNL     1      -7.246  10.925  66.170  1.00  0.00    -0.101 A  
HETATM    8  C   UNL     1      -8.472  14.880  67.426  1.00  0.00    -0.195 C  
HETATM    9  C   UNL     1      -7.993   9.847  70.135  1.00  0.00    -0.162 C  
HETATM   10  H   UNL     1      -8.796  16.830  68.199  1.00  0.00     0.000 HD 
HETATM   11  O   UNL     1      -9.125   9.670  71.062  1.00  0.00    -0.180 OA 
HETATM   12  C   UNL     1      -5.922  10.504  66.284  1.00  0.00    -0.094 A  
HETATM   13  C   UNL     1      -5.140  11.007  67.320  1.00  0.00    -0.043 A  
HETATM   14  C   UNL     1     -10.362   9.258  70.437  1.00  0.00    -0.240 C  
HETATM   15  N   UNL     1      -9.101  15.857  68.206  1.00  0.00    -0.182 N  
HETATM   16  N   UNL     1     -10.971  10.547  69.983  1.00  0.00    -0.291 NA 
HETATM   17  C   UNL     1     -11.513   8.664  71.320  1.00  0.00    -0.341 C  
HETATM   18  C   UNL     1      -5.748  11.585  68.443  1.00  0.00    -0.045 A  
HETATM   19  C   UNL     1     -11.953  11.438  70.642  1.00  0.00    -0.314 A  
HETATM   20  C   UNL     1     -11.787  12.833  70.220  1.00  0.00    -0.292 A  
HETATM   21  N   UNL     1      -8.152  10.955  69.199  1.00  0.00    -0.133 NA 
HETATM   22  C   UNL     1     -10.214  15.407  69.026  1.00  0.00    -0.233 C  
HETATM   23  C   UNL     1     -10.811  12.845  69.226  1.00  0.00    -0.040 A  
HETATM   24  C   UNL     1     -12.564  13.858  70.820  1.00  0.00    -0.424 A  
HETATM   25  C   UNL     1     -10.417  11.510  69.202  1.00  0.00    -0.101 A  
HETATM   26  C   UNL     1     -13.534  13.566  71.769  1.00  0.00    -0.461 A  
HETATM   27  C   UNL     1     -13.752  12.256  72.132  1.00  0.00    -0.207 A  
HETATM   28  C   UNL     1      -9.260  11.334  68.498  1.00  0.00    -0.181 A  
HETATM   29  C   UNL     1      -9.073  12.267  67.429  1.00  0.00    -0.184 C  
HETATM   30  C   UNL     1     -12.987  11.206  71.592  1.00  0.00    -0.548 A  
HETATM   31  C   UNL     1      -7.754  11.825  67.143  1.00  0.00    -0.162 A  
HETATM   32  C   UNL     1      -9.215  13.686  67.712  1.00  0.00    -0.214 C  
HETATM   33  C   UNL     1      -7.144  11.619  68.427  1.00  0.00    -0.083 A  
HETATM   34  C   UNL     1     -10.210  13.987  68.661  1.00  0.00    -0.233 A  
BRANCH   4  35
HETATM   35  N   UNL     1      -8.349   6.397  68.264  1.00  0.00    -0.116 N  
HETATM   36  C   UNL     1      -8.445   5.276  69.212  1.00  0.00    -0.101 C  
HETATM   37  C   UNL     1      -8.092   5.967  66.947  1.00  0.00    -0.102 C  
HETATM   38  O   UNL     1      -7.878   4.777  66.657  1.00  0.00    -0.097 OA 
BRANCH  37  39
HETATM   39  C   UNL     1      -7.983   6.901  65.809  1.00  0.00    -0.116 A  
HETATM   40  C   UNL     1      -6.714   7.680  63.894  1.00  0.00    -0.053 A  
HETATM   41  C   UNL     1      -6.843   6.833  65.000  1.00  0.00    -0.050 A  
HETATM   42  C   UNL     1      -7.711   8.604  63.604  1.00  0.00    -0.136 A  
HETATM   43  C   UNL     1      -8.869   8.630  64.384  1.00  0.00     0.095 A  
HETATM   44  C   UNL     1      -9.026   7.741  65.441  1.00  0.00     0.090 A  
ENDBRANCH  37  39
ENDBRANCH   4  35
ENDBRANCH   2   3
TORSDOF 3
ENDMDL
MODEL       32
REMARK 921   NORMALIZED FREE ENERGY PREDICTED BY IDOCK:   -4.93 KCAL/MOL
REMARK 922        TOTAL FREE ENERGY PREDICTED BY IDOCK:   -6.32 KCAL/MOL
REMARK 923 INTER-LIGAND FREE ENERGY PREDICTED BY IDOCK:   -5.66 KCAL/MOL
REMARK 924 INTRA-LIGAND FREE ENERGY PREDICTED BY IDOCK:   -0.66 KCAL/MOL
REMARK 927      BINDING AFFINITY PREDICTED BY RF-SCORE:    0.00 PKD
ROOT
HETATM    1  C   UNL     1      -5.877  10.852  65.908  1.00  0.00    -0.130 C  
HETATM    2  O   UNL     1      -5.774  10.036  67.076  1.00  0.00    -0.046 OA 
ENDROOT
BRANCH   2   3
HETATM    3  C   UNL     1      -6.954   9.302  67.595  1.00  0.00    -0.078 C  
HETATM    4  C   UNL     1      -7.161   9.806  69.046  1.00  0.00    -0.067 C  
HETATM    5  C   UNL     1      -6.257   9.018  69.995  1.00  0.00    -0.037 C  
HETATM    6  O   UNL     1     -10.077   3.805  72.810  1.00  0.00    -0.148 OA 
HETATM    7  C   UNL     1      -9.390   7.949  72.188  1.00  0.00    -0.225 A  
HETATM    8  C   UNL     1      -9.901   3.693  71.602  1.00  0.00    -0.160 C  
HETATM    9  C   UNL     1      -6.127   7.528  69.615  1.00  0.00    -0.030 C  
HETATM   10  H   UNL     1      -9.890   1.573  71.494  1.00  0.00     0.000 HD 
HETATM   11  O   UNL     1      -5.838   7.255  68.196  1.00  0.00    -0.021 OA 
HETATM   12  C   UNL     1      -8.560   8.451  73.191  1.00  0.00    -0.208 A  
HETATM   13  C   UNL     1      -7.441   7.716  73.571  1.00  0.00    -0.136 A  
HETATM   14  C   UNL     1      -6.849   7.714  67.271  1.00  0.00    -0.069 C  
HETATM   15  N   UNL     1      -9.785   2.446  70.978  1.00  0.00    -0.129 N  
HETATM   16  N   UNL     1      -7.844   6.597  67.255  1.00  0.00    -0.111 NA 
HETATM   17  C   UNL     1      -6.501   7.842  65.748  1.00  0.00    -0.042 C  
HETATM   18  C   UNL     1      -6.926   6.727  72.721  1.00  0.00    -0.075 A  
HETATM   19  C   UNL     1      -7.976   5.432  66.351  1.00  0.00    -0.104 A  
HETATM   20  C   UNL     1      -8.603   4.291  67.026  1.00  0.00    -0.104 A  
HETATM   21  N   UNL     1      -7.271   6.794  70.147  1.00  0.00    -0.074 NA 
HETATM   22  C   UNL     1      -9.508   2.465  69.550  1.00  0.00    -0.049 C  
HETATM   23  C   UNL     1      -8.981   4.724  68.294  1.00  0.00    -0.132 A  
HETATM   24  C   UNL     1      -8.721   3.044  66.359  1.00  0.00    -0.133 A  
HETATM   25  C   UNL     1      -8.481   6.024  68.309  1.00  0.00    -0.112 A  
HETATM   26  C   UNL     1      -8.308   2.887  65.043  1.00  0.00    -0.092 A  
HETATM   27  C   UNL     1      -7.776   3.963  64.368  1.00  0.00    -0.080 A  
HETATM   28  C   UNL     1      -8.483   6.554  69.567  1.00  0.00    -0.131 A  
HETATM   29  C   UNL     1      -9.529   6.067  70.411  1.00  0.00    -0.187 C  
HETATM   30  C   UNL     1      -7.607   5.212  64.994  1.00  0.00    -0.082 A  
HETATM   31  C   UNL     1      -9.035   6.722  71.570  1.00  0.00    -0.137 A  
HETATM   32  C   UNL     1      -9.713   4.629  70.531  1.00  0.00    -0.284 C  
HETATM   33  C   UNL     1      -7.610   6.547  71.517  1.00  0.00    -0.094 A  
HETATM   34  C   UNL     1      -9.459   3.916  69.344  1.00  0.00    -0.260 A  
BRANCH   4  35
HETATM   35  N   UNL     1      -7.012  11.347  69.204  1.00  0.00    -0.110 N  
HETATM   36  C   UNL     1      -5.806  11.902  69.836  1.00  0.00    -0.137 C  
HETATM   37  C   UNL     1      -7.826  12.344  68.631  1.00  0.00    -0.049 C  
HETATM   38  O   UNL     1      -7.584  13.558  68.742  1.00  0.00    -0.122 OA 
BRANCH  37  39
HETATM   39  C   UNL     1      -9.078  12.037  67.911  1.00  0.00    -0.183 A  
HETATM   40  C   UNL     1     -11.450  11.540  68.015  1.00  0.00    -0.381 A  
HETATM   41  C   UNL     1     -10.237  11.806  68.660  1.00  0.00    -0.211 A  
HETATM   42  C   UNL     1     -11.505  11.490  66.627  1.00  0.00    -0.205 A  
HETATM   43  C   UNL     1     -10.357  11.773  65.885  1.00  0.00    -0.280 A  
HETATM   44  C   UNL     1      -9.167  12.104  66.526  1.00  0.00    -0.216 A  
ENDBRANCH  37  39
ENDBRANCH   4  35
ENDBRANCH   2   3
TORSDOF 3
ENDMDL
MODEL       33
REMARK 921   NORMALIZED FREE ENERGY PREDICTED BY IDOCK:   -4.92 KCAL/MOL
REMARK 922        TOTAL FREE ENERGY PREDICTED BY IDOCK:   -6.31 KCAL/MOL
REMARK 923 INTER-LIGAND FREE ENERGY PREDICTED BY IDOCK:   -6.46 KCAL/MOL
REMARK 924 INTRA-LIGAND FREE ENERGY PREDICTED BY IDOCK:    0.15 KCAL/MOL
REMARK 927      BINDING AFFINITY PREDICTED BY RF-SCORE:    0.00 PKD
ROOT
HETATM    1  C   UNL     1      -5.176  12.144  67.344  1.00  0.00    -0.110 C  
HETATM    2  O   UNL     1      -6.338  12.244  66.519  1.00  0.00     0.015 OA 
ENDROOT
BRANCH   2   3
HETATM    3  C   UNL     1      -7.398  11.207  66.570  1.00  0.00    -0.129 C  
HETATM    4  C   UNL     1      -8.204  11.490  67.863  1.00  0.00    -0.134 C  
HETATM    5  C   UNL     1      -7.506  10.831  69.055  1.00  0.00    -0.118 C  
HETATM    6  O   UNL     1     -10.608   4.610  70.221  1.00  0.00    -0.022 OA 
HETATM    7  C   UNL     1     -10.819   8.843  69.971  1.00  0.00    -0.239 A  
HETATM    8  C   UNL     1     -10.012   4.673  69.151  1.00  0.00    -0.138 C  
HETATM    9  C   UNL     1      -6.885   9.461  68.714  1.00  0.00    -0.053 C  
HETATM   10  H   UNL     1      -9.431   2.636  69.010  1.00  0.00     0.000 HD 
HETATM   11  O   UNL     1      -6.074   9.417  67.484  1.00  0.00    -0.052 OA 
HETATM   12  C   UNL     1     -10.533   9.409  71.213  1.00  0.00    -0.385 A  
HETATM   13  C   UNL     1      -9.461   8.913  71.950  1.00  0.00    -0.301 A  
HETATM   14  C   UNL     1      -6.793   9.731  66.271  1.00  0.00    -0.092 C  
HETATM   15  N   UNL     1      -9.382   3.561  68.583  1.00  0.00    -0.165 N  
HETATM   16  N   UNL     1      -7.408   8.424  65.879  1.00  0.00    -0.072 NA 
HETATM   17  C   UNL     1      -5.995  10.099  64.973  1.00  0.00    -0.122 C  
HETATM   18  C   UNL     1      -8.458   8.166  71.317  1.00  0.00    -0.154 A  
HETATM   19  C   UNL     1      -6.929   7.365  64.962  1.00  0.00    -0.051 A  
HETATM   20  C   UNL     1      -7.437   6.045  65.347  1.00  0.00    -0.082 A  
HETATM   21  N   UNL     1      -7.916   8.431  68.790  1.00  0.00    -0.118 NA 
HETATM   22  C   UNL     1      -8.652   3.797  67.347  1.00  0.00    -0.103 C  
HETATM   23  C   UNL     1      -8.319   6.240  66.408  1.00  0.00    -0.118 A  
HETATM   24  C   UNL     1      -7.005   4.884  64.655  1.00  0.00    -0.050 A  
HETATM   25  C   UNL     1      -8.198   7.610  66.626  1.00  0.00    -0.124 A  
HETATM   26  C   UNL     1      -6.146   4.970  63.568  1.00  0.00    -0.022 A  
HETATM   27  C   UNL     1      -5.707   6.205  63.149  1.00  0.00    -0.022 A  
HETATM   28  C   UNL     1      -8.759   7.986  67.813  1.00  0.00    -0.127 A  
HETATM   29  C   UNL     1      -9.870   7.183  68.221  1.00  0.00    -0.159 C  
HETATM   30  C   UNL     1      -6.079   7.384  63.820  1.00  0.00    -0.048 A  
HETATM   31  C   UNL     1      -9.979   7.805  69.493  1.00  0.00    -0.187 A  
HETATM   32  C   UNL     1      -9.715   5.738  68.237  1.00  0.00    -0.153 C  
HETATM   33  C   UNL     1      -8.625   7.966  69.945  1.00  0.00    -0.139 A  
HETATM   34  C   UNL     1      -8.904   5.235  67.202  1.00  0.00    -0.109 A  
BRANCH   4  35
HETATM   35  N   UNL     1      -8.511  12.998  68.097  1.00  0.00    -0.171 N  
HETATM   36  C   UNL     1      -7.723  13.760  69.078  1.00  0.00     0.058 C  
HETATM   37  C   UNL     1      -9.355  13.824  67.328  1.00  0.00    -0.239 C  
HETATM   38  O   UNL     1      -9.478  15.043  67.538  1.00  0.00    -0.200 OA 
BRANCH  37  39
HETATM   39  C   UNL     1     -10.224  13.300  66.256  1.00  0.00    -0.296 A  
HETATM   40  C   UNL     1     -12.411  12.496  65.578  1.00  0.00    -0.364 A  
HETATM   41  C   UNL     1     -11.546  12.968  66.572  1.00  0.00    -0.407 A  
HETATM   42  C   UNL     1     -11.954  12.340  64.275  1.00  0.00    -0.489 A  
HETATM   43  C   UNL     1     -10.650  12.722  63.955  1.00  0.00    -0.427 A  
HETATM   44  C   UNL     1      -9.813  13.255  64.930  1.00  0.00    -0.044 A  
ENDBRANCH  37  39
ENDBRANCH   4  35
ENDBRANCH   2   3
TORSDOF 3
ENDMDL
MODEL       34
REMARK 921   NORMALIZED FREE ENERGY PREDICTED BY IDOCK:   -4.90 KCAL/MOL
REMARK 922        TOTAL FREE ENERGY PREDICTED BY IDOCK:   -6.29 KCAL/MOL
REMARK 923 INTER-LIGAND FREE ENERGY PREDICTED BY IDOCK:   -7.49 KCAL/MOL
REMARK 924 INTRA-LIGAND FREE ENERGY PREDICTED BY IDOCK:    1.20 KCAL/MOL
REMARK 927      BINDING AFFINITY PREDICTED BY RF-SCORE:    0.00 PKD
ROOT
HETATM    1  C   UNL     1      -9.656   8.158  73.125  1.00  0.00    -0.237 C  
HETATM    2  O   UNL     1     -10.968   8.349  72.594  1.00  0.00    -0.353 OA 
ENDROOT
BRANCH   2   3
HETATM    3  C   UNL     1     -11.209   8.308  71.131  1.00  0.00    -0.258 C  
HETATM    4  C   UNL     1     -10.548   6.999  70.630  1.00  0.00    -0.225 C  
HETATM    5  C   UNL     1      -9.060   7.243  70.375  1.00  0.00    -0.155 C  
HETATM    6  O   UNL     1      -8.221   8.578  63.505  1.00  0.00    -0.168 OA 
HETATM    7  C   UNL     1      -9.432   5.973  66.631  1.00  0.00    -0.167 A  
HETATM    8  C   UNL     1      -8.864   9.436  64.100  1.00  0.00    -0.182 C  
HETATM    9  C   UNL     1      -8.765   8.635  69.779  1.00  0.00    -0.132 C  
HETATM   10  H   UNL     1      -8.277  11.114  62.940  1.00  0.00     0.000 HD 
HETATM   11  O   UNL     1      -9.419   9.769  70.454  1.00  0.00    -0.247 OA 
HETATM   12  C   UNL     1      -8.355   5.186  67.041  1.00  0.00    -0.107 A  
HETATM   13  C   UNL     1      -7.111   5.786  67.218  1.00  0.00    -0.074 A  
HETATM   14  C   UNL     1     -10.864   9.735  70.437  1.00  0.00    -0.311 C  
HETATM   15  N   UNL     1      -8.814  10.787  63.743  1.00  0.00    -0.159 N  
HETATM   16  N   UNL     1     -11.214  10.353  69.120  1.00  0.00    -0.244 NA 
HETATM   17  C   UNL     1     -11.670  10.642  71.429  1.00  0.00    -0.003 C  
HETATM   18  C   UNL     1      -7.016   7.174  67.384  1.00  0.00    -0.079 A  
HETATM   19  C   UNL     1     -11.544  11.752  68.765  1.00  0.00    -0.307 A  
HETATM   20  C   UNL     1     -11.178  12.059  67.378  1.00  0.00    -0.368 A  
HETATM   21  N   UNL     1      -8.972   8.595  68.335  1.00  0.00    -0.142 NA 
HETATM   22  C   UNL     1      -9.573  11.702  64.582  1.00  0.00    -0.127 C  
HETATM   23  C   UNL     1     -10.733  10.872  66.801  1.00  0.00    -0.309 A  
HETATM   24  C   UNL     1     -11.317  13.380  66.880  1.00  0.00    -0.351 A  
HETATM   25  C   UNL     1     -10.780   9.998  67.883  1.00  0.00    -0.272 A  
HETATM   26  C   UNL     1     -11.855  14.394  67.661  1.00  0.00    -0.412 A  
HETATM   27  C   UNL     1     -12.266  14.113  68.945  1.00  0.00    -0.257 A  
HETATM   28  C   UNL     1     -10.113   8.835  67.624  1.00  0.00    -0.216 A  
HETATM   29  C   UNL     1     -10.123   8.442  66.249  1.00  0.00    -0.136 C  
HETATM   30  C   UNL     1     -12.120  12.828  69.498  1.00  0.00    -0.265 A  
HETATM   31  C   UNL     1      -9.221   7.364  66.447  1.00  0.00    -0.203 A  
HETATM   32  C   UNL     1      -9.729   9.417  65.245  1.00  0.00    -0.184 C  
HETATM   33  C   UNL     1      -8.225   7.873  67.349  1.00  0.00    -0.123 A  
HETATM   34  C   UNL     1     -10.120  10.737  65.540  1.00  0.00    -0.335 A  
BRANCH   4  35
HETATM   35  N   UNL     1     -10.815   5.769  71.545  1.00  0.00    -0.258 N  
HETATM   36  C   UNL     1     -12.184   5.480  71.999  1.00  0.00     0.592 C  
HETATM   37  C   UNL     1      -9.913   4.734  71.865  1.00  0.00    -0.190 C  
HETATM   38  O   UNL     1     -10.238   3.742  72.540  1.00  0.00    -0.165 OA 
BRANCH  37  39
HETATM   39  C   UNL     1      -8.486   4.774  71.489  1.00  0.00    -0.121 A  
HETATM   40  C   UNL     1      -6.239   5.536  71.995  1.00  0.00    -0.039 A  
HETATM   41  C   UNL     1      -7.604   5.497  72.300  1.00  0.00    -0.101 A  
HETATM   42  C   UNL     1      -5.756   4.868  70.876  1.00  0.00    -0.016 A  
HETATM   43  C   UNL     1      -6.633   4.105  70.101  1.00  0.00    -0.033 A  
HETATM   44  C   UNL     1      -7.977   4.012  70.445  1.00  0.00    -0.051 A  
ENDBRANCH  37  39
ENDBRANCH   4  35
ENDBRANCH   2   3
TORSDOF 3
ENDMDL
MODEL       35
REMARK 921   NORMALIZED FREE ENERGY PREDICTED BY IDOCK:   -4.86 KCAL/MOL
REMARK 922        TOTAL FREE ENERGY PREDICTED BY IDOCK:   -6.24 KCAL/MOL
REMARK 923 INTER-LIGAND FREE ENERGY PREDICTED BY IDOCK:   -7.19 KCAL/MOL
REMARK 924 INTRA-LIGAND FREE ENERGY PREDICTED BY IDOCK:    0.94 KCAL/MOL
REMARK 927      BINDING AFFINITY PREDICTED BY RF-SCORE:    0.00 PKD
ROOT
HETATM    1  C   UNL     1     -12.336  14.206  65.594  1.00  0.00    -0.456 C  
HETATM    2  O   UNL     1     -11.213  14.042  64.725  1.00  0.00    -0.344 OA 
ENDROOT
BRANCH   2   3
HETATM    3  C   UNL     1      -9.863  13.765  65.274  1.00  0.00    -0.124 C  
HETATM    4  C   UNL     1      -9.762  12.223  65.391  1.00  0.00    -0.134 C  
HETATM    5  C   UNL     1     -10.387  11.769  66.711  1.00  0.00    -0.251 C  
HETATM    6  O   UNL     1      -5.201  11.008  71.424  1.00  0.00    -0.192 OA 
HETATM    7  C   UNL     1      -7.021   9.931  67.742  1.00  0.00    -0.085 A  
HETATM    8  C   UNL     1      -5.373  12.166  71.060  1.00  0.00    -0.126 C  
HETATM    9  C   UNL     1     -10.111  12.737  67.879  1.00  0.00    -0.231 C  
HETATM   10  H   UNL     1      -4.802  13.136  72.860  1.00  0.00     0.000 HD 
HETATM   11  O   UNL     1     -10.354  14.163  67.596  1.00  0.00    -0.239 OA 
HETATM   12  C   UNL     1      -7.929   8.892  67.944  1.00  0.00    -0.102 A  
HETATM   13  C   UNL     1      -8.791   8.952  69.035  1.00  0.00    -0.136 A  
HETATM   14  C   UNL     1      -9.535  14.720  66.544  1.00  0.00    -0.293 C  
HETATM   15  N   UNL     1      -5.158  13.255  71.911  1.00  0.00    -0.157 N  
HETATM   16  N   UNL     1      -8.271  15.103  67.248  1.00  0.00    -0.192 NA 
HETATM   17  C   UNL     1      -9.947  16.081  65.884  1.00  0.00    -0.380 C  
HETATM   18  C   UNL     1      -9.037  10.176  69.672  1.00  0.00    -0.195 A  
HETATM   19  C   UNL     1      -7.848  16.390  67.846  1.00  0.00    -0.152 A  
HETATM   20  C   UNL     1      -6.913  16.190  68.957  1.00  0.00    -0.178 A  
HETATM   21  N   UNL     1      -8.796  12.452  68.442  1.00  0.00    -0.165 NA 
HETATM   22  C   UNL     1      -5.469  14.568  71.367  1.00  0.00    -0.148 C  
HETATM   23  C   UNL     1      -6.633  14.826  69.015  1.00  0.00    -0.100 A  
HETATM   24  C   UNL     1      -6.473  17.296  69.729  1.00  0.00    -0.077 A  
HETATM   25  C   UNL     1      -7.472  14.325  68.022  1.00  0.00    -0.142 A  
HETATM   26  C   UNL     1      -6.864  18.592  69.420  1.00  0.00    -0.175 A  
HETATM   27  C   UNL     1      -7.690  18.810  68.341  1.00  0.00    -0.344 A  
HETATM   28  C   UNL     1      -7.581  12.966  68.090  1.00  0.00    -0.135 A  
HETATM   29  C   UNL     1      -6.418  12.304  68.595  1.00  0.00    -0.073 C  
HETATM   30  C   UNL     1      -8.180  17.745  67.563  1.00  0.00    -0.228 A  
HETATM   31  C   UNL     1      -7.041  11.029  68.641  1.00  0.00    -0.080 A  
HETATM   32  C   UNL     1      -5.842  12.769  69.846  1.00  0.00    -0.134 C  
HETATM   33  C   UNL     1      -8.364  11.280  69.144  1.00  0.00     0.077 A  
HETATM   34  C   UNL     1      -5.922  14.163  70.033  1.00  0.00    -0.141 A  
BRANCH   4  35
HETATM   35  N   UNL     1     -10.325  11.459  64.157  1.00  0.00    -0.313 N  
HETATM   36  C   UNL     1     -11.607  11.874  63.566  1.00  0.00    -0.441 C  
HETATM   37  C   UNL     1      -9.658  10.498  63.373  1.00  0.00    -0.331 C  
HETATM   38  O   UNL     1     -10.157   9.998  62.350  1.00  0.00     0.268 OA 
BRANCH  37  39
HETATM   39  C   UNL     1      -8.338   9.946  63.739  1.00  0.00    -0.168 A  
HETATM   40  C   UNL     1      -7.058   8.126  64.704  1.00  0.00    -0.080 A  
HETATM   41  C   UNL     1      -8.290   8.697  64.367  1.00  0.00    -0.148 A  
HETATM   42  C   UNL     1      -5.877   8.804  64.428  1.00  0.00    -0.065 A  
HETATM   43  C   UNL     1      -5.929  10.026  63.753  1.00  0.00    -0.130 A  
HETATM   44  C   UNL     1      -7.152  10.560  63.359  1.00  0.00     0.055 A  
ENDBRANCH  37  39
ENDBRANCH   4  35
ENDBRANCH   2   3
TORSDOF 3
ENDMDL
MODEL       36
REMARK 921   NORMALIZED FREE ENERGY PREDICTED BY IDOCK:   -4.82 KCAL/MOL
REMARK 922        TOTAL FREE ENERGY PREDICTED BY IDOCK:   -6.19 KCAL/MOL
REMARK 923 INTER-LIGAND FREE ENERGY PREDICTED BY IDOCK:   -5.78 KCAL/MOL
REMARK 924 INTRA-LIGAND FREE ENERGY PREDICTED BY IDOCK:   -0.41 KCAL/MOL
REMARK 927      BINDING AFFINITY PREDICTED BY RF-SCORE:    0.00 PKD
ROOT
HETATM    1  C   UNL     1      -6.110  10.689  70.516  1.00  0.00    -0.113 C  
HETATM    2  O   UNL     1      -5.873   9.338  70.116  1.00  0.00    -0.030 OA 
ENDROOT
BRANCH   2   3
HETATM    3  C   UNL     1      -6.946   8.536  69.479  1.00  0.00    -0.048 C  
HETATM    4  C   UNL     1      -7.172   7.318  70.411  1.00  0.00    -0.069 C  
HETATM    5  C   UNL     1      -6.159   6.223  70.076  1.00  0.00    -0.030 C  
HETATM    6  O   UNL     1      -9.278   1.631  65.732  1.00  0.00    -0.093 OA 
HETATM    7  C   UNL     1      -9.090   3.610  69.484  1.00  0.00    -0.201 A  
HETATM    8  C   UNL     1      -9.122   2.745  65.245  1.00  0.00    -0.148 C  
HETATM    9  C   UNL     1      -5.869   6.104  68.566  1.00  0.00    -0.013 C  
HETATM   10  H   UNL     1      -8.869   2.157  63.221  1.00  0.00     0.000 HD 
HETATM   11  O   UNL     1      -5.586   7.372  67.870  1.00  0.00    -0.024 OA 
HETATM   12  C   UNL     1      -8.298   2.879  70.369  1.00  0.00    -0.080 A  
HETATM   13  C   UNL     1      -7.092   2.351  69.918  1.00  0.00    -0.033 A  
HETATM   14  C   UNL     1      -6.667   8.331  67.893  1.00  0.00    -0.065 C  
HETATM   15  N   UNL     1      -8.879   2.935  63.880  1.00  0.00    -0.092 N  
HETATM   16  N   UNL     1      -7.526   7.920  66.739  1.00  0.00    -0.089 NA 
HETATM   17  C   UNL     1      -6.375   9.831  67.545  1.00  0.00    -0.064 C  
HETATM   18  C   UNL     1      -6.489   2.863  68.761  1.00  0.00    -0.029 A  
HETATM   19  C   UNL     1      -7.547   8.386  65.334  1.00  0.00    -0.092 A  
HETATM   20  C   UNL     1      -8.019   7.338  64.423  1.00  0.00    -0.106 A  
HETATM   21  N   UNL     1      -6.905   5.292  67.938  1.00  0.00    -0.059 NA 
HETATM   22  C   UNL     1      -8.643   4.306  63.453  1.00  0.00    -0.109 C  
HETATM   23  C   UNL     1      -8.413   6.259  65.211  1.00  0.00    -0.113 A  
HETATM   24  C   UNL     1      -8.011   7.554  63.021  1.00  0.00    -0.111 A  
HETATM   25  C   UNL     1      -8.066   6.700  66.486  1.00  0.00    -0.111 A  
HETATM   26  C   UNL     1      -7.616   8.770  62.481  1.00  0.00    -0.113 A  
HETATM   27  C   UNL     1      -7.230   9.790  63.320  1.00  0.00    -0.121 A  
HETATM   28  C   UNL     1      -8.096   5.685  67.399  1.00  0.00    -0.102 A  
HETATM   29  C   UNL     1      -9.057   4.665  67.116  1.00  0.00    -0.129 C  
HETATM   30  C   UNL     1      -7.190   9.617  64.716  1.00  0.00    -0.119 A  
HETATM   31  C   UNL     1      -8.612   3.816  68.164  1.00  0.00    -0.115 A  
HETATM   32  C   UNL     1      -9.070   4.072  65.788  1.00  0.00    -0.142 C  
HETATM   33  C   UNL     1      -7.178   3.898  68.125  1.00  0.00    -0.059 A  
HETATM   34  C   UNL     1      -8.767   4.976  64.752  1.00  0.00    -0.149 A  
BRANCH   4  35
HETATM   35  N   UNL     1      -7.199   7.680  71.925  1.00  0.00    -0.063 N  
HETATM   36  C   UNL     1      -5.962   7.596  72.716  1.00  0.00    -0.044 C  
HETATM   37  C   UNL     1      -8.252   8.287  72.637  1.00  0.00    -0.162 C  
HETATM   38  O   UNL     1      -8.155   8.618  73.831  1.00  0.00    -0.398 OA 
BRANCH  37  39
HETATM   39  C   UNL     1      -9.587   8.515  72.048  1.00  0.00    -0.371 A  
HETATM   40  C   UNL     1     -11.972   8.077  72.111  1.00  0.00    -0.399 A  
HETATM   41  C   UNL     1     -10.687   7.866  72.621  1.00  0.00    -0.411 A  
HETATM   42  C   UNL     1     -12.160   8.922  71.024  1.00  0.00    -0.278 A  
HETATM   43  C   UNL     1     -11.066   9.608  70.491  1.00  0.00    -0.369 A  
HETATM   44  C   UNL     1      -9.799   9.449  71.042  1.00  0.00    -0.317 A  
ENDBRANCH  37  39
ENDBRANCH   4  35
ENDBRANCH   2   3
TORSDOF 3
ENDMDL
MODEL       37
REMARK 921   NORMALIZED FREE ENERGY PREDICTED BY IDOCK:   -4.80 KCAL/MOL
REMARK 922        TOTAL FREE ENERGY PREDICTED BY IDOCK:   -6.16 KCAL/MOL
REMARK 923 INTER-LIGAND FREE ENERGY PREDICTED BY IDOCK:   -7.34 KCAL/MOL
REMARK 924 INTRA-LIGAND FREE ENERGY PREDICTED BY IDOCK:    1.18 KCAL/MOL
REMARK 927      BINDING AFFINITY PREDICTED BY RF-SCORE:    0.00 PKD
ROOT
HETATM    1  C   UNL     1      -9.843  10.474  64.555  1.00  0.00    -0.337 C  
HETATM    2  O   UNL     1      -8.644  10.688  65.301  1.00  0.00    -0.174 OA 
ENDROOT
BRANCH   2   3
HETATM    3  C   UNL     1      -8.441  10.031  66.616  1.00  0.00    -0.125 C  
HETATM    4  C   UNL     1      -7.686   8.711  66.317  1.00  0.00    -0.098 C  
HETATM    5  C   UNL     1      -8.691   7.623  65.933  1.00  0.00    -0.176 C  
HETATM    6  O   UNL     1     -10.083   3.817  71.700  1.00  0.00    -0.165 OA 
HETATM    7  C   UNL     1      -7.323   5.258  68.814  1.00  0.00    -0.070 A  
HETATM    8  C   UNL     1     -10.471   4.978  71.768  1.00  0.00    -0.176 C  
HETATM    9  C   UNL     1     -10.004   7.697  66.740  1.00  0.00    -0.247 C  
HETATM   10  H   UNL     1     -12.167   4.658  73.004  1.00  0.00     0.000 HD 
HETATM   11  O   UNL     1     -10.620   9.032  66.835  1.00  0.00    -0.248 OA 
HETATM   12  C   UNL     1      -7.257   4.377  67.734  1.00  0.00    -0.065 A  
HETATM   13  C   UNL     1      -8.440   3.858  67.215  1.00  0.00    -0.102 A  
HETATM   14  C   UNL     1      -9.807  10.030  67.493  1.00  0.00    -0.175 C  
HETATM   15  N   UNL     1     -11.623   5.340  72.474  1.00  0.00    -0.158 N  
HETATM   16  N   UNL     1     -10.101   9.821  68.945  1.00  0.00    -0.175 NA 
HETATM   17  C   UNL     1     -10.158  11.548  67.321  1.00  0.00    -0.223 C  
HETATM   18  C   UNL     1      -9.662   4.493  67.477  1.00  0.00    -0.213 A  
HETATM   19  C   UNL     1     -11.087  10.473  69.836  1.00  0.00    -0.307 A  
HETATM   20  C   UNL     1     -11.506   9.582  70.923  1.00  0.00    -0.405 A  
HETATM   21  N   UNL     1      -9.820   7.027  68.023  1.00  0.00    -0.136 NA 
HETATM   22  C   UNL     1     -12.003   6.742  72.411  1.00  0.00    -0.135 C  
HETATM   23  C   UNL     1     -10.736   8.426  70.824  1.00  0.00    -0.244 A  
HETATM   24  C   UNL     1     -12.527   9.985  71.823  1.00  0.00    -0.475 A  
HETATM   25  C   UNL     1     -10.005   8.673  69.665  1.00  0.00    -0.191 A  
HETATM   26  C   UNL     1     -13.108  11.244  71.738  1.00  0.00    -0.527 A  
HETATM   27  C   UNL     1     -12.683  12.121  70.766  1.00  0.00    -0.220 A  
HETATM   28  C   UNL     1      -9.383   7.547  69.207  1.00  0.00    -0.151 A  
HETATM   29  C   UNL     1      -9.011   6.621  70.232  1.00  0.00    -0.152 C  
HETATM   30  C   UNL     1     -11.698  11.758  69.829  1.00  0.00    -0.408 A  
HETATM   31  C   UNL     1      -8.600   5.618  69.315  1.00  0.00    -0.106 A  
HETATM   32  C   UNL     1     -10.016   6.215  71.201  1.00  0.00    -0.218 C  
HETATM   33  C   UNL     1      -9.592   5.636  68.276  1.00  0.00    -0.121 A  
HETATM   34  C   UNL     1     -10.921   7.235  71.553  1.00  0.00    -0.259 A  
BRANCH   4  35
HETATM   35  N   UNL     1      -6.533   8.865  65.283  1.00  0.00    -0.067 N  
HETATM   36  C   UNL     1      -5.496   9.886  65.494  1.00  0.00    -0.055 C  
HETATM   37  C   UNL     1      -6.224   7.998  64.216  1.00  0.00    -0.057 C  
HETATM   38  O   UNL     1      -5.229   8.155  63.487  1.00  0.00    -0.048 OA 
BRANCH  37  39
HETATM   39  C   UNL     1      -7.093   6.870  63.826  1.00  0.00    -0.061 A  
HETATM   40  C   UNL     1      -8.889   6.038  62.423  1.00  0.00     0.210 A  
HETATM   41  C   UNL     1      -8.065   7.088  62.842  1.00  0.00    -0.038 A  
HETATM   42  C   UNL     1      -8.757   4.778  62.994  1.00  0.00    -0.124 A  
HETATM   43  C   UNL     1      -7.751   4.554  63.937  1.00  0.00    -0.076 A  
HETATM   44  C   UNL     1      -6.888   5.582  64.302  1.00  0.00    -0.047 A  
ENDBRANCH  37  39
ENDBRANCH   4  35
ENDBRANCH   2   3
TORSDOF 3
ENDMDL
MODEL       38
REMARK 921   NORMALIZED FREE ENERGY PREDICTED BY IDOCK:   -4.79 KCAL/MOL
REMARK 922        TOTAL FREE ENERGY PREDICTED BY IDOCK:   -6.15 KCAL/MOL
REMARK 923 INTER-LIGAND FREE ENERGY PREDICTED BY IDOCK:   -7.27 KCAL/MOL
REMARK 924 INTRA-LIGAND FREE ENERGY PREDICTED BY IDOCK:    1.12 KCAL/MOL
REMARK 927      BINDING AFFINITY PREDICTED BY RF-SCORE:    0.00 PKD
ROOT
HETATM    1  C   UNL     1      -9.566   7.448  73.908  1.00  0.00    -0.254 C  
HETATM    2  O   UNL     1     -10.849   7.478  73.279  1.00  0.00    -0.386 OA 
ENDROOT
BRANCH   2   3
HETATM    3  C   UNL     1     -10.986   7.232  71.822  1.00  0.00    -0.227 C  
HETATM    4  C   UNL     1     -10.290   5.874  71.555  1.00  0.00    -0.222 C  
HETATM    5  C   UNL     1      -8.788   6.096  71.373  1.00  0.00    -0.139 C  
HETATM    6  O   UNL     1      -7.471   6.475  64.458  1.00  0.00    -0.076 OA 
HETATM    7  C   UNL     1      -8.894   4.315  67.825  1.00  0.00    -0.126 A  
HETATM    8  C   UNL     1      -8.155   7.399  64.883  1.00  0.00    -0.114 C  
HETATM    9  C   UNL     1      -8.454   7.395  70.611  1.00  0.00    -0.136 C  
HETATM   10  H   UNL     1      -7.490   8.906  63.543  1.00  0.00     0.000 HD 
HETATM   11  O   UNL     1      -9.155   8.605  71.075  1.00  0.00    -0.163 OA 
HETATM   12  C   UNL     1      -7.848   3.605  68.414  1.00  0.00    -0.063 A  
HETATM   13  C   UNL     1      -6.621   4.237  68.592  1.00  0.00    -0.045 A  
HETATM   14  C   UNL     1     -10.595   8.552  70.962  1.00  0.00    -0.216 C  
HETATM   15  N   UNL     1      -8.082   8.689  64.345  1.00  0.00    -0.150 N  
HETATM   16  N   UNL     1     -10.853   8.978  69.551  1.00  0.00    -0.207 NA 
HETATM   17  C   UNL     1     -11.470   9.579  71.760  1.00  0.00    -0.349 C  
HETATM   18  C   UNL     1      -6.539   5.636  68.569  1.00  0.00    -0.052 A  
HETATM   19  C   UNL     1     -11.159  10.310  68.982  1.00  0.00    -0.230 A  
HETATM   20  C   UNL     1     -10.697  10.426  67.595  1.00  0.00    -0.335 A  
HETATM   21  N   UNL     1      -8.559   7.153  69.175  1.00  0.00    -0.133 NA 
HETATM   22  C   UNL     1      -8.899   9.703  64.994  1.00  0.00    -0.186 C  
HETATM   23  C   UNL     1     -10.211   9.176  67.221  1.00  0.00    -0.319 A  
HETATM   24  C   UNL     1     -10.803  11.664  66.909  1.00  0.00    -0.322 A  
HETATM   25  C   UNL     1     -10.332   8.459  68.409  1.00  0.00    -0.200 A  
HETATM   26  C   UNL     1     -11.395  12.770  67.503  1.00  0.00    -0.361 A  
HETATM   27  C   UNL     1     -11.895  12.665  68.782  1.00  0.00    -0.341 A  
HETATM   28  C   UNL     1      -9.647   7.279  68.361  1.00  0.00    -0.139 A  
HETATM   29  C   UNL     1      -9.560   6.699  67.056  1.00  0.00    -0.183 C  
HETATM   30  C   UNL     1     -11.786  11.471  69.517  1.00  0.00    -0.419 A  
HETATM   31  C   UNL     1      -8.673   5.669  67.464  1.00  0.00    -0.107 A  
HETATM   32  C   UNL     1      -9.098   7.530  65.956  1.00  0.00    -0.139 C  
HETATM   33  C   UNL     1      -7.743   6.310  68.353  1.00  0.00    -0.104 A  
HETATM   34  C   UNL     1      -9.511   8.874  66.037  1.00  0.00    -0.320 A  
BRANCH   4  35
HETATM   35  N   UNL     1     -10.618   4.779  72.612  1.00  0.00    -0.209 N  
HETATM   36  C   UNL     1     -12.017   4.527  72.990  1.00  0.00     0.194 C  
HETATM   37  C   UNL     1      -9.735   3.821  73.148  1.00  0.00    -0.120 C  
HETATM   38  O   UNL     1     -10.105   2.927  73.929  1.00  0.00    -0.102 OA 
BRANCH  37  39
HETATM   39  C   UNL     1      -8.282   3.839  72.887  1.00  0.00    -0.090 A  
HETATM   40  C   UNL     1      -6.088   4.680  73.490  1.00  0.00    -0.029 A  
HETATM   41  C   UNL     1      -7.473   4.656  73.685  1.00  0.00    -0.082 A  
HETATM   42  C   UNL     1      -5.512   3.904  72.491  1.00  0.00     0.000 A  
HETATM   43  C   UNL     1      -6.318   3.052  71.734  1.00  0.00    -0.015 A  
HETATM   44  C   UNL     1      -7.686   2.978  71.975  1.00  0.00    -0.054 A  
ENDBRANCH  37  39
ENDBRANCH   4  35
ENDBRANCH   2   3
TORSDOF 3
ENDMDL
MODEL       39
REMARK 921   NORMALIZED FREE ENERGY PREDICTED BY IDOCK:   -4.72 KCAL/MOL
REMARK 922        TOTAL FREE ENERGY PREDICTED BY IDOCK:   -6.07 KCAL/MOL
REMARK 923 INTER-LIGAND FREE ENERGY PREDICTED BY IDOCK:   -6.38 KCAL/MOL
REMARK 924 INTRA-LIGAND FREE ENERGY PREDICTED BY IDOCK:    0.31 KCAL/MOL
REMARK 927      BINDING AFFINITY PREDICTED BY RF-SCORE:    0.00 PKD
ROOT
HETATM    1  C   UNL     1      -9.270   4.207  73.416  1.00  0.00    -0.101 C  
HETATM    2  O   UNL     1      -8.449   4.985  72.543  1.00  0.00    -0.118 OA 
ENDROOT
BRANCH   2   3
HETATM    3  C   UNL     1      -8.974   5.478  71.246  1.00  0.00    -0.142 C  
HETATM    4  C   UNL     1      -7.905   5.104  70.188  1.00  0.00    -0.078 C  
HETATM    5  C   UNL     1      -6.820   6.182  70.155  1.00  0.00    -0.057 C  
HETATM    6  O   UNL     1      -8.348  10.640  64.912  1.00  0.00    -0.160 OA 
HETATM    7  C   UNL     1      -7.399   6.728  66.264  1.00  0.00    -0.073 A  
HETATM    8  C   UNL     1      -9.164  10.654  65.827  1.00  0.00    -0.189 C  
HETATM    9  C   UNL     1      -7.375   7.609  70.347  1.00  0.00    -0.071 C  
HETATM   10  H   UNL     1      -9.739  12.693  65.686  1.00  0.00     0.000 HD 
HETATM   11  O   UNL     1      -8.315   7.782  71.468  1.00  0.00    -0.103 OA 
HETATM   12  C   UNL     1      -6.016   6.549  66.274  1.00  0.00    -0.025 A  
HETATM   13  C   UNL     1      -5.208   7.563  66.782  1.00  0.00    -0.023 A  
HETATM   14  C   UNL     1      -9.526   6.999  71.372  1.00  0.00    -0.159 C  
HETATM   15  N   UNL     1      -9.851  11.815  66.195  1.00  0.00    -0.222 N  
HETATM   16  N   UNL     1     -10.424   7.844  70.526  1.00  0.00    -0.211 NA 
HETATM   17  C   UNL     1     -10.412   6.787  72.648  1.00  0.00    -0.240 C  
HETATM   18  C   UNL     1      -5.753   8.543  67.622  1.00  0.00    -0.039 A  
HETATM   19  C   UNL     1     -11.456   8.838  70.901  1.00  0.00    -0.284 A  
HETATM   20  C   UNL     1     -11.616   9.869  69.871  1.00  0.00    -0.184 A  
HETATM   21  N   UNL     1      -7.868   8.111  69.068  1.00  0.00    -0.106 NA 
HETATM   22  C   UNL     1     -10.736  11.703  67.344  1.00  0.00    -0.234 C  
HETATM   23  C   UNL     1     -10.805   9.503  68.798  1.00  0.00    -0.173 A  
HETATM   24  C   UNL     1     -12.481  10.971  70.092  1.00  0.00    -0.344 A  
HETATM   25  C   UNL     1     -10.174   8.366  69.297  1.00  0.00    -0.208 A  
HETATM   26  C   UNL     1     -13.239  11.072  71.251  1.00  0.00    -0.253 A  
HETATM   27  C   UNL     1     -13.154  10.081  72.203  1.00  0.00    -0.482 A  
HETATM   28  C   UNL     1      -9.113   7.994  68.522  1.00  0.00    -0.136 A  
HETATM   29  C   UNL     1      -9.254   8.315  67.135  1.00  0.00    -0.175 C  
HETATM   30  C   UNL     1     -12.287   8.985  72.047  1.00  0.00    -0.455 A  
HETATM   31  C   UNL     1      -7.928   7.927  66.808  1.00  0.00    -0.107 A  
HETATM   32  C   UNL     1      -9.621   9.674  66.770  1.00  0.00    -0.225 C  
HETATM   33  C   UNL     1      -7.119   8.423  67.887  1.00  0.00    -0.083 A  
HETATM   34  C   UNL     1     -10.515  10.290  67.667  1.00  0.00    -0.285 A  
BRANCH   4  35
HETATM   35  N   UNL     1      -7.329   3.668  70.355  1.00  0.00    -0.041 N  
HETATM   36  C   UNL     1      -6.833   3.229  71.669  1.00  0.00    -0.030 C  
HETATM   37  C   UNL     1      -7.390   2.613  69.424  1.00  0.00    -0.044 C  
HETATM   38  O   UNL     1      -6.975   1.468  69.675  1.00  0.00    -0.032 OA 
BRANCH  37  39
HETATM   39  C   UNL     1      -7.884   2.793  68.044  1.00  0.00    -0.059 A  
HETATM   40  C   UNL     1      -9.750   3.254  66.564  1.00  0.00     0.077 A  
HETATM   41  C   UNL     1      -9.247   3.049  67.853  1.00  0.00    -0.247 A  
HETATM   42  C   UNL     1      -8.901   3.190  65.466  1.00  0.00    -0.138 A  
HETATM   43  C   UNL     1      -7.534   2.987  65.668  1.00  0.00    -0.073 A  
HETATM   44  C   UNL     1      -7.024   2.851  66.955  1.00  0.00    -0.049 A  
ENDBRANCH  37  39
ENDBRANCH   4  35
ENDBRANCH   2   3
TORSDOF 3
ENDMDL
MODEL       40
REMARK 921   NORMALIZED FREE ENERGY PREDICTED BY IDOCK:   -4.69 KCAL/MOL
REMARK 922        TOTAL FREE ENERGY PREDICTED BY IDOCK:   -6.04 KCAL/MOL
REMARK 923 INTER-LIGAND FREE ENERGY PREDICTED BY IDOCK:   -6.49 KCAL/MOL
REMARK 924 INTRA-LIGAND FREE ENERGY PREDICTED BY IDOCK:    0.45 KCAL/MOL
REMARK 927      BINDING AFFINITY PREDICTED BY RF-SCORE:    0.00 PKD
ROOT
HETATM    1  C   UNL     1      -7.304   6.949  64.256  1.00  0.00    -0.085 C  
HETATM    2  O   UNL     1      -8.066   6.495  65.376  1.00  0.00    -0.117 OA 
ENDROOT
BRANCH   2   3
HETATM    3  C   UNL     1      -8.204   7.334  66.592  1.00  0.00    -0.118 C  
HETATM    4  C   UNL     1      -8.195   6.350  67.789  1.00  0.00    -0.118 C  
HETATM    5  C   UNL     1      -9.606   5.803  68.011  1.00  0.00    -0.131 C  
HETATM    6  O   UNL     1     -12.656   9.645  73.073  1.00  0.00     0.450 OA 
HETATM    7  C   UNL     1      -9.558   7.043  71.783  1.00  0.00    -0.161 A  
HETATM    8  C   UNL     1     -12.423  10.274  72.046  1.00  0.00    -0.118 C  
HETATM    9  C   UNL     1     -10.710   6.853  67.773  1.00  0.00    -0.254 C  
HETATM   10  H   UNL     1     -14.052  11.632  72.149  1.00  0.00     0.000 HD 
HETATM   11  O   UNL     1     -10.592   7.632  66.527  1.00  0.00    -0.174 OA 
HETATM   12  C   UNL     1      -9.939   5.716  71.976  1.00  0.00    -0.217 A  
HETATM   13  C   UNL     1     -11.226   5.325  71.621  1.00  0.00     0.038 A  
HETATM   14  C   UNL     1      -9.391   8.429  66.421  1.00  0.00    -0.214 C  
HETATM   15  N   UNL     1     -13.247  11.317  71.608  1.00  0.00    -0.393 N  
HETATM   16  N   UNL     1      -9.742   9.691  67.144  1.00  0.00    -0.166 NA 
HETATM   17  C   UNL     1      -8.953   8.984  65.022  1.00  0.00    -0.198 C  
HETATM   18  C   UNL     1     -11.979   6.105  70.732  1.00  0.00     0.069 A  
HETATM   19  C   UNL     1     -10.277  10.977  66.642  1.00  0.00    -0.235 A  
HETATM   20  C   UNL     1     -11.074  11.667  67.662  1.00  0.00    -0.314 A  
HETATM   21  N   UNL     1     -10.871   7.665  68.975  1.00  0.00    -0.108 NA 
HETATM   22  C   UNL     1     -12.891  11.927  70.337  1.00  0.00     0.181 C  
HETATM   23  C   UNL     1     -10.969  10.923  68.834  1.00  0.00    -0.278 A  
HETATM   24  C   UNL     1     -11.761  12.866  67.340  1.00  0.00    -0.428 A  
HETATM   25  C   UNL     1     -10.217   9.830  68.409  1.00  0.00    -0.185 A  
HETATM   26  C   UNL     1     -11.651  13.446  66.083  1.00  0.00    -0.378 A  
HETATM   27  C   UNL     1     -10.856  12.850  65.131  1.00  0.00    -0.320 A  
HETATM   28  C   UNL     1     -10.230   8.818  69.325  1.00  0.00    -0.210 A  
HETATM   29  C   UNL     1     -10.354   9.251  70.682  1.00  0.00    -0.326 C  
HETATM   30  C   UNL     1     -10.179  11.643  65.388  1.00  0.00    -0.306 A  
HETATM   31  C   UNL     1     -10.492   7.935  71.195  1.00  0.00    -0.230 A  
HETATM   32  C   UNL     1     -11.424  10.175  71.021  1.00  0.00    -0.436 C  
HETATM   33  C   UNL     1     -11.354   7.262  70.262  1.00  0.00    -0.238 A  
HETATM   34  C   UNL     1     -11.710  11.119  70.016  1.00  0.00    -0.438 A  
BRANCH   4  35
HETATM   35  N   UNL     1      -7.120   5.230  67.675  1.00  0.00    -0.066 N  
HETATM   36  C   UNL     1      -6.972   4.486  66.415  1.00  0.00    -0.059 C  
HETATM   37  C   UNL     1      -6.092   4.940  68.594  1.00  0.00    -0.030 C  
HETATM   38  O   UNL     1      -5.222   4.078  68.382  1.00  0.00    -0.010 OA 
BRANCH  37  39
HETATM   39  C   UNL     1      -6.001   5.584  69.920  1.00  0.00    -0.021 A  
HETATM   40  C   UNL     1      -6.114   5.362  72.333  1.00  0.00    -0.031 A  
HETATM   41  C   UNL     1      -6.220   4.798  71.057  1.00  0.00    -0.019 A  
HETATM   42  C   UNL     1      -5.807   6.710  72.475  1.00  0.00    -0.038 A  
HETATM   43  C   UNL     1      -5.539   7.476  71.339  1.00  0.00    -0.035 A  
HETATM   44  C   UNL     1      -5.577   6.897  70.074  1.00  0.00    -0.023 A  
ENDBRANCH  37  39
ENDBRANCH   4  35
ENDBRANCH   2   3
TORSDOF 3
ENDMDL
MODEL       41
REMARK 921   NORMALIZED FREE ENERGY PREDICTED BY IDOCK:   -4.68 KCAL/MOL
REMARK 922        TOTAL FREE ENERGY PREDICTED BY IDOCK:   -6.02 KCAL/MOL
REMARK 923 INTER-LIGAND FREE ENERGY PREDICTED BY IDOCK:   -6.81 KCAL/MOL
REMARK 924 INTRA-LIGAND FREE ENERGY PREDICTED BY IDOCK:    0.78 KCAL/MOL
REMARK 927      BINDING AFFINITY PREDICTED BY RF-SCORE:    0.00 PKD
ROOT
HETATM    1  C   UNL     1      -5.393  10.996  65.520  1.00  0.00    -0.068 C  
HETATM    2  O   UNL     1      -6.759  11.210  65.158  1.00  0.00     0.314 OA 
ENDROOT
BRANCH   2   3
HETATM    3  C   UNL     1      -7.823  10.291  65.632  1.00  0.00    -0.151 C  
HETATM    4  C   UNL     1      -8.185  10.766  67.061  1.00  0.00    -0.126 C  
HETATM    5  C   UNL     1      -7.211  10.151  68.067  1.00  0.00    -0.085 C  
HETATM    6  O   UNL     1     -10.239   4.395  70.785  1.00  0.00    -0.172 OA 
HETATM    7  C   UNL     1     -10.227   8.589  70.124  1.00  0.00    -0.202 A  
HETATM    8  C   UNL     1      -9.985   4.303  69.589  1.00  0.00    -0.079 C  
HETATM    9  C   UNL     1      -6.814   8.701  67.721  1.00  0.00    -0.067 C  
HETATM   10  H   UNL     1      -9.613   2.214  69.520  1.00  0.00     0.000 HD 
HETATM   11  O   UNL     1      -6.411   8.468  66.322  1.00  0.00    -0.055 OA 
HETATM   12  C   UNL     1      -9.546   9.233  71.157  1.00  0.00    -0.305 A  
HETATM   13  C   UNL     1      -8.340   8.701  71.604  1.00  0.00    -0.216 A  
HETATM   14  C   UNL     1      -7.436   8.741  65.341  1.00  0.00    -0.086 C  
HETATM   15  N   UNL     1      -9.630   3.088  68.993  1.00  0.00    -0.090 N  
HETATM   16  N   UNL     1      -8.227   7.472  65.296  1.00  0.00    -0.134 NA 
HETATM   17  C   UNL     1      -7.038   8.912  63.835  1.00  0.00    -0.091 C  
HETATM   18  C   UNL     1      -7.624   7.806  70.797  1.00  0.00    -0.078 A  
HETATM   19  C   UNL     1      -8.115   6.293  64.408  1.00  0.00    -0.091 A  
HETATM   20  C   UNL     1      -8.575   5.069  65.071  1.00  0.00    -0.149 A  
HETATM   21  N   UNL     1      -7.843   7.789  68.209  1.00  0.00    -0.119 NA 
HETATM   22  C   UNL     1      -9.288   3.140  67.581  1.00  0.00    -0.200 C  
HETATM   23  C   UNL     1      -9.085   5.444  66.312  1.00  0.00    -0.144 A  
HETATM   24  C   UNL     1      -8.448   3.814  64.422  1.00  0.00    -0.097 A  
HETATM   25  C   UNL     1      -8.812   6.809  66.328  1.00  0.00    -0.147 A  
HETATM   26  C   UNL     1      -7.947   3.717  63.130  1.00  0.00    -0.072 A  
HETATM   27  C   UNL     1      -7.571   4.861  62.464  1.00  0.00    -0.055 A  
HETATM   28  C   UNL     1      -8.966   7.343  67.575  1.00  0.00    -0.126 A  
HETATM   29  C   UNL     1      -9.958   6.694  68.376  1.00  0.00    -0.146 C  
HETATM   30  C   UNL     1      -7.646   6.126  63.074  1.00  0.00    -0.082 A  
HETATM   31  C   UNL     1      -9.641   7.434  69.546  1.00  0.00    -0.155 A  
HETATM   32  C   UNL     1      -9.903   5.247  68.512  1.00  0.00    -0.210 C  
HETATM   33  C   UNL     1      -8.205   7.501  69.565  1.00  0.00    -0.130 A  
HETATM   34  C   UNL     1      -9.473   4.576  67.351  1.00  0.00    -0.189 A  
BRANCH   4  35
HETATM   35  N   UNL     1      -8.306  12.312  67.199  1.00  0.00    -0.180 N  
HETATM   36  C   UNL     1      -7.318  13.052  67.999  1.00  0.00    -0.123 C  
HETATM   37  C   UNL     1      -9.163  13.167  66.478  1.00  0.00    -0.177 C  
HETATM   38  O   UNL     1      -9.134  14.404  66.594  1.00  0.00    -0.260 OA 
BRANCH  37  39
HETATM   39  C   UNL     1     -10.220  12.664  65.578  1.00  0.00    -0.298 A  
HETATM   40  C   UNL     1     -12.580  12.544  65.031  1.00  0.00    -0.424 A  
HETATM   41  C   UNL     1     -11.551  12.976  65.874  1.00  0.00    -0.405 A  
HETATM   42  C   UNL     1     -12.285  11.789  63.902  1.00  0.00    -0.403 A  
HETATM   43  C   UNL     1     -10.951  11.526  63.583  1.00  0.00    -0.482 A  
HETATM   44  C   UNL     1      -9.925  12.015  64.386  1.00  0.00    -0.254 A  
ENDBRANCH  37  39
ENDBRANCH   4  35
ENDBRANCH   2   3
TORSDOF 3
ENDMDL
MODEL       42
REMARK 921   NORMALIZED FREE ENERGY PREDICTED BY IDOCK:   -4.65 KCAL/MOL
REMARK 922        TOTAL FREE ENERGY PREDICTED BY IDOCK:   -6.00 KCAL/MOL
REMARK 923 INTER-LIGAND FREE ENERGY PREDICTED BY IDOCK:   -6.82 KCAL/MOL
REMARK 924 INTRA-LIGAND FREE ENERGY PREDICTED BY IDOCK:    0.82 KCAL/MOL
REMARK 927      BINDING AFFINITY PREDICTED BY RF-SCORE:    0.00 PKD
ROOT
HETATM    1  C   UNL     1      -6.888   6.399  72.711  1.00  0.00    -0.070 C  
HETATM    2  O   UNL     1      -8.216   6.914  72.600  1.00  0.00    -0.109 OA 
ENDROOT
BRANCH   2   3
HETATM    3  C   UNL     1      -8.718   7.448  71.310  1.00  0.00    -0.126 C  
HETATM    4  C   UNL     1      -9.423   6.260  70.607  1.00  0.00    -0.168 C  
HETATM    5  C   UNL     1      -8.387   5.424  69.854  1.00  0.00    -0.100 C  
HETATM    6  O   UNL     1      -8.385   7.513  63.122  1.00  0.00    -0.028 OA 
HETATM    7  C   UNL     1     -10.412   5.857  66.466  1.00  0.00    -0.251 A  
HETATM    8  C   UNL     1      -7.992   8.370  63.906  1.00  0.00    -0.158 C  
HETATM    9  C   UNL     1      -7.280   6.274  69.197  1.00  0.00    -0.087 C  
HETATM   10  H   UNL     1      -6.615   9.347  62.619  1.00  0.00     0.000 HD 
HETATM   11  O   UNL     1      -6.666   7.298  70.061  1.00  0.00    -0.048 OA 
HETATM   12  C   UNL     1     -10.263   4.471  66.475  1.00  0.00    -0.224 A  
HETATM   13  C   UNL     1      -9.009   3.925  66.214  1.00  0.00    -0.132 A  
HETATM   14  C   UNL     1      -7.577   8.311  70.544  1.00  0.00    -0.076 C  
HETATM   15  N   UNL     1      -7.013   9.306  63.558  1.00  0.00    -0.090 N  
HETATM   16  N   UNL     1      -7.612   9.311  69.431  1.00  0.00    -0.077 NA 
HETATM   17  C   UNL     1      -7.158   9.211  71.756  1.00  0.00     0.122 C  
HETATM   18  C   UNL     1      -7.858   4.714  66.341  1.00  0.00    -0.099 A  
HETATM   19  C   UNL     1      -6.828  10.548  69.216  1.00  0.00    -0.079 A  
HETATM   20  C   UNL     1      -6.679  10.854  67.790  1.00  0.00    -0.064 A  
HETATM   21  N   UNL     1      -7.757   6.779  67.914  1.00  0.00    -0.110 NA 
HETATM   22  C   UNL     1      -6.592  10.218  64.610  1.00  0.00    -0.092 C  
HETATM   23  C   UNL     1      -7.439   9.919  67.090  1.00  0.00    -0.091 A  
HETATM   24  C   UNL     1      -5.869  11.942  67.374  1.00  0.00    -0.115 A  
HETATM   25  C   UNL     1      -7.892   9.098  68.119  1.00  0.00    -0.099 A  
HETATM   26  C   UNL     1      -5.252  12.776  68.297  1.00  0.00    -0.069 A  
HETATM   27  C   UNL     1      -5.431  12.547  69.642  1.00  0.00    -0.085 A  
HETATM   28  C   UNL     1      -8.428   7.936  67.642  1.00  0.00    -0.127 A  
HETATM   29  C   UNL     1      -9.039   8.053  66.354  1.00  0.00    -0.226 C  
HETATM   30  C   UNL     1      -6.197  11.462  70.107  1.00  0.00    -0.138 A  
HETATM   31  C   UNL     1      -9.265   6.658  66.224  1.00  0.00    -0.158 A  
HETATM   32  C   UNL     1      -8.280   8.671  65.279  1.00  0.00    -0.148 C  
HETATM   33  C   UNL     1      -8.070   6.039  66.728  1.00  0.00    -0.105 A  
HETATM   34  C   UNL     1      -7.448   9.728  65.695  1.00  0.00    -0.110 A  
BRANCH   4  35
HETATM   35  N   UNL     1     -10.318   5.409  71.554  1.00  0.00    -0.218 N  
HETATM   36  C   UNL     1      -9.838   4.105  72.036  1.00  0.00    -0.174 C  
HETATM   37  C   UNL     1     -11.504   5.815  72.197  1.00  0.00    -0.235 C  
HETATM   38  O   UNL     1     -12.113   5.094  73.007  1.00  0.00    -0.176 OA 
BRANCH  37  39
HETATM   39  C   UNL     1     -12.167   7.103  71.910  1.00  0.00    -0.358 A  
HETATM   40  C   UNL     1     -14.203   8.294  71.340  1.00  0.00    -0.427 A  
HETATM   41  C   UNL     1     -13.530   7.093  71.590  1.00  0.00    -0.397 A  
HETATM   42  C   UNL     1     -13.516   9.501  71.393  1.00  0.00    -0.405 A  
HETATM   43  C   UNL     1     -12.170   9.508  71.765  1.00  0.00    -0.465 A  
HETATM   44  C   UNL     1     -11.520   8.320  72.080  1.00  0.00    -0.427 A  
ENDBRANCH  37  39
ENDBRANCH   4  35
ENDBRANCH   2   3
TORSDOF 3
ENDMDL
MODEL       43
REMARK 921   NORMALIZED FREE ENERGY PREDICTED BY IDOCK:   -4.64 KCAL/MOL
REMARK 922        TOTAL FREE ENERGY PREDICTED BY IDOCK:   -5.98 KCAL/MOL
REMARK 923 INTER-LIGAND FREE ENERGY PREDICTED BY IDOCK:   -6.82 KCAL/MOL
REMARK 924 INTRA-LIGAND FREE ENERGY PREDICTED BY IDOCK:    0.84 KCAL/MOL
REMARK 927      BINDING AFFINITY PREDICTED BY RF-SCORE:    0.00 PKD
ROOT
HETATM    1  C   UNL     1     -11.998   8.427  71.653  1.00  0.00    -0.307 C  
HETATM    2  O   UNL     1     -10.719   8.484  71.021  1.00  0.00    -0.214 OA 
ENDROOT
BRANCH   2   3
HETATM    3  C   UNL     1     -10.577   8.218  69.568  1.00  0.00    -0.213 C  
HETATM    4  C   UNL     1      -9.542   7.071  69.448  1.00  0.00    -0.155 C  
HETATM    5  C   UNL     1      -8.128   7.652  69.475  1.00  0.00    -0.127 C  
HETATM    6  O   UNL     1      -5.939   8.365  62.813  1.00  0.00    -0.081 OA 
HETATM    7  C   UNL     1      -7.279   5.911  66.009  1.00  0.00    -0.075 A  
HETATM    8  C   UNL     1      -6.881   9.094  63.105  1.00  0.00    -0.089 C  
HETATM    9  C   UNL     1      -8.009   8.996  68.728  1.00  0.00    -0.101 C  
HETATM   10  H   UNL     1      -6.410  10.722  61.827  1.00  0.00     0.000 HD 
HETATM   11  O   UNL     1      -9.042   9.997  69.047  1.00  0.00    -0.151 OA 
HETATM   12  C   UNL     1      -6.191   5.475  66.764  1.00  0.00    -0.035 A  
HETATM   13  C   UNL     1      -5.192   6.386  67.096  1.00  0.00    -0.008 A  
HETATM   14  C   UNL     1     -10.394   9.597  68.731  1.00  0.00    -0.213 C  
HETATM   15  N   UNL     1      -7.043  10.364  62.542  1.00  0.00    -0.143 N  
HETATM   16  N   UNL     1     -10.536   9.952  67.284  1.00  0.00    -0.248 NA 
HETATM   17  C   UNL     1     -11.598  10.377  69.362  1.00  0.00    -0.272 C  
HETATM   18  C   UNL     1      -5.448   7.763  67.040  1.00  0.00    -0.032 A  
HETATM   19  C   UNL     1     -11.067  11.172  66.635  1.00  0.00    -0.189 A  
HETATM   20  C   UNL     1     -10.448  11.402  65.326  1.00  0.00    -0.340 A  
HETATM   21  N   UNL     1      -7.840   8.741  67.301  1.00  0.00    -0.097 NA 
HETATM   22  C   UNL     1      -8.166  11.147  63.034  1.00  0.00     0.191 C  
HETATM   23  C   UNL     1      -9.625  10.308  65.065  1.00  0.00    -0.346 A  
HETATM   24  C   UNL     1     -10.747  12.579  64.592  1.00  0.00    -0.341 A  
HETATM   25  C   UNL     1      -9.743   9.580  66.246  1.00  0.00    -0.245 A  
HETATM   26  C   UNL     1     -11.669  13.506  65.059  1.00  0.00    -0.354 A  
HETATM   27  C   UNL     1     -12.311  13.278  66.255  1.00  0.00    -0.382 A  
HETATM   28  C   UNL     1      -8.795   8.602  66.335  1.00  0.00    -0.140 A  
HETATM   29  C   UNL     1      -8.380   8.065  65.076  1.00  0.00    -0.121 C  
HETATM   30  C   UNL     1     -12.027  12.143  67.036  1.00  0.00    -0.156 A  
HETATM   31  C   UNL     1      -7.340   7.280  65.640  1.00  0.00    -0.075 A  
HETATM   32  C   UNL     1      -7.975   8.987  64.027  1.00  0.00    -0.145 C  
HETATM   33  C   UNL     1      -6.733   8.124  66.632  1.00  0.00    -0.063 A  
HETATM   34  C   UNL     1      -8.707  10.190  64.004  1.00  0.00    -0.224 A  
BRANCH   4  35
HETATM   35  N   UNL     1      -9.749   5.925  70.482  1.00  0.00    -0.171 N  
HETATM   36  C   UNL     1     -10.099   6.253  71.872  1.00  0.00    -0.181 C  
HETATM   37  C   UNL     1      -9.835   4.544  70.217  1.00  0.00    -0.229 C  
HETATM   38  O   UNL     1     -10.086   3.704  71.097  1.00  0.00    -0.112 OA 
BRANCH  37  39
HETATM   39  C   UNL     1      -9.562   3.968  68.885  1.00  0.00    -0.213 A  
HETATM   40  C   UNL     1     -10.001   3.987  66.499  1.00  0.00    -0.099 A  
HETATM   41  C   UNL     1     -10.252   4.485  67.782  1.00  0.00     0.022 A  
HETATM   42  C   UNL     1      -9.077   2.966  66.316  1.00  0.00    -0.140 A  
HETATM   43  C   UNL     1      -8.354   2.491  67.413  1.00  0.00    -0.094 A  
HETATM   44  C   UNL     1      -8.556   3.035  68.678  1.00  0.00    -0.113 A  
ENDBRANCH  37  39
ENDBRANCH   4  35
ENDBRANCH   2   3
TORSDOF 3
ENDMDL
MODEL       44
REMARK 921   NORMALIZED FREE ENERGY PREDICTED BY IDOCK:   -4.63 KCAL/MOL
REMARK 922        TOTAL FREE ENERGY PREDICTED BY IDOCK:   -5.97 KCAL/MOL
REMARK 923 INTER-LIGAND FREE ENERGY PREDICTED BY IDOCK:   -6.20 KCAL/MOL
REMARK 924 INTRA-LIGAND FREE ENERGY PREDICTED BY IDOCK:    0.23 KCAL/MOL
REMARK 927      BINDING AFFINITY PREDICTED BY RF-SCORE:    0.00 PKD
ROOT
HETATM    1  C   UNL     1      -6.273   8.341  71.820  1.00  0.00    -0.050 C  
HETATM    2  O   UNL     1      -7.693   8.464  71.718  1.00  0.00    -0.099 OA 
ENDROOT
BRANCH   2   3
HETATM    3  C   UNL     1      -8.446   7.731  70.671  1.00  0.00    -0.126 C  
HETATM    4  C   UNL     1      -8.572   6.274  71.183  1.00  0.00    -0.125 C  
HETATM    5  C   UNL     1      -7.309   5.492  70.818  1.00  0.00    -0.083 C  
HETATM    6  O   UNL     1      -8.588   1.962  64.852  1.00  0.00    -0.090 OA 
HETATM    7  C   UNL     1      -9.478   2.756  68.927  1.00  0.00    -0.171 A  
HETATM    8  C   UNL     1      -8.585   3.181  64.715  1.00  0.00    -0.100 C  
HETATM    9  C   UNL     1      -6.741   5.868  69.434  1.00  0.00    -0.060 C  
HETATM   10  H   UNL     1      -7.864   3.258  62.720  1.00  0.00     0.000 HD 
HETATM   11  O   UNL     1      -6.612   7.312  69.168  1.00  0.00    -0.039 OA 
HETATM   12  C   UNL     1      -8.719   1.926  69.752  1.00  0.00    -0.108 A  
HETATM   13  C   UNL     1      -7.369   1.744  69.466  1.00  0.00    -0.039 A  
HETATM   14  C   UNL     1      -7.857   8.046  69.191  1.00  0.00    -0.108 C  
HETATM   15  N   UNL     1      -8.152   3.798  63.537  1.00  0.00    -0.087 N  
HETATM   16  N   UNL     1      -8.395   7.867  67.807  1.00  0.00    -0.128 NA 
HETATM   17  C   UNL     1      -7.829   9.609  69.314  1.00  0.00    -0.098 C  
HETATM   18  C   UNL     1      -6.693   2.658  68.647  1.00  0.00    -0.036 A  
HETATM   19  C   UNL     1      -8.266   8.716  66.601  1.00  0.00    -0.107 A  
HETATM   20  C   UNL     1      -8.342   7.924  65.369  1.00  0.00    -0.146 A  
HETATM   21  N   UNL     1      -7.458   5.129  68.401  1.00  0.00    -0.074 NA 
HETATM   22  C   UNL     1      -8.137   5.252  63.540  1.00  0.00    -0.115 C  
HETATM   23  C   UNL     1      -8.633   6.614  65.744  1.00  0.00    -0.147 A  
HETATM   24  C   UNL     1      -8.133   8.540  64.109  1.00  0.00    -0.154 A  
HETATM   25  C   UNL     1      -8.615   6.708  67.134  1.00  0.00    -0.112 A  
HETATM   26  C   UNL     1      -7.913   9.907  64.002  1.00  0.00    -0.150 A  
HETATM   27  C   UNL     1      -7.903  10.682  65.140  1.00  0.00    -0.015 A  
HETATM   28  C   UNL     1      -8.591   5.478  67.725  1.00  0.00    -0.108 A  
HETATM   29  C   UNL     1      -9.252   4.452  66.980  1.00  0.00    -0.154 C  
HETATM   30  C   UNL     1      -8.072  10.114  66.416  1.00  0.00    -0.122 A  
HETATM   31  C   UNL     1      -8.831   3.410  67.848  1.00  0.00    -0.152 A  
HETATM   32  C   UNL     1      -8.909   4.281  65.577  1.00  0.00    -0.124 C  
HETATM   33  C   UNL     1      -7.461   3.717  68.158  1.00  0.00    -0.061 A  
HETATM   34  C   UNL     1      -8.624   5.484  64.904  1.00  0.00    -0.111 A  
BRANCH   4  35
HETATM   35  N   UNL     1      -8.939   6.167  72.692  1.00  0.00    -0.131 N  
HETATM   36  C   UNL     1      -7.946   5.653  73.649  1.00  0.00    -0.108 C  
HETATM   37  C   UNL     1     -10.078   6.694  73.331  1.00  0.00    -0.228 C  
HETATM   38  O   UNL     1     -10.250   6.633  74.561  1.00  0.00    -0.356 OA 
BRANCH  37  39
HETATM   39  C   UNL     1     -11.203   7.298  72.588  1.00  0.00    -0.355 A  
HETATM   40  C   UNL     1     -12.194   9.277  71.596  1.00  0.00    -0.445 A  
HETATM   41  C   UNL     1     -11.163   8.671  72.322  1.00  0.00    -0.399 A  
HETATM   42  C   UNL     1     -13.270   8.519  71.149  1.00  0.00    -0.051 A  
HETATM   43  C   UNL     1     -13.277   7.141  71.372  1.00  0.00    -0.391 A  
HETATM   44  C   UNL     1     -12.218   6.529  72.035  1.00  0.00    -0.343 A  
ENDBRANCH  37  39
ENDBRANCH   4  35
ENDBRANCH   2   3
TORSDOF 3
ENDMDL
MODEL       45
REMARK 921   NORMALIZED FREE ENERGY PREDICTED BY IDOCK:   -4.55 KCAL/MOL
REMARK 922        TOTAL FREE ENERGY PREDICTED BY IDOCK:   -5.87 KCAL/MOL
REMARK 923 INTER-LIGAND FREE ENERGY PREDICTED BY IDOCK:   -6.90 KCAL/MOL
REMARK 924 INTRA-LIGAND FREE ENERGY PREDICTED BY IDOCK:    1.03 KCAL/MOL
REMARK 927      BINDING AFFINITY PREDICTED BY RF-SCORE:    0.00 PKD
ROOT
HETATM    1  C   UNL     1     -12.154  14.524  67.036  1.00  0.00    -0.273 C  
HETATM    2  O   UNL     1     -11.060  14.485  66.118  1.00  0.00    -0.322 OA 
ENDROOT
BRANCH   2   3
HETATM    3  C   UNL     1      -9.866  13.649  66.395  1.00  0.00    -0.296 C  
HETATM    4  C   UNL     1     -10.311  12.184  66.154  1.00  0.00    -0.234 C  
HETATM    5  C   UNL     1     -10.981  11.639  67.416  1.00  0.00    -0.313 C  
HETATM    6  O   UNL     1      -6.144   8.033  71.061  1.00  0.00    -0.034 OA 
HETATM    7  C   UNL     1      -8.431   8.597  67.528  1.00  0.00    -0.124 A  
HETATM    8  C   UNL     1      -5.915   9.236  70.990  1.00  0.00    -0.064 C  
HETATM    9  C   UNL     1     -10.316  12.129  68.718  1.00  0.00    -0.147 C  
HETATM   10  H   UNL     1      -4.938   9.468  72.860  1.00  0.00     0.000 HD 
HETATM   11  O   UNL     1     -10.053  13.577  68.794  1.00  0.00    -0.202 OA 
HETATM   12  C   UNL     1      -9.635   7.899  67.622  1.00  0.00    -0.183 A  
HETATM   13  C   UNL     1     -10.357   7.958  68.811  1.00  0.00    -0.220 A  
HETATM   14  C   UNL     1      -9.151  14.084  67.786  1.00  0.00    -0.192 C  
HETATM   15  N   UNL     1      -5.281   9.937  72.021  1.00  0.00    -0.069 N  
HETATM   16  N   UNL     1      -7.796  13.836  68.371  1.00  0.00    -0.137 NA 
HETATM   17  C   UNL     1      -9.091  15.626  67.508  1.00  0.00    -0.198 C  
HETATM   18  C   UNL     1     -10.118   8.989  69.730  1.00  0.00    -0.209 A  
HETATM   19  C   UNL     1      -6.912  14.713  69.171  1.00  0.00    -0.134 A  
HETATM   20  C   UNL     1      -6.047  13.938  70.067  1.00  0.00    -0.146 A  
HETATM   21  N   UNL     1      -9.157  11.293  69.012  1.00  0.00    -0.046 NA 
HETATM   22  C   UNL     1      -5.138  11.372  71.830  1.00  0.00     0.104 C  
HETATM   23  C   UNL     1      -6.265  12.592  69.782  1.00  0.00    -0.111 A  
HETATM   24  C   UNL     1      -5.203  14.602  70.994  1.00  0.00    -0.135 A  
HETATM   25  C   UNL     1      -7.281  12.667  68.832  1.00  0.00    -0.045 A  
HETATM   26  C   UNL     1      -5.126  15.987  71.038  1.00  0.00    -0.161 A  
HETATM   27  C   UNL     1      -5.881  16.734  70.161  1.00  0.00    -0.178 A  
HETATM   28  C   UNL     1      -7.861  11.450  68.613  1.00  0.00    -0.139 A  
HETATM   29  C   UNL     1      -6.981  10.337  68.789  1.00  0.00    -0.067 C  
HETATM   30  C   UNL     1      -6.758  16.126  69.245  1.00  0.00    -0.198 A  
HETATM   31  C   UNL     1      -8.011   9.371  68.641  1.00  0.00    -0.092 A  
HETATM   32  C   UNL     1      -6.208  10.250  70.018  1.00  0.00    -0.088 C  
HETATM   33  C   UNL     1      -9.129   9.905  69.369  1.00  0.00    -0.206 A  
HETATM   34  C   UNL     1      -5.779  11.495  70.517  1.00  0.00    -0.146 A  
BRANCH   4  35
HETATM   35  N   UNL     1     -11.176  11.992  64.874  1.00  0.00    -0.320 N  
HETATM   36  C   UNL     1     -12.508  12.613  64.794  1.00  0.00    -0.484 C  
HETATM   37  C   UNL     1     -10.768  11.435  63.646  1.00  0.00    -0.401 C  
HETATM   38  O   UNL     1     -11.505  11.396  62.646  1.00  0.00     0.548 OA 
BRANCH  37  39
HETATM   39  C   UNL     1      -9.457  10.782  63.462  1.00  0.00    -0.331 A  
HETATM   40  C   UNL     1      -7.963   8.956  64.029  1.00  0.00    -0.153 A  
HETATM   41  C   UNL     1      -9.182   9.622  64.196  1.00  0.00    -0.218 A  
HETATM   42  C   UNL     1      -7.013   9.453  63.144  1.00  0.00    -0.098 A  
HETATM   43  C   UNL     1      -7.315  10.580  62.377  1.00  0.00    -0.164 A  
HETATM   44  C   UNL     1      -8.554  11.201  62.494  1.00  0.00    -0.273 A  
ENDBRANCH  37  39
ENDBRANCH   4  35
ENDBRANCH   2   3
TORSDOF 3
ENDMDL
MODEL       46
REMARK 921   NORMALIZED FREE ENERGY PREDICTED BY IDOCK:   -4.39 KCAL/MOL
REMARK 922        TOTAL FREE ENERGY PREDICTED BY IDOCK:   -5.69 KCAL/MOL
REMARK 923 INTER-LIGAND FREE ENERGY PREDICTED BY IDOCK:   -6.58 KCAL/MOL
REMARK 924 INTRA-LIGAND FREE ENERGY PREDICTED BY IDOCK:    0.89 KCAL/MOL
REMARK 927      BINDING AFFINITY PREDICTED BY RF-SCORE:    0.00 PKD
ROOT
HETATM    1  C   UNL     1     -11.936   5.796  72.248  1.00  0.00    -0.085 C  
HETATM    2  O   UNL     1     -10.800   6.627  72.003  1.00  0.00    -0.223 OA 
ENDROOT
BRANCH   2   3
HETATM    3  C   UNL     1     -10.771   7.552  70.844  1.00  0.00    -0.235 C  
HETATM    4  C   UNL     1      -9.570   7.103  69.973  1.00  0.00    -0.164 C  
HETATM    5  C   UNL     1      -8.286   7.738  70.507  1.00  0.00    -0.120 C  
HETATM    6  O   UNL     1      -6.990  13.537  66.715  1.00  0.00     0.354 OA 
HETATM    7  C   UNL     1      -7.524   9.331  66.951  1.00  0.00    -0.091 A  
HETATM    8  C   UNL     1      -8.008  13.607  67.395  1.00  0.00    -0.166 C  
HETATM    9  C   UNL     1      -8.486   9.182  71.012  1.00  0.00    -0.165 C  
HETATM   10  H   UNL     1      -7.971  15.695  67.777  1.00  0.00     0.000 HD 
HETATM   11  O   UNL     1      -9.638   9.391  71.906  1.00  0.00    -0.187 OA 
HETATM   12  C   UNL     1      -6.301   8.708  67.196  1.00  0.00    -0.057 A  
HETATM   13  C   UNL     1      -5.448   9.250  68.153  1.00  0.00    -0.038 A  
HETATM   14  C   UNL     1     -10.925   9.097  71.318  1.00  0.00    -0.330 C  
HETATM   15  N   UNL     1      -8.450  14.812  67.952  1.00  0.00    -0.148 N  
HETATM   16  N   UNL     1     -11.283  10.364  70.606  1.00  0.00    -0.321 NA 
HETATM   17  C   UNL     1     -12.172   8.900  72.246  1.00  0.00    -0.413 C  
HETATM   18  C   UNL     1      -5.946  10.132  69.122  1.00  0.00    -0.037 A  
HETATM   19  C   UNL     1     -12.087  11.526  71.046  1.00  0.00    -0.153 A  
HETATM   20  C   UNL     1     -11.664  12.762  70.379  1.00  0.00    -0.097 A  
HETATM   21  N   UNL     1      -8.431  10.101  69.880  1.00  0.00    -0.146 NA 
HETATM   22  C   UNL     1      -9.634  14.735  68.794  1.00  0.00    -0.215 C  
HETATM   23  C   UNL     1     -10.695  12.408  69.442  1.00  0.00     0.110 A  
HETATM   24  C   UNL     1     -12.242  14.005  70.744  1.00  0.00    -0.438 A  
HETATM   25  C   UNL     1     -10.554  11.044  69.684  1.00  0.00    -0.083 A  
HETATM   26  C   UNL     1     -13.257  14.079  71.688  1.00  0.00    -0.442 A  
HETATM   27  C   UNL     1     -13.716  12.924  72.280  1.00  0.00    -0.553 A  
HETATM   28  C   UNL     1      -9.445  10.533  69.074  1.00  0.00    -0.201 A  
HETATM   29  C   UNL     1      -9.080  11.194  67.860  1.00  0.00    -0.150 C  
HETATM   30  C   UNL     1     -13.154  11.670  71.978  1.00  0.00    -0.433 A  
HETATM   31  C   UNL     1      -7.864  10.476  67.716  1.00  0.00    -0.104 A  
HETATM   32  C   UNL     1      -8.960  12.643  67.867  1.00  0.00    -0.189 C  
HETATM   33  C   UNL     1      -7.312  10.412  69.041  1.00  0.00    -0.097 A  
HETATM   34  C   UNL     1      -9.890  13.294  68.700  1.00  0.00    -0.096 A  
BRANCH   4  35
HETATM   35  N   UNL     1      -9.460   5.559  69.803  1.00  0.00    -0.143 N  
HETATM   36  C   UNL     1     -10.057   4.911  68.625  1.00  0.00    -0.088 C  
HETATM   37  C   UNL     1      -8.668   4.673  70.560  1.00  0.00    -0.102 C  
HETATM   38  O   UNL     1      -8.576   3.461  70.299  1.00  0.00    -0.055 OA 
BRANCH  37  39
HETATM   39  C   UNL     1      -7.937   5.093  71.772  1.00  0.00    -0.111 A  
HETATM   40  C   UNL     1      -5.903   5.981  72.751  1.00  0.00    -0.037 A  
HETATM   41  C   UNL     1      -6.620   5.547  71.632  1.00  0.00    -0.052 A  
HETATM   42  C   UNL     1      -6.490   5.949  74.011  1.00  0.00    -0.071 A  
HETATM   43  C   UNL     1      -7.821   5.544  74.136  1.00  0.00    -0.099 A  
HETATM   44  C   UNL     1      -8.555   5.178  73.013  1.00  0.00    -0.114 A  
ENDBRANCH  37  39
ENDBRANCH   4  35
ENDBRANCH   2   3
TORSDOF 3
ENDMDL
MODEL       47
REMARK 921   NORMALIZED FREE ENERGY PREDICTED BY IDOCK:   -4.20 KCAL/MOL
REMARK 922        TOTAL FREE ENERGY PREDICTED BY IDOCK:   -5.46 KCAL/MOL
REMARK 923 INTER-LIGAND FREE ENERGY PREDICTED BY IDOCK:   -6.77 KCAL/MOL
REMARK 924 INTRA-LIGAND FREE ENERGY PREDICTED BY IDOCK:    1.31 KCAL/MOL
REMARK 927      BINDING AFFINITY PREDICTED BY RF-SCORE:    0.00 PKD
ROOT
HETATM    1  C   UNL     1      -8.257   4.301  65.686  1.00  0.00    -0.109 C  
HETATM    2  O   UNL     1      -7.512   5.519  65.718  1.00  0.00    -0.079 OA 
ENDROOT
BRANCH   2   3
HETATM    3  C   UNL     1      -7.707   6.501  66.813  1.00  0.00    -0.099 C  
HETATM    4  C   UNL     1      -7.625   5.687  68.130  1.00  0.00    -0.081 C  
HETATM    5  C   UNL     1      -8.993   5.075  68.438  1.00  0.00    -0.123 C  
HETATM    6  O   UNL     1     -12.301   9.328  72.983  1.00  0.00     0.226 OA 
HETATM    7  C   UNL     1      -9.026   6.805  72.012  1.00  0.00    -0.138 A  
HETATM    8  C   UNL     1     -12.117   9.830  71.880  1.00  0.00    -0.254 C  
HETATM    9  C   UNL     1     -10.170   6.003  68.077  1.00  0.00    -0.181 C  
HETATM   10  H   UNL     1     -13.839  11.070  71.822  1.00  0.00     0.000 HD 
HETATM   11  O   UNL     1     -10.111   6.616  66.738  1.00  0.00    -0.179 OA 
HETATM   12  C   UNL     1      -9.310   5.491  72.384  1.00  0.00    -0.156 A  
HETATM   13  C   UNL     1     -10.567   4.966  72.098  1.00  0.00    -0.232 A  
HETATM   14  C   UNL     1      -8.970   7.476  66.514  1.00  0.00    -0.162 C  
HETATM   15  N   UNL     1     -13.014  10.744  71.317  1.00  0.00    -0.400 N  
HETATM   16  N   UNL     1      -9.410   8.794  67.067  1.00  0.00    -0.150 NA 
HETATM   17  C   UNL     1      -8.577   7.870  65.048  1.00  0.00    -0.010 C  
HETATM   18  C   UNL     1     -11.375   5.566  71.123  1.00  0.00     0.095 A  
HETATM   19  C   UNL     1     -10.037   9.961  66.406  1.00  0.00    -0.240 A  
HETATM   20  C   UNL     1     -10.880  10.721  67.335  1.00  0.00    -0.345 A  
HETATM   21  N   UNL     1     -10.386   6.954  69.163  1.00  0.00    -0.187 NA 
HETATM   22  C   UNL     1     -12.705  11.204  69.973  1.00  0.00    -0.059 C  
HETATM   23  C   UNL     1     -10.719  10.149  68.594  1.00  0.00    -0.253 A  
HETATM   24  C   UNL     1     -11.652  11.815  66.865  1.00  0.00    -0.310 A  
HETATM   25  C   UNL     1      -9.892   9.066  68.308  1.00  0.00    -0.166 A  
HETATM   26  C   UNL     1     -11.586  12.230  65.542  1.00  0.00    -0.422 A  
HETATM   27  C   UNL     1     -10.752  11.571  64.667  1.00  0.00    -0.379 A  
HETATM   28  C   UNL     1      -9.829   8.186  69.349  1.00  0.00    -0.182 A  
HETATM   29  C   UNL     1      -9.982   8.785  70.639  1.00  0.00    -0.242 C  
HETATM   30  C   UNL     1      -9.991  10.461  65.074  1.00  0.00    -0.399 A  
HETATM   31  C   UNL     1     -10.024   7.542  71.323  1.00  0.00    -0.196 A  
HETATM   32  C   UNL     1     -11.115   9.668  70.866  1.00  0.00    -0.422 C  
HETATM   33  C   UNL     1     -10.837   6.691  70.498  1.00  0.00    -0.261 A  
HETATM   34  C   UNL     1     -11.470  10.446  69.748  1.00  0.00    -0.348 A  
BRANCH   4  35
HETATM   35  N   UNL     1      -6.472   4.641  68.152  1.00  0.00    -0.040 N  
HETATM   36  C   UNL     1      -5.135   5.020  67.670  1.00  0.00    -0.004 C  
HETATM   37  C   UNL     1      -6.482   3.377  68.774  1.00  0.00    -0.033 C  
HETATM   38  O   UNL     1      -5.483   2.638  68.813  1.00  0.00    -0.012 OA 
BRANCH  37  39
HETATM   39  C   UNL     1      -7.699   2.788  69.367  1.00  0.00    -0.045 A  
HETATM   40  C   UNL     1      -9.785   1.595  69.039  1.00  0.00    -0.035 A  
HETATM   41  C   UNL     1      -8.633   2.190  68.514  1.00  0.00    -0.101 A  
HETATM   42  C   UNL     1     -10.013   1.608  70.410  1.00  0.00     0.149 A  
HETATM   43  C   UNL     1      -9.052   2.158  71.259  1.00  0.00    -0.158 A  
HETATM   44  C   UNL     1      -7.875   2.689  70.741  1.00  0.00    -0.044 A  
ENDBRANCH  37  39
ENDBRANCH   4  35
ENDBRANCH   2   3
TORSDOF 3
ENDMDL
MODEL       48
REMARK 921   NORMALIZED FREE ENERGY PREDICTED BY IDOCK:   -4.08 KCAL/MOL
REMARK 922        TOTAL FREE ENERGY PREDICTED BY IDOCK:   -5.32 KCAL/MOL
REMARK 923 INTER-LIGAND FREE ENERGY PREDICTED BY IDOCK:   -5.50 KCAL/MOL
REMARK 924 INTRA-LIGAND FREE ENERGY PREDICTED BY IDOCK:    0.18 KCAL/MOL
REMARK 927      BINDING AFFINITY PREDICTED BY RF-SCORE:    0.00 PKD
ROOT
HETATM    1  C   UNL     1      -6.064  10.240  70.911  1.00  0.00    -0.027 C  
HETATM    2  O   UNL     1      -7.446   9.898  71.038  1.00  0.00    -0.289 OA 
ENDROOT
BRANCH   2   3
HETATM    3  C   UNL     1      -8.076   8.926  70.112  1.00  0.00    -0.122 C  
HETATM    4  C   UNL     1      -7.652   7.524  70.617  1.00  0.00    -0.085 C  
HETATM    5  C   UNL     1      -6.277   7.170  70.047  1.00  0.00    -0.027 C  
HETATM    6  O   UNL     1      -7.260   3.199  64.307  1.00  0.00    -0.055 OA 
HETATM    7  C   UNL     1      -7.723   3.819  68.482  1.00  0.00    -0.060 A  
HETATM    8  C   UNL     1      -7.667   4.350  64.188  1.00  0.00    -0.080 C  
HETATM    9  C   UNL     1      -6.077   7.655  68.597  1.00  0.00    -0.035 C  
HETATM   10  H   UNL     1      -7.323   4.578  62.106  1.00  0.00     0.000 HD 
HETATM   11  O   UNL     1      -6.458   9.054  68.335  1.00  0.00    -0.054 OA 
HETATM   12  C   UNL     1      -6.622   3.304  69.166  1.00  0.00    -0.034 A  
HETATM   13  C   UNL     1      -5.345   3.548  68.669  1.00  0.00    -0.013 A  
HETATM   14  C   UNL     1      -7.852   9.357  68.563  1.00  0.00    -0.089 C  
HETATM   15  N   UNL     1      -7.640   5.028  62.965  1.00  0.00    -0.060 N  
HETATM   16  N   UNL     1      -8.511   8.966  67.277  1.00  0.00    -0.114 NA 
HETATM   17  C   UNL     1      -8.306  10.851  68.701  1.00  0.00    -0.148 C  
HETATM   18  C   UNL     1      -5.130   4.599  67.767  1.00  0.00    -0.007 A  
HETATM   19  C   UNL     1      -8.845   9.767  66.078  1.00  0.00    -0.147 A  
HETATM   20  C   UNL     1      -8.852   8.946  64.863  1.00  0.00    -0.161 A  
HETATM   21  N   UNL     1      -6.670   6.689  67.678  1.00  0.00    -0.067 NA 
HETATM   22  C   UNL     1      -8.089   6.412  62.987  1.00  0.00    -0.055 C  
HETATM   23  C   UNL     1      -8.649   7.626  65.260  1.00  0.00    -0.044 A  
HETATM   24  C   UNL     1      -9.046   9.550  63.594  1.00  0.00    -0.145 A  
HETATM   25  C   UNL     1      -8.449   7.773  66.631  1.00  0.00    -0.129 A  
HETATM   26  C   UNL     1      -9.292  10.911  63.473  1.00  0.00    -0.293 A  
HETATM   27  C   UNL     1      -9.355  11.691  64.606  1.00  0.00     0.021 A  
HETATM   28  C   UNL     1      -7.945   6.636  67.194  1.00  0.00    -0.109 A  
HETATM   29  C   UNL     1      -8.350   5.426  66.547  1.00  0.00    -0.109 C  
HETATM   30  C   UNL     1      -9.138  11.146  65.885  1.00  0.00    -0.218 A  
HETATM   31  C   UNL     1      -7.491   4.605  67.324  1.00  0.00    -0.085 A  
HETATM   32  C   UNL     1      -8.189   5.322  65.106  1.00  0.00    -0.135 C  
HETATM   33  C   UNL     1      -6.260   5.341  67.419  1.00  0.00    -0.035 A  
HETATM   34  C   UNL     1      -8.410   6.527  64.413  1.00  0.00     0.074 A  
BRANCH   4  35
HETATM   35  N   UNL     1      -7.729   7.362  72.163  1.00  0.00    -0.087 N  
HETATM   36  C   UNL     1      -6.490   7.284  72.951  1.00  0.00    -0.060 C  
HETATM   37  C   UNL     1      -8.876   7.472  72.974  1.00  0.00    -0.154 C  
HETATM   38  O   UNL     1      -8.832   7.411  74.215  1.00  0.00    -0.212 OA 
BRANCH  37  39
HETATM   39  C   UNL     1     -10.238   7.597  72.419  1.00  0.00    -0.282 A  
HETATM   40  C   UNL     1     -12.316   6.516  71.786  1.00  0.00    -0.340 A  
HETATM   41  C   UNL     1     -11.009   6.437  72.280  1.00  0.00    -0.289 A  
HETATM   42  C   UNL     1     -12.847   7.745  71.415  1.00  0.00    -0.328 A  
HETATM   43  C   UNL     1     -12.092   8.904  71.605  1.00  0.00    -0.415 A  
HETATM   44  C   UNL     1     -10.819   8.832  72.161  1.00  0.00    -0.400 A  
ENDBRANCH  37  39
ENDBRANCH   4  35
ENDBRANCH   2   3
TORSDOF 3
ENDMDL
MODEL       49
REMARK 921   NORMALIZED FREE ENERGY PREDICTED BY IDOCK:   -4.07 KCAL/MOL
REMARK 922        TOTAL FREE ENERGY PREDICTED BY IDOCK:   -5.31 KCAL/MOL
REMARK 923 INTER-LIGAND FREE ENERGY PREDICTED BY IDOCK:   -7.10 KCAL/MOL
REMARK 924 INTRA-LIGAND FREE ENERGY PREDICTED BY IDOCK:    1.79 KCAL/MOL
REMARK 927      BINDING AFFINITY PREDICTED BY RF-SCORE:    0.00 PKD
ROOT
HETATM    1  C   UNL     1      -7.884  13.484  67.556  1.00  0.00    -0.178 C  
HETATM    2  O   UNL     1      -8.866  13.092  66.595  1.00  0.00    -0.174 OA 
ENDROOT
BRANCH   2   3
HETATM    3  C   UNL     1      -9.577  11.796  66.722  1.00  0.00    -0.200 C  
HETATM    4  C   UNL     1     -10.251  11.818  68.117  1.00  0.00    -0.203 C  
HETATM    5  C   UNL     1      -9.246  11.366  69.178  1.00  0.00     0.158 C  
HETATM    6  O   UNL     1     -10.300   4.503  70.388  1.00  0.00    -0.161 OA 
HETATM    7  C   UNL     1     -11.719   8.505  70.388  1.00  0.00    -0.003 A  
HETATM    8  C   UNL     1      -9.892   4.749  69.258  1.00  0.00    -0.199 C  
HETATM    9  C   UNL     1      -8.317  10.235  68.692  1.00  0.00    -0.122 C  
HETATM   10  H   UNL     1      -8.789   2.963  68.940  1.00  0.00     0.000 HD 
HETATM   11  O   UNL     1      -7.696  10.442  67.372  1.00  0.00    -0.094 OA 
HETATM   12  C   UNL     1     -11.441   9.110  71.613  1.00  0.00    -0.451 A  
HETATM   13  C   UNL     1     -10.185   8.927  72.186  1.00  0.00    -0.292 A  
HETATM   14  C   UNL     1      -8.628  10.557  66.274  1.00  0.00    -0.147 C  
HETATM   15  N   UNL     1      -9.057   3.871  68.559  1.00  0.00    -0.126 N  
HETATM   16  N   UNL     1      -8.899   9.136  65.893  1.00  0.00    -0.163 NA 
HETATM   17  C   UNL     1      -8.144  11.157  64.909  1.00  0.00     0.428 C  
HETATM   18  C   UNL     1      -9.106   8.506  71.397  1.00  0.00    -0.266 A  
HETATM   19  C   UNL     1      -8.268   8.271  64.870  1.00  0.00    -0.151 A  
HETATM   20  C   UNL     1      -8.331   6.855  65.244  1.00  0.00    -0.102 A  
HETATM   21  N   UNL     1      -9.000   8.953  68.840  1.00  0.00    -0.136 NA 
HETATM   22  C   UNL     1      -8.593   4.324  67.257  1.00  0.00    -0.104 C  
HETATM   23  C   UNL     1      -9.084   6.775  66.414  1.00  0.00    -0.175 A  
HETATM   24  C   UNL     1      -7.687   5.876  64.445  1.00  0.00    -0.099 A  
HETATM   25  C   UNL     1      -9.324   8.119  66.687  1.00  0.00    -0.197 A  
HETATM   26  C   UNL     1      -7.037   6.219  63.267  1.00  0.00    -0.053 A  
HETATM   27  C   UNL     1      -7.021   7.535  62.862  1.00  0.00    -0.072 A  
HETATM   28  C   UNL     1      -9.805   8.302  67.951  1.00  0.00    -0.169 A  
HETATM   29  C   UNL     1     -10.583   7.210  68.450  1.00  0.00    -0.223 C  
HETATM   30  C   UNL     1      -7.617   8.548  63.635  1.00  0.00    -0.127 A  
HETATM   31  C   UNL     1     -10.693   7.755  69.757  1.00  0.00    -0.236 A  
HETATM   32  C   UNL     1     -10.029   5.869  68.371  1.00  0.00    -0.184 C  
HETATM   33  C   UNL     1      -9.391   8.288  70.047  1.00  0.00    -0.162 A  
HETATM   34  C   UNL     1      -9.254   5.633  67.220  1.00  0.00    -0.110 A  
BRANCH   4  35
HETATM   35  N   UNL     1     -10.935  13.173  68.465  1.00  0.00    -0.253 N  
HETATM   36  C   UNL     1     -10.751  13.761  69.800  1.00  0.00     0.329 C  
HETATM   37  C   UNL     1     -11.584  14.051  67.575  1.00  0.00    -0.367 C  
HETATM   38  O   UNL     1     -12.031  15.157  67.927  1.00  0.00    -0.268 OA 
BRANCH  37  39
HETATM   39  C   UNL     1     -11.857  13.705  66.166  1.00  0.00    -0.424 A  
HETATM   40  C   UNL     1     -11.789  14.356  63.830  1.00  0.00    -0.086 A  
HETATM   41  C   UNL     1     -11.573  14.656  65.180  1.00  0.00    -0.371 A  
HETATM   42  C   UNL     1     -12.301  13.117  63.465  1.00  0.00    -0.478 A  
HETATM   43  C   UNL     1     -12.533  12.154  64.450  1.00  0.00    -0.418 A  
HETATM   44  C   UNL     1     -12.253  12.429  65.784  1.00  0.00    -0.277 A  
ENDBRANCH  37  39
ENDBRANCH   4  35
ENDBRANCH   2   3
TORSDOF 3
ENDMDL
MODEL       50
REMARK 921   NORMALIZED FREE ENERGY PREDICTED BY IDOCK:   -4.07 KCAL/MOL
REMARK 922        TOTAL FREE ENERGY PREDICTED BY IDOCK:   -5.31 KCAL/MOL
REMARK 923 INTER-LIGAND FREE ENERGY PREDICTED BY IDOCK:   -6.46 KCAL/MOL
REMARK 924 INTRA-LIGAND FREE ENERGY PREDICTED BY IDOCK:    1.15 KCAL/MOL
REMARK 927      BINDING AFFINITY PREDICTED BY RF-SCORE:    0.00 PKD
ROOT
HETATM    1  C   UNL     1      -9.202  10.709  65.026  1.00  0.00    -0.211 C  
HETATM    2  O   UNL     1      -8.571   9.895  66.016  1.00  0.00    -0.132 OA 
ENDROOT
BRANCH   2   3
HETATM    3  C   UNL     1      -9.334   8.845  66.734  1.00  0.00    -0.175 C  
HETATM    4  C   UNL     1      -9.703   9.456  68.110  1.00  0.00    -0.145 C  
HETATM    5  C   UNL     1      -8.537   9.269  69.082  1.00  0.00    -0.134 C  
HETATM    6  O   UNL     1      -9.824   3.507  72.934  1.00  0.00    -0.128 OA 
HETATM    7  C   UNL     1     -10.912   7.410  71.666  1.00  0.00    -0.252 A  
HETATM    8  C   UNL     1      -9.640   3.276  71.743  1.00  0.00    -0.156 C  
HETATM    9  C   UNL     1      -7.815   7.917  68.911  1.00  0.00    -0.117 C  
HETATM   10  H   UNL     1      -8.761   1.354  71.942  1.00  0.00     0.000 HD 
HETATM   11  O   UNL     1      -7.465   7.551  67.527  1.00  0.00    -0.099 OA 
HETATM   12  C   UNL     1     -10.344   8.363  72.511  1.00  0.00    -0.371 A  
HETATM   13  C   UNL     1      -9.014   8.215  72.896  1.00  0.00    -0.328 A  
HETATM   14  C   UNL     1      -8.593   7.404  66.635  1.00  0.00    -0.127 C  
HETATM   15  N   UNL     1      -9.034   2.096  71.298  1.00  0.00    -0.073 N  
HETATM   16  N   UNL     1      -9.040   5.995  66.864  1.00  0.00    -0.122 NA 
HETATM   17  C   UNL     1      -8.357   7.406  65.085  1.00  0.00    -0.085 C  
HETATM   18  C   UNL     1      -8.155   7.391  72.156  1.00  0.00    -0.107 A  
HETATM   19  C   UNL     1      -8.699   4.743  66.152  1.00  0.00    -0.116 A  
HETATM   20  C   UNL     1      -8.789   3.576  67.035  1.00  0.00    -0.143 A  
HETATM   21  N   UNL     1      -8.544   6.884  69.639  1.00  0.00    -0.133 NA 
HETATM   22  C   UNL     1      -8.816   1.987  69.864  1.00  0.00    -0.074 C  
HETATM   23  C   UNL     1      -9.288   4.024  68.256  1.00  0.00    -0.216 A  
HETATM   24  C   UNL     1      -8.397   2.295  66.567  1.00  0.00    -0.094 A  
HETATM   25  C   UNL     1      -9.366   5.398  68.040  1.00  0.00    -0.113 A  
HETATM   26  C   UNL     1      -7.980   2.101  65.257  1.00  0.00    -0.078 A  
HETATM   27  C   UNL     1      -7.951   3.172  64.392  1.00  0.00    -0.082 A  
HETATM   28  C   UNL     1      -9.562   6.084  69.204  1.00  0.00    -0.132 A  
HETATM   29  C   UNL     1     -10.299   5.364  70.196  1.00  0.00    -0.361 C  
HETATM   30  C   UNL     1      -8.298   4.468  64.814  1.00  0.00    -0.116 A  
HETATM   31  C   UNL     1     -10.096   6.346  71.202  1.00  0.00    -0.213 A  
HETATM   32  C   UNL     1      -9.874   4.016  70.537  1.00  0.00    -0.214 C  
HETATM   33  C   UNL     1      -8.726   6.753  71.054  1.00  0.00    -0.137 A  
HETATM   34  C   UNL     1      -9.372   3.279  69.448  1.00  0.00    -0.232 A  
BRANCH   4  35
HETATM   35  N   UNL     1     -10.198  10.930  68.031  1.00  0.00    -0.173 N  
HETATM   36  C   UNL     1     -11.641  11.212  67.975  1.00  0.00    -0.263 C  
HETATM   37  C   UNL     1      -9.428  12.097  68.202  1.00  0.00    -0.205 C  
HETATM   38  O   UNL     1      -9.924  13.237  68.206  1.00  0.00    -0.228 OA 
BRANCH  37  39
HETATM   39  C   UNL     1      -7.956  12.073  68.319  1.00  0.00    -0.149 A  
HETATM   40  C   UNL     1      -6.002  11.745  69.719  1.00  0.00    -0.126 A  
HETATM   41  C   UNL     1      -7.392  11.806  69.572  1.00  0.00     0.231 A  
HETATM   42  C   UNL     1      -5.176  11.964  68.623  1.00  0.00    -0.049 A  
HETATM   43  C   UNL     1      -5.745  12.177  67.366  1.00  0.00    -0.135 A  
HETATM   44  C   UNL     1      -7.127  12.170  67.209  1.00  0.00    -0.144 A  
ENDBRANCH  37  39
ENDBRANCH   4  35
ENDBRANCH   2   3
TORSDOF 3
ENDMDL
MODEL       51
REMARK 921   NORMALIZED FREE ENERGY PREDICTED BY IDOCK:   -3.94 KCAL/MOL
REMARK 922        TOTAL FREE ENERGY PREDICTED BY IDOCK:   -5.16 KCAL/MOL
REMARK 923 INTER-LIGAND FREE ENERGY PREDICTED BY IDOCK:   -6.80 KCAL/MOL
REMARK 924 INTRA-LIGAND FREE ENERGY PREDICTED BY IDOCK:    1.64 KCAL/MOL
REMARK 927      BINDING AFFINITY PREDICTED BY RF-SCORE:    0.00 PKD
ROOT
HETATM    1  C   UNL     1      -6.627  11.267  66.816  1.00  0.00    -0.140 C  
HETATM    2  O   UNL     1      -8.022  11.263  66.508  1.00  0.00    -0.157 OA 
ENDROOT
BRANCH   2   3
HETATM    3  C   UNL     1      -8.899  10.161  66.974  1.00  0.00    -0.135 C  
HETATM    4  C   UNL     1      -9.321  10.537  68.417  1.00  0.00    -0.158 C  
HETATM    5  C   UNL     1      -8.239  10.086  69.400  1.00  0.00    -0.158 C  
HETATM    6  O   UNL     1     -10.157   3.833  72.027  1.00  0.00    -0.176 OA 
HETATM    7  C   UNL     1     -10.901   7.974  71.454  1.00  0.00    -0.271 A  
HETATM    8  C   UNL     1      -9.908   3.810  70.827  1.00  0.00    -0.103 C  
HETATM    9  C   UNL     1      -7.595   8.737  69.019  1.00  0.00    -0.090 C  
HETATM   10  H   UNL     1      -9.170   1.823  70.710  1.00  0.00     0.000 HD 
HETATM   11  O   UNL     1      -7.176   8.605  67.612  1.00  0.00    -0.082 OA 
HETATM   12  C   UNL     1     -10.331   8.710  72.493  1.00  0.00    -0.229 A  
HETATM   13  C   UNL     1      -9.043   8.393  72.916  1.00  0.00    -0.282 A  
HETATM   14  C   UNL     1      -8.247   8.710  66.647  1.00  0.00    -0.107 C  
HETATM   15  N   UNL     1      -9.350   2.689  70.203  1.00  0.00    -0.132 N  
HETATM   16  N   UNL     1      -8.800   7.321  66.584  1.00  0.00    -0.133 NA 
HETATM   17  C   UNL     1      -7.906   8.977  65.141  1.00  0.00    -0.108 C  
HETATM   18  C   UNL     1      -8.191   7.654  72.084  1.00  0.00    -0.127 A  
HETATM   19  C   UNL     1      -8.493   6.198  65.670  1.00  0.00    -0.151 A  
HETATM   20  C   UNL     1      -8.718   4.899  66.312  1.00  0.00    -0.115 A  
HETATM   21  N   UNL     1      -8.439   7.648  69.499  1.00  0.00    -0.131 NA 
HETATM   22  C   UNL     1      -9.042   2.828  68.788  1.00  0.00    -0.151 C  
HETATM   23  C   UNL     1      -9.270   5.154  67.566  1.00  0.00    -0.124 A  
HETATM   24  C   UNL     1      -8.379   3.700  65.636  1.00  0.00    -0.105 A  
HETATM   25  C   UNL     1      -9.244   6.546  67.607  1.00  0.00    -0.113 A  
HETATM   26  C   UNL     1      -7.887   3.718  64.337  1.00  0.00    -0.085 A  
HETATM   27  C   UNL     1      -7.729   4.923  63.691  1.00  0.00    -0.073 A  
HETATM   28  C   UNL     1      -9.474   7.021  68.867  1.00  0.00    -0.137 A  
HETATM   29  C   UNL     1     -10.322   6.190  69.664  1.00  0.00    -0.277 C  
HETATM   30  C   UNL     1      -8.020   6.142  64.328  1.00  0.00    -0.118 A  
HETATM   31  C   UNL     1     -10.126   6.953  70.846  1.00  0.00    -0.207 A  
HETATM   32  C   UNL     1     -10.010   4.774  69.769  1.00  0.00    -0.308 C  
HETATM   33  C   UNL     1      -8.725   7.274  70.852  1.00  0.00    -0.148 A  
HETATM   34  C   UNL     1      -9.483   4.212  68.591  1.00  0.00    -0.221 A  
BRANCH   4  35
HETATM   35  N   UNL     1      -9.713  12.033  68.588  1.00  0.00    -0.148 N  
HETATM   36  C   UNL     1      -8.965  13.071  67.862  1.00  0.00    -0.200 C  
HETATM   37  C   UNL     1     -10.859  12.546  69.227  1.00  0.00     0.001 C  
HETATM   38  O   UNL     1     -11.136  13.757  69.245  1.00  0.00    -0.251 OA 
BRANCH  37  39
HETATM   39  C   UNL     1     -11.792  11.697  69.995  1.00  0.00    -0.435 A  
HETATM   40  C   UNL     1     -13.212  11.430  71.943  1.00  0.00    -0.485 A  
HETATM   41  C   UNL     1     -12.303  12.191  71.200  1.00  0.00    -0.265 A  
HETATM   42  C   UNL     1     -13.600  10.173  71.494  1.00  0.00    -0.248 A  
HETATM   43  C   UNL     1     -13.127   9.709  70.265  1.00  0.00     0.438 A  
HETATM   44  C   UNL     1     -12.277  10.495  69.495  1.00  0.00    -0.154 A  
ENDBRANCH  37  39
ENDBRANCH   4  35
ENDBRANCH   2   3
TORSDOF 3
ENDMDL
MODEL       52
REMARK 921   NORMALIZED FREE ENERGY PREDICTED BY IDOCK:   -3.79 KCAL/MOL
REMARK 922        TOTAL FREE ENERGY PREDICTED BY IDOCK:   -4.98 KCAL/MOL
REMARK 923 INTER-LIGAND FREE ENERGY PREDICTED BY IDOCK:   -5.61 KCAL/MOL
REMARK 924 INTRA-LIGAND FREE ENERGY PREDICTED BY IDOCK:    0.62 KCAL/MOL
REMARK 927      BINDING AFFINITY PREDICTED BY RF-SCORE:    0.00 PKD
ROOT
HETATM    1  C   UNL     1      -6.566   3.316  69.475  1.00  0.00    -0.033 C  
HETATM    2  O   UNL     1      -7.244   3.003  68.256  1.00  0.00    -0.049 OA 
ENDROOT
BRANCH   2   3
HETATM    3  C   UNL     1      -8.096   4.012  67.581  1.00  0.00    -0.090 C  
HETATM    4  C   UNL     1      -7.320   4.436  66.308  1.00  0.00    -0.081 C  
HETATM    5  C   UNL     1      -6.312   5.530  66.663  1.00  0.00    -0.036 C  
HETATM    6  O   UNL     1      -9.251  11.762  65.178  1.00  0.00    -0.088 OA 
HETATM    7  C   UNL     1      -7.876   7.945  63.926  1.00  0.00    -0.141 A  
HETATM    8  C   UNL     1      -9.808  11.157  66.088  1.00  0.00    -0.225 C  
HETATM    9  C   UNL     1      -6.841   6.525  67.715  1.00  0.00    -0.080 C  
HETATM   10  H   UNL     1     -10.459  12.835  67.212  1.00  0.00     0.000 HD 
HETATM   11  O   UNL     1      -7.469   5.923  68.904  1.00  0.00    -0.082 OA 
HETATM   12  C   UNL     1      -6.531   8.017  63.564  1.00  0.00    -0.071 A  
HETATM   13  C   UNL     1      -5.651   8.726  64.377  1.00  0.00    -0.063 A  
HETATM   14  C   UNL     1      -8.642   5.123  68.632  1.00  0.00    -0.087 C  
HETATM   15  N   UNL     1     -10.413  11.817  67.162  1.00  0.00    -0.215 N  
HETATM   16  N   UNL     1      -9.750   6.127  68.589  1.00  0.00    -0.126 NA 
HETATM   17  C   UNL     1      -9.167   4.127  69.722  1.00  0.00    -0.213 C  
HETATM   18  C   UNL     1      -5.993   9.009  65.706  1.00  0.00    -0.051 A  
HETATM   19  C   UNL     1     -10.681   6.586  69.645  1.00  0.00    -0.269 A  
HETATM   20  C   UNL     1     -11.127   7.963  69.411  1.00  0.00     0.068 A  
HETATM   21  N   UNL     1      -7.657   7.538  67.054  1.00  0.00    -0.101 NA 
HETATM   22  C   UNL     1     -10.973  10.971  68.204  1.00  0.00    -0.247 C  
HETATM   23  C   UNL     1     -10.606   8.359  68.182  1.00  0.00    -0.175 A  
HETATM   24  C   UNL     1     -11.940   8.623  70.369  1.00  0.00     0.151 A  
HETATM   25  C   UNL     1      -9.836   7.252  67.833  1.00  0.00    -0.144 A  
HETATM   26  C   UNL     1     -12.381   7.970  71.513  1.00  0.00    -0.335 A  
HETATM   27  C   UNL     1     -12.028   6.656  71.720  1.00  0.00    -0.391 A  
HETATM   28  C   UNL     1      -8.996   7.525  66.792  1.00  0.00    -0.144 A  
HETATM   29  C   UNL     1      -9.494   8.502  65.873  1.00  0.00    -0.207 C  
HETATM   30  C   UNL     1     -11.197   5.967  70.818  1.00  0.00    -0.340 A  
HETATM   31  C   UNL     1      -8.284   8.569  65.133  1.00  0.00    -0.153 A  
HETATM   32  C   UNL     1      -9.981   9.767  66.400  1.00  0.00    -0.314 C  
HETATM   33  C   UNL     1      -7.242   8.545  66.122  1.00  0.00    -0.081 A  
HETATM   34  C   UNL     1     -10.636   9.659  67.642  1.00  0.00    -0.334 A  
BRANCH   4  35
HETATM   35  N   UNL     1      -6.679   3.246  65.536  1.00  0.00    -0.043 N  
HETATM   36  C   UNL     1      -5.460   2.610  66.059  1.00  0.00    -0.016 C  
HETATM   37  C   UNL     1      -7.234   2.535  64.453  1.00  0.00    -0.054 C  
HETATM   38  O   UNL     1      -6.686   1.540  63.949  1.00  0.00    -0.021 OA 
BRANCH  37  39
HETATM   39  C   UNL     1      -8.476   2.955  63.776  1.00  0.00    -0.086 A  
HETATM   40  C   UNL     1     -10.804   2.500  63.266  1.00  0.00    -0.235 A  
HETATM   41  C   UNL     1      -9.599   2.125  63.869  1.00  0.00    -0.128 A  
HETATM   42  C   UNL     1     -10.887   3.693  62.558  1.00  0.00    -0.132 A  
HETATM   43  C   UNL     1      -9.779   4.542  62.513  1.00  0.00    -0.038 A  
HETATM   44  C   UNL     1      -8.602   4.199  63.171  1.00  0.00    -0.103 A  
ENDBRANCH  37  39
ENDBRANCH   4  35
ENDBRANCH   2   3
TORSDOF 3
ENDMDL
MODEL       53
REMARK 921   NORMALIZED FREE ENERGY PREDICTED BY IDOCK:   -3.55 KCAL/MOL
REMARK 922        TOTAL FREE ENERGY PREDICTED BY IDOCK:   -4.70 KCAL/MOL
REMARK 923 INTER-LIGAND FREE ENERGY PREDICTED BY IDOCK:   -5.71 KCAL/MOL
REMARK 924 INTRA-LIGAND FREE ENERGY PREDICTED BY IDOCK:    1.02 KCAL/MOL
REMARK 927      BINDING AFFINITY PREDICTED BY RF-SCORE:    0.00 PKD
ROOT
HETATM    1  C   UNL     1     -10.491   6.729  69.698  1.00  0.00    -0.214 C  
HETATM    2  O   UNL     1     -11.238   7.932  69.504  1.00  0.00    -0.052 OA 
ENDROOT
BRANCH   2   3
HETATM    3  C   UNL     1     -10.549   9.230  69.302  1.00  0.00    -0.222 C  
HETATM    4  C   UNL     1     -10.907  10.095  70.537  1.00  0.00    -0.273 C  
HETATM    5  C   UNL     1     -12.255  10.779  70.308  1.00  0.00    -0.431 C  
HETATM    6  O   UNL     1     -11.009  17.295  67.924  1.00  0.00    -0.336 OA 
HETATM    7  C   UNL     1     -10.624  14.342  70.951  1.00  0.00     1.153 A  
HETATM    8  C   UNL     1     -10.659  16.410  67.151  1.00  0.00    -0.276 C  
HETATM    9  C   UNL     1     -12.464  11.238  68.850  1.00  0.00     0.355 C  
HETATM   10  H   UNL     1     -10.992  17.451  65.331  1.00  0.00     0.000 HD 
HETATM   11  O   UNL     1     -12.152  10.236  67.815  1.00  0.00     0.454 OA 
HETATM   12  C   UNL     1     -11.705  14.416  71.829  1.00  0.00     0.063 A  
HETATM   13  C   UNL     1     -12.987  14.567  71.309  1.00  0.00    -0.403 A  
HETATM   14  C   UNL     1     -10.777   9.791  67.796  1.00  0.00    -0.272 C  
HETATM   15  N   UNL     1     -10.708  16.571  65.762  1.00  0.00    -0.274 N  
HETATM   16  N   UNL     1     -10.085  10.824  66.964  1.00  0.00    -0.200 NA 
HETATM   17  C   UNL     1     -10.401   8.475  67.032  1.00  0.00    -0.379 C  
HETATM   18  C   UNL     1     -13.246  14.248  69.969  1.00  0.00     0.508 A  
HETATM   19  C   UNL     1      -9.779  10.855  65.516  1.00  0.00    -0.233 A  
HETATM   20  C   UNL     1      -9.717  12.228  65.005  1.00  0.00    -0.080 A  
HETATM   21  N   UNL     1     -11.813  12.528  68.651  1.00  0.00    -0.312 NA 
HETATM   22  C   UNL     1     -10.330  15.413  64.966  1.00  0.00    -0.329 C  
HETATM   23  C   UNL     1      -9.857  13.078  66.099  1.00  0.00    -0.275 A  
HETATM   24  C   UNL     1      -9.540  12.465  63.617  1.00  0.00     0.257 A  
HETATM   25  C   UNL     1     -10.079  12.172  67.133  1.00  0.00    -0.206 A  
HETATM   26  C   UNL     1      -9.362  11.418  62.723  1.00  0.00    -0.320 A  
HETATM   27  C   UNL     1      -9.351  10.123  63.191  1.00  0.00    -0.333 A  
HETATM   28  C   UNL     1     -10.531  12.792  68.262  1.00  0.00    -0.241 A  
HETATM   29  C   UNL     1     -10.058  14.131  68.430  1.00  0.00    -0.238 C  
HETATM   30  C   UNL     1      -9.555   9.832  64.552  1.00  0.00    -0.201 A  
HETATM   31  C   UNL     1     -10.883  14.388  69.557  1.00  0.00    -0.179 A  
HETATM   32  C   UNL     1     -10.198  15.062  67.322  1.00  0.00    -0.242 C  
HETATM   33  C   UNL     1     -12.150  13.794  69.232  1.00  0.00    -0.329 A  
HETATM   34  C   UNL     1     -10.031  14.475  66.053  1.00  0.00    -0.343 A  
BRANCH   4  35
HETATM   35  N   UNL     1     -10.838   9.324  71.887  1.00  0.00    -0.299 N  
HETATM   36  C   UNL     1     -12.080   9.009  72.611  1.00  0.00     0.056 C  
HETATM   37  C   UNL     1      -9.713   8.690  72.450  1.00  0.00    -0.243 C  
HETATM   38  O   UNL     1      -9.769   8.023  73.497  1.00  0.00    -0.263 OA 
BRANCH  37  39
HETATM   39  C   UNL     1      -8.355   8.824  71.885  1.00  0.00    -0.131 A  
HETATM   40  C   UNL     1      -6.917   9.761  70.170  1.00  0.00    -0.118 A  
HETATM   41  C   UNL     1      -8.191   9.585  70.721  1.00  0.00    -0.084 A  
HETATM   42  C   UNL     1      -5.811   9.168  70.768  1.00  0.00    -0.042 A  
HETATM   43  C   UNL     1      -5.975   8.455  71.957  1.00  0.00    -0.054 A  
HETATM   44  C   UNL     1      -7.232   8.338  72.541  1.00  0.00    -0.130 A  
ENDBRANCH  37  39
ENDBRANCH   4  35
ENDBRANCH   2   3
TORSDOF 3
ENDMDL
MODEL       54
REMARK 921   NORMALIZED FREE ENERGY PREDICTED BY IDOCK:   -3.47 KCAL/MOL
REMARK 922        TOTAL FREE ENERGY PREDICTED BY IDOCK:   -4.61 KCAL/MOL
REMARK 923 INTER-LIGAND FREE ENERGY PREDICTED BY IDOCK:   -5.74 KCAL/MOL
REMARK 924 INTRA-LIGAND FREE ENERGY PREDICTED BY IDOCK:    1.13 KCAL/MOL
REMARK 927      BINDING AFFINITY PREDICTED BY RF-SCORE:    0.00 PKD
ROOT
HETATM    1  C   UNL     1     -12.021  10.359  69.403  1.00  0.00    -0.079 C  
HETATM    2  O   UNL     1     -10.972  10.490  68.442  1.00  0.00    -0.224 OA 
ENDROOT
BRANCH   2   3
HETATM    3  C   UNL     1      -9.794   9.590  68.477  1.00  0.00    -0.158 C  
HETATM    4  C   UNL     1      -9.619   9.065  67.029  1.00  0.00    -0.176 C  
HETATM    5  C   UNL     1     -10.531   7.857  66.810  1.00  0.00    -0.317 C  
HETATM    6  O   UNL     1      -6.699   2.029  67.831  1.00  0.00    -0.034 OA 
HETATM    7  C   UNL     1      -7.426   5.638  65.714  1.00  0.00    -0.078 A  
HETATM    8  C   UNL     1      -6.851   2.705  68.843  1.00  0.00    -0.037 C  
HETATM    9  C   UNL     1     -10.635   6.942  68.047  1.00  0.00    -0.222 C  
HETATM   10  H   UNL     1      -6.834   1.128  70.264  1.00  0.00     0.000 HD 
HETATM   11  O   UNL     1     -10.895   7.625  69.326  1.00  0.00    -0.198 OA 
HETATM   12  C   UNL     1      -8.279   5.396  64.638  1.00  0.00    -0.133 A  
HETATM   13  C   UNL     1      -9.397   4.588  64.832  1.00  0.00    -0.150 A  
HETATM   14  C   UNL     1      -9.873   8.563  69.732  1.00  0.00    -0.186 C  
HETATM   15  N   UNL     1      -6.940   2.132  70.116  1.00  0.00    -0.033 N  
HETATM   16  N   UNL     1      -8.864   7.705  70.427  1.00  0.00    -0.143 NA 
HETATM   17  C   UNL     1     -10.194   9.624  70.840  1.00  0.00    -0.303 C  
HETATM   18  C   UNL     1      -9.883   4.359  66.126  1.00  0.00    -0.243 A  
HETATM   19  C   UNL     1      -8.701   7.371  71.861  1.00  0.00    -0.114 A  
HETATM   20  C   UNL     1      -8.073   6.059  72.043  1.00  0.00    -0.107 A  
HETATM   21  N   UNL     1      -9.493   6.034  68.073  1.00  0.00    -0.113 NA 
HETATM   22  C   UNL     1      -7.191   3.048  71.217  1.00  0.00    -0.033 C  
HETATM   23  C   UNL     1      -7.723   5.594  70.777  1.00  0.00    -0.092 A  
HETATM   24  C   UNL     1      -7.926   5.512  73.344  1.00  0.00    -0.114 A  
HETATM   25  C   UNL     1      -8.239   6.594  69.957  1.00  0.00    -0.130 A  
HETATM   26  C   UNL     1      -8.314   6.222  74.473  1.00  0.00    -0.131 A  
HETATM   27  C   UNL     1      -8.846   7.483  74.329  1.00  0.00    -0.247 A  
HETATM   28  C   UNL     1      -8.267   6.212  68.647  1.00  0.00    -0.108 A  
HETATM   29  C   UNL     1      -7.231   5.298  68.276  1.00  0.00    -0.067 C  
HETATM   30  C   UNL     1      -9.042   8.057  73.060  1.00  0.00    -0.331 A  
HETATM   31  C   UNL     1      -7.754   5.077  66.975  1.00  0.00    -0.092 A  
HETATM   32  C   UNL     1      -7.031   4.108  69.086  1.00  0.00    -0.047 C  
HETATM   33  C   UNL     1      -9.175   4.977  67.158  1.00  0.00    -0.120 A  
HETATM   34  C   UNL     1      -7.254   4.304  70.463  1.00  0.00    -0.041 A  
BRANCH   4  35
HETATM   35  N   UNL     1      -9.790  10.162  65.937  1.00  0.00    -0.228 N  
HETATM   36  C   UNL     1     -10.868  11.154  66.063  1.00  0.00    -0.166 C  
HETATM   37  C   UNL     1      -8.898  10.466  64.890  1.00  0.00    -0.190 C  
HETATM   38  O   UNL     1      -9.075  11.418  64.110  1.00  0.00    -0.047 OA 
BRANCH  37  39
HETATM   39  C   UNL     1      -7.715   9.639  64.583  1.00  0.00    -0.130 A  
HETATM   40  C   UNL     1      -6.592   8.133  63.047  1.00  0.00    -0.085 A  
HETATM   41  C   UNL     1      -7.706   8.907  63.390  1.00  0.00    -0.124 A  
HETATM   42  C   UNL     1      -5.495   8.076  63.898  1.00  0.00    -0.048 A  
HETATM   43  C   UNL     1      -5.488   8.850  65.060  1.00  0.00    -0.039 A  
HETATM   44  C   UNL     1      -6.568   9.672  65.365  1.00  0.00    -0.082 A  
ENDBRANCH  37  39
ENDBRANCH   4  35
ENDBRANCH   2   3
TORSDOF 3
ENDMDL
MODEL       55
REMARK 921   NORMALIZED FREE ENERGY PREDICTED BY IDOCK:   -3.47 KCAL/MOL
REMARK 922        TOTAL FREE ENERGY PREDICTED BY IDOCK:   -4.61 KCAL/MOL
REMARK 923 INTER-LIGAND FREE ENERGY PREDICTED BY IDOCK:   -4.98 KCAL/MOL
REMARK 924 INTRA-LIGAND FREE ENERGY PREDICTED BY IDOCK:    0.37 KCAL/MOL
REMARK 927      BINDING AFFINITY PREDICTED BY RF-SCORE:    0.00 PKD
ROOT
HETATM    1  C   UNL     1     -11.064   6.829  67.101  1.00  0.00    -0.333 C  
HETATM    2  O   UNL     1     -10.146   7.245  66.088  1.00  0.00     0.057 OA 
ENDROOT
BRANCH   2   3
HETATM    3  C   UNL     1      -9.010   8.141  66.413  1.00  0.00    -0.171 C  
HETATM    4  C   UNL     1      -8.163   7.384  67.469  1.00  0.00    -0.113 C  
HETATM    5  C   UNL     1      -8.748   7.625  68.861  1.00  0.00    -0.135 C  
HETATM    6  O   UNL     1      -5.129  12.880  71.858  1.00  0.00    -0.254 OA 
HETATM    7  C   UNL     1      -5.252   8.991  70.158  1.00  0.00    -0.028 A  
HETATM    8  C   UNL     1      -5.781  13.224  70.879  1.00  0.00    -0.167 C  
HETATM    9  C   UNL     1      -9.280   9.060  69.057  1.00  0.00    -0.140 C  
HETATM   10  H   UNL     1      -6.212  15.211  71.487  1.00  0.00     0.000 HD 
HETATM   11  O   UNL     1     -10.146   9.571  67.981  1.00  0.00    -0.170 OA 
HETATM   12  C   UNL     1      -5.517   8.045  71.148  1.00  0.00    -0.033 A  
HETATM   13  C   UNL     1      -6.510   8.312  72.087  1.00  0.00    -0.069 A  
HETATM   14  C   UNL     1      -9.515   9.660  66.684  1.00  0.00    -0.170 C  
HETATM   15  N   UNL     1      -6.353  14.496  70.774  1.00  0.00    -0.113 N  
HETATM   16  N   UNL     1      -8.823  10.986  66.720  1.00  0.00    -0.152 NA 
HETATM   17  C   UNL     1     -10.403   9.808  65.401  1.00  0.00     0.127 C  
HETATM   18  C   UNL     1      -7.484   9.285  71.823  1.00  0.00     0.333 A  
HETATM   19  C   UNL     1      -9.267  12.322  66.259  1.00  0.00    -0.171 A  
HETATM   20  C   UNL     1      -8.641  13.397  67.035  1.00  0.00    -0.168 A  
HETATM   21  N   UNL     1      -8.171   9.942  69.406  1.00  0.00    -0.132 NA 
HETATM   22  C   UNL     1      -7.160  14.743  69.589  1.00  0.00    -0.158 C  
HETATM   23  C   UNL     1      -7.724  12.799  67.897  1.00  0.00    -0.143 A  
HETATM   24  C   UNL     1      -9.018  14.748  66.817  1.00  0.00    -0.292 A  
HETATM   25  C   UNL     1      -7.937  11.447  67.640  1.00  0.00    -0.123 A  
HETATM   26  C   UNL     1      -9.936  15.090  65.833  1.00  0.00    -0.353 A  
HETATM   27  C   UNL     1     -10.487  14.103  65.048  1.00  0.00    -0.447 A  
HETATM   28  C   UNL     1      -7.348  10.653  68.582  1.00  0.00    -0.094 A  
HETATM   29  C   UNL     1      -6.159  11.203  69.157  1.00  0.00    -0.047 C  
HETATM   30  C   UNL     1     -10.172  12.746  65.246  1.00  0.00    -0.296 A  
HETATM   31  C   UNL     1      -6.034  10.174  70.128  1.00  0.00    -0.066 A  
HETATM   32  C   UNL     1      -6.204  12.560  69.679  1.00  0.00    -0.126 C  
HETATM   33  C   UNL     1      -7.372   9.939  70.595  1.00  0.00     0.023 A  
HETATM   34  C   UNL     1      -7.026  13.434  68.942  1.00  0.00    -0.102 A  
BRANCH   4  35
HETATM   35  N   UNL     1      -7.960   5.875  67.147  1.00  0.00    -0.102 N  
HETATM   36  C   UNL     1      -8.418   4.857  68.106  1.00  0.00    -0.102 C  
HETATM   37  C   UNL     1      -7.547   5.313  65.923  1.00  0.00    -0.083 C  
HETATM   38  O   UNL     1      -7.491   4.086  65.730  1.00  0.00    -0.078 OA 
BRANCH  37  39
HETATM   39  C   UNL     1      -7.073   6.131  64.789  1.00  0.00    -0.060 A  
HETATM   40  C   UNL     1      -5.268   7.382  63.757  1.00  0.00    -0.033 A  
HETATM   41  C   UNL     1      -5.765   6.627  64.826  1.00  0.00    -0.031 A  
HETATM   42  C   UNL     1      -6.078   7.654  62.661  1.00  0.00    -0.067 A  
HETATM   43  C   UNL     1      -7.364   7.112  62.607  1.00  0.00    -0.084 A  
HETATM   44  C   UNL     1      -7.832   6.305  63.638  1.00  0.00    -0.113 A  
ENDBRANCH  37  39
ENDBRANCH   4  35
ENDBRANCH   2   3
TORSDOF 3
ENDMDL
MODEL       56
REMARK 921   NORMALIZED FREE ENERGY PREDICTED BY IDOCK:   -3.44 KCAL/MOL
REMARK 922        TOTAL FREE ENERGY PREDICTED BY IDOCK:   -4.57 KCAL/MOL
REMARK 923 INTER-LIGAND FREE ENERGY PREDICTED BY IDOCK:   -5.53 KCAL/MOL
REMARK 924 INTRA-LIGAND FREE ENERGY PREDICTED BY IDOCK:    0.97 KCAL/MOL
REMARK 927      BINDING AFFINITY PREDICTED BY RF-SCORE:    0.00 PKD
ROOT
HETATM    1  C   UNL     1      -8.748   8.540  71.920  1.00  0.00    -0.203 C  
HETATM    2  O   UNL     1     -10.017   8.502  71.266  1.00  0.00    -0.190 OA 
ENDROOT
BRANCH   2   3
HETATM    3  C   UNL     1     -10.231   7.646  70.072  1.00  0.00    -0.213 C  
HETATM    4  C   UNL     1     -10.174   6.185  70.584  1.00  0.00    -0.199 C  
HETATM    5  C   UNL     1      -8.717   5.723  70.650  1.00  0.00    -0.137 C  
HETATM    6  O   UNL     1      -7.293   2.168  64.732  1.00  0.00    -0.058 OA 
HETATM    7  C   UNL     1      -9.532   2.619  68.311  1.00  0.00    -0.219 A  
HETATM    8  C   UNL     1      -7.525   3.359  64.551  1.00  0.00    -0.075 C  
HETATM    9  C   UNL     1      -7.856   6.258  69.488  1.00  0.00    -0.101 C  
HETATM   10  H   UNL     1      -6.270   3.657  62.865  1.00  0.00     0.000 HD 
HETATM   11  O   UNL     1      -7.983   7.701  69.212  1.00  0.00    -0.121 OA 
HETATM   12  C   UNL     1      -8.892   1.961  69.361  1.00  0.00    -0.132 A  
HETATM   13  C   UNL     1      -7.514   2.100  69.503  1.00  0.00    -0.043 A  
HETATM   14  C   UNL     1      -9.308   8.130  68.827  1.00  0.00    -0.143 C  
HETATM   15  N   UNL     1      -6.906   4.092  63.533  1.00  0.00    -0.043 N  
HETATM   16  N   UNL     1      -9.346   7.873  67.354  1.00  0.00    -0.139 NA 
HETATM   17  C   UNL     1      -9.673   9.654  68.886  1.00  0.00    -0.163 C  
HETATM   18  C   UNL     1      -6.847   3.168  68.888  1.00  0.00    -0.044 A  
HETATM   19  C   UNL     1      -9.053   8.764  66.208  1.00  0.00    -0.193 A  
HETATM   20  C   UNL     1      -8.571   8.011  65.046  1.00  0.00    -0.037 A  
HETATM   21  N   UNL     1      -8.039   5.405  68.319  1.00  0.00    -0.095 NA 
HETATM   22  C   UNL     1      -7.222   5.511  63.479  1.00  0.00    -0.050 C  
HETATM   23  C   UNL     1      -8.657   6.659  65.371  1.00  0.00    -0.065 A  
HETATM   24  C   UNL     1      -8.135   8.695  63.882  1.00  0.00    -0.163 A  
HETATM   25  C   UNL     1      -9.083   6.715  66.696  1.00  0.00    -0.145 A  
HETATM   26  C   UNL     1      -8.208  10.079  63.789  1.00  0.00    -0.161 A  
HETATM   27  C   UNL     1      -8.718  10.802  64.843  1.00  0.00    -0.135 A  
HETATM   28  C   UNL     1      -8.963   5.506  67.319  1.00  0.00    -0.111 A  
HETATM   29  C   UNL     1      -9.117   4.378  66.453  1.00  0.00    -0.126 C  
HETATM   30  C   UNL     1      -9.134  10.174  66.032  1.00  0.00    -0.185 A  
HETATM   31  C   UNL     1      -8.754   3.436  67.451  1.00  0.00    -0.133 A  
HETATM   32  C   UNL     1      -8.335   4.331  65.228  1.00  0.00    -0.110 C  
HETATM   33  C   UNL     1      -7.649   4.037  68.146  1.00  0.00    -0.067 A  
HETATM   34  C   UNL     1      -8.139   5.586  64.621  1.00  0.00    -0.127 A  
BRANCH   4  35
HETATM   35  N   UNL     1     -10.946   5.953  71.915  1.00  0.00    -0.257 N  
HETATM   36  C   UNL     1     -12.347   6.387  72.031  1.00  0.00    -0.216 C  
HETATM   37  C   UNL     1     -10.530   5.180  73.018  1.00  0.00    -0.210 C  
HETATM   38  O   UNL     1     -11.251   4.981  74.011  1.00  0.00    -0.233 OA 
BRANCH  37  39
HETATM   39  C   UNL     1      -9.176   4.601  73.122  1.00  0.00    -0.128 A  
HETATM   40  C   UNL     1      -6.881   4.842  73.869  1.00  0.00    -0.074 A  
HETATM   41  C   UNL     1      -8.170   5.365  73.725  1.00  0.00    -0.112 A  
HETATM   42  C   UNL     1      -6.590   3.566  73.400  1.00  0.00    -0.033 A  
HETATM   43  C   UNL     1      -7.611   2.790  72.847  1.00  0.00    -0.050 A  
HETATM   44  C   UNL     1      -8.908   3.286  72.767  1.00  0.00    -0.096 A  
ENDBRANCH  37  39
ENDBRANCH   4  35
ENDBRANCH   2   3
TORSDOF 3
ENDMDL
MODEL       57
REMARK 921   NORMALIZED FREE ENERGY PREDICTED BY IDOCK:   -3.35 KCAL/MOL
REMARK 922        TOTAL FREE ENERGY PREDICTED BY IDOCK:   -4.47 KCAL/MOL
REMARK 923 INTER-LIGAND FREE ENERGY PREDICTED BY IDOCK:   -5.58 KCAL/MOL
REMARK 924 INTRA-LIGAND FREE ENERGY PREDICTED BY IDOCK:    1.11 KCAL/MOL
REMARK 927      BINDING AFFINITY PREDICTED BY RF-SCORE:    0.00 PKD
ROOT
HETATM    1  C   UNL     1     -10.590  14.147  68.327  1.00  0.00    -0.251 C  
HETATM    2  O   UNL     1     -11.660  13.239  68.596  1.00  0.00    -0.281 OA 
ENDROOT
BRANCH   2   3
HETATM    3  C   UNL     1     -11.480  11.778  68.415  1.00  0.00    -0.294 C  
HETATM    4  C   UNL     1     -11.242  11.201  69.834  1.00  0.00    -0.217 C  
HETATM    5  C   UNL     1      -9.763  11.335  70.199  1.00  0.00     1.743 C  
HETATM    6  O   UNL     1      -6.608   5.197  68.763  1.00  0.00    -0.045 OA 
HETATM    7  C   UNL     1      -9.521   7.433  70.895  1.00  0.00    -0.165 A  
HETATM    8  C   UNL     1      -7.024   5.784  67.770  1.00  0.00    -0.066 C  
HETATM    9  C   UNL     1      -8.818  11.090  69.005  1.00  0.00    -0.058 C  
HETATM   10  H   UNL     1      -5.556   5.117  66.389  1.00  0.00     0.000 HD 
HETATM   11  O   UNL     1      -9.163  11.802  67.761  1.00  0.00    -0.170 OA 
HETATM   12  C   UNL     1      -8.975   7.918  72.083  1.00  0.00    -0.199 A  
HETATM   13  C   UNL     1      -7.700   8.477  72.060  1.00  0.00    -0.141 A  
HETATM   14  C   UNL     1     -10.450  11.456  67.202  1.00  0.00    -0.224 C  
HETATM   15  N   UNL     1      -6.377   5.705  66.532  1.00  0.00    -0.037 N  
HETATM   16  N   UNL     1     -10.163  10.233  66.389  1.00  0.00    -0.233 NA 
HETATM   17  C   UNL     1     -11.103  12.395  66.130  1.00  0.00    -0.340 C  
HETATM   18  C   UNL     1      -7.146   8.916  70.850  1.00  0.00    -0.085 A  
HETATM   19  C   UNL     1      -9.835  10.080  64.953  1.00  0.00    -0.281 A  
HETATM   20  C   UNL     1      -9.010   8.893  64.709  1.00  0.00    -0.088 A  
HETATM   21  N   UNL     1      -8.613   9.655  68.838  1.00  0.00    -0.122 NA 
HETATM   22  C   UNL     1      -6.942   6.509  65.460  1.00  0.00    -0.053 C  
HETATM   23  C   UNL     1      -8.897   8.218  65.923  1.00  0.00    -0.197 A  
HETATM   24  C   UNL     1      -8.503   8.631  63.411  1.00  0.00    -0.081 A  
HETATM   25  C   UNL     1      -9.566   9.081  66.788  1.00  0.00    -0.200 A  
HETATM   26  C   UNL     1      -8.819   9.448  62.334  1.00  0.00    -0.257 A  
HETATM   27  C   UNL     1      -9.646  10.532  62.527  1.00  0.00    -0.241 A  
HETATM   28  C   UNL     1      -9.336   8.765  68.096  1.00  0.00    -0.140 A  
HETATM   29  C   UNL     1      -9.108   7.374  68.337  1.00  0.00    -0.132 C  
HETATM   30  C   UNL     1     -10.149  10.854  63.800  1.00  0.00    -0.413 A  
HETATM   31  C   UNL     1      -8.765   7.563  69.701  1.00  0.00    -0.137 A  
HETATM   32  C   UNL     1      -8.116   6.682  67.529  1.00  0.00    -0.118 C  
HETATM   33  C   UNL     1      -7.945   8.743  69.718  1.00  0.00    -0.095 A  
HETATM   34  C   UNL     1      -8.053   7.123  66.193  1.00  0.00    -0.121 A  
BRANCH   4  35
HETATM   35  N   UNL     1     -12.191  11.789  70.919  1.00  0.00    -0.337 N  
HETATM   36  C   UNL     1     -12.306  13.247  71.076  1.00  0.00    -0.291 C  
HETATM   37  C   UNL     1     -13.144  11.089  71.685  1.00  0.00    -0.438 C  
HETATM   38  O   UNL     1     -13.922  11.655  72.473  1.00  0.00     0.267 OA 
BRANCH  37  39
HETATM   39  C   UNL     1     -13.253   9.617  71.674  1.00  0.00    -0.499 A  
HETATM   40  C   UNL     1     -12.442   7.482  72.492  1.00  0.00     0.041 A  
HETATM   41  C   UNL     1     -12.354   8.877  72.451  1.00  0.00    -0.385 A  
HETATM   42  C   UNL     1     -13.414   6.823  71.747  1.00  0.00    -0.173 A  
HETATM   43  C   UNL     1     -14.340   7.569  71.016  1.00  0.00    -0.096 A  
HETATM   44  C   UNL     1     -14.294   8.960  71.032  1.00  0.00     0.066 A  
ENDBRANCH  37  39
ENDBRANCH   4  35
ENDBRANCH   2   3
TORSDOF 3
ENDMDL
MODEL       58
REMARK 921   NORMALIZED FREE ENERGY PREDICTED BY IDOCK:   -3.35 KCAL/MOL
REMARK 922        TOTAL FREE ENERGY PREDICTED BY IDOCK:   -4.46 KCAL/MOL
REMARK 923 INTER-LIGAND FREE ENERGY PREDICTED BY IDOCK:   -8.01 KCAL/MOL
REMARK 924 INTRA-LIGAND FREE ENERGY PREDICTED BY IDOCK:    3.55 KCAL/MOL
REMARK 927      BINDING AFFINITY PREDICTED BY RF-SCORE:    0.00 PKD
ROOT
HETATM    1  C   UNL     1      -8.702   9.089  72.223  1.00  0.00     0.391 C  
HETATM    2  O   UNL     1     -10.033   9.123  71.705  1.00  0.00    -0.320 OA 
ENDROOT
BRANCH   2   3
HETATM    3  C   UNL     1     -10.304   8.793  70.284  1.00  0.00    -0.203 C  
HETATM    4  C   UNL     1      -9.474   7.520  69.980  1.00  0.00    -0.161 C  
HETATM    5  C   UNL     1      -8.044   7.917  69.612  1.00  0.00    -0.117 C  
HETATM    6  O   UNL     1      -7.589   8.126  62.581  1.00  0.00    -0.107 OA 
HETATM    7  C   UNL     1      -8.327   5.969  66.163  1.00  0.00    -0.126 A  
HETATM    8  C   UNL     1      -8.333   8.978  63.054  1.00  0.00    -0.197 C  
HETATM    9  C   UNL     1      -7.969   9.210  68.773  1.00  0.00    -0.100 C  
HETATM   10  H   UNL     1      -8.025  10.490  61.596  1.00  0.00     0.000 HD 
HETATM   11  O   UNL     1      -8.762  10.344  69.278  1.00  0.00    -0.159 OA 
HETATM   12  C   UNL     1      -7.138   5.423  66.645  1.00  0.00    -0.069 A  
HETATM   13  C   UNL     1      -5.990   6.210  66.654  1.00  0.00    -0.025 A  
HETATM   14  C   UNL     1     -10.187  10.109  69.341  1.00  0.00    -0.227 C  
HETATM   15  N   UNL     1      -8.489  10.239  62.470  1.00  0.00    -0.160 N  
HETATM   16  N   UNL     1     -10.657  10.432  67.958  1.00  0.00    -0.203 NA 
HETATM   17  C   UNL     1     -11.089  11.057  70.204  1.00  0.00    -0.175 C  
HETATM   18  C   UNL     1      -6.092   7.606  66.576  1.00  0.00    -0.044 A  
HETATM   19  C   UNL     1     -11.195  11.687  67.386  1.00  0.00    -0.298 A  
HETATM   20  C   UNL     1     -10.914  11.793  65.951  1.00  0.00    -0.354 A  
HETATM   21  N   UNL     1      -8.207   8.889  67.370  1.00  0.00    -0.108 NA 
HETATM   22  C   UNL     1      -9.349  11.175  63.178  1.00  0.00    -0.328 C  
HETATM   23  C   UNL     1     -10.318  10.596  65.562  1.00  0.00    -0.297 A  
HETATM   24  C   UNL     1     -11.256  12.974  65.242  1.00  0.00    -0.316 A  
HETATM   25  C   UNL     1     -10.209   9.927  66.779  1.00  0.00    -0.236 A  
HETATM   26  C   UNL     1     -11.913  14.026  65.867  1.00  0.00    -0.424 A  
HETATM   27  C   UNL     1     -12.245  13.921  67.198  1.00  0.00    -0.353 A  
HETATM   28  C   UNL     1      -9.388   8.840  66.688  1.00  0.00    -0.189 A  
HETATM   29  C   UNL     1      -9.378   8.214  65.402  1.00  0.00     0.270 C  
HETATM   30  C   UNL     1     -11.900  12.786  67.954  1.00  0.00    -0.392 A  
HETATM   31  C   UNL     1      -8.324   7.322  65.734  1.00  0.00    -0.140 A  
HETATM   32  C   UNL     1      -9.156   9.042  64.228  1.00  0.00     0.123 C  
HETATM   33  C   UNL     1      -7.389   8.114  66.484  1.00  0.00    -0.081 A  
HETATM   34  C   UNL     1      -9.725  10.327  64.313  1.00  0.00    -0.373 A  
BRANCH   4  35
HETATM   35  N   UNL     1      -9.536   6.445  71.105  1.00  0.00    -0.167 N  
HETATM   36  C   UNL     1      -8.360   5.603  71.374  1.00  0.00    -0.127 C  
HETATM   37  C   UNL     1     -10.546   6.283  72.073  1.00  0.00    -0.217 C  
HETATM   38  O   UNL     1     -10.473   5.447  72.990  1.00  0.00    -0.185 OA 
BRANCH  37  39
HETATM   39  C   UNL     1     -11.812   7.042  72.041  1.00  0.00    -0.336 A  
HETATM   40  C   UNL     1     -14.139   7.146  71.360  1.00  0.00    -0.406 A  
HETATM   41  C   UNL     1     -12.912   6.473  71.389  1.00  0.00     0.057 A  
HETATM   42  C   UNL     1     -14.265   8.390  71.968  1.00  0.00    -0.528 A  
HETATM   43  C   UNL     1     -13.179   8.927  72.662  1.00  0.00    -0.363 A  
HETATM   44  C   UNL     1     -11.981   8.226  72.747  1.00  0.00    -0.243 A  
ENDBRANCH  37  39
ENDBRANCH   4  35
ENDBRANCH   2   3
TORSDOF 3
ENDMDL
MODEL       59
REMARK 921   NORMALIZED FREE ENERGY PREDICTED BY IDOCK:   -3.34 KCAL/MOL
REMARK 922        TOTAL FREE ENERGY PREDICTED BY IDOCK:   -4.45 KCAL/MOL
REMARK 923 INTER-LIGAND FREE ENERGY PREDICTED BY IDOCK:   -6.49 KCAL/MOL
REMARK 924 INTRA-LIGAND FREE ENERGY PREDICTED BY IDOCK:    2.04 KCAL/MOL
REMARK 927      BINDING AFFINITY PREDICTED BY RF-SCORE:    0.00 PKD
ROOT
HETATM    1  C   UNL     1      -5.132   8.135  67.627  1.00  0.00    -0.033 C  
HETATM    2  O   UNL     1      -6.259   7.379  67.181  1.00  0.00    -0.047 OA 
ENDROOT
BRANCH   2   3
HETATM    3  C   UNL     1      -7.628   7.947  67.243  1.00  0.00    -0.101 C  
HETATM    4  C   UNL     1      -7.596   9.222  66.362  1.00  0.00    -0.093 C  
HETATM    5  C   UNL     1      -7.073  10.400  67.186  1.00  0.00    -0.090 C  
HETATM    6  O   UNL     1     -12.631  13.985  69.624  1.00  0.00    -0.253 OA 
HETATM    7  C   UNL     1     -10.343  12.500  66.370  1.00  0.00    -0.261 A  
HETATM    8  C   UNL     1     -12.531  12.854  70.086  1.00  0.00    -0.074 C  
HETATM    9  C   UNL     1      -7.559  10.381  68.650  1.00  0.00    -0.092 C  
HETATM   10  H   UNL     1     -13.375  13.232  71.997  1.00  0.00     0.000 HD 
HETATM   11  O   UNL     1      -7.422   9.092  69.351  1.00  0.00    -0.073 OA 
HETATM   12  C   UNL     1      -9.369  13.430  66.008  1.00  0.00    -0.010 A  
HETATM   13  C   UNL     1      -8.635  14.062  67.008  1.00  0.00    -0.193 A  
HETATM   14  C   UNL     1      -8.174   8.003  68.770  1.00  0.00    -0.126 C  
HETATM   15  N   UNL     1     -12.935  12.542  71.388  1.00  0.00    -0.320 N  
HETATM   16  N   UNL     1      -9.535   8.155  69.374  1.00  0.00    -0.162 NA 
HETATM   17  C   UNL     1      -7.824   6.527  69.163  1.00  0.00    -0.110 C  
HETATM   18  C   UNL     1      -8.573  13.507  68.293  1.00  0.00    -0.168 A  
HETATM   19  C   UNL     1     -10.136   7.531  70.575  1.00  0.00    -0.188 A  
HETATM   20  C   UNL     1     -11.160   8.391  71.176  1.00  0.00    -0.301 A  
HETATM   21  N   UNL     1      -8.894  10.965  68.723  1.00  0.00    -0.165 NA 
HETATM   22  C   UNL     1     -12.692  11.176  71.827  1.00  0.00    -0.291 C  
HETATM   23  C   UNL     1     -11.316   9.491  70.335  1.00  0.00    -0.318 A  
HETATM   24  C   UNL     1     -11.779   8.017  72.397  1.00  0.00    -0.444 A  
HETATM   25  C   UNL     1     -10.335   9.252  69.376  1.00  0.00    -0.215 A  
HETATM   26  C   UNL     1     -11.480   6.812  73.018  1.00  0.00    -0.026 A  
HETATM   27  C   UNL     1     -10.570   5.959  72.437  1.00  0.00    -0.257 A  
HETATM   28  C   UNL     1     -10.107  10.352  68.600  1.00  0.00    -0.176 A  
HETATM   29  C   UNL     1     -11.251  11.192  68.416  1.00  0.00    -0.325 C  
HETATM   30  C   UNL     1      -9.904   6.297  71.244  1.00  0.00    -0.197 A  
HETATM   31  C   UNL     1     -10.520  12.210  67.747  1.00  0.00    -0.222 A  
HETATM   32  C   UNL     1     -11.995  11.619  69.589  1.00  0.00    -0.390 C  
HETATM   33  C   UNL     1      -9.286  12.321  68.476  1.00  0.00    -0.099 A  
HETATM   34  C   UNL     1     -12.066  10.651  70.610  1.00  0.00    -0.461 A  
BRANCH   4  35
HETATM   35  N   UNL     1      -6.838   9.038  65.015  1.00  0.00    -0.076 N  
HETATM   36  C   UNL     1      -5.961  10.110  64.520  1.00  0.00    -0.130 C  
HETATM   37  C   UNL     1      -6.722   7.856  64.258  1.00  0.00    -0.060 C  
HETATM   38  O   UNL     1      -6.024   7.779  63.232  1.00  0.00    -0.057 OA 
BRANCH  37  39
HETATM   39  C   UNL     1      -7.477   6.627  64.575  1.00  0.00    -0.094 A  
HETATM   40  C   UNL     1      -7.456   4.230  64.943  1.00  0.00    -0.073 A  
HETATM   41  C   UNL     1      -6.784   5.412  64.618  1.00  0.00    -0.047 A  
HETATM   42  C   UNL     1      -8.820   4.254  65.211  1.00  0.00    -0.131 A  
HETATM   43  C   UNL     1      -9.494   5.477  65.219  1.00  0.00     0.179 A  
HETATM   44  C   UNL     1      -8.810   6.661  64.962  1.00  0.00     0.277 A  
ENDBRANCH  37  39
ENDBRANCH   4  35
ENDBRANCH   2   3
TORSDOF 3
ENDMDL
MODEL       60
REMARK 921   NORMALIZED FREE ENERGY PREDICTED BY IDOCK:   -3.28 KCAL/MOL
REMARK 922        TOTAL FREE ENERGY PREDICTED BY IDOCK:   -4.38 KCAL/MOL
REMARK 923 INTER-LIGAND FREE ENERGY PREDICTED BY IDOCK:   -4.98 KCAL/MOL
REMARK 924 INTRA-LIGAND FREE ENERGY PREDICTED BY IDOCK:    0.59 KCAL/MOL
REMARK 927      BINDING AFFINITY PREDICTED BY RF-SCORE:    0.00 PKD
ROOT
HETATM    1  C   UNL     1     -11.305  16.810  67.108  1.00  0.00     0.439 C  
HETATM    2  O   UNL     1     -10.154  16.730  67.952  1.00  0.00    -0.265 OA 
ENDROOT
BRANCH   2   3
HETATM    3  C   UNL     1      -9.744  15.439  68.557  1.00  0.00    -0.204 C  
HETATM    4  C   UNL     1      -8.688  14.838  67.596  1.00  0.00    -0.178 C  
HETATM    5  C   UNL     1      -9.393  14.081  66.469  1.00  0.00    -0.274 C  
HETATM    6  O   UNL     1      -9.565   7.253  68.210  1.00  0.00    -0.146 OA 
HETATM    7  C   UNL     1      -7.366  10.779  67.337  1.00  0.00    -0.094 A  
HETATM    8  C   UNL     1     -10.235   7.969  68.947  1.00  0.00    -0.209 C  
HETATM    9  C   UNL     1     -10.652  13.325  66.940  1.00  0.00    -0.264 C  
HETATM   10  H   UNL     1     -11.749   6.564  69.437  1.00  0.00     0.000 HD 
HETATM   11  O   UNL     1     -11.586  14.100  67.776  1.00  0.00    -0.308 OA 
HETATM   12  C   UNL     1      -7.114  10.857  65.968  1.00  0.00    -0.067 A  
HETATM   13  C   UNL     1      -8.141  10.564  65.075  1.00  0.00    -0.096 A  
HETATM   14  C   UNL     1     -11.034  14.571  69.026  1.00  0.00    -0.257 C  
HETATM   15  N   UNL     1     -11.417   7.522  69.548  1.00  0.00     0.161 N  
HETATM   16  N   UNL     1     -11.215  13.409  69.950  1.00  0.00     0.001 NA 
HETATM   17  C   UNL     1     -11.768  15.711  69.813  1.00  0.00    -0.368 C  
HETATM   18  C   UNL     1      -9.475  10.591  65.504  1.00  0.00    -0.265 A  
HETATM   19  C   UNL     1     -12.304  13.088  70.900  1.00  0.00    -0.288 A  
HETATM   20  C   UNL     1     -12.444  11.642  71.095  1.00  0.00    -0.412 A  
HETATM   21  N   UNL     1     -10.259  12.041  67.511  1.00  0.00    -0.196 NA 
HETATM   22  C   UNL     1     -12.145   8.501  70.341  1.00  0.00     0.263 C  
HETATM   23  C   UNL     1     -11.407  11.032  70.393  1.00  0.00    -0.222 A  
HETATM   24  C   UNL     1     -13.502  11.127  71.888  1.00  0.00    -0.284 A  
HETATM   25  C   UNL     1     -10.804  12.126  69.777  1.00  0.00     0.390 A  
HETATM   26  C   UNL     1     -14.389  11.971  72.544  1.00  0.00     1.070 A  
HETATM   27  C   UNL     1     -14.236  13.334  72.427  1.00  0.00    -0.334 A  
HETATM   28  C   UNL     1      -9.930  11.740  68.801  1.00  0.00    -0.115 A  
HETATM   29  C   UNL     1      -9.298  10.479  69.039  1.00  0.00    -0.205 C  
HETATM   30  C   UNL     1     -13.224  13.895  71.628  1.00  0.00    -0.446 A  
HETATM   31  C   UNL     1      -8.675  10.438  67.764  1.00  0.00    -0.122 A  
HETATM   32  C   UNL     1     -10.132   9.336  69.371  1.00  0.00    -0.200 C  
HETATM   33  C   UNL     1      -9.674  10.914  66.847  1.00  0.00    -0.181 A  
HETATM   34  C   UNL     1     -11.255   9.652  70.160  1.00  0.00    -0.302 A  
BRANCH   4  35
HETATM   35  N   UNL     1      -7.649  15.873  67.076  1.00  0.00    -0.219 N  
HETATM   36  C   UNL     1      -7.920  16.620  65.837  1.00  0.00     0.237 C  
HETATM   37  C   UNL     1      -6.514  16.357  67.757  1.00  0.00    -0.138 C  
HETATM   38  O   UNL     1      -5.781  17.250  67.296  1.00  0.00    -0.121 OA 
BRANCH  37  39
HETATM   39  C   UNL     1      -6.053  15.793  69.041  1.00  0.00    -0.116 A  
HETATM   40  C   UNL     1      -5.283  16.184  71.309  1.00  0.00    -0.040 A  
HETATM   41  C   UNL     1      -5.697  16.677  70.066  1.00  0.00    -0.217 A  
HETATM   42  C   UNL     1      -5.211  14.813  71.525  1.00  0.00    -0.132 A  
HETATM   43  C   UNL     1      -5.618  13.938  70.516  1.00  0.00    -0.147 A  
HETATM   44  C   UNL     1      -6.094  14.431  69.305  1.00  0.00    -0.105 A  
ENDBRANCH  37  39
ENDBRANCH   4  35
ENDBRANCH   2   3
TORSDOF 3
ENDMDL
MODEL       61
REMARK 921   NORMALIZED FREE ENERGY PREDICTED BY IDOCK:   -3.28 KCAL/MOL
REMARK 922        TOTAL FREE ENERGY PREDICTED BY IDOCK:   -4.38 KCAL/MOL
REMARK 923 INTER-LIGAND FREE ENERGY PREDICTED BY IDOCK:   -5.41 KCAL/MOL
REMARK 924 INTRA-LIGAND FREE ENERGY PREDICTED BY IDOCK:    1.03 KCAL/MOL
REMARK 927      BINDING AFFINITY PREDICTED BY RF-SCORE:    0.00 PKD
ROOT
HETATM    1  C   UNL     1     -10.948   6.997  66.830  1.00  0.00    -0.201 C  
HETATM    2  O   UNL     1      -9.983   7.391  65.853  1.00  0.00     0.267 OA 
ENDROOT
BRANCH   2   3
HETATM    3  C   UNL     1      -8.875   8.311  66.209  1.00  0.00    -0.161 C  
HETATM    4  C   UNL     1      -8.003   7.544  67.236  1.00  0.00    -0.118 C  
HETATM    5  C   UNL     1      -8.591   7.718  68.637  1.00  0.00    -0.129 C  
HETATM    6  O   UNL     1      -5.133  12.975  71.813  1.00  0.00    -0.187 OA 
HETATM    7  C   UNL     1      -5.137   9.146  69.977  1.00  0.00    -0.029 A  
HETATM    8  C   UNL     1      -5.798  13.333  70.847  1.00  0.00    -0.099 C  
HETATM    9  C   UNL     1      -9.168   9.127  68.884  1.00  0.00    -0.139 C  
HETATM   10  H   UNL     1      -6.290  15.283  71.525  1.00  0.00     0.000 HD 
HETATM   11  O   UNL     1     -10.052   9.649  67.827  1.00  0.00    -0.166 OA 
HETATM   12  C   UNL     1      -5.370   8.159  70.933  1.00  0.00    -0.029 A  
HETATM   13  C   UNL     1      -6.369   8.361  71.882  1.00  0.00    -0.064 A  
HETATM   14  C   UNL     1      -9.427   9.802  66.533  1.00  0.00    -0.177 C  
HETATM   15  N   UNL     1      -6.410  14.589  70.787  1.00  0.00    -0.113 N  
HETATM   16  N   UNL     1      -8.777  11.148  66.615  1.00  0.00    -0.160 NA 
HETATM   17  C   UNL     1     -10.322   9.967  65.257  1.00  0.00    -0.058 C  
HETATM   18  C   UNL     1      -7.374   9.311  71.654  1.00  0.00     0.214 A  
HETATM   19  C   UNL     1      -9.263  12.484  66.202  1.00  0.00    -0.073 A  
HETATM   20  C   UNL     1      -8.670  13.551  67.014  1.00  0.00    -0.197 A  
HETATM   21  N   UNL     1      -8.086  10.031  69.262  1.00  0.00    -0.127 NA 
HETATM   22  C   UNL     1      -7.226  14.852  69.612  1.00  0.00    -0.166 C  
HETATM   23  C   UNL     1      -7.733  12.952  67.853  1.00  0.00    -0.143 A  
HETATM   24  C   UNL     1      -9.090  14.895  66.844  1.00  0.00    -0.271 A  
HETATM   25  C   UNL     1      -7.904  11.604  67.550  1.00  0.00    -0.137 A  
HETATM   26  C   UNL     1     -10.019  15.243  65.874  1.00  0.00    -0.368 A  
HETATM   27  C   UNL     1     -10.542  14.267  65.056  1.00  0.00    -0.444 A  
HETATM   28  C   UNL     1      -7.288  10.796  68.462  1.00  0.00    -0.096 A  
HETATM   29  C   UNL     1      -6.116  11.363  69.055  1.00  0.00    -0.054 C  
HETATM   30  C   UNL     1     -10.183  12.915  65.205  1.00  0.00    -0.288 A  
HETATM   31  C   UNL     1      -5.956  10.305  69.989  1.00  0.00    -0.063 A  
HETATM   32  C   UNL     1      -6.202  12.698  69.625  1.00  0.00    -0.122 C  
HETATM   33  C   UNL     1      -7.285  10.011  70.449  1.00  0.00    -0.108 A  
HETATM   34  C   UNL     1      -7.052  13.571  68.920  1.00  0.00    -0.093 A  
BRANCH   4  35
HETATM   35  N   UNL     1      -7.753   6.054  66.861  1.00  0.00    -0.099 N  
HETATM   36  C   UNL     1      -7.176   5.719  65.551  1.00  0.00    -0.074 C  
HETATM   37  C   UNL     1      -7.831   4.937  67.716  1.00  0.00    -0.094 C  
HETATM   38  O   UNL     1      -7.532   3.787  67.351  1.00  0.00    -0.066 OA 
BRANCH  37  39
HETATM   39  C   UNL     1      -8.345   5.023  69.097  1.00  0.00    -0.086 A  
HETATM   40  C   UNL     1     -10.200   4.719  70.632  1.00  0.00    -0.250 A  
HETATM   41  C   UNL     1      -9.681   4.679  69.333  1.00  0.00    -0.272 A  
HETATM   42  C   UNL     1      -9.393   5.115  71.692  1.00  0.00    -0.183 A  
HETATM   43  C   UNL     1      -8.047   5.405  71.458  1.00  0.00    -0.117 A  
HETATM   44  C   UNL     1      -7.516   5.299  70.177  1.00  0.00    -0.068 A  
ENDBRANCH  37  39
ENDBRANCH   4  35
ENDBRANCH   2   3
TORSDOF 3
ENDMDL
MODEL       62
REMARK 921   NORMALIZED FREE ENERGY PREDICTED BY IDOCK:   -3.27 KCAL/MOL
REMARK 922        TOTAL FREE ENERGY PREDICTED BY IDOCK:   -4.37 KCAL/MOL
REMARK 923 INTER-LIGAND FREE ENERGY PREDICTED BY IDOCK:   -5.69 KCAL/MOL
REMARK 924 INTRA-LIGAND FREE ENERGY PREDICTED BY IDOCK:    1.32 KCAL/MOL
REMARK 927      BINDING AFFINITY PREDICTED BY RF-SCORE:    0.00 PKD
ROOT
HETATM    1  C   UNL     1      -9.304   9.166  65.189  1.00  0.00    -0.110 C  
HETATM    2  O   UNL     1      -8.743   8.790  66.448  1.00  0.00    -0.127 OA 
ENDROOT
BRANCH   2   3
HETATM    3  C   UNL     1      -9.007   9.594  67.667  1.00  0.00    -0.125 C  
HETATM    4  C   UNL     1      -9.656   8.621  68.683  1.00  0.00    -0.155 C  
HETATM    5  C   UNL     1     -11.160   8.534  68.419  1.00  0.00     0.308 C  
HETATM    6  O   UNL     1     -14.401  12.984  72.823  1.00  0.00    -0.477 OA 
HETATM    7  C   UNL     1     -11.940   9.586  72.168  1.00  0.00    -0.155 A  
HETATM    8  C   UNL     1     -13.689  13.539  71.993  1.00  0.00    -0.478 C  
HETATM    9  C   UNL     1     -11.784   9.883  68.006  1.00  0.00     0.973 C  
HETATM   10  H   UNL     1     -14.806  15.333  71.790  1.00  0.00     0.000 HD 
HETATM   11  O   UNL     1     -11.063  10.623  66.954  1.00  0.00    -0.220 OA 
HETATM   12  C   UNL     1     -12.726   8.438  72.077  1.00  0.00    -0.399 A  
HETATM   13  C   UNL     1     -13.893   8.478  71.320  1.00  0.00    -0.212 A  
HETATM   14  C   UNL     1      -9.714  11.008  67.299  1.00  0.00    -0.166 C  
HETATM   15  N   UNL     1     -13.998  14.799  71.469  1.00  0.00    -0.434 N  
HETATM   16  N   UNL     1      -9.896  12.295  68.041  1.00  0.00    -0.198 NA 
HETATM   17  C   UNL     1      -8.721  11.441  66.166  1.00  0.00    -0.153 C  
HETATM   18  C   UNL     1     -14.073   9.480  70.356  1.00  0.00     0.962 A  
HETATM   19  C   UNL     1      -9.854  13.698  67.570  1.00  0.00    -0.227 A  
HETATM   20  C   UNL     1     -10.696  14.571  68.393  1.00  0.00    -0.246 A  
HETATM   21  N   UNL     1     -12.072  10.668  69.201  1.00  0.00    -0.307 NA 
HETATM   22  C   UNL     1     -13.103  15.305  70.441  1.00  0.00    -0.200 C  
HETATM   23  C   UNL     1     -11.182  13.797  69.444  1.00  0.00    -0.259 A  
HETATM   24  C   UNL     1     -10.873  15.934  68.039  1.00  0.00    -0.317 A  
HETATM   25  C   UNL     1     -10.681  12.538  69.121  1.00  0.00    -0.023 A  
HETATM   26  C   UNL     1     -10.214  16.487  66.950  1.00  0.00    -0.296 A  
HETATM   27  C   UNL     1      -9.367  15.702  66.200  1.00  0.00    -0.382 A  
HETATM   28  C   UNL     1     -11.270  11.553  69.862  1.00  0.00    -0.104 A  
HETATM   29  C   UNL     1     -11.682  11.963  71.168  1.00  0.00     0.856 C  
HETATM   30  C   UNL     1      -9.182  14.338  66.490  1.00  0.00    -0.259 A  
HETATM   31  C   UNL     1     -12.346  10.741  71.451  1.00  0.00    -0.433 A  
HETATM   32  C   UNL     1     -12.492  13.164  71.296  1.00  0.00    -0.327 C  
HETATM   33  C   UNL     1     -13.028  10.398  70.234  1.00  0.00    -0.032 A  
HETATM   34  C   UNL     1     -12.166  14.179  70.376  1.00  0.00    -0.427 A  
BRANCH   4  35
HETATM   35  N   UNL     1      -8.969   7.226  68.747  1.00  0.00    -0.130 N  
HETATM   36  C   UNL     1      -8.438   6.618  67.517  1.00  0.00    -0.121 C  
HETATM   37  C   UNL     1      -8.599   6.511  69.903  1.00  0.00    -0.139 C  
HETATM   38  O   UNL     1      -7.976   5.436  69.859  1.00  0.00    -0.079 OA 
BRANCH  37  39
HETATM   39  C   UNL     1      -8.984   6.937  71.263  1.00  0.00    -0.142 A  
HETATM   40  C   UNL     1     -10.185   6.455  73.314  1.00  0.00    -0.230 A  
HETATM   41  C   UNL     1      -9.821   6.102  72.011  1.00  0.00    -0.174 A  
HETATM   42  C   UNL     1      -9.729   7.646  73.867  1.00  0.00    -0.136 A  
HETATM   43  C   UNL     1      -8.851   8.449  73.135  1.00  0.00    -0.217 A  
HETATM   44  C   UNL     1      -8.436   8.062  71.865  1.00  0.00    -0.176 A  
ENDBRANCH  37  39
ENDBRANCH   4  35
ENDBRANCH   2   3
TORSDOF 3
ENDMDL
MODEL       63
REMARK 921   NORMALIZED FREE ENERGY PREDICTED BY IDOCK:   -3.23 KCAL/MOL
REMARK 922        TOTAL FREE ENERGY PREDICTED BY IDOCK:   -4.32 KCAL/MOL
REMARK 923 INTER-LIGAND FREE ENERGY PREDICTED BY IDOCK:   -4.76 KCAL/MOL
REMARK 924 INTRA-LIGAND FREE ENERGY PREDICTED BY IDOCK:    0.44 KCAL/MOL
REMARK 927      BINDING AFFINITY PREDICTED BY RF-SCORE:    0.00 PKD
ROOT
HETATM    1  C   UNL     1      -9.502   3.087  67.108  1.00  0.00    -0.080 C  
HETATM    2  O   UNL     1      -9.487   4.035  68.177  1.00  0.00    -0.157 OA 
ENDROOT
BRANCH   2   3
HETATM    3  C   UNL     1      -8.399   5.038  68.287  1.00  0.00    -0.095 C  
HETATM    4  C   UNL     1      -7.755   4.813  69.678  1.00  0.00    -0.059 C  
HETATM    5  C   UNL     1      -8.555   5.569  70.740  1.00  0.00    -0.128 C  
HETATM    6  O   UNL     1      -5.359  11.748  71.876  1.00  0.00    -0.358 OA 
HETATM    7  C   UNL     1      -5.289   7.503  71.909  1.00  0.00    -0.036 A  
HETATM    8  C   UNL     1      -5.833  11.636  70.751  1.00  0.00    -0.014 C  
HETATM    9  C   UNL     1      -9.079   6.934  70.248  1.00  0.00    -0.153 C  
HETATM   10  H   UNL     1      -6.313  13.677  70.422  1.00  0.00     0.000 HD 
HETATM   11  O   UNL     1      -9.745   6.926  68.934  1.00  0.00    -0.142 OA 
HETATM   12  C   UNL     1      -5.736   7.027  73.141  1.00  0.00    -0.045 A  
HETATM   13  C   UNL     1      -6.863   7.605  73.719  1.00  0.00    -0.099 A  
HETATM   14  C   UNL     1      -8.907   6.511  67.832  1.00  0.00    -0.114 C  
HETATM   15  N   UNL     1      -6.351  12.729  70.048  1.00  0.00    -0.052 N  
HETATM   16  N   UNL     1      -8.200   7.769  67.435  1.00  0.00    -0.122 NA 
HETATM   17  C   UNL     1      -9.569   6.086  66.476  1.00  0.00    -0.182 C  
HETATM   18  C   UNL     1      -7.758   8.342  72.931  1.00  0.00    -0.171 A  
HETATM   19  C   UNL     1      -8.531   8.782  66.407  1.00  0.00    -0.121 A  
HETATM   20  C   UNL     1      -8.017  10.107  66.767  1.00  0.00    -0.115 A  
HETATM   21  N   UNL     1      -8.023   7.932  70.380  1.00  0.00    -0.096 NA 
HETATM   22  C   UNL     1      -6.946  12.437  68.753  1.00  0.00    -0.094 C  
HETATM   23  C   UNL     1      -7.268   9.952  67.932  1.00  0.00    -0.087 A  
HETATM   24  C   UNL     1      -8.322  11.234  65.961  1.00  0.00    -0.071 A  
HETATM   25  C   UNL     1      -7.467   8.603  68.217  1.00  0.00    -0.095 A  
HETATM   26  C   UNL     1      -9.057  11.106  64.790  1.00  0.00    -0.096 A  
HETATM   27  C   UNL     1      -9.495   9.862  64.399  1.00  0.00    -0.304 A  
HETATM   28  C   UNL     1      -7.059   8.286  69.480  1.00  0.00    -0.053 A  
HETATM   29  C   UNL     1      -5.969   9.076  69.964  1.00  0.00    -0.031 C  
HETATM   30  C   UNL     1      -9.247   8.717  65.178  1.00  0.00    -0.029 A  
HETATM   31  C   UNL     1      -6.028   8.535  71.275  1.00  0.00    -0.040 A  
HETATM   32  C   UNL     1      -6.068  10.524  69.875  1.00  0.00    -0.079 C  
HETATM   33  C   UNL     1      -7.430   8.447  71.578  1.00  0.00    -0.098 A  
HETATM   34  C   UNL     1      -6.737  10.986  68.726  1.00  0.00    -0.065 A  
BRANCH   4  35
HETATM   35  N   UNL     1      -7.536   3.314  70.036  1.00  0.00    -0.044 N  
HETATM   36  C   UNL     1      -6.732   2.462  69.146  1.00  0.00    -0.033 C  
HETATM   37  C   UNL     1      -7.861   2.671  71.247  1.00  0.00    -0.044 C  
HETATM   38  O   UNL     1      -7.573   1.484  71.477  1.00  0.00    -0.035 OA 
BRANCH  37  39
HETATM   39  C   UNL     1      -8.635   3.329  72.318  1.00  0.00    -0.096 A  
HETATM   40  C   UNL     1     -10.794   3.755  73.339  1.00  0.00    -0.315 A  
HETATM   41  C   UNL     1     -10.026   3.172  72.326  1.00  0.00    -0.236 A  
HETATM   42  C   UNL     1     -10.180   4.505  74.335  1.00  0.00    -0.282 A  
HETATM   43  C   UNL     1      -8.787   4.614  74.351  1.00  0.00    -0.108 A  
HETATM   44  C   UNL     1      -8.020   3.977  73.381  1.00  0.00    -0.089 A  
ENDBRANCH  37  39
ENDBRANCH   4  35
ENDBRANCH   2   3
TORSDOF 3
ENDMDL
MODEL       64
REMARK 921   NORMALIZED FREE ENERGY PREDICTED BY IDOCK:   -3.16 KCAL/MOL
REMARK 922        TOTAL FREE ENERGY PREDICTED BY IDOCK:   -4.25 KCAL/MOL
REMARK 923 INTER-LIGAND FREE ENERGY PREDICTED BY IDOCK:   -5.48 KCAL/MOL
REMARK 924 INTRA-LIGAND FREE ENERGY PREDICTED BY IDOCK:    1.23 KCAL/MOL
REMARK 927      BINDING AFFINITY PREDICTED BY RF-SCORE:    0.00 PKD
ROOT
HETATM    1  C   UNL     1     -12.509  12.507  64.924  1.00  0.00    -0.450 C  
HETATM    2  O   UNL     1     -11.570  12.996  63.964  1.00  0.00    -0.379 OA 
ENDROOT
BRANCH   2   3
HETATM    3  C   UNL     1     -10.296  13.620  64.399  1.00  0.00    -0.216 C  
HETATM    4  C   UNL     1      -9.413  12.459  64.922  1.00  0.00     0.240 C  
HETATM    5  C   UNL     1      -9.764  12.167  66.381  1.00  0.00    -0.243 C  
HETATM    6  O   UNL     1      -5.134  15.582  70.454  1.00  0.00    -0.117 OA 
HETATM    7  C   UNL     1      -5.978  12.693  67.459  1.00  0.00    -0.151 A  
HETATM    8  C   UNL     1      -5.867  16.324  69.809  1.00  0.00    -0.182 C  
HETATM    9  C   UNL     1     -10.079  13.438  67.196  1.00  0.00    -0.240 C  
HETATM   10  H   UNL     1      -5.957  17.934  71.190  1.00  0.00     0.000 HD 
HETATM   11  O   UNL     1     -11.015  14.385  66.565  1.00  0.00    -0.305 OA 
HETATM   12  C   UNL     1      -6.220  11.453  68.047  1.00  0.00    -0.049 A  
HETATM   13  C   UNL     1      -7.032  11.389  69.177  1.00  0.00    -0.118 A  
HETATM   14  C   UNL     1     -10.564  14.938  65.308  1.00  0.00    -0.401 C  
HETATM   15  N   UNL     1      -6.284  17.568  70.296  1.00  0.00     0.085 N  
HETATM   16  N   UNL     1      -9.713  16.097  65.721  1.00  0.00    -0.435 NA 
HETATM   17  C   UNL     1     -11.596  15.634  64.355  1.00  0.00    -0.250 C  
HETATM   18  C   UNL     1      -7.903  12.444  69.478  1.00  0.00     0.921 A  
HETATM   19  C   UNL     1     -10.045  17.531  65.886  1.00  0.00    -0.185 A  
HETATM   20  C   UNL     1      -9.187  18.173  66.887  1.00  0.00    -0.278 A  
HETATM   21  N   UNL     1      -8.831  14.042  67.651  1.00  0.00    -0.179 NA 
HETATM   22  C   UNL     1      -7.210  18.310  69.455  1.00  0.00     0.019 C  
HETATM   23  C   UNL     1      -8.242  17.229  67.282  1.00  0.00    -0.213 A  
HETATM   24  C   UNL     1      -9.419  19.521  67.266  1.00  0.00    -0.422 A  
HETATM   25  C   UNL     1      -8.657  16.103  66.575  1.00  0.00    -0.306 A  
HETATM   26  C   UNL     1     -10.413  20.279  66.663  1.00  0.00    -0.327 A  
HETATM   27  C   UNL     1     -11.188  19.716  65.675  1.00  0.00     0.226 A  
HETATM   28  C   UNL     1      -8.047  14.968  67.026  1.00  0.00    -0.190 A  
HETATM   29  C   UNL     1      -6.731  15.172  67.547  1.00  0.00    -0.189 C  
HETATM   30  C   UNL     1     -11.021  18.375  65.285  1.00  0.00     0.664 A  
HETATM   31  C   UNL     1      -6.602  13.839  68.017  1.00  0.00    -0.142 A  
HETATM   32  C   UNL     1      -6.532  16.213  68.542  1.00  0.00    -0.117 C  
HETATM   33  C   UNL     1      -7.881  13.521  68.589  1.00  0.00    -0.084 A  
HETATM   34  C   UNL     1      -7.332  17.356  68.348  1.00  0.00    -0.227 A  
BRANCH   4  35
HETATM   35  N   UNL     1      -9.447  11.188  64.023  1.00  0.00    -0.224 N  
HETATM   36  C   UNL     1      -9.348  11.326  62.562  1.00  0.00    -0.179 C  
HETATM   37  C   UNL     1      -9.368   9.846  64.443  1.00  0.00    -0.265 C  
HETATM   38  O   UNL     1      -9.318   8.892  63.646  1.00  0.00     0.468 OA 
BRANCH  37  39
HETATM   39  C   UNL     1      -9.412   9.450  65.864  1.00  0.00    -0.315 A  
HETATM   40  C   UNL     1     -10.737   9.068  67.860  1.00  0.00    -0.200 A  
HETATM   41  C   UNL     1     -10.648   9.464  66.521  1.00  0.00    -0.125 A  
HETATM   42  C   UNL     1      -9.596   8.673  68.548  1.00  0.00    -0.162 A  
HETATM   43  C   UNL     1      -8.376   8.611  67.872  1.00  0.00    -0.123 A  
HETATM   44  C   UNL     1      -8.301   8.939  66.522  1.00  0.00    -0.115 A  
ENDBRANCH  37  39
ENDBRANCH   4  35
ENDBRANCH   2   3
TORSDOF 3
ENDMDL
MODEL       65
REMARK 921   NORMALIZED FREE ENERGY PREDICTED BY IDOCK:   -3.16 KCAL/MOL
REMARK 922        TOTAL FREE ENERGY PREDICTED BY IDOCK:   -4.24 KCAL/MOL
REMARK 923 INTER-LIGAND FREE ENERGY PREDICTED BY IDOCK:   -4.86 KCAL/MOL
REMARK 924 INTRA-LIGAND FREE ENERGY PREDICTED BY IDOCK:    0.62 KCAL/MOL
REMARK 927      BINDING AFFINITY PREDICTED BY RF-SCORE:    0.00 PKD
ROOT
HETATM    1  C   UNL     1      -9.304   9.166  65.189  1.00  0.00    -0.110 C  
HETATM    2  O   UNL     1      -8.743   8.790  66.448  1.00  0.00    -0.127 OA 
ENDROOT
BRANCH   2   3
HETATM    3  C   UNL     1      -9.007   9.594  67.667  1.00  0.00    -0.125 C  
HETATM    4  C   UNL     1      -9.656   8.621  68.683  1.00  0.00    -0.155 C  
HETATM    5  C   UNL     1     -11.160   8.534  68.419  1.00  0.00     0.308 C  
HETATM    6  O   UNL     1     -14.401  12.984  72.823  1.00  0.00    -0.477 OA 
HETATM    7  C   UNL     1     -11.940   9.586  72.168  1.00  0.00    -0.155 A  
HETATM    8  C   UNL     1     -13.689  13.539  71.993  1.00  0.00    -0.478 C  
HETATM    9  C   UNL     1     -11.784   9.883  68.006  1.00  0.00     0.973 C  
HETATM   10  H   UNL     1     -14.806  15.333  71.790  1.00  0.00     0.000 HD 
HETATM   11  O   UNL     1     -11.063  10.623  66.954  1.00  0.00    -0.220 OA 
HETATM   12  C   UNL     1     -12.726   8.438  72.077  1.00  0.00    -0.399 A  
HETATM   13  C   UNL     1     -13.893   8.478  71.320  1.00  0.00    -0.212 A  
HETATM   14  C   UNL     1      -9.714  11.008  67.299  1.00  0.00    -0.166 C  
HETATM   15  N   UNL     1     -13.998  14.799  71.469  1.00  0.00    -0.434 N  
HETATM   16  N   UNL     1      -9.896  12.295  68.041  1.00  0.00    -0.198 NA 
HETATM   17  C   UNL     1      -8.721  11.441  66.166  1.00  0.00    -0.153 C  
HETATM   18  C   UNL     1     -14.073   9.480  70.356  1.00  0.00     0.962 A  
HETATM   19  C   UNL     1      -9.854  13.698  67.570  1.00  0.00    -0.227 A  
HETATM   20  C   UNL     1     -10.696  14.571  68.393  1.00  0.00    -0.246 A  
HETATM   21  N   UNL     1     -12.072  10.668  69.201  1.00  0.00    -0.307 NA 
HETATM   22  C   UNL     1     -13.103  15.305  70.441  1.00  0.00    -0.200 C  
HETATM   23  C   UNL     1     -11.182  13.797  69.444  1.00  0.00    -0.259 A  
HETATM   24  C   UNL     1     -10.873  15.934  68.039  1.00  0.00    -0.317 A  
HETATM   25  C   UNL     1     -10.681  12.538  69.121  1.00  0.00    -0.023 A  
HETATM   26  C   UNL     1     -10.214  16.487  66.950  1.00  0.00    -0.296 A  
HETATM   27  C   UNL     1      -9.367  15.702  66.200  1.00  0.00    -0.382 A  
HETATM   28  C   UNL     1     -11.270  11.553  69.862  1.00  0.00    -0.104 A  
HETATM   29  C   UNL     1     -11.682  11.963  71.168  1.00  0.00     0.856 C  
HETATM   30  C   UNL     1      -9.182  14.338  66.490  1.00  0.00    -0.259 A  
HETATM   31  C   UNL     1     -12.346  10.741  71.451  1.00  0.00    -0.433 A  
HETATM   32  C   UNL     1     -12.492  13.164  71.296  1.00  0.00    -0.327 C  
HETATM   33  C   UNL     1     -13.028  10.398  70.234  1.00  0.00    -0.032 A  
HETATM   34  C   UNL     1     -12.166  14.179  70.376  1.00  0.00    -0.427 A  
BRANCH   4  35
HETATM   35  N   UNL     1      -8.969   7.226  68.747  1.00  0.00    -0.130 N  
HETATM   36  C   UNL     1      -9.554   6.091  68.017  1.00  0.00    -0.117 C  
HETATM   37  C   UNL     1      -7.699   6.926  69.279  1.00  0.00    -0.105 C  
HETATM   38  O   UNL     1      -7.192   5.793  69.212  1.00  0.00    -0.063 OA 
BRANCH  37  39
HETATM   39  C   UNL     1      -6.894   7.911  70.027  1.00  0.00    -0.045 A  
HETATM   40  C   UNL     1      -6.244   8.844  72.171  1.00  0.00    -0.049 A  
HETATM   41  C   UNL     1      -7.011   7.945  71.422  1.00  0.00    -0.055 A  
HETATM   42  C   UNL     1      -5.373   9.717  71.531  1.00  0.00    -0.077 A  
HETATM   43  C   UNL     1      -5.222   9.642  70.145  1.00  0.00    -0.032 A  
HETATM   44  C   UNL     1      -5.935   8.702  69.408  1.00  0.00    -0.040 A  
ENDBRANCH  37  39
ENDBRANCH   4  35
ENDBRANCH   2   3
TORSDOF 3
ENDMDL
MODEL       66
REMARK 921   NORMALIZED FREE ENERGY PREDICTED BY IDOCK:   -3.07 KCAL/MOL
REMARK 922        TOTAL FREE ENERGY PREDICTED BY IDOCK:   -4.13 KCAL/MOL
REMARK 923 INTER-LIGAND FREE ENERGY PREDICTED BY IDOCK:   -4.74 KCAL/MOL
REMARK 924 INTRA-LIGAND FREE ENERGY PREDICTED BY IDOCK:    0.61 KCAL/MOL
REMARK 927      BINDING AFFINITY PREDICTED BY RF-SCORE:    0.00 PKD
ROOT
HETATM    1  C   UNL     1      -5.777  13.691  70.979  1.00  0.00    -0.201 C  
HETATM    2  O   UNL     1      -6.770  13.160  70.099  1.00  0.00     0.157 OA 
ENDROOT
BRANCH   2   3
HETATM    3  C   UNL     1      -6.417  12.133  69.089  1.00  0.00    -0.099 C  
HETATM    4  C   UNL     1      -7.051  12.612  67.758  1.00  0.00    -0.126 C  
HETATM    5  C   UNL     1      -8.513  12.165  67.698  1.00  0.00    -0.163 C  
HETATM    6  O   UNL     1      -8.804   6.179  63.987  1.00  0.00     0.297 OA 
HETATM    7  C   UNL     1      -7.867  10.313  64.246  1.00  0.00    -0.117 A  
HETATM    8  C   UNL     1      -8.200   6.074  65.049  1.00  0.00    -0.136 C  
HETATM    9  C   UNL     1      -8.746  10.766  68.303  1.00  0.00    -0.136 C  
HETATM   10  H   UNL     1      -8.677   4.049  65.469  1.00  0.00     0.000 HD 
HETATM   11  O   UNL     1      -8.133  10.531  69.623  1.00  0.00    -0.139 OA 
HETATM   12  C   UNL     1      -8.980  11.077  63.898  1.00  0.00    -0.059 A  
HETATM   13  C   UNL     1     -10.227  10.720  64.403  1.00  0.00    -0.432 A  
HETATM   14  C   UNL     1      -6.692  10.635  69.650  1.00  0.00    -0.116 C  
HETATM   15  N   UNL     1      -8.207   4.892  65.798  1.00  0.00    -0.112 N  
HETATM   16  N   UNL     1      -6.235   9.274  69.228  1.00  0.00    -0.041 NA 
HETATM   17  C   UNL     1      -5.955  10.796  71.024  1.00  0.00     0.086 C  
HETATM   18  C   UNL     1     -10.320   9.893  65.531  1.00  0.00    -0.060 A  
HETATM   19  C   UNL     1      -5.863   8.086  70.029  1.00  0.00    -0.022 A  
HETATM   20  C   UNL     1      -6.117   6.840  69.299  1.00  0.00    -0.026 A  
HETATM   21  N   UNL     1      -8.428   9.749  67.305  1.00  0.00    -0.124 NA 
HETATM   22  C   UNL     1      -7.506   4.933  67.071  1.00  0.00    -0.087 C  
HETATM   23  C   UNL     1      -6.529   7.194  68.016  1.00  0.00    -0.048 A  
HETATM   24  C   UNL     1      -5.926   5.587  69.937  1.00  0.00    -0.021 A  
HETATM   25  C   UNL     1      -6.576   8.583  68.110  1.00  0.00    -0.061 A  
HETATM   26  C   UNL     1      -5.440   5.505  71.235  1.00  0.00    -0.009 A  
HETATM   27  C   UNL     1      -5.132   6.661  71.916  1.00  0.00    -0.027 A  
HETATM   28  C   UNL     1      -7.233   9.140  67.051  1.00  0.00    -0.090 A  
HETATM   29  C   UNL     1      -7.121   8.401  65.831  1.00  0.00    -0.072 C  
HETATM   30  C   UNL     1      -5.334   7.929  71.341  1.00  0.00    -0.034 A  
HETATM   31  C   UNL     1      -8.048   9.220  65.133  1.00  0.00    -0.124 A  
HETATM   32  C   UNL     1      -7.426   6.980  65.849  1.00  0.00    -0.080 C  
HETATM   33  C   UNL     1      -9.105   9.470  66.074  1.00  0.00    -0.176 A  
HETATM   34  C   UNL     1      -7.044   6.325  67.036  1.00  0.00    -0.073 A  
BRANCH   4  35
HETATM   35  N   UNL     1      -6.870  14.134  67.487  1.00  0.00    -0.177 N  
HETATM   36  C   UNL     1      -5.520  14.718  67.484  1.00  0.00     0.184 C  
HETATM   37  C   UNL     1      -7.849  15.042  67.037  1.00  0.00    -0.129 C  
HETATM   38  O   UNL     1      -7.594  16.228  66.766  1.00  0.00    -0.219 OA 
BRANCH  37  39
HETATM   39  C   UNL     1      -9.276  14.683  66.920  1.00  0.00    -0.267 A  
HETATM   40  C   UNL     1     -11.441  14.451  67.990  1.00  0.00    -0.336 A  
HETATM   41  C   UNL     1     -10.077  14.755  68.065  1.00  0.00    -0.218 A  
HETATM   42  C   UNL     1     -12.003  14.063  66.780  1.00  0.00    -0.473 A  
HETATM   43  C   UNL     1     -11.210  14.044  65.631  1.00  0.00    -0.310 A  
HETATM   44  C   UNL     1      -9.870  14.412  65.694  1.00  0.00    -0.322 A  
ENDBRANCH  37  39
ENDBRANCH   4  35
ENDBRANCH   2   3
TORSDOF 3
ENDMDL
MODEL       67
REMARK 921   NORMALIZED FREE ENERGY PREDICTED BY IDOCK:   -2.81 KCAL/MOL
REMARK 922        TOTAL FREE ENERGY PREDICTED BY IDOCK:   -3.83 KCAL/MOL
REMARK 923 INTER-LIGAND FREE ENERGY PREDICTED BY IDOCK:   -6.09 KCAL/MOL
REMARK 924 INTRA-LIGAND FREE ENERGY PREDICTED BY IDOCK:    2.25 KCAL/MOL
REMARK 927      BINDING AFFINITY PREDICTED BY RF-SCORE:    0.00 PKD
ROOT
HETATM    1  C   UNL     1      -7.722  11.872  69.419  1.00  0.00     0.415 C  
HETATM    2  O   UNL     1      -8.823  11.917  68.510  1.00  0.00    -0.169 OA 
ENDROOT
BRANCH   2   3
HETATM    3  C   UNL     1      -9.226  10.712  67.744  1.00  0.00    -0.146 C  
HETATM    4  C   UNL     1     -10.006   9.819  68.742  1.00  0.00    -0.169 C  
HETATM    5  C   UNL     1      -9.021   8.973  69.549  1.00  0.00    -0.147 C  
HETATM    6  O   UNL     1      -8.575   2.641  66.484  1.00  0.00    -0.100 OA 
HETATM    7  C   UNL     1     -10.868   5.642  68.424  1.00  0.00    -0.161 A  
HETATM    8  C   UNL     1      -8.138   3.556  65.795  1.00  0.00    -0.093 C  
HETATM    9  C   UNL     1      -7.818   8.481  68.718  1.00  0.00    -0.110 C  
HETATM   10  H   UNL     1      -6.631   2.467  64.770  1.00  0.00     0.000 HD 
HETATM   11  O   UNL     1      -7.149   9.505  67.897  1.00  0.00    -0.079 OA 
HETATM   12  C   UNL     1     -10.844   5.444  69.804  1.00  0.00    -0.180 A  
HETATM   13  C   UNL     1      -9.634   5.132  70.420  1.00  0.00    -0.252 A  
HETATM   14  C   UNL     1      -7.983  10.115  66.887  1.00  0.00    -0.114 C  
HETATM   15  N   UNL     1      -7.066   3.379  64.914  1.00  0.00    -0.060 N  
HETATM   16  N   UNL     1      -7.886   9.168  65.733  1.00  0.00    -0.097 NA 
HETATM   17  C   UNL     1      -7.532  11.461  66.222  1.00  0.00     0.047 C  
HETATM   18  C   UNL     1      -8.423   5.406  69.770  1.00  0.00    -0.100 A  
HETATM   19  C   UNL     1      -6.988   9.163  64.557  1.00  0.00    -0.090 A  
HETATM   20  C   UNL     1      -6.757   7.805  64.056  1.00  0.00    -0.061 A  
HETATM   21  N   UNL     1      -8.199   7.278  67.983  1.00  0.00    -0.119 NA 
HETATM   22  C   UNL     1      -6.606   4.568  64.213  1.00  0.00    -0.043 C  
HETATM   23  C   UNL     1      -7.570   6.952  64.799  1.00  0.00    -0.108 A  
HETATM   24  C   UNL     1      -5.838   7.580  62.999  1.00  0.00    -0.050 A  
HETATM   25  C   UNL     1      -8.134   7.832  65.719  1.00  0.00    -0.125 A  
HETATM   26  C   UNL     1      -5.184   8.634  62.374  1.00  0.00    -0.071 A  
HETATM   27  C   UNL     1      -5.435   9.923  62.785  1.00  0.00    -0.094 A  
HETATM   28  C   UNL     1      -8.753   7.171  66.741  1.00  0.00    -0.127 A  
HETATM   29  C   UNL     1      -9.301   5.901  66.375  1.00  0.00    -0.171 C  
HETATM   30  C   UNL     1      -6.312  10.198  63.850  1.00  0.00    -0.127 A  
HETATM   31  C   UNL     1      -9.646   5.554  67.708  1.00  0.00    -0.138 A  
HETATM   32  C   UNL     1      -8.449   4.951  65.677  1.00  0.00    -0.124 C  
HETATM   33  C   UNL     1      -8.531   5.986  68.505  1.00  0.00    -0.113 A  
HETATM   34  C   UNL     1      -7.543   5.544  64.777  1.00  0.00    -0.079 A  
BRANCH   4  35
HETATM   35  N   UNL     1     -11.009  10.604  69.637  1.00  0.00    -0.261 N  
HETATM   36  C   UNL     1     -11.198  10.208  71.041  1.00  0.00    -0.247 C  
HETATM   37  C   UNL     1     -11.657  11.816  69.329  1.00  0.00    -0.315 C  
HETATM   38  O   UNL     1     -12.381  12.418  70.141  1.00  0.00    -0.236 OA 
BRANCH  37  39
HETATM   39  C   UNL     1     -11.591  12.440  67.992  1.00  0.00    -0.403 A  
HETATM   40  C   UNL     1     -10.975  14.355  66.637  1.00  0.00    -0.318 A  
HETATM   41  C   UNL     1     -11.081  13.739  67.888  1.00  0.00    -0.285 A  
HETATM   42  C   UNL     1     -11.389  13.684  65.493  1.00  0.00    -0.308 A  
HETATM   43  C   UNL     1     -11.847  12.369  65.597  1.00  0.00    -0.468 A  
HETATM   44  C   UNL     1     -11.888  11.734  66.834  1.00  0.00    -0.090 A  
ENDBRANCH  37  39
ENDBRANCH   4  35
ENDBRANCH   2   3
TORSDOF 3
ENDMDL
MODEL       68
REMARK 921   NORMALIZED FREE ENERGY PREDICTED BY IDOCK:   -2.76 KCAL/MOL
REMARK 922        TOTAL FREE ENERGY PREDICTED BY IDOCK:   -3.77 KCAL/MOL
REMARK 923 INTER-LIGAND FREE ENERGY PREDICTED BY IDOCK:   -3.18 KCAL/MOL
REMARK 924 INTRA-LIGAND FREE ENERGY PREDICTED BY IDOCK:   -0.59 KCAL/MOL
REMARK 927      BINDING AFFINITY PREDICTED BY RF-SCORE:    0.00 PKD
ROOT
HETATM    1  C   UNL     1     -10.334   8.414  66.789  1.00  0.00    -0.287 C  
HETATM    2  O   UNL     1     -10.043   9.508  67.660  1.00  0.00    -0.179 OA 
ENDROOT
BRANCH   2   3
HETATM    3  C   UNL     1      -9.223  10.653  67.194  1.00  0.00    -0.147 C  
HETATM    4  C   UNL     1      -8.007  10.720  68.152  1.00  0.00    -0.114 C  
HETATM    5  C   UNL     1      -8.388  11.508  69.406  1.00  0.00     0.500 C  
HETATM    6  O   UNL     1      -6.220  18.159  68.535  1.00  0.00    -0.189 OA 
HETATM    7  C   UNL     1      -5.360  14.011  68.825  1.00  0.00    -0.083 A  
HETATM    8  C   UNL     1      -7.109  17.823  67.760  1.00  0.00    -0.195 C  
HETATM    9  C   UNL     1      -9.316  12.705  69.114  1.00  0.00     0.673 C  
HETATM   10  H   UNL     1      -8.053  19.712  67.545  1.00  0.00     0.000 HD 
HETATM   11  O   UNL     1     -10.475  12.417  68.251  1.00  0.00    -0.212 OA 
HETATM   12  C   UNL     1      -5.126  13.664  70.155  1.00  0.00    -0.093 A  
HETATM   13  C   UNL     1      -5.973  14.163  71.141  1.00  0.00    -0.168 A  
HETATM   14  C   UNL     1     -10.142  11.963  66.920  1.00  0.00    -0.207 C  
HETATM   15  N   UNL     1      -8.074  18.723  67.296  1.00  0.00    -0.242 N  
HETATM   16  N   UNL     1      -9.926  13.234  66.159  1.00  0.00    -0.289 NA 
HETATM   17  C   UNL     1     -11.238  11.261  66.046  1.00  0.00    -0.108 C  
HETATM   18  C   UNL     1      -7.241  14.651  70.798  1.00  0.00     0.947 A  
HETATM   19  C   UNL     1     -10.854  14.033  65.327  1.00  0.00    -0.347 A  
HETATM   20  C   UNL     1     -10.489  15.453  65.322  1.00  0.00    -0.440 A  
HETATM   21  N   UNL     1      -8.513  13.844  68.682  1.00  0.00    -0.126 NA 
HETATM   22  C   UNL     1      -9.109  18.170  66.437  1.00  0.00    -0.241 C  
HETATM   23  C   UNL     1      -9.292  15.571  66.026  1.00  0.00    -0.379 A  
HETATM   24  C   UNL     1     -11.318  16.401  64.668  1.00  0.00    -0.166 A  
HETATM   25  C   UNL     1      -9.094  14.263  66.462  1.00  0.00    -0.185 A  
HETATM   26  C   UNL     1     -12.453  16.008  63.971  1.00  0.00     0.857 A  
HETATM   27  C   UNL     1     -12.779  14.672  63.909  1.00  0.00     0.485 A  
HETATM   28  C   UNL     1      -8.124  14.190  67.420  1.00  0.00    -0.189 A  
HETATM   29  C   UNL     1      -7.099  15.181  67.299  1.00  0.00    -0.161 C  
HETATM   30  C   UNL     1     -12.009  13.696  64.567  1.00  0.00    -0.454 A  
HETATM   31  C   UNL     1      -6.478  14.833  68.528  1.00  0.00    -0.092 A  
HETATM   32  C   UNL     1      -7.492  16.574  67.165  1.00  0.00    -0.217 C  
HETATM   33  C   UNL     1      -7.563  14.602  69.441  1.00  0.00    -0.081 A  
HETATM   34  C   UNL     1      -8.669  16.771  66.418  1.00  0.00    -0.337 A  
BRANCH   4  35
HETATM   35  N   UNL     1      -7.381   9.332  68.473  1.00  0.00    -0.076 N  
HETATM   36  C   UNL     1      -7.613   8.714  69.787  1.00  0.00    -0.079 C  
HETATM   37  C   UNL     1      -6.747   8.455  67.571  1.00  0.00    -0.063 C  
HETATM   38  O   UNL     1      -6.348   7.324  67.899  1.00  0.00    -0.044 OA 
BRANCH  37  39
HETATM   39  C   UNL     1      -6.434   8.831  66.178  1.00  0.00    -0.065 A  
HETATM   40  C   UNL     1      -7.002   8.686  63.824  1.00  0.00    -0.087 A  
HETATM   41  C   UNL     1      -7.247   8.331  65.155  1.00  0.00    -0.079 A  
HETATM   42  C   UNL     1      -5.941   9.527  63.511  1.00  0.00    -0.094 A  
HETATM   43  C   UNL     1      -5.166  10.065  64.541  1.00  0.00    -0.082 A  
HETATM   44  C   UNL     1      -5.453   9.765  65.869  1.00  0.00    -0.044 A  
ENDBRANCH  37  39
ENDBRANCH   4  35
ENDBRANCH   2   3
TORSDOF 3
ENDMDL
MODEL       69
REMARK 921   NORMALIZED FREE ENERGY PREDICTED BY IDOCK:   -2.72 KCAL/MOL
REMARK 922        TOTAL FREE ENERGY PREDICTED BY IDOCK:   -3.72 KCAL/MOL
REMARK 923 INTER-LIGAND FREE ENERGY PREDICTED BY IDOCK:   -4.98 KCAL/MOL
REMARK 924 INTRA-LIGAND FREE ENERGY PREDICTED BY IDOCK:    1.26 KCAL/MOL
REMARK 927      BINDING AFFINITY PREDICTED BY RF-SCORE:    0.00 PKD
ROOT
HETATM    1  C   UNL     1     -10.457   9.436  71.382  1.00  0.00    -0.288 C  
HETATM    2  O   UNL     1     -10.060   9.267  70.020  1.00  0.00    -0.187 OA 
ENDROOT
BRANCH   2   3
HETATM    3  C   UNL     1      -8.938   8.365  69.662  1.00  0.00    -0.145 C  
HETATM    4  C   UNL     1      -8.211   9.044  68.475  1.00  0.00    -0.112 C  
HETATM    5  C   UNL     1      -8.916   8.680  67.167  1.00  0.00    -0.148 C  
HETATM    6  O   UNL     1      -5.470   3.252  64.278  1.00  0.00    -0.009 OA 
HETATM    7  C   UNL     1      -5.524   7.266  65.662  1.00  0.00    -0.028 A  
HETATM    8  C   UNL     1      -6.021   2.980  65.340  1.00  0.00    -0.019 C  
HETATM    9  C   UNL     1      -9.430   7.226  67.139  1.00  0.00    -0.145 C  
HETATM   10  H   UNL     1      -6.460   0.942  64.937  1.00  0.00     0.000 HD 
HETATM   11  O   UNL     1     -10.182   6.792  68.330  1.00  0.00    -0.157 OA 
HETATM   12  C   UNL     1      -5.902   8.122  64.629  1.00  0.00    -0.045 A  
HETATM   13  C   UNL     1      -6.970   7.763  63.812  1.00  0.00    -0.064 A  
HETATM   14  C   UNL     1      -9.431   6.821  69.565  1.00  0.00    -0.148 C  
HETATM   15  N   UNL     1      -6.551   1.712  65.601  1.00  0.00    -0.023 N  
HETATM   16  N   UNL     1      -8.716   5.507  69.571  1.00  0.00    -0.104 NA 
HETATM   17  C   UNL     1     -10.194   6.766  70.933  1.00  0.00    -0.215 C  
HETATM   18  C   UNL     1      -7.894   6.801  64.243  1.00  0.00    -0.109 A  
HETATM   19  C   UNL     1      -9.084   4.207  70.178  1.00  0.00    -0.113 A  
HETATM   20  C   UNL     1      -8.508   3.081  69.437  1.00  0.00    -0.100 A  
HETATM   21  N   UNL     1      -8.339   6.335  66.760  1.00  0.00    -0.109 NA 
HETATM   22  C   UNL     1      -7.239   1.552  66.872  1.00  0.00    -0.047 C  
HETATM   23  C   UNL     1      -7.689   3.620  68.447  1.00  0.00    -0.060 A  
HETATM   24  C   UNL     1      -8.832   1.748  69.798  1.00  0.00    -0.122 A  
HETATM   25  C   UNL     1      -7.908   4.985  68.612  1.00  0.00    -0.078 A  
HETATM   26  C   UNL     1      -9.646   1.474  70.889  1.00  0.00    -0.182 A  
HETATM   27  C   UNL     1     -10.146   2.515  71.639  1.00  0.00    -0.064 A  
HETATM   28  C   UNL     1      -7.427   5.707  67.558  1.00  0.00    -0.081 A  
HETATM   29  C   UNL     1      -6.284   5.130  66.920  1.00  0.00    -0.032 C  
HETATM   30  C   UNL     1      -9.881   3.855  71.303  1.00  0.00    -0.227 A  
HETATM   31  C   UNL     1      -6.272   6.077  65.862  1.00  0.00    -0.037 A  
HETATM   32  C   UNL     1      -6.345   3.734  66.516  1.00  0.00    -0.036 C  
HETATM   33  C   UNL     1      -7.653   6.252  65.505  1.00  0.00    -0.087 A  
HETATM   34  C   UNL     1      -7.075   2.912  67.395  1.00  0.00    -0.053 A  
BRANCH   4  35
HETATM   35  N   UNL     1      -8.013  10.578  68.652  1.00  0.00    -0.116 N  
HETATM   36  C   UNL     1      -7.244  11.087  69.798  1.00  0.00    -0.001 C  
HETATM   37  C   UNL     1      -8.324  11.590  67.722  1.00  0.00    -0.136 C  
HETATM   38  O   UNL     1      -8.054  12.788  67.915  1.00  0.00    -0.134 OA 
BRANCH  37  39
HETATM   39  C   UNL     1      -9.062  11.325  66.471  1.00  0.00    -0.193 A  
HETATM   40  C   UNL     1      -9.012  10.577  64.164  1.00  0.00    -0.237 A  
HETATM   41  C   UNL     1      -8.346  10.867  65.359  1.00  0.00    -0.051 A  
HETATM   42  C   UNL     1     -10.387  10.756  64.072  1.00  0.00    -0.357 A  
HETATM   43  C   UNL     1     -11.103  11.162  65.200  1.00  0.00    -0.079 A  
HETATM   44  C   UNL     1     -10.448  11.385  66.407  1.00  0.00    -0.299 A  
ENDBRANCH  37  39
ENDBRANCH   4  35
ENDBRANCH   2   3
TORSDOF 3
ENDMDL
MODEL       70
REMARK 921   NORMALIZED FREE ENERGY PREDICTED BY IDOCK:   -2.69 KCAL/MOL
REMARK 922        TOTAL FREE ENERGY PREDICTED BY IDOCK:   -3.69 KCAL/MOL
REMARK 923 INTER-LIGAND FREE ENERGY PREDICTED BY IDOCK:   -6.49 KCAL/MOL
REMARK 924 INTRA-LIGAND FREE ENERGY PREDICTED BY IDOCK:    2.80 KCAL/MOL
REMARK 927      BINDING AFFINITY PREDICTED BY RF-SCORE:    0.00 PKD
ROOT
HETATM    1  C   UNL     1      -9.544   4.881  72.678  1.00  0.00    -0.138 C  
HETATM    2  O   UNL     1      -8.739   5.604  71.745  1.00  0.00    -0.134 OA 
ENDROOT
BRANCH   2   3
HETATM    3  C   UNL     1      -9.315   6.100  70.470  1.00  0.00    -0.161 C  
HETATM    4  C   UNL     1      -8.395   5.551  69.350  1.00  0.00    -0.101 C  
HETATM    5  C   UNL     1      -7.198   6.485  69.168  1.00  0.00    -0.091 C  
HETATM    6  O   UNL     1      -8.641  10.860  63.833  1.00  0.00    -0.087 OA 
HETATM    7  C   UNL     1      -8.049   6.925  65.314  1.00  0.00    -0.134 A  
HETATM    8  C   UNL     1      -9.365  11.015  64.810  1.00  0.00    -0.209 C  
HETATM    9  C   UNL     1      -7.559   7.976  69.326  1.00  0.00    -0.096 C  
HETATM   10  H   UNL     1      -9.704  13.101  64.606  1.00  0.00     0.000 HD 
HETATM   11  O   UNL     1      -8.369   8.313  70.511  1.00  0.00    -0.115 OA 
HETATM   12  C   UNL     1      -6.702   6.577  65.220  1.00  0.00    -0.043 A  
HETATM   13  C   UNL     1      -5.737   7.505  65.603  1.00  0.00    -0.037 A  
HETATM   14  C   UNL     1      -9.668   7.682  70.558  1.00  0.00    -0.182 C  
HETATM   15  N   UNL     1      -9.874  12.268  65.169  1.00  0.00    -0.208 N  
HETATM   16  N   UNL     1     -10.531   8.594  69.744  1.00  0.00    -0.217 NA 
HETATM   17  C   UNL     1     -10.456   7.638  71.912  1.00  0.00    -0.256 C  
HETATM   18  C   UNL     1      -6.085   8.581  66.430  1.00  0.00    -0.056 A  
HETATM   19  C   UNL     1     -11.399   9.722  70.148  1.00  0.00    -0.251 A  
HETATM   20  C   UNL     1     -11.525  10.719  69.080  1.00  0.00    -0.368 A  
HETATM   21  N   UNL     1      -8.100   8.478  68.067  1.00  0.00    -0.115 NA 
HETATM   22  C   UNL     1     -10.661  12.316  66.392  1.00  0.00    -0.242 C  
HETATM   23  C   UNL     1     -10.863  10.209  67.966  1.00  0.00    -0.320 A  
HETATM   24  C   UNL     1     -12.231  11.928  69.311  1.00  0.00    -0.169 A  
HETATM   25  C   UNL     1     -10.330   9.026  68.472  1.00  0.00    -0.203 A  
HETATM   26  C   UNL     1     -12.865  12.173  70.521  1.00  0.00     0.065 A  
HETATM   27  C   UNL     1     -12.815  11.223  71.516  1.00  0.00    -0.519 A  
HETATM   28  C   UNL     1      -9.394   8.492  67.633  1.00  0.00    -0.137 A  
HETATM   29  C   UNL     1      -9.618   8.766  66.248  1.00  0.00    -0.328 C  
HETATM   30  C   UNL     1     -12.102  10.022  71.349  1.00  0.00    -0.498 A  
HETATM   31  C   UNL     1      -8.382   8.203  65.834  1.00  0.00    -0.134 A  
HETATM   32  C   UNL     1      -9.850  10.142  65.840  1.00  0.00    -0.308 C  
HETATM   33  C   UNL     1      -7.426   8.642  66.813  1.00  0.00    -0.086 A  
HETATM   34  C   UNL     1     -10.582  10.903  66.773  1.00  0.00    -0.313 A  
BRANCH   4  35
HETATM   35  N   UNL     1      -7.982   4.063  69.547  1.00  0.00    -0.056 N  
HETATM   36  C   UNL     1      -8.443   3.046  68.590  1.00  0.00    -0.068 C  
HETATM   37  C   UNL     1      -7.029   3.557  70.452  1.00  0.00    -0.034 C  
HETATM   38  O   UNL     1      -6.700   2.359  70.484  1.00  0.00    -0.031 OA 
BRANCH  37  39
HETATM   39  C   UNL     1      -6.391   4.392  71.490  1.00  0.00    -0.019 A  
HETATM   40  C   UNL     1      -5.704   4.640  73.803  1.00  0.00    -0.017 A  
HETATM   41  C   UNL     1      -6.326   3.894  72.796  1.00  0.00    -0.013 A  
HETATM   42  C   UNL     1      -5.163   5.887  73.513  1.00  0.00    -0.024 A  
HETATM   43  C   UNL     1      -5.185   6.354  72.197  1.00  0.00    -0.027 A  
HETATM   44  C   UNL     1      -5.742   5.581  71.184  1.00  0.00    -0.013 A  
ENDBRANCH  37  39
ENDBRANCH   4  35
ENDBRANCH   2   3
TORSDOF 3
ENDMDL
MODEL       71
REMARK 921   NORMALIZED FREE ENERGY PREDICTED BY IDOCK:   -2.69 KCAL/MOL
REMARK 922        TOTAL FREE ENERGY PREDICTED BY IDOCK:   -3.69 KCAL/MOL
REMARK 923 INTER-LIGAND FREE ENERGY PREDICTED BY IDOCK:   -4.81 KCAL/MOL
REMARK 924 INTRA-LIGAND FREE ENERGY PREDICTED BY IDOCK:    1.12 KCAL/MOL
REMARK 927      BINDING AFFINITY PREDICTED BY RF-SCORE:    0.00 PKD
ROOT
HETATM    1  C   UNL     1      -5.727  10.151  65.135  1.00  0.00    -0.107 C  
HETATM    2  O   UNL     1      -7.143  10.253  65.292  1.00  0.00    -0.133 OA 
ENDROOT
BRANCH   2   3
HETATM    3  C   UNL     1      -7.879   9.315  66.175  1.00  0.00    -0.099 C  
HETATM    4  C   UNL     1      -7.555   9.757  67.625  1.00  0.00    -0.091 C  
HETATM    5  C   UNL     1      -6.232   9.129  68.067  1.00  0.00    -0.051 C  
HETATM    6  O   UNL     1      -7.711   3.291  71.729  1.00  0.00    -0.051 OA 
HETATM    7  C   UNL     1      -7.993   7.498  71.230  1.00  0.00    -0.095 A  
HETATM    8  C   UNL     1      -8.027   3.226  70.546  1.00  0.00    -0.042 C  
HETATM    9  C   UNL     1      -6.037   7.691  67.545  1.00  0.00    -0.049 C  
HETATM   10  H   UNL     1      -7.729   1.143  70.268  1.00  0.00     0.000 HD 
HETATM   11  O   UNL     1      -6.310   7.490  66.111  1.00  0.00    -0.041 OA 
HETATM   12  C   UNL     1      -6.918   8.126  71.857  1.00  0.00    -0.081 A  
HETATM   13  C   UNL     1      -5.641   7.596  71.697  1.00  0.00    -0.035 A  
HETATM   14  C   UNL     1      -7.668   7.775  65.706  1.00  0.00    -0.099 C  
HETATM   15  N   UNL     1      -7.981   2.027  69.827  1.00  0.00    -0.042 N  
HETATM   16  N   UNL     1      -8.395   6.500  65.995  1.00  0.00    -0.127 NA 
HETATM   17  C   UNL     1      -7.994   7.980  64.187  1.00  0.00    -0.137 C  
HETATM   18  C   UNL     1      -5.368   6.724  70.634  1.00  0.00    -0.023 A  
HETATM   19  C   UNL     1      -8.700   5.341  65.126  1.00  0.00    -0.146 A  
HETATM   20  C   UNL     1      -8.811   4.099  65.897  1.00  0.00    -0.121 A  
HETATM   21  N   UNL     1      -6.735   6.760  68.426  1.00  0.00    -0.062 NA 
HETATM   22  C   UNL     1      -8.315   2.112  68.413  1.00  0.00    -0.058 C  
HETATM   23  C   UNL     1      -8.704   4.443  67.243  1.00  0.00    -0.108 A  
HETATM   24  C   UNL     1      -8.994   2.859  65.233  1.00  0.00    -0.143 A  
HETATM   25  C   UNL     1      -8.452   5.811  67.164  1.00  0.00    -0.107 A  
HETATM   26  C   UNL     1      -9.132   2.794  63.853  1.00  0.00    -0.104 A  
HETATM   27  C   UNL     1      -9.096   3.955  63.114  1.00  0.00    -0.111 A  
HETATM   28  C   UNL     1      -8.024   6.317  68.358  1.00  0.00    -0.105 A  
HETATM   29  C   UNL     1      -8.547   5.642  69.506  1.00  0.00    -0.110 C  
HETATM   30  C   UNL     1      -8.885   5.206  63.721  1.00  0.00     0.025 A  
HETATM   31  C   UNL     1      -7.734   6.361  70.422  1.00  0.00    -0.098 A  
HETATM   32  C   UNL     1      -8.439   4.194  69.570  1.00  0.00    -0.093 C  
HETATM   33  C   UNL     1      -6.445   6.440  69.792  1.00  0.00    -0.047 A  
HETATM   34  C   UNL     1      -8.582   3.551  68.325  1.00  0.00    -0.116 A  
BRANCH   4  35
HETATM   35  N   UNL     1      -7.598  11.298  67.837  1.00  0.00    -0.097 N  
HETATM   36  C   UNL     1      -6.553  12.146  67.242  1.00  0.00    -0.146 C  
HETATM   37  C   UNL     1      -8.651  12.052  68.391  1.00  0.00    -0.147 C  
HETATM   38  O   UNL     1      -8.634  13.294  68.446  1.00  0.00    -0.173 OA 
BRANCH  37  39
HETATM   39  C   UNL     1      -9.834  11.431  69.020  1.00  0.00    -0.056 A  
HETATM   40  C   UNL     1     -12.242  11.402  69.308  1.00  0.00    -0.271 A  
HETATM   41  C   UNL     1     -11.094  11.979  68.755  1.00  0.00    -0.298 A  
HETATM   42  C   UNL     1     -12.135  10.290  70.135  1.00  0.00    -0.279 A  
HETATM   43  C   UNL     1     -10.880   9.716  70.351  1.00  0.00    -0.353 A  
HETATM   44  C   UNL     1      -9.747  10.250  69.746  1.00  0.00    -0.183 A  
ENDBRANCH  37  39
ENDBRANCH   4  35
ENDBRANCH   2   3
TORSDOF 3
ENDMDL
MODEL       72
REMARK 921   NORMALIZED FREE ENERGY PREDICTED BY IDOCK:   -2.65 KCAL/MOL
REMARK 922        TOTAL FREE ENERGY PREDICTED BY IDOCK:   -3.64 KCAL/MOL
REMARK 923 INTER-LIGAND FREE ENERGY PREDICTED BY IDOCK:   -4.64 KCAL/MOL
REMARK 924 INTRA-LIGAND FREE ENERGY PREDICTED BY IDOCK:    1.00 KCAL/MOL
REMARK 927      BINDING AFFINITY PREDICTED BY RF-SCORE:    0.00 PKD
ROOT
HETATM    1  C   UNL     1      -7.223  10.272  70.330  1.00  0.00    -0.065 C  
HETATM    2  O   UNL     1      -8.481  10.285  69.652  1.00  0.00    -0.169 OA 
ENDROOT
BRANCH   2   3
HETATM    3  C   UNL     1      -8.803   9.258  68.631  1.00  0.00    -0.132 C  
HETATM    4  C   UNL     1      -9.298   8.019  69.419  1.00  0.00    -0.155 C  
HETATM    5  C   UNL     1      -8.096   7.187  69.871  1.00  0.00    -0.125 C  
HETATM    6  O   UNL     1      -7.149   2.010  65.182  1.00  0.00    -0.046 OA 
HETATM    7  C   UNL     1      -9.569   3.970  68.068  1.00  0.00    -0.195 A  
HETATM    8  C   UNL     1      -6.950   3.132  64.728  1.00  0.00    -0.053 C  
HETATM    9  C   UNL     1      -6.961   7.142  68.828  1.00  0.00    -0.082 C  
HETATM   10  H   UNL     1      -5.456   2.622  63.309  1.00  0.00     0.000 HD 
HETATM   11  O   UNL     1      -6.570   8.442  68.255  1.00  0.00    -0.058 OA 
HETATM   12  C   UNL     1      -9.325   3.440  69.335  1.00  0.00    -0.237 A  
HETATM   13  C   UNL     1      -8.010   3.205  69.726  1.00  0.00    -0.055 A  
HETATM   14  C   UNL     1      -7.617   9.126  67.531  1.00  0.00    -0.088 C  
HETATM   15  N   UNL     1      -5.996   3.376  63.734  1.00  0.00    -0.014 N  
HETATM   16  N   UNL     1      -7.541   8.531  66.160  1.00  0.00    -0.088 NA 
HETATM   17  C   UNL     1      -7.465  10.654  67.214  1.00  0.00    -0.099 C  
HETATM   18  C   UNL     1      -6.954   3.845  69.063  1.00  0.00    -0.046 A  
HETATM   19  C   UNL     1      -6.823   8.983  64.947  1.00  0.00    -0.076 A  
HETATM   20  C   UNL     1      -6.466   7.857  64.078  1.00  0.00    -0.061 A  
HETATM   21  N   UNL     1      -7.258   6.114  67.836  1.00  0.00    -0.081 NA 
HETATM   22  C   UNL     1      -5.819   4.765  63.340  1.00  0.00    -0.017 C  
HETATM   23  C   UNL     1      -7.034   6.714  64.637  1.00  0.00    -0.054 A  
HETATM   24  C   UNL     1      -5.679   8.072  62.917  1.00  0.00    -0.068 A  
HETATM   25  C   UNL     1      -7.589   7.220  65.810  1.00  0.00    -0.091 A  
HETATM   26  C   UNL     1      -5.281   9.348  62.542  1.00  0.00    -0.083 A  
HETATM   27  C   UNL     1      -5.660  10.428  63.308  1.00  0.00    -0.154 A  
HETATM   28  C   UNL     1      -7.956   6.224  66.668  1.00  0.00    -0.108 A  
HETATM   29  C   UNL     1      -8.356   5.010  66.027  1.00  0.00    -0.114 C  
HETATM   30  C   UNL     1      -6.412  10.265  64.485  1.00  0.00    -0.092 A  
HETATM   31  C   UNL     1      -8.458   4.284  67.243  1.00  0.00    -0.100 A  
HETATM   32  C   UNL     1      -7.478   4.433  65.021  1.00  0.00    -0.073 C  
HETATM   33  C   UNL     1      -7.320   4.694  68.017  1.00  0.00    -0.066 A  
HETATM   34  C   UNL     1      -6.802   5.385  64.233  1.00  0.00    -0.047 A  
BRANCH   4  35
HETATM   35  N   UNL     1     -10.272   8.361  70.584  1.00  0.00    -0.192 N  
HETATM   36  C   UNL     1     -11.512   9.101  70.303  1.00  0.00    -0.146 C  
HETATM   37  C   UNL     1     -10.223   7.877  71.906  1.00  0.00    -0.202 C  
HETATM   38  O   UNL     1     -11.095   8.139  72.752  1.00  0.00    -0.382 OA 
BRANCH  37  39
HETATM   39  C   UNL     1      -9.094   7.077  72.421  1.00  0.00    -0.147 A  
HETATM   40  C   UNL     1      -6.984   7.016  73.617  1.00  0.00    -0.069 A  
HETATM   41  C   UNL     1      -8.058   7.741  73.088  1.00  0.00    -0.183 A  
HETATM   42  C   UNL     1      -6.936   5.635  73.470  1.00  0.00    -0.085 A  
HETATM   43  C   UNL     1      -7.999   4.974  72.851  1.00  0.00    -0.101 A  
HETATM   44  C   UNL     1      -9.098   5.689  72.386  1.00  0.00    -0.144 A  
ENDBRANCH  37  39
ENDBRANCH   4  35
ENDBRANCH   2   3
TORSDOF 3
ENDMDL
MODEL       73
REMARK 921   NORMALIZED FREE ENERGY PREDICTED BY IDOCK:   -2.65 KCAL/MOL
REMARK 922        TOTAL FREE ENERGY PREDICTED BY IDOCK:   -3.64 KCAL/MOL
REMARK 923 INTER-LIGAND FREE ENERGY PREDICTED BY IDOCK:   -4.81 KCAL/MOL
REMARK 924 INTRA-LIGAND FREE ENERGY PREDICTED BY IDOCK:    1.17 KCAL/MOL
REMARK 927      BINDING AFFINITY PREDICTED BY RF-SCORE:    0.00 PKD
ROOT
HETATM    1  C   UNL     1      -6.468   9.744  64.211  1.00  0.00    -0.118 C  
HETATM    2  O   UNL     1      -7.719   9.315  63.669  1.00  0.00    -0.108 OA 
ENDROOT
BRANCH   2   3
HETATM    3  C   UNL     1      -8.534   8.287  64.362  1.00  0.00    -0.005 C  
HETATM    4  C   UNL     1      -9.087   8.975  65.636  1.00  0.00    -0.223 C  
HETATM    5  C   UNL     1      -8.045   8.896  66.753  1.00  0.00    -0.111 C  
HETATM    6  O   UNL     1      -9.628   3.360  70.818  1.00  0.00    -0.161 OA 
HETATM    7  C   UNL     1     -10.665   7.127  69.156  1.00  0.00    -0.216 A  
HETATM    8  C   UNL     1      -9.293   3.057  69.678  1.00  0.00    -0.144 C  
HETATM    9  C   UNL     1      -7.268   7.564  66.767  1.00  0.00    -0.084 C  
HETATM   10  H   UNL     1      -8.389   1.186  70.117  1.00  0.00     0.000 HD 
HETATM   11  O   UNL     1      -6.740   7.120  65.464  1.00  0.00    -0.050 OA 
HETATM   12  C   UNL     1     -10.233   8.153  69.994  1.00  0.00    -0.202 A  
HETATM   13  C   UNL     1      -8.957   8.081  70.546  1.00  0.00    -0.152 A  
HETATM   14  C   UNL     1      -7.744   6.872  64.455  1.00  0.00    -0.113 C  
HETATM   15  N   UNL     1      -8.603   1.874  69.394  1.00  0.00    -0.052 N  
HETATM   16  N   UNL     1      -8.176   5.466  64.728  1.00  0.00    -0.127 NA 
HETATM   17  C   UNL     1      -7.320   6.779  62.949  1.00  0.00    -0.073 C  
HETATM   18  C   UNL     1      -7.990   7.242  69.976  1.00  0.00    -0.117 A  
HETATM   19  C   UNL     1      -7.714   4.182  64.152  1.00  0.00    -0.083 A  
HETATM   20  C   UNL     1      -7.877   3.074  65.098  1.00  0.00    -0.082 A  
HETATM   21  N   UNL     1      -8.051   6.555  67.472  1.00  0.00    -0.120 NA 
HETATM   22  C   UNL     1      -8.207   1.678  68.008  1.00  0.00    -0.058 C  
HETATM   23  C   UNL     1      -8.536   3.584  66.215  1.00  0.00    -0.112 A  
HETATM   24  C   UNL     1      -7.394   1.780  64.773  1.00  0.00    -0.057 A  
HETATM   25  C   UNL     1      -8.627   4.936  65.895  1.00  0.00    -0.121 A  
HETATM   26  C   UNL     1      -6.814   1.516  63.539  1.00  0.00    -0.026 A  
HETATM   27  C   UNL     1      -6.709   2.526  62.611  1.00  0.00    -0.026 A  
HETATM   28  C   UNL     1      -8.984   5.691  66.975  1.00  0.00    -0.114 A  
HETATM   29  C   UNL     1      -9.817   5.012  67.920  1.00  0.00    -0.200 C  
HETATM   30  C   UNL     1      -7.143   3.834  62.895  1.00  0.00    -0.044 A  
HETATM   31  C   UNL     1      -9.768   6.065  68.870  1.00  0.00    -0.159 A  
HETATM   32  C   UNL     1      -9.398   3.706  68.403  1.00  0.00    -0.225 C  
HETATM   33  C   UNL     1      -8.402   6.512  68.860  1.00  0.00    -0.122 A  
HETATM   34  C   UNL     1      -8.744   2.917  67.437  1.00  0.00    -0.141 A  
BRANCH   4  35
HETATM   35  N   UNL     1      -9.611  10.420  65.395  1.00  0.00    -0.225 N  
HETATM   36  C   UNL     1     -10.762  10.640  64.505  1.00  0.00     0.074 C  
HETATM   37  C   UNL     1      -9.238  11.589  66.088  1.00  0.00    -0.219 C  
HETATM   38  O   UNL     1      -9.771  12.693  65.884  1.00  0.00    -0.256 OA 
BRANCH  37  39
HETATM   39  C   UNL     1      -8.131  11.618  67.065  1.00  0.00    -0.164 A  
HETATM   40  C   UNL     1      -5.777  12.005  67.504  1.00  0.00    -0.107 A  
HETATM   41  C   UNL     1      -6.848  11.937  66.606  1.00  0.00     0.086 A  
HETATM   42  C   UNL     1      -5.980  11.740  68.853  1.00  0.00    -0.051 A  
HETATM   43  C   UNL     1      -7.272  11.474  69.312  1.00  0.00    -0.048 A  
HETATM   44  C   UNL     1      -8.347  11.475  68.429  1.00  0.00    -0.154 A  
ENDBRANCH  37  39
ENDBRANCH   4  35
ENDBRANCH   2   3
TORSDOF 3
ENDMDL
MODEL       74
REMARK 921   NORMALIZED FREE ENERGY PREDICTED BY IDOCK:   -2.61 KCAL/MOL
REMARK 922        TOTAL FREE ENERGY PREDICTED BY IDOCK:   -3.60 KCAL/MOL
REMARK 923 INTER-LIGAND FREE ENERGY PREDICTED BY IDOCK:   -4.41 KCAL/MOL
REMARK 924 INTRA-LIGAND FREE ENERGY PREDICTED BY IDOCK:    0.81 KCAL/MOL
REMARK 927      BINDING AFFINITY PREDICTED BY RF-SCORE:    0.00 PKD
ROOT
HETATM    1  C   UNL     1     -12.003   8.086  71.422  1.00  0.00    -0.298 C  
HETATM    2  O   UNL     1     -10.824   8.892  71.394  1.00  0.00    -0.256 OA 
ENDROOT
BRANCH   2   3
HETATM    3  C   UNL     1      -9.547   8.351  70.867  1.00  0.00    -0.175 C  
HETATM    4  C   UNL     1      -9.514   8.732  69.365  1.00  0.00    -0.161 C  
HETATM    5  C   UNL     1     -10.285   7.688  68.556  1.00  0.00    -0.220 C  
HETATM    6  O   UNL     1      -5.633   3.057  65.987  1.00  0.00    -0.016 OA 
HETATM    7  C   UNL     1      -7.109   7.029  66.266  1.00  0.00    -0.074 A  
HETATM    8  C   UNL     1      -5.725   3.040  67.209  1.00  0.00    -0.022 C  
HETATM    9  C   UNL     1     -10.095   6.250  69.080  1.00  0.00    -0.168 C  
HETATM   10  H   UNL     1      -5.305   0.981  67.514  1.00  0.00     0.000 HD 
HETATM   11  O   UNL     1     -10.256   6.075  70.535  1.00  0.00    -0.188 OA 
HETATM   12  C   UNL     1      -8.069   7.252  65.279  1.00  0.00    -0.134 A  
HETATM   13  C   UNL     1      -9.034   6.277  65.045  1.00  0.00     0.291 A  
HETATM   14  C   UNL     1      -9.315   6.817  71.343  1.00  0.00    -0.157 C  
HETATM   15  N   UNL     1      -5.558   1.867  67.953  1.00  0.00    -0.018 N  
HETATM   16  N   UNL     1      -8.116   5.923  71.396  1.00  0.00    -0.113 NA 
HETATM   17  C   UNL     1      -9.609   7.032  72.868  1.00  0.00    -0.174 C  
HETATM   18  C   UNL     1      -9.299   5.301  66.016  1.00  0.00    -0.167 A  
HETATM   19  C   UNL     1      -7.710   4.907  72.394  1.00  0.00    -0.092 A  
HETATM   20  C   UNL     1      -6.899   3.847  71.787  1.00  0.00    -0.026 A  
HETATM   21  N   UNL     1      -8.854   5.701  68.543  1.00  0.00    -0.109 NA 
HETATM   22  C   UNL     1      -5.766   1.980  69.388  1.00  0.00    -0.022 C  
HETATM   23  C   UNL     1      -6.676   4.211  70.461  1.00  0.00    -0.033 A  
HETATM   24  C   UNL     1      -6.501   2.723  72.557  1.00  0.00    -0.014 A  
HETATM   25  C   UNL     1      -7.427   5.379  70.360  1.00  0.00    -0.075 A  
HETATM   26  C   UNL     1      -6.812   2.627  73.907  1.00  0.00    -0.031 A  
HETATM   27  C   UNL     1      -7.516   3.643  74.513  1.00  0.00    -0.061 A  
HETATM   28  C   UNL     1      -7.592   5.765  69.061  1.00  0.00    -0.089 A  
HETATM   29  C   UNL     1      -6.510   5.406  68.197  1.00  0.00    -0.044 C  
HETATM   30  C   UNL     1      -7.963   4.762  73.787  1.00  0.00    -0.105 A  
HETATM   31  C   UNL     1      -7.180   5.828  67.018  1.00  0.00    -0.075 A  
HETATM   32  C   UNL     1      -6.047   4.028  68.199  1.00  0.00    -0.032 C  
HETATM   33  C   UNL     1      -8.537   5.384  67.182  1.00  0.00    -0.108 A  
HETATM   34  C   UNL     1      -6.096   3.406  69.462  1.00  0.00    -0.024 A  
BRANCH   4  35
HETATM   35  N   UNL     1      -9.977  10.190  69.075  1.00  0.00    -0.196 N  
HETATM   36  C   UNL     1     -11.196  10.708  69.713  1.00  0.00    -0.297 C  
HETATM   37  C   UNL     1      -9.255  11.194  68.400  1.00  0.00    -0.175 C  
HETATM   38  O   UNL     1      -9.669  12.360  68.286  1.00  0.00    -0.215 OA 
BRANCH  37  39
HETATM   39  C   UNL     1      -7.979  10.930  67.706  1.00  0.00    -0.111 A  
HETATM   40  C   UNL     1      -5.646  10.280  67.852  1.00  0.00    -0.041 A  
HETATM   41  C   UNL     1      -6.866  10.567  68.473  1.00  0.00    -0.064 A  
HETATM   42  C   UNL     1      -5.530  10.369  66.470  1.00  0.00    -0.055 A  
HETATM   43  C   UNL     1      -6.657  10.680  65.706  1.00  0.00    -0.105 A  
HETATM   44  C   UNL     1      -7.886  10.898  66.320  1.00  0.00    -0.158 A  
ENDBRANCH  37  39
ENDBRANCH   4  35
ENDBRANCH   2   3
TORSDOF 3
ENDMDL
MODEL       75
REMARK 921   NORMALIZED FREE ENERGY PREDICTED BY IDOCK:   -2.57 KCAL/MOL
REMARK 922        TOTAL FREE ENERGY PREDICTED BY IDOCK:   -3.55 KCAL/MOL
REMARK 923 INTER-LIGAND FREE ENERGY PREDICTED BY IDOCK:   -4.35 KCAL/MOL
REMARK 924 INTRA-LIGAND FREE ENERGY PREDICTED BY IDOCK:    0.80 KCAL/MOL
REMARK 927      BINDING AFFINITY PREDICTED BY RF-SCORE:    0.00 PKD
ROOT
HETATM    1  C   UNL     1     -10.738  11.990  64.991  1.00  0.00    -0.296 C  
HETATM    2  O   UNL     1      -9.688  11.461  65.803  1.00  0.00    -0.216 OA 
ENDROOT
BRANCH   2   3
HETATM    3  C   UNL     1      -9.806  10.115  66.415  1.00  0.00    -0.222 C  
HETATM    4  C   UNL     1      -9.831  10.348  67.947  1.00  0.00    -0.154 C  
HETATM    5  C   UNL     1      -8.399  10.456  68.471  1.00  0.00    -0.124 C  
HETATM    6  O   UNL     1      -6.501   4.130  70.933  1.00  0.00    -0.025 OA 
HETATM    7  C   UNL     1      -9.059   7.516  71.058  1.00  0.00    -0.148 A  
HETATM    8  C   UNL     1      -6.687   4.154  69.721  1.00  0.00    -0.034 C  
HETATM    9  C   UNL     1      -7.419   9.496  67.766  1.00  0.00    -0.084 C  
HETATM   10  H   UNL     1      -5.271   2.671  69.170  1.00  0.00     0.000 HD 
HETATM   11  O   UNL     1      -7.487   9.483  66.294  1.00  0.00    -0.095 OA 
HETATM   12  C   UNL     1      -8.536   8.478  71.922  1.00  0.00    -0.254 A  
HETATM   13  C   UNL     1      -7.175   8.766  71.867  1.00  0.00    -0.051 A  
HETATM   14  C   UNL     1      -8.759   9.069  65.748  1.00  0.00    -0.169 C  
HETATM   15  N   UNL     1      -5.958   3.349  68.839  1.00  0.00    -0.023 N  
HETATM   16  N   UNL     1      -8.663   7.576  65.729  1.00  0.00    -0.146 NA 
HETATM   17  C   UNL     1      -9.093   9.378  64.248  1.00  0.00    -0.159 C  
HETATM   18  C   UNL     1      -6.429   8.422  70.731  1.00  0.00    -0.038 A  
HETATM   19  C   UNL     1      -8.242   6.647  64.655  1.00  0.00    -0.034 A  
HETATM   20  C   UNL     1      -7.669   5.412  65.201  1.00  0.00    -0.086 A  
HETATM   21  N   UNL     1      -7.510   8.176  68.382  1.00  0.00    -0.097 NA 
HETATM   22  C   UNL     1      -6.235   3.533  67.423  1.00  0.00    -0.036 C  
HETATM   23  C   UNL     1      -7.817   5.471  66.585  1.00  0.00    -0.101 A  
HETATM   24  C   UNL     1      -7.109   4.440  64.333  1.00  0.00    -0.050 A  
HETATM   25  C   UNL     1      -8.365   6.739  66.756  1.00  0.00    -0.115 A  
HETATM   26  C   UNL     1      -7.141   4.600  62.954  1.00  0.00    -0.039 A  
HETATM   27  C   UNL     1      -7.733   5.721  62.417  1.00  0.00    -0.074 A  
HETATM   28  C   UNL     1      -8.332   7.134  68.063  1.00  0.00    -0.119 A  
HETATM   29  C   UNL     1      -8.428   6.063  69.006  1.00  0.00    -0.117 C  
HETATM   30  C   UNL     1      -8.274   6.730  63.235  1.00  0.00     0.074 A  
HETATM   31  C   UNL     1      -8.184   6.896  70.129  1.00  0.00    -0.133 A  
HETATM   32  C   UNL     1      -7.535   4.925  68.859  1.00  0.00    -0.065 C  
HETATM   33  C   UNL     1      -7.137   7.787  69.710  1.00  0.00    -0.066 A  
HETATM   34  C   UNL     1      -7.254   4.583  67.522  1.00  0.00    -0.069 A  
BRANCH   4  35
HETATM   35  N   UNL     1     -10.732  11.538  68.388  1.00  0.00    -0.197 N  
HETATM   36  C   UNL     1     -12.136  11.295  68.753  1.00  0.00    -0.190 C  
HETATM   37  C   UNL     1     -10.321  12.854  68.680  1.00  0.00    -0.188 C  
HETATM   38  O   UNL     1     -11.099  13.724  69.108  1.00  0.00    -0.252 OA 
BRANCH  37  39
HETATM   39  C   UNL     1      -8.946  13.335  68.434  1.00  0.00    -0.124 A  
HETATM   40  C   UNL     1      -7.452  14.737  67.137  1.00  0.00    -0.069 A  
HETATM   41  C   UNL     1      -8.734  14.235  67.384  1.00  0.00    -0.217 A  
HETATM   42  C   UNL     1      -6.381  14.331  67.923  1.00  0.00    -0.173 A  
HETATM   43  C   UNL     1      -6.609  13.474  69.002  1.00  0.00    -0.110 A  
HETATM   44  C   UNL     1      -7.895  13.029  69.289  1.00  0.00     0.532 A  
ENDBRANCH  37  39
ENDBRANCH   4  35
ENDBRANCH   2   3
TORSDOF 3
ENDMDL
MODEL       76
REMARK 921   NORMALIZED FREE ENERGY PREDICTED BY IDOCK:   -2.54 KCAL/MOL
REMARK 922        TOTAL FREE ENERGY PREDICTED BY IDOCK:   -3.52 KCAL/MOL
REMARK 923 INTER-LIGAND FREE ENERGY PREDICTED BY IDOCK:   -4.56 KCAL/MOL
REMARK 924 INTRA-LIGAND FREE ENERGY PREDICTED BY IDOCK:    1.05 KCAL/MOL
REMARK 927      BINDING AFFINITY PREDICTED BY RF-SCORE:    0.00 PKD
ROOT
HETATM    1  C   UNL     1      -6.689   6.407  72.590  1.00  0.00    -0.065 C  
HETATM    2  O   UNL     1      -7.978   7.017  72.492  1.00  0.00    -0.097 OA 
ENDROOT
BRANCH   2   3
HETATM    3  C   UNL     1      -8.527   7.424  71.176  1.00  0.00    -0.118 C  
HETATM    4  C   UNL     1      -9.138   6.140  70.558  1.00  0.00    -0.154 C  
HETATM    5  C   UNL     1      -8.042   5.342  69.850  1.00  0.00    -0.084 C  
HETATM    6  O   UNL     1      -8.241   6.982  62.998  1.00  0.00    -0.061 OA 
HETATM    7  C   UNL     1     -10.112   5.392  66.461  1.00  0.00    -0.250 A  
HETATM    8  C   UNL     1      -7.913   7.917  63.721  1.00  0.00    -0.119 C  
HETATM    9  C   UNL     1      -7.011   6.233  69.129  1.00  0.00    -0.068 C  
HETATM   10  H   UNL     1      -6.625   8.914  62.360  1.00  0.00     0.000 HD 
HETATM   11  O   UNL     1      -6.476   7.357  69.918  1.00  0.00    -0.034 OA 
HETATM   12  C   UNL     1      -9.853   4.025  66.559  1.00  0.00    -0.175 A  
HETATM   13  C   UNL     1      -8.561   3.565  66.320  1.00  0.00    -0.117 A  
HETATM   14  C   UNL     1      -7.462   8.323  70.344  1.00  0.00    -0.067 C  
HETATM   15  N   UNL     1      -7.013   8.903  63.303  1.00  0.00    -0.090 N  
HETATM   16  N   UNL     1      -7.582   9.242  69.170  1.00  0.00    -0.072 NA 
HETATM   17  C   UNL     1      -7.110   9.331  71.492  1.00  0.00     0.091 C  
HETATM   18  C   UNL     1      -7.475   4.450  66.385  1.00  0.00    -0.082 A  
HETATM   19  C   UNL     1      -6.901  10.521  68.868  1.00  0.00    -0.063 A  
HETATM   20  C   UNL     1      -6.783  10.745  67.423  1.00  0.00    -0.076 A  
HETATM   21  N   UNL     1      -7.533   6.614  67.820  1.00  0.00    -0.096 NA 
HETATM   22  C   UNL     1      -6.662   9.912  64.290  1.00  0.00    -0.126 C  
HETATM   23  C   UNL     1      -7.470   9.709  66.793  1.00  0.00    -0.094 A  
HETATM   24  C   UNL     1      -6.065  11.864  66.930  1.00  0.00    -0.120 A  
HETATM   25  C   UNL     1      -7.851   8.923  67.877  1.00  0.00    -0.102 A  
HETATM   26  C   UNL     1      -5.511  12.803  67.791  1.00  0.00    -0.124 A  
HETATM   27  C   UNL     1      -5.666  12.648  69.150  1.00  0.00    -0.076 A  
HETATM   28  C   UNL     1      -8.295   7.694  67.482  1.00  0.00    -0.120 A  
HETATM   29  C   UNL     1      -8.919   7.678  66.195  1.00  0.00    -0.197 C  
HETATM   30  C   UNL     1      -6.340  11.539  69.691  1.00  0.00    -0.133 A  
HETATM   31  C   UNL     1      -9.034   6.264  66.157  1.00  0.00    -0.164 A  
HETATM   32  C   UNL     1      -8.217   8.283  65.074  1.00  0.00    -0.160 C  
HETATM   33  C   UNL     1      -7.791   5.776  66.688  1.00  0.00    -0.101 A  
HETATM   34  C   UNL     1      -7.471   9.428  65.413  1.00  0.00    -0.099 A  
BRANCH   4  35
HETATM   35  N   UNL     1      -9.958   5.285  71.567  1.00  0.00    -0.176 N  
HETATM   36  C   UNL     1     -11.133   5.869  72.233  1.00  0.00    -0.280 C  
HETATM   37  C   UNL     1      -9.838   3.901  71.805  1.00  0.00    -0.179 C  
HETATM   38  O   UNL     1     -10.595   3.281  72.573  1.00  0.00    -0.111 OA 
BRANCH  37  39
HETATM   39  C   UNL     1      -8.758   3.081  71.221  1.00  0.00    -0.121 A  
HETATM   40  C   UNL     1      -6.605   1.999  71.503  1.00  0.00    -0.019 A  
HETATM   41  C   UNL     1      -7.637   2.797  72.009  1.00  0.00    -0.052 A  
HETATM   42  C   UNL     1      -6.683   1.498  70.209  1.00  0.00    -0.028 A  
HETATM   43  C   UNL     1      -7.828   1.741  69.447  1.00  0.00    -0.048 A  
HETATM   44  C   UNL     1      -8.883   2.477  69.976  1.00  0.00    -0.140 A  
ENDBRANCH  37  39
ENDBRANCH   4  35
ENDBRANCH   2   3
TORSDOF 3
ENDMDL
MODEL       77
REMARK 921   NORMALIZED FREE ENERGY PREDICTED BY IDOCK:   -2.52 KCAL/MOL
REMARK 922        TOTAL FREE ENERGY PREDICTED BY IDOCK:   -3.49 KCAL/MOL
REMARK 923 INTER-LIGAND FREE ENERGY PREDICTED BY IDOCK:   -3.15 KCAL/MOL
REMARK 924 INTRA-LIGAND FREE ENERGY PREDICTED BY IDOCK:   -0.34 KCAL/MOL
REMARK 927      BINDING AFFINITY PREDICTED BY RF-SCORE:    0.00 PKD
ROOT
HETATM    1  C   UNL     1     -10.821   4.874  66.953  1.00  0.00     0.335 C  
HETATM    2  O   UNL     1     -10.655   5.776  68.048  1.00  0.00    -0.225 OA 
ENDROOT
BRANCH   2   3
HETATM    3  C   UNL     1      -9.449   6.634  68.148  1.00  0.00    -0.115 C  
HETATM    4  C   UNL     1      -8.647   6.096  69.360  1.00  0.00    -0.123 C  
HETATM    5  C   UNL     1      -9.190   6.715  70.649  1.00  0.00    -0.159 C  
HETATM    6  O   UNL     1      -5.139  12.249  72.279  1.00  0.00    -0.355 OA 
HETATM    7  C   UNL     1      -5.582   8.083  71.585  1.00  0.00    -0.035 A  
HETATM    8  C   UNL     1      -5.778  12.392  71.242  1.00  0.00     0.243 C  
HETATM    9  C   UNL     1      -9.609   8.191  70.485  1.00  0.00    -0.170 C  
HETATM   10  H   UNL     1      -6.048  14.495  71.342  1.00  0.00     0.000 HD 
HETATM   11  O   UNL     1     -10.450   8.488  69.312  1.00  0.00    -0.220 OA 
HETATM   12  C   UNL     1      -5.903   7.433  72.775  1.00  0.00    -0.040 A  
HETATM   13  C   UNL     1      -6.858   7.997  73.616  1.00  0.00    -0.138 A  
HETATM   14  C   UNL     1      -9.833   8.207  68.035  1.00  0.00    -0.168 C  
HETATM   15  N   UNL     1      -6.253  13.640  70.825  1.00  0.00    -0.044 N  
HETATM   16  N   UNL     1      -9.043   9.445  67.747  1.00  0.00    -0.126 NA 
HETATM   17  C   UNL     1     -10.727   8.104  66.752  1.00  0.00    -0.070 C  
HETATM   18  C   UNL     1      -7.760   8.948  73.118  1.00  0.00     0.382 A  
HETATM   19  C   UNL     1      -9.391  10.656  66.971  1.00  0.00    -0.155 A  
HETATM   20  C   UNL     1      -8.673  11.838  67.461  1.00  0.00    -0.159 A  
HETATM   21  N   UNL     1      -8.431   9.044  70.610  1.00  0.00    -0.178 NA 
HETATM   22  C   UNL     1      -7.057  13.650  69.613  1.00  0.00     0.243 C  
HETATM   23  C   UNL     1      -7.792  11.400  68.448  1.00  0.00    -0.135 A  
HETATM   24  C   UNL     1      -8.950  13.118  66.917  1.00  0.00    -0.213 A  
HETATM   25  C   UNL     1      -8.111  10.047  68.530  1.00  0.00    -0.103 A  
HETATM   26  C   UNL     1      -9.854  13.279  65.875  1.00  0.00    -0.241 A  
HETATM   27  C   UNL     1     -10.491  12.175  65.355  1.00  0.00    -0.305 A  
HETATM   28  C   UNL     1      -7.569   9.465  69.640  1.00  0.00    -0.095 A  
HETATM   29  C   UNL     1      -6.334  10.046  70.068  1.00  0.00    -0.079 C  
HETATM   30  C   UNL     1     -10.276  10.888  65.881  1.00  0.00    -0.314 A  
HETATM   31  C   UNL     1      -6.272   9.280  71.262  1.00  0.00    -0.079 A  
HETATM   32  C   UNL     1      -6.267  11.488  70.241  1.00  0.00    -0.089 C  
HETATM   33  C   UNL     1      -7.617   9.270  71.767  1.00  0.00     0.432 A  
HETATM   34  C   UNL     1      -7.032  12.216  69.308  1.00  0.00    -0.010 A  
BRANCH   4  35
HETATM   35  N   UNL     1      -8.563   4.543  69.421  1.00  0.00    -0.080 N  
HETATM   36  C   UNL     1      -9.308   3.812  70.457  1.00  0.00    -0.158 C  
HETATM   37  C   UNL     1      -7.995   3.683  68.460  1.00  0.00    -0.070 C  
HETATM   38  O   UNL     1      -8.047   2.444  68.550  1.00  0.00    -0.056 OA 
BRANCH  37  39
HETATM   39  C   UNL     1      -7.225   4.178  67.301  1.00  0.00    -0.068 A  
HETATM   40  C   UNL     1      -7.011   4.360  64.892  1.00  0.00    -0.057 A  
HETATM   41  C   UNL     1      -7.695   3.885  66.016  1.00  0.00    -0.089 A  
HETATM   42  C   UNL     1      -5.852   5.112  65.047  1.00  0.00    -0.017 A  
HETATM   43  C   UNL     1      -5.419   5.445  66.332  1.00  0.00    -0.013 A  
HETATM   44  C   UNL     1      -6.138   5.030  67.448  1.00  0.00    -0.030 A  
ENDBRANCH  37  39
ENDBRANCH   4  35
ENDBRANCH   2   3
TORSDOF 3
ENDMDL
MODEL       78
REMARK 921   NORMALIZED FREE ENERGY PREDICTED BY IDOCK:   -2.45 KCAL/MOL
REMARK 922        TOTAL FREE ENERGY PREDICTED BY IDOCK:   -3.41 KCAL/MOL
REMARK 923 INTER-LIGAND FREE ENERGY PREDICTED BY IDOCK:   -3.57 KCAL/MOL
REMARK 924 INTRA-LIGAND FREE ENERGY PREDICTED BY IDOCK:    0.16 KCAL/MOL
REMARK 927      BINDING AFFINITY PREDICTED BY RF-SCORE:    0.00 PKD
ROOT
HETATM    1  C   UNL     1      -5.170   7.799  71.492  1.00  0.00    -0.034 C  
HETATM    2  O   UNL     1      -6.589   7.740  71.648  1.00  0.00    -0.041 OA 
ENDROOT
BRANCH   2   3
HETATM    3  C   UNL     1      -7.483   7.703  70.464  1.00  0.00    -0.079 C  
HETATM    4  C   UNL     1      -7.415   6.251  69.927  1.00  0.00    -0.084 C  
HETATM    5  C   UNL     1      -6.199   6.101  69.011  1.00  0.00    -0.036 C  
HETATM    6  O   UNL     1      -8.383   6.910  62.358  1.00  0.00    -0.101 OA 
HETATM    7  C   UNL     1      -8.515   4.819  66.051  1.00  0.00    -0.116 A  
HETATM    8  C   UNL     1      -8.484   7.925  63.038  1.00  0.00     0.133 C  
HETATM    9  C   UNL     1      -5.935   7.349  68.144  1.00  0.00    -0.034 C  
HETATM   10  H   UNL     1      -8.170   9.353  61.500  1.00  0.00     0.000 HD 
HETATM   11  O   UNL     1      -5.952   8.638  68.858  1.00  0.00    -0.042 OA 
HETATM   12  C   UNL     1      -7.560   3.804  66.059  1.00  0.00    -0.088 A  
HETATM   13  C   UNL     1      -6.282   4.077  65.579  1.00  0.00    -0.028 A  
HETATM   14  C   UNL     1      -7.213   8.968  69.483  1.00  0.00    -0.060 C  
HETATM   15  N   UNL     1      -8.329   9.205  62.497  1.00  0.00    -0.175 N  
HETATM   16  N   UNL     1      -7.997   9.602  68.378  1.00  0.00    -0.095 NA 
HETATM   17  C   UNL     1      -7.261  10.088  70.579  1.00  0.00    -0.048 C  
HETATM   18  C   UNL     1      -5.837   5.402  65.475  1.00  0.00    -0.021 A  
HETATM   19  C   UNL     1      -8.158  11.024  67.997  1.00  0.00    -0.121 A  
HETATM   20  C   UNL     1      -8.421  11.174  66.563  1.00  0.00    -0.165 A  
HETATM   21  N   UNL     1      -6.790   7.306  66.962  1.00  0.00    -0.074 NA 
HETATM   22  C   UNL     1      -8.405  10.314  63.434  1.00  0.00    -0.169 C  
HETATM   23  C   UNL     1      -8.550   9.892  66.034  1.00  0.00    -0.147 A  
HETATM   24  C   UNL     1      -8.500  12.467  65.983  1.00  0.00     0.517 A  
HETATM   25  C   UNL     1      -8.268   9.100  67.145  1.00  0.00    -0.113 A  
HETATM   26  C   UNL     1      -8.392  13.613  66.758  1.00  0.00     0.089 A  
HETATM   27  C   UNL     1      -8.210  13.496  68.118  1.00  0.00    -0.162 A  
HETATM   28  C   UNL     1      -8.053   7.797  66.798  1.00  0.00    -0.115 A  
HETATM   29  C   UNL     1      -8.779   7.366  65.644  1.00  0.00    -0.099 C  
HETATM   30  C   UNL     1      -8.093  12.238  68.737  1.00  0.00     0.054 A  
HETATM   31  C   UNL     1      -8.132   6.104  65.585  1.00  0.00    -0.128 A  
HETATM   32  C   UNL     1      -8.704   8.170  64.435  1.00  0.00     0.229 C  
HETATM   33  C   UNL     1      -6.751   6.381  65.869  1.00  0.00    -0.048 A  
HETATM   34  C   UNL     1      -8.633   9.556  64.669  1.00  0.00    -0.207 A  
BRANCH   4  35
HETATM   35  N   UNL     1      -7.474   5.165  71.041  1.00  0.00    -0.076 N  
HETATM   36  C   UNL     1      -6.298   4.319  71.297  1.00  0.00    -0.018 C  
HETATM   37  C   UNL     1      -8.481   4.995  72.012  1.00  0.00    -0.125 C  
HETATM   38  O   UNL     1      -8.405   4.149  72.919  1.00  0.00    -0.092 OA 
BRANCH  37  39
HETATM   39  C   UNL     1      -9.746   5.756  71.992  1.00  0.00    -0.177 A  
HETATM   40  C   UNL     1     -11.111   7.516  72.954  1.00  0.00    -0.426 A  
HETATM   41  C   UNL     1      -9.939   6.752  72.956  1.00  0.00    -0.199 A  
HETATM   42  C   UNL     1     -12.096   7.277  72.003  1.00  0.00    -0.327 A  
HETATM   43  C   UNL     1     -11.874   6.318  71.012  1.00  0.00    -0.222 A  
HETATM   44  C   UNL     1     -10.679   5.607  70.974  1.00  0.00    -0.304 A  
ENDBRANCH  37  39
ENDBRANCH   4  35
ENDBRANCH   2   3
TORSDOF 3
ENDMDL
MODEL       79
REMARK 921   NORMALIZED FREE ENERGY PREDICTED BY IDOCK:   -2.35 KCAL/MOL
REMARK 922        TOTAL FREE ENERGY PREDICTED BY IDOCK:   -3.29 KCAL/MOL
REMARK 923 INTER-LIGAND FREE ENERGY PREDICTED BY IDOCK:   -4.44 KCAL/MOL
REMARK 924 INTRA-LIGAND FREE ENERGY PREDICTED BY IDOCK:    1.16 KCAL/MOL
REMARK 927      BINDING AFFINITY PREDICTED BY RF-SCORE:    0.00 PKD
ROOT
HETATM    1  C   UNL     1      -5.127   8.448  70.896  1.00  0.00    -0.025 C  
HETATM    2  O   UNL     1      -6.324   8.815  71.583  1.00  0.00    -0.064 OA 
ENDROOT
BRANCH   2   3
HETATM    3  C   UNL     1      -7.483   9.373  70.844  1.00  0.00    -0.072 C  
HETATM    4  C   UNL     1      -8.253   8.152  70.280  1.00  0.00    -0.122 C  
HETATM    5  C   UNL     1      -7.622   7.717  68.956  1.00  0.00    -0.104 C  
HETATM    6  O   UNL     1     -11.332  10.632  63.719  1.00  0.00     0.710 OA 
HETATM    7  C   UNL     1     -11.116   8.077  67.104  1.00  0.00     0.333 A  
HETATM    8  C   UNL     1     -10.735  11.446  64.415  1.00  0.00    -0.342 C  
HETATM    9  C   UNL     1      -7.143   8.902  68.092  1.00  0.00    -0.078 C  
HETATM   10  H   UNL     1     -10.363  12.906  62.920  1.00  0.00     0.000 HD 
HETATM   11  O   UNL     1      -6.344   9.922  68.795  1.00  0.00    -0.045 OA 
HETATM   12  C   UNL     1     -10.770   6.786  66.706  1.00  0.00    -0.312 A  
HETATM   13  C   UNL     1      -9.752   6.618  65.772  1.00  0.00     0.410 A  
HETATM   14  C   UNL     1      -7.032  10.594  69.874  1.00  0.00    -0.146 C  
HETATM   15  N   UNL     1     -10.222  12.638  63.894  1.00  0.00    -0.384 N  
HETATM   16  N   UNL     1      -7.776  11.693  69.184  1.00  0.00     0.001 NA 
HETATM   17  C   UNL     1      -6.204  11.398  70.934  1.00  0.00     0.487 C  
HETATM   18  C   UNL     1      -8.831   7.649  65.541  1.00  0.00    -0.029 A  
HETATM   19  C   UNL     1      -7.409  13.107  68.940  1.00  0.00    -0.019 A  
HETATM   20  C   UNL     1      -8.047  13.631  67.729  1.00  0.00    -0.173 A  
HETATM   21  N   UNL     1      -8.272   9.438  67.340  1.00  0.00    -0.120 NA 
HETATM   22  C   UNL     1      -9.476  13.476  64.820  1.00  0.00     0.767 C  
HETATM   23  C   UNL     1      -8.901  12.638  67.255  1.00  0.00    -0.196 A  
HETATM   24  C   UNL     1      -7.736  14.936  67.265  1.00  0.00    -0.227 A  
HETATM   25  C   UNL     1      -8.642  11.597  68.142  1.00  0.00    -0.158 A  
HETATM   26  C   UNL     1      -6.875  15.766  67.971  1.00  0.00    -0.141 A  
HETATM   27  C   UNL     1      -6.315  15.318  69.146  1.00  0.00    -0.118 A  
HETATM   28  C   UNL     1      -9.158  10.413  67.699  1.00  0.00    -0.138 A  
HETATM   29  C   UNL     1     -10.344  10.544  66.910  1.00  0.00    -0.293 C  
HETATM   30  C   UNL     1      -6.565  14.022  69.632  1.00  0.00    -0.099 A  
HETATM   31  C   UNL     1     -10.386   9.168  66.564  1.00  0.00    -0.269 A  
HETATM   32  C   UNL     1     -10.335  11.475  65.793  1.00  0.00    -0.295 C  
HETATM   33  C   UNL     1      -9.021   8.811  66.292  1.00  0.00    -0.173 A  
HETATM   34  C   UNL     1      -9.582  12.642  66.022  1.00  0.00    -0.190 A  
BRANCH   4  35
HETATM   35  N   UNL     1      -8.405   6.981  71.294  1.00  0.00    -0.114 N  
HETATM   36  C   UNL     1      -7.227   6.187  71.674  1.00  0.00    -0.087 C  
HETATM   37  C   UNL     1      -9.534   6.678  72.081  1.00  0.00    -0.144 C  
HETATM   38  O   UNL     1      -9.540   5.770  72.929  1.00  0.00    -0.155 OA 
BRANCH  37  39
HETATM   39  C   UNL     1     -10.831   7.364  71.914  1.00  0.00    -0.262 A  
HETATM   40  C   UNL     1     -12.059   9.451  71.772  1.00  0.00    -0.454 A  
HETATM   41  C   UNL     1     -10.855   8.762  71.955  1.00  0.00    -0.428 A  
HETATM   42  C   UNL     1     -13.239   8.748  71.564  1.00  0.00    -0.356 A  
HETATM   43  C   UNL     1     -13.200   7.355  71.470  1.00  0.00    -0.426 A  
HETATM   44  C   UNL     1     -11.992   6.676  71.584  1.00  0.00    -0.395 A  
ENDBRANCH  37  39
ENDBRANCH   4  35
ENDBRANCH   2   3
TORSDOF 3
ENDMDL
MODEL       80
REMARK 921   NORMALIZED FREE ENERGY PREDICTED BY IDOCK:   -2.35 KCAL/MOL
REMARK 922        TOTAL FREE ENERGY PREDICTED BY IDOCK:   -3.29 KCAL/MOL
REMARK 923 INTER-LIGAND FREE ENERGY PREDICTED BY IDOCK:   -4.91 KCAL/MOL
REMARK 924 INTRA-LIGAND FREE ENERGY PREDICTED BY IDOCK:    1.62 KCAL/MOL
REMARK 927      BINDING AFFINITY PREDICTED BY RF-SCORE:    0.00 PKD
ROOT
HETATM    1  C   UNL     1      -6.769  10.257  64.101  1.00  0.00    -0.062 C  
HETATM    2  O   UNL     1      -7.942   9.673  63.532  1.00  0.00    -0.125 OA 
ENDROOT
BRANCH   2   3
HETATM    3  C   UNL     1      -8.886   8.894  64.371  1.00  0.00    -0.005 C  
HETATM    4  C   UNL     1      -9.557   9.921  65.317  1.00  0.00    -0.295 C  
HETATM    5  C   UNL     1      -8.665  10.149  66.539  1.00  0.00    -0.139 C  
HETATM    6  O   UNL     1     -11.008   6.012  71.743  1.00  0.00    -0.250 OA 
HETATM    7  C   UNL     1     -11.645   9.166  68.973  1.00  0.00     0.671 A  
HETATM    8  C   UNL     1     -10.551   5.394  70.788  1.00  0.00    -0.223 C  
HETATM    9  C   UNL     1      -7.962   8.866  67.026  1.00  0.00    -0.102 C  
HETATM   10  H   UNL     1      -9.801   3.714  71.846  1.00  0.00     0.000 HD 
HETATM   11  O   UNL     1      -7.301   8.064  65.981  1.00  0.00    -0.071 OA 
HETATM   12  C   UNL     1     -11.269  10.383  69.540  1.00  0.00    -0.325 A  
HETATM   13  C   UNL     1     -10.076  10.454  70.254  1.00  0.00     0.137 A  
HETATM   14  C   UNL     1      -8.185   7.553  64.958  1.00  0.00    -0.103 C  
HETATM   15  N   UNL     1      -9.890   4.170  70.938  1.00  0.00    -0.193 N  
HETATM   16  N   UNL     1      -8.716   6.287  65.554  1.00  0.00    -0.123 NA 
HETATM   17  C   UNL     1      -7.583   7.032  63.608  1.00  0.00    -0.105 C  
HETATM   18  C   UNL     1      -9.089   9.476  70.073  1.00  0.00    -0.255 A  
HETATM   19  C   UNL     1      -8.250   4.888  65.426  1.00  0.00    -0.121 A  
HETATM   20  C   UNL     1      -8.583   4.095  66.613  1.00  0.00    -0.112 A  
HETATM   21  N   UNL     1      -8.876   8.108  67.876  1.00  0.00    -0.131 NA 
HETATM   22  C   UNL     1      -9.337   3.585  69.727  1.00  0.00    -0.174 C  
HETATM   23  C   UNL     1      -9.348   4.909  67.446  1.00  0.00    -0.145 A  
HETATM   24  C   UNL     1      -8.128   2.756  66.729  1.00  0.00    -0.081 A  
HETATM   25  C   UNL     1      -9.332   6.116  66.752  1.00  0.00    -0.140 A  
HETATM   26  C   UNL     1      -7.415   2.146  65.706  1.00  0.00    -0.067 A  
HETATM   27  C   UNL     1      -7.147   2.850  64.555  1.00  0.00    -0.050 A  
HETATM   28  C   UNL     1      -9.782   7.150  67.522  1.00  0.00    -0.142 A  
HETATM   29  C   UNL     1     -10.757   6.777  68.500  1.00  0.00    -0.280 C  
HETATM   30  C   UNL     1      -7.547   4.190  64.403  1.00  0.00    -0.076 A  
HETATM   31  C   UNL     1     -10.773   8.056  69.116  1.00  0.00    -0.121 A  
HETATM   32  C   UNL     1     -10.465   5.657  69.380  1.00  0.00    -0.367 C  
HETATM   33  C   UNL     1      -9.397   8.464  69.162  1.00  0.00    -0.151 A  
HETATM   34  C   UNL     1      -9.738   4.618  68.768  1.00  0.00    -0.230 A  
BRANCH   4  35
HETATM   35  N   UNL     1      -9.975  11.245  64.614  1.00  0.00    -0.262 N  
HETATM   36  C   UNL     1     -10.686  11.195  63.328  1.00  0.00    -0.121 C  
HETATM   37  C   UNL     1      -9.932  12.546  65.154  1.00  0.00    -0.192 C  
HETATM   38  O   UNL     1     -10.367  13.541  64.549  1.00  0.00    -0.423 OA 
BRANCH  37  39
HETATM   39  C   UNL     1      -9.301  12.851  66.453  1.00  0.00    -0.192 A  
HETATM   40  C   UNL     1      -9.572  13.423  68.796  1.00  0.00     0.035 A  
HETATM   41  C   UNL     1     -10.129  13.157  67.540  1.00  0.00    -0.222 A  
HETATM   42  C   UNL     1      -8.193  13.400  68.965  1.00  0.00     0.311 A  
HETATM   43  C   UNL     1      -7.376  13.043  67.890  1.00  0.00    -0.128 A  
HETATM   44  C   UNL     1      -7.935  12.712  66.660  1.00  0.00     0.240 A  
ENDBRANCH  37  39
ENDBRANCH   4  35
ENDBRANCH   2   3
TORSDOF 3
ENDMDL
MODEL       81
REMARK 921   NORMALIZED FREE ENERGY PREDICTED BY IDOCK:   -2.33 KCAL/MOL
REMARK 922        TOTAL FREE ENERGY PREDICTED BY IDOCK:   -3.27 KCAL/MOL
REMARK 923 INTER-LIGAND FREE ENERGY PREDICTED BY IDOCK:   -4.29 KCAL/MOL
REMARK 924 INTRA-LIGAND FREE ENERGY PREDICTED BY IDOCK:    1.02 KCAL/MOL
REMARK 927      BINDING AFFINITY PREDICTED BY RF-SCORE:    0.00 PKD
ROOT
HETATM    1  C   UNL     1      -9.369   7.831  66.349  1.00  0.00    -0.181 C  
HETATM    2  O   UNL     1      -9.634   9.052  67.042  1.00  0.00    -0.156 OA 
ENDROOT
BRANCH   2   3
HETATM    3  C   UNL     1      -8.908  10.297  66.692  1.00  0.00    -0.136 C  
HETATM    4  C   UNL     1      -7.721  10.388  67.683  1.00  0.00    -0.093 C  
HETATM    5  C   UNL     1      -8.191  11.033  68.987  1.00  0.00    -0.101 C  
HETATM    6  O   UNL     1      -6.594  17.893  68.717  1.00  0.00    -0.216 OA 
HETATM    7  C   UNL     1      -5.382  13.824  68.689  1.00  0.00    -0.087 A  
HETATM    8  C   UNL     1      -7.435  17.548  67.894  1.00  0.00    -0.205 C  
HETATM    9  C   UNL     1      -9.214  12.166  68.770  1.00  0.00     0.095 C  
HETATM   10  H   UNL     1      -8.536  19.362  67.810  1.00  0.00     0.000 HD 
HETATM   11  O   UNL     1     -10.328  11.854  67.856  1.00  0.00    -0.190 OA 
HETATM   12  C   UNL     1      -5.144  13.388  69.992  1.00  0.00    -0.086 A  
HETATM   13  C   UNL     1      -6.049  13.729  70.994  1.00  0.00    -0.030 A  
HETATM   14  C   UNL     1      -9.932  11.543  66.502  1.00  0.00    -0.210 C  
HETATM   15  N   UNL     1      -8.466  18.399  67.481  1.00  0.00    -0.252 N  
HETATM   16  N   UNL     1      -9.813  12.886  65.853  1.00  0.00    -0.261 NA 
HETATM   17  C   UNL     1     -10.947  10.826  65.546  1.00  0.00     0.043 C  
HETATM   18  C   UNL     1      -7.348  14.134  70.660  1.00  0.00     1.355 A  
HETATM   19  C   UNL     1     -10.791  13.670  65.066  1.00  0.00    -0.352 A  
HETATM   20  C   UNL     1     -10.551  15.112  65.185  1.00  0.00    -0.447 A  
HETATM   21  N   UNL     1      -8.506  13.402  68.452  1.00  0.00    -0.159 NA 
HETATM   22  C   UNL     1      -9.434  17.833  66.553  1.00  0.00    -0.290 C  
HETATM   23  C   UNL     1      -9.383  15.271  65.927  1.00  0.00    -0.308 A  
HETATM   24  C   UNL     1     -11.447  16.037  64.589  1.00  0.00    -0.252 A  
HETATM   25  C   UNL     1      -9.079  13.954  66.260  1.00  0.00     0.004 A  
HETATM   26  C   UNL     1     -12.530  15.608  63.834  1.00  0.00     0.520 A  
HETATM   27  C   UNL     1     -12.738  14.259  63.655  1.00  0.00     0.620 A  
HETATM   28  C   UNL     1      -8.124  13.884  67.234  1.00  0.00    -0.145 A  
HETATM   29  C   UNL     1      -7.188  14.965  67.220  1.00  0.00    -0.142 C  
HETATM   30  C   UNL     1     -11.898  13.301  64.251  1.00  0.00    -0.469 A  
HETATM   31  C   UNL     1      -6.562  14.569  68.432  1.00  0.00    -0.103 A  
HETATM   32  C   UNL     1      -7.698  16.326  67.190  1.00  0.00    -0.223 C  
HETATM   33  C   UNL     1      -7.640  14.172  69.295  1.00  0.00     0.058 A  
HETATM   34  C   UNL     1      -8.873  16.483  66.431  1.00  0.00    -0.345 A  
BRANCH   4  35
HETATM   35  N   UNL     1      -6.982   9.035  67.906  1.00  0.00    -0.077 N  
HETATM   36  C   UNL     1      -5.790   8.715  67.106  1.00  0.00    -0.043 C  
HETATM   37  C   UNL     1      -7.196   8.110  68.947  1.00  0.00    -0.078 C  
HETATM   38  O   UNL     1      -6.500   7.091  69.095  1.00  0.00    -0.037 OA 
BRANCH  37  39
HETATM   39  C   UNL     1      -8.310   8.232  69.907  1.00  0.00    -0.125 A  
HETATM   40  C   UNL     1     -10.652   7.846  70.411  1.00  0.00    -0.228 A  
HETATM   41  C   UNL     1      -9.575   7.775  69.520  1.00  0.00    -0.160 A  
HETATM   42  C   UNL     1     -10.472   8.383  71.680  1.00  0.00    -0.321 A  
HETATM   43  C   UNL     1      -9.196   8.787  72.078  1.00  0.00    -0.294 A  
HETATM   44  C   UNL     1      -8.113   8.654  71.215  1.00  0.00    -0.182 A  
ENDBRANCH  37  39
ENDBRANCH   4  35
ENDBRANCH   2   3
TORSDOF 3
ENDMDL
MODEL       82
REMARK 921   NORMALIZED FREE ENERGY PREDICTED BY IDOCK:   -2.23 KCAL/MOL
REMARK 922        TOTAL FREE ENERGY PREDICTED BY IDOCK:   -3.14 KCAL/MOL
REMARK 923 INTER-LIGAND FREE ENERGY PREDICTED BY IDOCK:   -3.84 KCAL/MOL
REMARK 924 INTRA-LIGAND FREE ENERGY PREDICTED BY IDOCK:    0.70 KCAL/MOL
REMARK 927      BINDING AFFINITY PREDICTED BY RF-SCORE:    0.00 PKD
ROOT
HETATM    1  C   UNL     1     -10.104   8.478  68.936  1.00  0.00    -0.203 C  
HETATM    2  O   UNL     1      -9.045   8.419  67.979  1.00  0.00    -0.137 OA 
ENDROOT
BRANCH   2   3
HETATM    3  C   UNL     1      -8.510   9.658  67.363  1.00  0.00    -0.125 C  
HETATM    4  C   UNL     1      -7.321  10.095  68.256  1.00  0.00    -0.081 C  
HETATM    5  C   UNL     1      -7.844  10.913  69.438  1.00  0.00    -0.048 C  
HETATM    6  O   UNL     1      -7.229  17.741  67.796  1.00  0.00    -0.196 OA 
HETATM    7  C   UNL     1      -5.461  13.940  68.473  1.00  0.00    -0.095 A  
HETATM    8  C   UNL     1      -8.034  17.134  67.098  1.00  0.00    -0.191 C  
HETATM    9  C   UNL     1      -9.021  11.838  69.064  1.00  0.00     0.263 C  
HETATM   10  H   UNL     1      -9.379  18.735  66.730  1.00  0.00     0.000 HD 
HETATM   11  O   UNL     1     -10.102  11.209  68.285  1.00  0.00    -0.172 OA 
HETATM   12  C   UNL     1      -5.131  13.800  69.821  1.00  0.00    -0.085 A  
HETATM   13  C   UNL     1      -6.049  14.207  70.785  1.00  0.00    -0.165 A  
HETATM   14  C   UNL     1      -9.702  10.696  66.994  1.00  0.00    -0.176 C  
HETATM   15  N   UNL     1      -9.184  17.745  66.585  1.00  0.00    -0.262 N  
HETATM   16  N   UNL     1      -9.789  11.892  66.099  1.00  0.00    -0.226 NA 
HETATM   17  C   UNL     1     -10.630   9.680  66.245  1.00  0.00    -0.051 C  
HETATM   18  C   UNL     1      -7.401  14.364  70.449  1.00  0.00     0.690 A  
HETATM   19  C   UNL     1     -10.886  12.372  65.229  1.00  0.00    -0.289 A  
HETATM   20  C   UNL     1     -10.847  13.829  65.062  1.00  0.00    -0.377 A  
HETATM   21  N   UNL     1      -8.500  13.071  68.483  1.00  0.00    -0.102 NA 
HETATM   22  C   UNL     1     -10.086  16.887  65.833  1.00  0.00    -0.283 C  
HETATM   23  C   UNL     1      -9.694  14.282  65.699  1.00  0.00    -0.238 A  
HETATM   24  C   UNL     1     -11.879  14.494  64.350  1.00  0.00    -0.419 A  
HETATM   25  C   UNL     1      -9.201  13.106  66.259  1.00  0.00    -0.060 A  
HETATM   26  C   UNL     1     -12.910  13.787  63.747  1.00  0.00     0.444 A  
HETATM   27  C   UNL     1     -12.932  12.413  63.836  1.00  0.00    -0.271 A  
HETATM   28  C   UNL     1      -8.221  13.353  67.177  1.00  0.00    -0.110 A  
HETATM   29  C   UNL     1      -7.445  14.525  66.911  1.00  0.00     0.429 C  
HETATM   30  C   UNL     1     -11.951  11.709  64.557  1.00  0.00    -0.091 A  
HETATM   31  C   UNL     1      -6.739  14.458  68.141  1.00  0.00    -0.129 A  
HETATM   32  C   UNL     1      -8.142  15.775  66.651  1.00  0.00    -0.282 C  
HETATM   33  C   UNL     1      -7.729  14.097  69.118  1.00  0.00     0.023 A  
HETATM   34  C   UNL     1      -9.346  15.625  65.938  1.00  0.00    -0.357 A  
BRANCH   4  35
HETATM   35  N   UNL     1      -6.396   8.922  68.691  1.00  0.00    -0.053 N  
HETATM   36  C   UNL     1      -6.142   8.685  70.120  1.00  0.00    -0.033 C  
HETATM   37  C   UNL     1      -5.891   7.888  67.877  1.00  0.00    -0.041 C  
HETATM   38  O   UNL     1      -5.224   6.941  68.327  1.00  0.00    -0.014 OA 
BRANCH  37  39
HETATM   39  C   UNL     1      -6.048   7.880  66.409  1.00  0.00    -0.045 A  
HETATM   40  C   UNL     1      -7.023   6.845  64.443  1.00  0.00    -0.055 A  
HETATM   41  C   UNL     1      -6.826   6.872  65.828  1.00  0.00    -0.052 A  
HETATM   42  C   UNL     1      -6.434   7.812  63.637  1.00  0.00    -0.062 A  
HETATM   43  C   UNL     1      -5.703   8.844  64.227  1.00  0.00    -0.065 A  
HETATM   44  C   UNL     1      -5.565   8.908  65.610  1.00  0.00    -0.049 A  
ENDBRANCH  37  39
ENDBRANCH   4  35
ENDBRANCH   2   3
TORSDOF 3
ENDMDL
MODEL       83
REMARK 921   NORMALIZED FREE ENERGY PREDICTED BY IDOCK:   -2.16 KCAL/MOL
REMARK 922        TOTAL FREE ENERGY PREDICTED BY IDOCK:   -3.06 KCAL/MOL
REMARK 923 INTER-LIGAND FREE ENERGY PREDICTED BY IDOCK:   -4.46 KCAL/MOL
REMARK 924 INTRA-LIGAND FREE ENERGY PREDICTED BY IDOCK:    1.40 KCAL/MOL
REMARK 927      BINDING AFFINITY PREDICTED BY RF-SCORE:    0.00 PKD
ROOT
HETATM    1  C   UNL     1      -9.682   4.080  72.208  1.00  0.00    -0.156 C  
HETATM    2  O   UNL     1      -8.910   5.258  71.968  1.00  0.00    -0.129 OA 
ENDROOT
BRANCH   2   3
HETATM    3  C   UNL     1      -9.325   6.241  70.937  1.00  0.00    -0.161 C  
HETATM    4  C   UNL     1      -8.084   6.454  70.033  1.00  0.00    -0.121 C  
HETATM    5  C   UNL     1      -7.169   7.506  70.662  1.00  0.00    -0.067 C  
HETATM    6  O   UNL     1      -8.611  13.719  67.661  1.00  0.00    -0.163 OA 
HETATM    7  C   UNL     1      -7.303   9.691  67.349  1.00  0.00    -0.087 A  
HETATM    8  C   UNL     1      -9.534  13.266  68.330  1.00  0.00    -0.172 C  
HETATM    9  C   UNL     1      -7.940   8.654  71.344  1.00  0.00    -0.137 C  
HETATM   10  H   UNL     1     -10.369  15.108  68.977  1.00  0.00     0.000 HD 
HETATM   11  O   UNL     1      -9.034   8.242  72.242  1.00  0.00    -0.172 OA 
HETATM   12  C   UNL     1      -5.922   9.622  67.530  1.00  0.00    -0.051 A  
HETATM   13  C   UNL     1      -5.340  10.356  68.560  1.00  0.00    -0.037 A  
HETATM   14  C   UNL     1     -10.099   7.503  71.603  1.00  0.00    -0.180 C  
HETATM   15  N   UNL     1     -10.421  14.090  69.030  1.00  0.00    -0.201 N  
HETATM   16  N   UNL     1     -10.989   8.574  71.055  1.00  0.00    -0.240 NA 
HETATM   17  C   UNL     1     -11.105   6.683  72.481  1.00  0.00    -0.296 C  
HETATM   18  C   UNL     1      -6.124  10.817  69.627  1.00  0.00    -0.069 A  
HETATM   19  C   UNL     1     -12.191   9.220  71.628  1.00  0.00    -0.370 A  
HETATM   20  C   UNL     1     -12.359  10.589  71.130  1.00  0.00    -0.510 A  
HETATM   21  N   UNL     1      -8.327   9.639  70.340  1.00  0.00    -0.187 NA 
HETATM   22  C   UNL     1     -11.424  13.415  69.839  1.00  0.00    -0.111 C  
HETATM   23  C   UNL     1     -11.371  10.799  70.170  1.00  0.00    -0.390 A  
HETATM   24  C   UNL     1     -13.393  11.414  71.643  1.00  0.00    -0.288 A  
HETATM   25  C   UNL     1     -10.656   9.606  70.236  1.00  0.00    -0.278 A  
HETATM   26  C   UNL     1     -14.303  10.934  72.575  1.00  0.00     1.331 A  
HETATM   27  C   UNL     1     -14.204   9.631  73.008  1.00  0.00     0.811 A  
HETATM   28  C   UNL     1      -9.461   9.693  69.582  1.00  0.00    -0.210 A  
HETATM   29  C   UNL     1      -9.463  10.589  68.467  1.00  0.00    -0.164 C  
HETATM   30  C   UNL     1     -13.178   8.782  72.555  1.00  0.00    -0.398 A  
HETATM   31  C   UNL     1      -8.064  10.481  68.250  1.00  0.00    -0.115 A  
HETATM   32  C   UNL     1      -9.967  11.939  68.662  1.00  0.00    -0.163 C  
HETATM   33  C   UNL     1      -7.481  10.497  69.564  1.00  0.00    -0.146 A  
HETATM   34  C   UNL     1     -11.049  12.026  69.559  1.00  0.00    -0.140 A  
BRANCH   4  35
HETATM   35  N   UNL     1      -7.338   5.138  69.668  1.00  0.00    -0.059 N  
HETATM   36  C   UNL     1      -7.101   4.122  70.705  1.00  0.00    -0.037 C  
HETATM   37  C   UNL     1      -7.004   4.678  68.379  1.00  0.00    -0.056 C  
HETATM   38  O   UNL     1      -6.479   3.570  68.174  1.00  0.00    -0.036 OA 
BRANCH  37  39
HETATM   39  C   UNL     1      -7.181   5.502  67.167  1.00  0.00    -0.075 A  
HETATM   40  C   UNL     1      -8.452   7.205  65.996  1.00  0.00    -0.148 A  
HETATM   41  C   UNL     1      -8.266   6.386  67.115  1.00  0.00    -0.113 A  
HETATM   42  C   UNL     1      -7.570   7.134  64.925  1.00  0.00    -0.103 A  
HETATM   43  C   UNL     1      -6.460   6.290  65.006  1.00  0.00    -0.038 A  
HETATM   44  C   UNL     1      -6.238   5.526  66.147  1.00  0.00    -0.034 A  
ENDBRANCH  37  39
ENDBRANCH   4  35
ENDBRANCH   2   3
TORSDOF 3
ENDMDL
MODEL       84
REMARK 921   NORMALIZED FREE ENERGY PREDICTED BY IDOCK:   -1.69 KCAL/MOL
REMARK 922        TOTAL FREE ENERGY PREDICTED BY IDOCK:   -2.51 KCAL/MOL
REMARK 923 INTER-LIGAND FREE ENERGY PREDICTED BY IDOCK:   -4.11 KCAL/MOL
REMARK 924 INTRA-LIGAND FREE ENERGY PREDICTED BY IDOCK:    1.60 KCAL/MOL
REMARK 927      BINDING AFFINITY PREDICTED BY RF-SCORE:    0.00 PKD
ROOT
HETATM    1  C   UNL     1      -8.798   8.948  73.650  1.00  0.00     1.061 C  
HETATM    2  O   UNL     1      -8.503   9.075  72.258  1.00  0.00    -0.356 OA 
ENDROOT
BRANCH   2   3
HETATM    3  C   UNL     1      -7.894   7.951  71.505  1.00  0.00    -0.095 C  
HETATM    4  C   UNL     1      -7.349   8.568  70.192  1.00  0.00    -0.051 C  
HETATM    5  C   UNL     1      -8.474   8.646  69.158  1.00  0.00    -0.124 C  
HETATM    6  O   UNL     1      -7.990   2.985  64.987  1.00  0.00    -0.081 OA 
HETATM    7  C   UNL     1      -6.316   6.554  66.563  1.00  0.00    -0.042 A  
HETATM    8  C   UNL     1      -8.276   2.720  66.149  1.00  0.00    -0.086 C  
HETATM    9  C   UNL     1      -9.428   7.435  69.205  1.00  0.00    -0.154 C  
HETATM   10  H   UNL     1      -9.462   0.997  65.783  1.00  0.00     0.000 HD 
HETATM   11  O   UNL     1      -9.911   7.055  70.545  1.00  0.00    -0.183 OA 
HETATM   12  C   UNL     1      -6.664   7.640  65.760  1.00  0.00    -0.046 A  
HETATM   13  C   UNL     1      -7.975   7.751  65.307  1.00  0.00    -0.127 A  
HETATM   14  C   UNL     1      -8.877   6.660  71.474  1.00  0.00    -0.138 C  
HETATM   15  N   UNL     1      -9.101   1.641  66.487  1.00  0.00    -0.084 N  
HETATM   16  N   UNL     1      -8.668   5.210  71.170  1.00  0.00    -0.128 NA 
HETATM   17  C   UNL     1      -9.195   6.612  73.008  1.00  0.00    -0.144 C  
HETATM   18  C   UNL     1      -9.004   7.049  65.950  1.00  0.00    -0.092 A  
HETATM   19  C   UNL     1      -9.259   3.998  71.780  1.00  0.00    -0.128 A  
HETATM   20  C   UNL     1      -9.324   2.887  70.825  1.00  0.00    -0.222 A  
HETATM   21  N   UNL     1      -8.848   6.334  68.443  1.00  0.00    -0.115 NA 
HETATM   22  C   UNL     1      -9.414   1.488  67.899  1.00  0.00    -0.116 C  
HETATM   23  C   UNL     1      -8.687   3.312  69.661  1.00  0.00    -0.128 A  
HETATM   24  C   UNL     1      -9.956   1.670  71.187  1.00  0.00    -0.086 A  
HETATM   25  C   UNL     1      -8.385   4.635  69.972  1.00  0.00    -0.067 A  
HETATM   26  C   UNL     1     -10.472   1.476  72.461  1.00  0.00    -0.228 A  
HETATM   27  C   UNL     1     -10.364   2.482  73.395  1.00  0.00    -0.216 A  
HETATM   28  C   UNL     1      -8.010   5.343  68.867  1.00  0.00    -0.094 A  
HETATM   29  C   UNL     1      -7.354   4.565  67.862  1.00  0.00    -0.066 C  
HETATM   30  C   UNL     1      -9.775   3.719  73.077  1.00  0.00    -0.173 A  
HETATM   31  C   UNL     1      -7.328   5.624  66.917  1.00  0.00    -0.079 A  
HETATM   32  C   UNL     1      -7.986   3.335  67.412  1.00  0.00    -0.077 C  
HETATM   33  C   UNL     1      -8.613   6.257  67.031  1.00  0.00    -0.104 A  
HETATM   34  C   UNL     1      -8.668   2.635  68.426  1.00  0.00    -0.131 A  
BRANCH   4  35
HETATM   35  N   UNL     1      -6.612   9.924  70.392  1.00  0.00    -0.110 N  
HETATM   36  C   UNL     1      -5.599  10.055  71.450  1.00  0.00    -0.036 C  
HETATM   37  C   UNL     1      -6.646  11.046  69.540  1.00  0.00    -0.118 C  
HETATM   38  O   UNL     1      -5.957  12.062  69.735  1.00  0.00    -0.108 OA 
BRANCH  37  39
HETATM   39  C   UNL     1      -7.557  11.141  68.382  1.00  0.00    -0.110 A  
HETATM   40  C   UNL     1      -9.803  11.527  67.549  1.00  0.00    -0.203 A  
HETATM   41  C   UNL     1      -8.912  11.400  68.620  1.00  0.00    -0.133 A  
HETATM   42  C   UNL     1      -9.349  11.381  66.244  1.00  0.00    -0.228 A  
HETATM   43  C   UNL     1      -7.987  11.176  66.011  1.00  0.00    -0.041 A  
HETATM   44  C   UNL     1      -7.092  11.118  67.074  1.00  0.00    -0.124 A  
ENDBRANCH  37  39
ENDBRANCH   4  35
ENDBRANCH   2   3
TORSDOF 3
ENDMDL
MODEL       85
REMARK 921   NORMALIZED FREE ENERGY PREDICTED BY IDOCK:   -1.54 KCAL/MOL
REMARK 922        TOTAL FREE ENERGY PREDICTED BY IDOCK:   -2.34 KCAL/MOL
REMARK 923 INTER-LIGAND FREE ENERGY PREDICTED BY IDOCK:   -4.34 KCAL/MOL
REMARK 924 INTRA-LIGAND FREE ENERGY PREDICTED BY IDOCK:    2.00 KCAL/MOL
REMARK 927      BINDING AFFINITY PREDICTED BY RF-SCORE:    0.00 PKD
ROOT
HETATM    1  C   UNL     1      -6.611  17.925  65.621  1.00  0.00    -0.159 C  
HETATM    2  O   UNL     1      -7.019  17.341  66.860  1.00  0.00    -0.158 OA 
ENDROOT
BRANCH   2   3
HETATM    3  C   UNL     1      -8.021  16.248  66.891  1.00  0.00    -0.243 C  
HETATM    4  C   UNL     1      -9.326  16.885  67.434  1.00  0.00    -0.235 C  
HETATM    5  C   UNL     1      -9.293  16.893  68.963  1.00  0.00    -0.188 C  
HETATM    6  O   UNL     1     -12.829  11.238  71.245  1.00  0.00    -0.393 OA 
HETATM    7  C   UNL     1     -12.728  14.906  69.108  1.00  0.00     0.321 A  
HETATM    8  C   UNL     1     -11.800  10.966  70.635  1.00  0.00    -0.352 C  
HETATM    9  C   UNL     1      -8.640  15.631  69.564  1.00  0.00    -0.191 C  
HETATM   10  H   UNL     1     -11.303   9.178  71.667  1.00  0.00     0.000 HD 
HETATM   11  O   UNL     1      -7.351  15.235  68.969  1.00  0.00    -0.131 OA 
HETATM   12  C   UNL     1     -13.032  15.965  69.963  1.00  0.00     0.585 A  
HETATM   13  C   UNL     1     -12.449  16.000  71.227  1.00  0.00    -0.307 A  
HETATM   14  C   UNL     1      -7.407  14.904  67.563  1.00  0.00    -0.204 C  
HETATM   15  N   UNL     1     -11.023   9.846  70.948  1.00  0.00    -0.334 N  
HETATM   16  N   UNL     1      -7.820  13.466  67.558  1.00  0.00    -0.169 NA 
HETATM   17  C   UNL     1      -6.081  14.849  66.729  1.00  0.00     1.773 C  
HETATM   18  C   UNL     1     -11.297  15.246  71.492  1.00  0.00    -0.432 A  
HETATM   19  C   UNL     1      -7.012  12.227  67.507  1.00  0.00    -0.142 A  
HETATM   20  C   UNL     1      -7.694  11.108  68.165  1.00  0.00    -0.107 A  
HETATM   21  N   UNL     1      -9.628  14.559  69.624  1.00  0.00     0.251 NA 
HETATM   22  C   UNL     1      -9.792   9.685  70.190  1.00  0.00    -0.262 C  
HETATM   23  C   UNL     1      -8.960  11.559  68.530  1.00  0.00    -0.146 A  
HETATM   24  C   UNL     1      -7.036   9.860  68.315  1.00  0.00    -0.076 A  
HETATM   25  C   UNL     1      -8.900  12.899  68.156  1.00  0.00    -0.194 A  
HETATM   26  C   UNL     1      -5.766   9.647  67.797  1.00  0.00    -0.040 A  
HETATM   27  C   UNL     1      -5.132  10.663  67.119  1.00  0.00    -0.041 A  
HETATM   28  C   UNL     1      -9.934  13.620  68.682  1.00  0.00    -0.161 A  
HETATM   29  C   UNL     1     -11.139  12.872  68.869  1.00  0.00    -0.301 C  
HETATM   30  C   UNL     1      -5.727  11.929  66.970  1.00  0.00    -0.139 A  
HETATM   31  C   UNL     1     -11.804  13.924  69.551  1.00  0.00    -0.383 A  
HETATM   32  C   UNL     1     -11.068  11.606  69.580  1.00  0.00    -0.177 C  
HETATM   33  C   UNL     1     -10.813  14.485  70.427  1.00  0.00     0.185 A  
HETATM   34  C   UNL     1      -9.888  10.876  69.339  1.00  0.00    -0.055 A  
BRANCH   4  35
HETATM   35  N   UNL     1      -9.645  18.281  66.825  1.00  0.00    -0.287 N  
HETATM   36  C   UNL     1     -10.745  18.421  65.859  1.00  0.00    -0.178 C  
HETATM   37  C   UNL     1      -9.124  19.526  67.230  1.00  0.00    -0.305 C  
HETATM   38  O   UNL     1      -9.500  20.605  66.741  1.00  0.00    -0.313 OA 
BRANCH  37  39
HETATM   39  C   UNL     1      -8.034  19.652  68.218  1.00  0.00    -0.356 A  
HETATM   40  C   UNL     1      -5.812  20.469  68.746  1.00  0.00    -0.361 A  
HETATM   41  C   UNL     1      -6.857  20.302  67.832  1.00  0.00    -0.326 A  
HETATM   42  C   UNL     1      -5.933  19.975  70.040  1.00  0.00    -0.373 A  
HETATM   43  C   UNL     1      -7.130  19.374  70.435  1.00  0.00     0.547 A  
HETATM   44  C   UNL     1      -8.193  19.271  69.544  1.00  0.00     0.219 A  
ENDBRANCH  37  39
ENDBRANCH   4  35
ENDBRANCH   2   3
TORSDOF 3
ENDMDL
MODEL       86
REMARK 921   NORMALIZED FREE ENERGY PREDICTED BY IDOCK:   -1.36 KCAL/MOL
REMARK 922        TOTAL FREE ENERGY PREDICTED BY IDOCK:   -2.12 KCAL/MOL
REMARK 923 INTER-LIGAND FREE ENERGY PREDICTED BY IDOCK:   -2.52 KCAL/MOL
REMARK 924 INTRA-LIGAND FREE ENERGY PREDICTED BY IDOCK:    0.39 KCAL/MOL
REMARK 927      BINDING AFFINITY PREDICTED BY RF-SCORE:    0.00 PKD
ROOT
HETATM    1  C   UNL     1     -11.319   9.639  68.486  1.00  0.00     0.168 C  
HETATM    2  O   UNL     1     -10.196   9.375  67.643  1.00  0.00    -0.197 OA 
ENDROOT
BRANCH   2   3
HETATM    3  C   UNL     1      -9.310  10.475  67.192  1.00  0.00    -0.154 C  
HETATM    4  C   UNL     1      -8.113  10.486  68.177  1.00  0.00    -0.113 C  
HETATM    5  C   UNL     1      -8.481  11.297  69.420  1.00  0.00     0.344 C  
HETATM    6  O   UNL     1      -5.966  17.828  68.580  1.00  0.00    -0.171 OA 
HETATM    7  C   UNL     1      -5.321  13.643  68.900  1.00  0.00    -0.074 A  
HETATM    8  C   UNL     1      -6.853  17.533  67.786  1.00  0.00    -0.174 C  
HETATM    9  C   UNL     1      -9.342  12.537  69.104  1.00  0.00     0.650 C  
HETATM   10  H   UNL     1      -7.696  19.466  67.545  1.00  0.00     0.000 HD 
HETATM   11  O   UNL     1     -10.495  12.304  68.215  1.00  0.00    -0.212 OA 
HETATM   12  C   UNL     1      -5.134  13.290  70.236  1.00  0.00    -0.093 A  
HETATM   13  C   UNL     1      -5.977  13.834  71.201  1.00  0.00    -0.098 A  
HETATM   14  C   UNL     1     -10.155  11.829  66.893  1.00  0.00    -0.207 C  
HETATM   15  N   UNL     1      -7.761  18.478  67.298  1.00  0.00    -0.222 N  
HETATM   16  N   UNL     1      -9.859  13.084  66.135  1.00  0.00    -0.277 NA 
HETATM   17  C   UNL     1     -11.265  11.179  65.998  1.00  0.00    -0.036 C  
HETATM   18  C   UNL     1      -7.211  14.384  70.829  1.00  0.00     1.096 A  
HETATM   19  C   UNL     1     -10.727  13.926  65.280  1.00  0.00    -0.345 A  
HETATM   20  C   UNL     1     -10.292  15.326  65.279  1.00  0.00    -0.430 A  
HETATM   21  N   UNL     1      -8.474  13.633  68.687  1.00  0.00    -0.094 NA 
HETATM   22  C   UNL     1      -8.804  17.974  66.418  1.00  0.00    -0.231 C  
HETATM   23  C   UNL     1      -9.107  15.386  66.009  1.00  0.00    -0.284 A  
HETATM   24  C   UNL     1     -11.058  16.311  64.604  1.00  0.00    -0.259 A  
HETATM   25  C   UNL     1      -8.984  14.072  66.454  1.00  0.00    -0.011 A  
HETATM   26  C   UNL     1     -12.195  15.972  63.883  1.00  0.00     0.762 A  
HETATM   27  C   UNL     1     -12.586  14.654  63.817  1.00  0.00     0.447 A  
HETATM   28  C   UNL     1      -8.040  13.954  67.433  1.00  0.00    -0.178 A  
HETATM   29  C   UNL     1      -6.965  14.893  67.333  1.00  0.00    -0.162 C  
HETATM   30  C   UNL     1     -11.880  13.643  64.495  1.00  0.00    -0.445 A  
HETATM   31  C   UNL     1      -6.389  14.518  68.576  1.00  0.00    -0.088 A  
HETATM   32  C   UNL     1      -7.285  16.303  67.186  1.00  0.00    -0.243 C  
HETATM   33  C   UNL     1      -7.505  14.346  69.465  1.00  0.00     0.033 A  
HETATM   34  C   UNL     1      -8.434  16.555  66.412  1.00  0.00    -0.357 A  
BRANCH   4  35
HETATM   35  N   UNL     1      -7.564   9.069  68.516  1.00  0.00    -0.092 N  
HETATM   36  C   UNL     1      -7.588   8.591  69.906  1.00  0.00    -0.071 C  
HETATM   37  C   UNL     1      -7.201   8.057  67.605  1.00  0.00    -0.091 C  
HETATM   38  O   UNL     1      -6.850   6.920  67.967  1.00  0.00    -0.071 OA 
BRANCH  37  39
HETATM   39  C   UNL     1      -7.135   8.280  66.148  1.00  0.00    -0.065 A  
HETATM   40  C   UNL     1      -5.926   9.190  64.252  1.00  0.00    -0.071 A  
HETATM   41  C   UNL     1      -6.041   8.982  65.630  1.00  0.00    -0.055 A  
HETATM   42  C   UNL     1      -6.906   8.711  63.391  1.00  0.00    -0.089 A  
HETATM   43  C   UNL     1      -7.968   7.966  63.908  1.00  0.00    -0.121 A  
HETATM   44  C   UNL     1      -8.045   7.702  65.272  1.00  0.00    -0.133 A  
ENDBRANCH  37  39
ENDBRANCH   4  35
ENDBRANCH   2   3
TORSDOF 3
ENDMDL
MODEL       87
REMARK 921   NORMALIZED FREE ENERGY PREDICTED BY IDOCK:   -1.34 KCAL/MOL
REMARK 922        TOTAL FREE ENERGY PREDICTED BY IDOCK:   -2.10 KCAL/MOL
REMARK 923 INTER-LIGAND FREE ENERGY PREDICTED BY IDOCK:   -4.26 KCAL/MOL
REMARK 924 INTRA-LIGAND FREE ENERGY PREDICTED BY IDOCK:    2.16 KCAL/MOL
REMARK 927      BINDING AFFINITY PREDICTED BY RF-SCORE:    0.00 PKD
ROOT
HETATM    1  C   UNL     1      -6.702  10.637  64.853  1.00  0.00     0.113 C  
HETATM    2  O   UNL     1      -7.007   9.281  64.521  1.00  0.00    -0.089 OA 
ENDROOT
BRANCH   2   3
HETATM    3  C   UNL     1      -8.010   8.515  65.301  1.00  0.00    -0.120 C  
HETATM    4  C   UNL     1      -9.053   9.555  65.784  1.00  0.00    -0.196 C  
HETATM    5  C   UNL     1      -8.559  10.214  67.073  1.00  0.00    -0.129 C  
HETATM    6  O   UNL     1     -11.541   6.859  72.508  1.00  0.00    -0.261 OA 
HETATM    7  C   UNL     1     -11.892   9.162  68.958  1.00  0.00     1.173 A  
HETATM    8  C   UNL     1     -10.761   6.165  71.866  1.00  0.00    -0.232 C  
HETATM    9  C   UNL     1      -7.825   9.235  68.013  1.00  0.00    -0.092 C  
HETATM   10  H   UNL     1     -10.074   4.936  73.455  1.00  0.00     0.000 HD 
HETATM   11  O   UNL     1      -6.799   8.389  67.377  1.00  0.00    -0.068 OA 
HETATM   12  C   UNL     1     -11.866  10.522  69.267  1.00  0.00    -0.242 A  
HETATM   13  C   UNL     1     -10.927  10.987  70.184  1.00  0.00    -0.070 A  
HETATM   14  C   UNL     1      -7.295   7.503  66.349  1.00  0.00    -0.083 C  
HETATM   15  N   UNL     1      -9.988   5.164  72.464  1.00  0.00    -0.167 N  
HETATM   16  N   UNL     1      -7.768   6.307  67.114  1.00  0.00    -0.096 NA 
HETATM   17  C   UNL     1      -6.288   6.848  65.342  1.00  0.00    -0.043 C  
HETATM   18  C   UNL     1      -9.792  10.220  70.480  1.00  0.00     0.398 A  
HETATM   19  C   UNL     1      -7.081   5.040  67.451  1.00  0.00    -0.066 A  
HETATM   20  C   UNL     1      -7.592   4.461  68.698  1.00  0.00    -0.063 A  
HETATM   21  N   UNL     1      -8.805   8.498  68.804  1.00  0.00    -0.139 NA 
HETATM   22  C   UNL     1      -9.054   4.467  71.594  1.00  0.00    -0.130 C  
HETATM   23  C   UNL     1      -8.662   5.253  69.107  1.00  0.00    -0.106 A  
HETATM   24  C   UNL     1      -6.988   3.301  69.247  1.00  0.00    -0.041 A  
HETATM   25  C   UNL     1      -8.645   6.266  68.150  1.00  0.00    -0.116 A  
HETATM   26  C   UNL     1      -5.947   2.652  68.596  1.00  0.00    -0.024 A  
HETATM   27  C   UNL     1      -5.494   3.141  67.391  1.00  0.00    -0.017 A  
HETATM   28  C   UNL     1      -9.432   7.321  68.514  1.00  0.00    -0.140 A  
HETATM   29  C   UNL     1     -10.562   6.966  69.315  1.00  0.00    -0.250 C  
HETATM   30  C   UNL     1      -6.037   4.306  66.820  1.00  0.00    -0.031 A  
HETATM   31  C   UNL     1     -10.933   8.313  69.568  1.00  0.00    -0.051 A  
HETATM   32  C   UNL     1     -10.348   6.140  70.492  1.00  0.00    -0.270 C  
HETATM   33  C   UNL     1      -9.694   8.999  69.810  1.00  0.00    -0.175 A  
HETATM   34  C   UNL     1      -9.338   5.171  70.340  1.00  0.00    -0.210 A  
BRANCH   4  35
HETATM   35  N   UNL     1      -9.465  10.587  64.694  1.00  0.00    -0.236 N  
HETATM   36  C   UNL     1      -9.658  10.142  63.305  1.00  0.00    -0.179 C  
HETATM   37  C   UNL     1      -9.881  11.918  64.895  1.00  0.00    -0.199 C  
HETATM   38  O   UNL     1     -10.274  12.648  63.969  1.00  0.00    -0.397 OA 
BRANCH  37  39
HETATM   39  C   UNL     1      -9.818  12.584  66.211  1.00  0.00    -0.260 A  
HETATM   40  C   UNL     1      -8.459  13.588  67.952  1.00  0.00    -0.179 A  
HETATM   41  C   UNL     1      -8.562  12.929  66.722  1.00  0.00    -0.071 A  
HETATM   42  C   UNL     1      -9.605  13.889  68.679  1.00  0.00    -0.142 A  
HETATM   43  C   UNL     1     -10.858  13.589  68.138  1.00  0.00    -0.271 A  
HETATM   44  C   UNL     1     -10.960  12.996  66.885  1.00  0.00    -0.289 A  
ENDBRANCH  37  39
ENDBRANCH   4  35
ENDBRANCH   2   3
TORSDOF 3
ENDMDL
MODEL       88
REMARK 921   NORMALIZED FREE ENERGY PREDICTED BY IDOCK:   -0.88 KCAL/MOL
REMARK 922        TOTAL FREE ENERGY PREDICTED BY IDOCK:   -1.56 KCAL/MOL
REMARK 923 INTER-LIGAND FREE ENERGY PREDICTED BY IDOCK:   -4.19 KCAL/MOL
REMARK 924 INTRA-LIGAND FREE ENERGY PREDICTED BY IDOCK:    2.63 KCAL/MOL
REMARK 927      BINDING AFFINITY PREDICTED BY RF-SCORE:    0.00 PKD
ROOT
HETATM    1  C   UNL     1     -10.388   4.740  66.721  1.00  0.00    -0.181 C  
HETATM    2  O   UNL     1      -9.006   4.473  66.472  1.00  0.00    -0.111 OA 
ENDROOT
BRANCH   2   3
HETATM    3  C   UNL     1      -7.948   5.306  67.093  1.00  0.00    -0.101 C  
HETATM    4  C   UNL     1      -8.206   5.248  68.620  1.00  0.00    -0.093 C  
HETATM    5  C   UNL     1      -9.251   6.298  69.002  1.00  0.00    -0.127 C  
HETATM    6  O   UNL     1      -5.842  12.037  71.268  1.00  0.00    -0.357 OA 
HETATM    7  C   UNL     1      -6.759   7.907  71.641  1.00  0.00    -0.052 A  
HETATM    8  C   UNL     1      -5.662  11.791  70.080  1.00  0.00    -0.135 C  
HETATM    9  C   UNL     1      -9.113   7.611  68.205  1.00  0.00    -0.132 C  
HETATM   10  H   UNL     1      -5.421  13.785  69.392  1.00  0.00     0.000 HD 
HETATM   11  O   UNL     1      -8.966   7.459  66.746  1.00  0.00    -0.129 OA 
HETATM   12  C   UNL     1      -7.882   7.739  72.450  1.00  0.00    -0.129 A  
HETATM   13  C   UNL     1      -8.980   8.574  72.262  1.00  0.00    -0.299 A  
HETATM   14  C   UNL     1      -7.792   6.729  66.327  1.00  0.00    -0.104 C  
HETATM   15  N   UNL     1      -5.469  12.800  69.131  1.00  0.00    -0.069 N  
HETATM   16  N   UNL     1      -6.721   7.773  66.299  1.00  0.00    -0.053 NA 
HETATM   17  C   UNL     1      -7.713   6.164  64.867  1.00  0.00    -0.101 C  
HETATM   18  C   UNL     1      -9.131   9.278  71.059  1.00  0.00    -0.253 A  
HETATM   19  C   UNL     1      -6.221   8.617  65.190  1.00  0.00    -0.060 A  
HETATM   20  C   UNL     1      -5.691   9.894  65.677  1.00  0.00    -0.061 A  
HETATM   21  N   UNL     1      -8.093   8.449  68.827  1.00  0.00    -0.120 NA 
HETATM   22  C   UNL     1      -5.338  12.366  67.748  1.00  0.00    -0.095 C  
HETATM   23  C   UNL     1      -5.728   9.847  67.069  1.00  0.00    -0.050 A  
HETATM   24  C   UNL     1      -5.262  10.886  64.758  1.00  0.00    -0.034 A  
HETATM   25  C   UNL     1      -6.345   8.619  67.293  1.00  0.00    -0.057 A  
HETATM   26  C   UNL     1      -5.274  10.656  63.389  1.00  0.00    -0.174 A  
HETATM   27  C   UNL     1      -5.706   9.439  62.912  1.00  0.00    -0.084 A  
HETATM   28  C   UNL     1      -6.749   8.484  68.590  1.00  0.00    -0.059 A  
HETATM   29  C   UNL     1      -5.934   9.179  69.538  1.00  0.00    -0.033 C  
HETATM   30  C   UNL     1      -6.173   8.434  63.779  1.00  0.00    -0.072 A  
HETATM   31  C   UNL     1      -6.797   8.904  70.631  1.00  0.00    -0.057 A  
HETATM   32  C   UNL     1      -5.642  10.584  69.304  1.00  0.00    -0.037 C  
HETATM   33  C   UNL     1      -8.125   9.082  70.112  1.00  0.00    -0.126 A  
HETATM   34  C   UNL     1      -5.479  10.920  67.946  1.00  0.00    -0.039 A  
BRANCH   4  35
HETATM   35  N   UNL     1      -8.553   3.825  69.147  1.00  0.00    -0.076 N  
HETATM   36  C   UNL     1      -9.449   3.674  70.304  1.00  0.00    -0.187 C  
HETATM   37  C   UNL     1      -8.265   2.594  68.526  1.00  0.00    -0.060 C  
HETATM   38  O   UNL     1      -8.655   1.504  68.978  1.00  0.00    -0.052 OA 
BRANCH  37  39
HETATM   39  C   UNL     1      -7.413   2.485  67.325  1.00  0.00    -0.061 A  
HETATM   40  C   UNL     1      -5.212   2.707  66.329  1.00  0.00    -0.005 A  
HETATM   41  C   UNL     1      -6.059   2.823  67.436  1.00  0.00    -0.028 A  
HETATM   42  C   UNL     1      -5.715   2.269  65.110  1.00  0.00    -0.017 A  
HETATM   43  C   UNL     1      -7.054   1.883  65.019  1.00  0.00    -0.048 A  
HETATM   44  C   UNL     1      -7.879   1.935  66.138  1.00  0.00    -0.075 A  
ENDBRANCH  37  39
ENDBRANCH   4  35
ENDBRANCH   2   3
TORSDOF 3
ENDMDL
MODEL       89
REMARK 921   NORMALIZED FREE ENERGY PREDICTED BY IDOCK:   -0.62 KCAL/MOL
REMARK 922        TOTAL FREE ENERGY PREDICTED BY IDOCK:   -1.26 KCAL/MOL
REMARK 923 INTER-LIGAND FREE ENERGY PREDICTED BY IDOCK:   -6.92 KCAL/MOL
REMARK 924 INTRA-LIGAND FREE ENERGY PREDICTED BY IDOCK:    5.66 KCAL/MOL
REMARK 927      BINDING AFFINITY PREDICTED BY RF-SCORE:    0.00 PKD
ROOT
HETATM    1  C   UNL     1      -5.126  11.810  71.411  1.00  0.00    -0.072 C  
HETATM    2  O   UNL     1      -5.428  11.787  70.015  1.00  0.00    -0.078 OA 
ENDROOT
BRANCH   2   3
HETATM    3  C   UNL     1      -6.834  11.784  69.542  1.00  0.00    -0.026 C  
HETATM    4  C   UNL     1      -7.097  10.352  69.009  1.00  0.00    -0.076 C  
HETATM    5  C   UNL     1      -6.614  10.248  67.562  1.00  0.00    -0.067 C  
HETATM    6  O   UNL     1     -12.164  11.269  63.338  1.00  0.00    -0.020 OA 
HETATM    7  C   UNL     1     -10.211   9.047  66.383  1.00  0.00    -0.297 A  
HETATM    8  C   UNL     1     -11.853  12.258  63.993  1.00  0.00    -0.444 C  
HETATM    9  C   UNL     1      -6.872  11.529  66.741  1.00  0.00    -0.114 C  
HETATM   10  H   UNL     1     -12.447  13.743  62.597  1.00  0.00     0.000 HD 
HETATM   11  O   UNL     1      -6.468  12.791  67.386  1.00  0.00    -0.155 OA 
HETATM   12  C   UNL     1      -9.429   8.042  65.814  1.00  0.00     0.067 A  
HETATM   13  C   UNL     1      -8.642   8.346  64.706  1.00  0.00    -0.077 A  
HETATM   14  C   UNL     1      -7.152  13.085  68.625  1.00  0.00    -0.103 C  
HETATM   15  N   UNL     1     -12.016  13.558  63.503  1.00  0.00    -0.414 N  
HETATM   16  N   UNL     1      -8.416  13.749  68.179  1.00  0.00    -0.165 NA 
HETATM   17  C   UNL     1      -6.561  14.164  69.596  1.00  0.00    -0.120 C  
HETATM   18  C   UNL     1      -8.320   9.679  64.416  1.00  0.00    -0.171 A  
HETATM   19  C   UNL     1      -8.749  15.182  68.007  1.00  0.00    -0.165 A  
HETATM   20  C   UNL     1      -9.774  15.380  66.978  1.00  0.00    -0.231 A  
HETATM   21  N   UNL     1      -8.245  11.519  66.249  1.00  0.00    -0.101 NA 
HETATM   22  C   UNL     1     -11.537  14.632  64.360  1.00  0.00    -0.305 C  
HETATM   23  C   UNL     1     -10.193  14.116  66.569  1.00  0.00    -0.278 A  
HETATM   24  C   UNL     1     -10.153  16.692  66.591  1.00  0.00    -0.305 A  
HETATM   25  C   UNL     1      -9.342  13.289  67.298  1.00  0.00    -0.226 A  
HETATM   26  C   UNL     1      -9.613  17.811  67.210  1.00  0.00    -0.272 A  
HETATM   27  C   UNL     1      -8.697  17.647  68.224  1.00  0.00    -0.276 A  
HETATM   28  C   UNL     1      -9.374  12.001  66.844  1.00  0.00    -0.200 A  
HETATM   29  C   UNL     1     -10.630  11.603  66.288  1.00  0.00    -0.301 C  
HETATM   30  C   UNL     1      -8.264  16.370  68.624  1.00  0.00    -0.223 A  
HETATM   31  C   UNL     1     -10.143  10.351  65.829  1.00  0.00    -0.329 A  
HETATM   32  C   UNL     1     -11.242  12.450  65.277  1.00  0.00    -0.359 C  
HETATM   33  C   UNL     1      -8.840  10.633  65.293  1.00  0.00    -0.189 A  
HETATM   34  C   UNL     1     -11.036  13.828  65.479  1.00  0.00    -0.299 A  
BRANCH   4  35
HETATM   35  N   UNL     1      -6.529   9.227  69.922  1.00  0.00    -0.042 N  
HETATM   36  C   UNL     1      -6.226   9.515  71.332  1.00  0.00    -0.007 C  
HETATM   37  C   UNL     1      -6.435   7.853  69.621  1.00  0.00    -0.034 C  
HETATM   38  O   UNL     1      -6.043   7.009  70.446  1.00  0.00    -0.027 OA 
BRANCH  37  39
HETATM   39  C   UNL     1      -6.723   7.307  68.280  1.00  0.00    -0.054 A  
HETATM   40  C   UNL     1      -6.221   7.294  65.907  1.00  0.00    -0.038 A  
HETATM   41  C   UNL     1      -5.999   7.805  67.190  1.00  0.00    -0.048 A  
HETATM   42  C   UNL     1      -7.171   6.300  65.707  1.00  0.00    -0.074 A  
HETATM   43  C   UNL     1      -7.851   5.771  66.806  1.00  0.00    -0.101 A  
HETATM   44  C   UNL     1      -7.581   6.232  68.090  1.00  0.00    -0.102 A  
ENDBRANCH  37  39
ENDBRANCH   4  35
ENDBRANCH   2   3
TORSDOF 3
ENDMDL
MODEL       90
REMARK 921   NORMALIZED FREE ENERGY PREDICTED BY IDOCK:   -0.20 KCAL/MOL
REMARK 922        TOTAL FREE ENERGY PREDICTED BY IDOCK:   -0.76 KCAL/MOL
REMARK 923 INTER-LIGAND FREE ENERGY PREDICTED BY IDOCK:   -4.15 KCAL/MOL
REMARK 924 INTRA-LIGAND FREE ENERGY PREDICTED BY IDOCK:    3.38 KCAL/MOL
REMARK 927      BINDING AFFINITY PREDICTED BY RF-SCORE:    0.00 PKD
ROOT
HETATM    1  C   UNL     1      -8.255   7.534  73.382  1.00  0.00    -0.129 C  
HETATM    2  O   UNL     1      -8.009   8.320  72.214  1.00  0.00    -0.124 OA 
ENDROOT
BRANCH   2   3
HETATM    3  C   UNL     1      -7.344   7.729  71.027  1.00  0.00    -0.072 C  
HETATM    4  C   UNL     1      -6.835   8.928  70.187  1.00  0.00    -0.042 C  
HETATM    5  C   UNL     1      -7.965   9.443  69.294  1.00  0.00    -0.093 C  
HETATM    6  O   UNL     1      -7.199   6.530  62.921  1.00  0.00    -0.046 OA 
HETATM    7  C   UNL     1      -5.708   8.968  66.062  1.00  0.00    -0.050 A  
HETATM    8  C   UNL     1      -7.468   5.723  63.805  1.00  0.00    -0.069 C  
HETATM    9  C   UNL     1      -8.855   8.317  68.729  1.00  0.00    -0.137 C  
HETATM   10  H   UNL     1      -8.565   4.340  62.626  1.00  0.00     0.000 HD 
HETATM   11  O   UNL     1      -9.315   7.316  69.708  1.00  0.00    -0.151 OA 
HETATM   12  C   UNL     1      -6.113  10.289  65.874  1.00  0.00    -0.103 A  
HETATM   13  C   UNL     1      -7.429  10.544  65.501  1.00  0.00    -0.111 A  
HETATM   14  C   UNL     1      -8.260   6.570  70.354  1.00  0.00    -0.125 C  
HETATM   15  N   UNL     1      -8.235   4.579  63.561  1.00  0.00    -0.097 N  
HETATM   16  N   UNL     1      -7.976   5.459  69.393  1.00  0.00    -0.088 NA 
HETATM   17  C   UNL     1      -8.571   5.772  71.667  1.00  0.00    -0.132 C  
HETATM   18  C   UNL     1      -8.419   9.571  65.702  1.00  0.00    -0.143 A  
HETATM   19  C   UNL     1      -8.503   4.076  69.329  1.00  0.00    -0.076 A  
HETATM   20  C   UNL     1      -8.512   3.564  67.956  1.00  0.00    -0.109 A  
HETATM   21  N   UNL     1      -8.221   7.750  67.543  1.00  0.00    -0.123 NA 
HETATM   22  C   UNL     1      -8.537   3.749  64.717  1.00  0.00    -0.109 C  
HETATM   23  C   UNL     1      -7.901   4.527  67.156  1.00  0.00    -0.097 A  
HETATM   24  C   UNL     1      -9.080   2.295  67.671  1.00  0.00    -0.208 A  
HETATM   25  C   UNL     1      -7.667   5.548  68.074  1.00  0.00    -0.092 A  
HETATM   26  C   UNL     1      -9.582   1.486  68.682  1.00  0.00    -0.192 A  
HETATM   27  C   UNL     1      -9.524   1.920  69.987  1.00  0.00    -0.133 A  
HETATM   28  C   UNL     1      -7.332   6.718  67.456  1.00  0.00    -0.096 A  
HETATM   29  C   UNL     1      -6.638   6.553  66.216  1.00  0.00    -0.048 C  
HETATM   30  C   UNL     1      -9.001   3.183  70.319  1.00  0.00    -0.164 A  
HETATM   31  C   UNL     1      -6.669   7.937  65.900  1.00  0.00    -0.049 A  
HETATM   32  C   UNL     1      -7.207   5.665  65.214  1.00  0.00    -0.067 C  
HETATM   33  C   UNL     1      -7.985   8.375  66.276  1.00  0.00    -0.099 A  
HETATM   34  C   UNL     1      -7.849   4.532  65.749  1.00  0.00    -0.095 A  
BRANCH   4  35
HETATM   35  N   UNL     1      -6.169  10.052  71.033  1.00  0.00    -0.051 N  
HETATM   36  C   UNL     1      -5.422   9.702  72.252  1.00  0.00     0.015 C  
HETATM   37  C   UNL     1      -6.014  11.407  70.679  1.00  0.00    -0.040 C  
HETATM   38  O   UNL     1      -5.392  12.220  71.383  1.00  0.00    -0.320 OA 
BRANCH  37  39
HETATM   39  C   UNL     1      -6.639  11.994  69.477  1.00  0.00    -0.079 A  
HETATM   40  C   UNL     1      -8.638  12.325  68.144  1.00  0.00    -0.181 A  
HETATM   41  C   UNL     1      -8.001  11.763  69.255  1.00  0.00     0.329 A  
HETATM   42  C   UNL     1      -7.917  13.105  67.248  1.00  0.00    -0.140 A  
HETATM   43  C   UNL     1      -6.571  13.375  67.504  1.00  0.00    -0.143 A  
HETATM   44  C   UNL     1      -5.956  12.871  68.645  1.00  0.00    -0.070 A  
ENDBRANCH  37  39
ENDBRANCH   4  35
ENDBRANCH   2   3
TORSDOF 3
ENDMDL
MODEL       91
REMARK 921   NORMALIZED FREE ENERGY PREDICTED BY IDOCK:   -0.04 KCAL/MOL
REMARK 922        TOTAL FREE ENERGY PREDICTED BY IDOCK:   -0.58 KCAL/MOL
REMARK 923 INTER-LIGAND FREE ENERGY PREDICTED BY IDOCK:   -3.26 KCAL/MOL
REMARK 924 INTRA-LIGAND FREE ENERGY PREDICTED BY IDOCK:    2.68 KCAL/MOL
REMARK 927      BINDING AFFINITY PREDICTED BY RF-SCORE:    0.00 PKD
ROOT
HETATM    1  C   UNL     1      -7.656  16.597  66.218  1.00  0.00    -0.191 C  
HETATM    2  O   UNL     1      -8.991  17.101  66.156  1.00  0.00    -0.415 OA 
ENDROOT
BRANCH   2   3
HETATM    3  C   UNL     1     -10.130  16.299  66.667  1.00  0.00    -0.276 C  
HETATM    4  C   UNL     1     -10.707  17.099  67.863  1.00  0.00    -0.355 C  
HETATM    5  C   UNL     1      -9.913  16.771  69.128  1.00  0.00    -0.252 C  
HETATM    6  O   UNL     1     -13.416  11.775  72.658  1.00  0.00    -0.028 OA 
HETATM    7  C   UNL     1     -13.239  15.682  71.005  1.00  0.00    -0.435 A  
HETATM    8  C   UNL     1     -12.978  11.402  71.575  1.00  0.00    -0.399 C  
HETATM    9  C   UNL     1      -9.488  15.291  69.212  1.00  0.00    -0.242 C  
HETATM   10  H   UNL     1     -12.630   9.368  72.077  1.00  0.00     0.000 HD 
HETATM   11  O   UNL     1      -8.872  14.734  67.994  1.00  0.00    -0.161 OA 
HETATM   12  C   UNL     1     -12.720  16.574  71.943  1.00  0.00     0.851 A  
HETATM   13  C   UNL     1     -11.608  16.197  72.689  1.00  0.00    -0.315 A  
HETATM   14  C   UNL     1      -9.725  14.736  66.828  1.00  0.00    -0.254 C  
HETATM   15  N   UNL     1     -12.551  10.087  71.357  1.00  0.00    -0.380 N  
HETATM   16  N   UNL     1     -10.517  13.474  66.970  1.00  0.00    -0.264 NA 
HETATM   17  C   UNL     1      -9.091  14.544  65.407  1.00  0.00     0.978 C  
HETATM   18  C   UNL     1     -10.786  15.150  72.248  1.00  0.00     0.649 A  
HETATM   19  C   UNL     1     -10.284  12.118  66.425  1.00  0.00    -0.220 A  
HETATM   20  C   UNL     1     -10.861  11.081  67.286  1.00  0.00    -0.335 A  
HETATM   21  N   UNL     1     -10.594  14.500  69.741  1.00  0.00    -0.065 NA 
HETATM   22  C   UNL     1     -11.989   9.803  70.046  1.00  0.00     0.055 C  
HETATM   23  C   UNL     1     -11.555  11.734  68.303  1.00  0.00    -0.373 A  
HETATM   24  C   UNL     1     -10.651   9.709  66.991  1.00  0.00    -0.267 A  
HETATM   25  C   UNL     1     -11.268  13.068  68.027  1.00  0.00    -0.278 A  
HETATM   26  C   UNL     1      -9.954   9.314  65.857  1.00  0.00    -0.289 A  
HETATM   27  C   UNL     1      -9.460  10.270  64.999  1.00  0.00    -0.314 A  
HETATM   28  C   UNL     1     -11.610  13.885  69.066  1.00  0.00    -0.310 A  
HETATM   29  C   UNL     1     -12.724  13.426  69.836  1.00  0.00     0.124 C  
HETATM   30  C   UNL     1      -9.613  11.643  65.263  1.00  0.00    -0.220 A  
HETATM   31  C   UNL     1     -12.585  14.436  70.825  1.00  0.00    -0.426 A  
HETATM   32  C   UNL     1     -12.713  12.058  70.328  1.00  0.00     0.079 C  
HETATM   33  C   UNL     1     -11.170  14.541  71.052  1.00  0.00     0.158 A  
HETATM   34  C   UNL     1     -12.115  11.135  69.448  1.00  0.00    -0.396 A  
BRANCH   4  35
HETATM   35  N   UNL     1     -10.826  18.628  67.599  1.00  0.00    -0.376 N  
HETATM   36  C   UNL     1     -12.128  19.207  67.234  1.00  0.00     2.846 C  
HETATM   37  C   UNL     1      -9.852  19.614  67.854  1.00  0.00    -0.399 C  
HETATM   38  O   UNL     1     -10.064  20.828  67.690  1.00  0.00    -0.330 OA 
BRANCH  37  39
HETATM   39  C   UNL     1      -8.473  19.287  68.268  1.00  0.00    -0.366 A  
HETATM   40  C   UNL     1      -6.100  19.343  67.769  1.00  0.00    -0.220 A  
HETATM   41  C   UNL     1      -7.423  19.610  67.401  1.00  0.00    -0.287 A  
HETATM   42  C   UNL     1      -5.824  18.742  68.991  1.00  0.00    -0.230 A  
HETATM   43  C   UNL     1      -6.872  18.470  69.873  1.00  0.00     0.242 A  
HETATM   44  C   UNL     1      -8.181  18.799  69.535  1.00  0.00     0.426 A  
ENDBRANCH  37  39
ENDBRANCH   4  35
ENDBRANCH   2   3
TORSDOF 3
ENDMDL
MODEL       92
REMARK 921   NORMALIZED FREE ENERGY PREDICTED BY IDOCK:    0.00 KCAL/MOL
REMARK 922        TOTAL FREE ENERGY PREDICTED BY IDOCK:   -0.52 KCAL/MOL
REMARK 923 INTER-LIGAND FREE ENERGY PREDICTED BY IDOCK:   -1.62 KCAL/MOL
REMARK 924 INTRA-LIGAND FREE ENERGY PREDICTED BY IDOCK:    1.10 KCAL/MOL
REMARK 927      BINDING AFFINITY PREDICTED BY RF-SCORE:    0.00 PKD
ROOT
HETATM    1  C   UNL     1      -7.287  16.308  68.052  1.00  0.00    -0.132 C  
HETATM    2  O   UNL     1      -7.847  15.522  66.999  1.00  0.00    -0.205 OA 
ENDROOT
BRANCH   2   3
HETATM    3  C   UNL     1      -8.939  14.556  67.271  1.00  0.00    -0.210 C  
HETATM    4  C   UNL     1     -10.152  15.406  67.728  1.00  0.00    -0.227 C  
HETATM    5  C   UNL     1     -10.038  15.695  69.226  1.00  0.00    -0.258 C  
HETATM    6  O   UNL     1     -13.943  10.932  72.656  1.00  0.00     0.492 OA 
HETATM    7  C   UNL     1     -13.625  14.114  69.861  1.00  0.00     1.725 A  
HETATM    8  C   UNL     1     -12.975  10.453  72.074  1.00  0.00    -0.396 C  
HETATM    9  C   UNL     1      -9.471  14.508  70.032  1.00  0.00     0.853 C  
HETATM   10  H   UNL     1     -12.588   8.847  73.407  1.00  0.00     0.000 HD 
HETATM   11  O   UNL     1      -8.255  13.885  69.479  1.00  0.00     0.431 OA 
HETATM   12  C   UNL     1     -13.789  15.337  70.510  1.00  0.00     0.183 A  
HETATM   13  C   UNL     1     -13.140  15.548  71.724  1.00  0.00    -0.548 A  
HETATM   14  C   UNL     1      -8.414  13.306  68.164  1.00  0.00    -0.173 C  
HETATM   15  N   UNL     1     -12.286   9.339  72.566  1.00  0.00    -0.183 N  
HETATM   16  N   UNL     1      -8.953  11.939  68.445  1.00  0.00    -0.182 NA 
HETATM   17  C   UNL     1      -7.143  12.969  67.311  1.00  0.00    -0.055 C  
HETATM   18  C   UNL     1     -12.048  14.748  72.087  1.00  0.00    -0.378 A  
HETATM   19  C   UNL     1      -8.263  10.639  68.602  1.00  0.00    -0.135 A  
HETATM   20  C   UNL     1      -9.007   9.733  69.482  1.00  0.00    -0.215 A  
HETATM   21  N   UNL     1     -10.547  13.567  70.327  1.00  0.00     1.196 NA 
HETATM   22  C   UNL     1     -11.115   8.922  71.811  1.00  0.00    -0.363 C  
HETATM   23  C   UNL     1     -10.207  10.366  69.799  1.00  0.00    -0.228 A  
HETATM   24  C   UNL     1      -8.457   8.477  69.844  1.00  0.00    -0.125 A  
HETATM   25  C   UNL     1     -10.047  11.602  69.176  1.00  0.00     0.079 A  
HETATM   26  C   UNL     1      -7.239   8.049  69.332  1.00  0.00    -0.071 A  
HETATM   27  C   UNL     1      -6.553   8.855  68.453  1.00  0.00    -0.060 A  
HETATM   28  C   UNL     1     -10.984  12.504  69.591  1.00  0.00     0.199 A  
HETATM   29  C   UNL     1     -12.239  11.925  69.957  1.00  0.00    -0.291 C  
HETATM   30  C   UNL     1      -7.040  10.124  68.087  1.00  0.00    -0.079 A  
HETATM   31  C   UNL     1     -12.772  13.145  70.450  1.00  0.00    -0.080 A  
HETATM   32  C   UNL     1     -12.245  10.812  70.892  1.00  0.00    -0.487 C  
HETATM   33  C   UNL     1     -11.690  13.759  71.170  1.00  0.00     0.345 A  
HETATM   34  C   UNL     1     -11.149   9.938  70.754  1.00  0.00    -0.417 A  
BRANCH   4  35
HETATM   35  N   UNL     1     -10.376  16.691  66.877  1.00  0.00    -0.301 N  
HETATM   36  C   UNL     1      -9.971  18.000  67.411  1.00  0.00    -0.326 C  
HETATM   37  C   UNL     1     -10.761  16.759  65.523  1.00  0.00    -0.196 C  
HETATM   38  O   UNL     1     -10.836  17.830  64.897  1.00  0.00    -0.815 OA 
BRANCH  37  39
HETATM   39  C   UNL     1     -11.180  15.572  64.752  1.00  0.00    -0.399 A  
HETATM   40  C   UNL     1     -10.661  13.341  63.953  1.00  0.00    -0.131 A  
HETATM   41  C   UNL     1     -10.291  14.496  64.650  1.00  0.00    -0.173 A  
HETATM   42  C   UNL     1     -11.909  13.264  63.345  1.00  0.00    -0.415 A  
HETATM   43  C   UNL     1     -12.811  14.319  63.495  1.00  0.00     1.085 A  
HETATM   44  C   UNL     1     -12.467  15.438  64.246  1.00  0.00     0.048 A  
ENDBRANCH  37  39
ENDBRANCH   4  35
ENDBRANCH   2   3
TORSDOF 3
ENDMDL
MODEL       93
REMARK 921   NORMALIZED FREE ENERGY PREDICTED BY IDOCK:    0.37 KCAL/MOL
REMARK 922        TOTAL FREE ENERGY PREDICTED BY IDOCK:   -0.09 KCAL/MOL
REMARK 923 INTER-LIGAND FREE ENERGY PREDICTED BY IDOCK:   -5.08 KCAL/MOL
REMARK 924 INTRA-LIGAND FREE ENERGY PREDICTED BY IDOCK:    5.00 KCAL/MOL
REMARK 927      BINDING AFFINITY PREDICTED BY RF-SCORE:    0.00 PKD
ROOT
HETATM    1  C   UNL     1     -10.337  10.886  69.693  1.00  0.00    -0.038 C  
HETATM    2  O   UNL     1      -9.984   9.589  70.176  1.00  0.00    -0.209 OA 
ENDROOT
BRANCH   2   3
HETATM    3  C   UNL     1      -9.883   8.435  69.249  1.00  0.00    -0.186 C  
HETATM    4  C   UNL     1      -9.311   7.266  70.090  1.00  0.00    -0.155 C  
HETATM    5  C   UNL     1      -7.785   7.363  70.131  1.00  0.00    -0.090 C  
HETATM    6  O   UNL     1      -5.203   3.109  65.139  1.00  0.00    -0.008 OA 
HETATM    7  C   UNL     1      -7.453   3.675  68.695  1.00  0.00    -0.054 A  
HETATM    8  C   UNL     1      -5.842   4.058  64.698  1.00  0.00    -0.014 C  
HETATM    9  C   UNL     1      -7.171   7.841  68.799  1.00  0.00    -0.081 C  
HETATM   10  H   UNL     1      -4.776   4.321  62.881  1.00  0.00     0.000 HD 
HETATM   11  O   UNL     1      -7.801   9.029  68.197  1.00  0.00    -0.099 OA 
HETATM   12  C   UNL     1      -6.620   3.571  69.808  1.00  0.00    -0.033 A  
HETATM   13  C   UNL     1      -5.380   4.204  69.785  1.00  0.00    -0.008 A  
HETATM   14  C   UNL     1      -9.193   8.866  67.844  1.00  0.00    -0.138 C  
HETATM   15  N   UNL     1      -5.524   4.670  63.480  1.00  0.00    -0.012 N  
HETATM   16  N   UNL     1      -9.139   8.240  66.486  1.00  0.00    -0.167 NA 
HETATM   17  C   UNL     1     -10.073  10.133  67.568  1.00  0.00    -0.244 C  
HETATM   18  C   UNL     1      -5.135   5.238  68.871  1.00  0.00     0.000 A  
HETATM   19  C   UNL     1      -9.182   8.849  65.137  1.00  0.00    -0.032 A  
HETATM   20  C   UNL     1      -8.466   8.033  64.152  1.00  0.00     0.111 A  
HETATM   21  N   UNL     1      -7.042   6.705  67.892  1.00  0.00    -0.082 NA 
HETATM   22  C   UNL     1      -6.322   5.830  63.116  1.00  0.00    -0.025 C  
HETATM   23  C   UNL     1      -8.068   6.866  64.800  1.00  0.00    -0.095 A  
HETATM   24  C   UNL     1      -8.302   8.500  62.822  1.00  0.00    -0.154 A  
HETATM   25  C   UNL     1      -8.484   7.113  66.106  1.00  0.00    -0.142 A  
HETATM   26  C   UNL     1      -8.860   9.701  62.405  1.00  0.00    -0.262 A  
HETATM   27  C   UNL     1      -9.592  10.453  63.297  1.00  0.00    -0.353 A  
HETATM   28  C   UNL     1      -7.943   6.222  66.988  1.00  0.00    -0.109 A  
HETATM   29  C   UNL     1      -7.689   4.927  66.437  1.00  0.00    -0.092 C  
HETATM   30  C   UNL     1      -9.757  10.051  64.635  1.00  0.00    -0.339 A  
HETATM   31  C   UNL     1      -7.015   4.457  67.595  1.00  0.00    -0.060 A  
HETATM   32  C   UNL     1      -6.942   4.835  65.193  1.00  0.00    -0.062 C  
HETATM   33  C   UNL     1      -6.194   5.557  68.019  1.00  0.00    -0.037 A  
HETATM   34  C   UNL     1      -7.205   5.879  64.285  1.00  0.00    -0.056 A  
BRANCH   4  35
HETATM   35  N   UNL     1      -9.950   7.136  71.504  1.00  0.00    -0.183 N  
HETATM   36  C   UNL     1     -10.536   8.321  72.151  1.00  0.00    -0.301 C  
HETATM   37  C   UNL     1     -10.226   5.948  72.208  1.00  0.00    -0.189 C  
HETATM   38  O   UNL     1     -10.817   5.934  73.302  1.00  0.00    -0.253 OA 
BRANCH  37  39
HETATM   39  C   UNL     1      -9.774   4.621  71.744  1.00  0.00    -0.230 A  
HETATM   40  C   UNL     1      -9.640   2.999  69.945  1.00  0.00    -0.124 A  
HETATM   41  C   UNL     1     -10.076   4.236  70.433  1.00  0.00    -0.116 A  
HETATM   42  C   UNL     1      -8.917   2.142  70.767  1.00  0.00    -0.147 A  
HETATM   43  C   UNL     1      -8.574   2.555  72.056  1.00  0.00    -0.090 A  
HETATM   44  C   UNL     1      -8.950   3.812  72.516  1.00  0.00    -0.127 A  
ENDBRANCH  37  39
ENDBRANCH   4  35
ENDBRANCH   2   3
TORSDOF 3
ENDMDL
MODEL       94
REMARK 921   NORMALIZED FREE ENERGY PREDICTED BY IDOCK:    0.38 KCAL/MOL
REMARK 922        TOTAL FREE ENERGY PREDICTED BY IDOCK:   -0.08 KCAL/MOL
REMARK 923 INTER-LIGAND FREE ENERGY PREDICTED BY IDOCK:   -1.45 KCAL/MOL
REMARK 924 INTRA-LIGAND FREE ENERGY PREDICTED BY IDOCK:    1.37 KCAL/MOL
REMARK 927      BINDING AFFINITY PREDICTED BY RF-SCORE:    0.00 PKD
ROOT
HETATM    1  C   UNL     1      -7.016  15.385  70.230  1.00  0.00     0.185 C  
HETATM    2  O   UNL     1      -6.812  13.978  70.377  1.00  0.00     0.102 OA 
ENDROOT
BRANCH   2   3
HETATM    3  C   UNL     1      -7.650  13.007  69.633  1.00  0.00     0.915 C  
HETATM    4  C   UNL     1      -6.840  11.686  69.602  1.00  0.00    -0.006 C  
HETATM    5  C   UNL     1      -5.851  11.720  68.436  1.00  0.00    -0.049 C  
HETATM    6  O   UNL     1      -8.791   8.341  62.993  1.00  0.00     0.136 OA 
HETATM    7  C   UNL     1      -7.351   8.340  66.987  1.00  0.00    -0.084 A  
HETATM    8  C   UNL     1      -9.370   9.377  63.304  1.00  0.00     0.350 C  
HETATM    9  C   UNL     1      -6.419  12.407  67.177  1.00  0.00    -0.094 C  
HETATM   10  H   UNL     1     -10.067   9.923  61.374  1.00  0.00     0.000 HD 
HETATM   11  O   UNL     1      -7.077  13.706  67.402  1.00  0.00    -0.168 OA 
HETATM   12  C   UNL     1      -5.997   8.008  67.006  1.00  0.00    -0.052 A  
HETATM   13  C   UNL     1      -5.146   8.591  66.071  1.00  0.00    -0.027 A  
HETATM   14  C   UNL     1      -8.235  13.658  68.266  1.00  0.00    -0.156 C  
HETATM   15  N   UNL     1     -10.011  10.185  62.359  1.00  0.00     0.203 N  
HETATM   16  N   UNL     1      -9.349  13.284  67.340  1.00  0.00    -0.209 NA 
HETATM   17  C   UNL     1      -8.785  14.984  68.894  1.00  0.00    -0.197 C  
HETATM   18  C   UNL     1      -5.530   9.763  65.404  1.00  0.00    -0.052 A  
HETATM   19  C   UNL     1     -10.314  14.127  66.597  1.00  0.00    -0.277 A  
HETATM   20  C   UNL     1     -10.763  13.476  65.363  1.00  0.00    -0.308 A  
HETATM   21  N   UNL     1      -7.222  11.449  66.425  1.00  0.00    -0.058 NA 
HETATM   22  C   UNL     1     -10.596  11.419  62.859  1.00  0.00     0.056 C  
HETATM   23  C   UNL     1     -10.209  12.198  65.349  1.00  0.00    -0.299 A  
HETATM   24  C   UNL     1     -11.609  14.168  64.458  1.00  0.00    -0.400 A  
HETATM   25  C   UNL     1      -9.421  12.221  66.497  1.00  0.00    -0.236 A  
HETATM   26  C   UNL     1     -12.079  15.443  64.741  1.00  0.00    -0.034 A  
HETATM   27  C   UNL     1     -11.723  16.048  65.925  1.00  0.00     0.782 A  
HETATM   28  C   UNL     1      -8.553  11.168  66.538  1.00  0.00    -0.169 A  
HETATM   29  C   UNL     1      -9.030   9.984  65.893  1.00  0.00    -0.182 C  
HETATM   30  C   UNL     1     -10.861  15.418  66.841  1.00  0.00    -0.313 A  
HETATM   31  C   UNL     1      -7.800   9.291  66.034  1.00  0.00    -0.102 A  
HETATM   32  C   UNL     1      -9.542  10.090  64.536  1.00  0.00    -0.346 C  
HETATM   33  C   UNL     1      -6.787  10.267  65.741  1.00  0.00    -0.128 A  
HETATM   34  C   UNL     1     -10.232  11.289  64.274  1.00  0.00    -0.383 A  
BRANCH   4  35
HETATM   35  N   UNL     1      -6.168  11.328  70.960  1.00  0.00     0.365 N  
HETATM   36  C   UNL     1      -5.491  12.377  71.738  1.00  0.00     0.280 C  
HETATM   37  C   UNL     1      -6.282  10.119  71.674  1.00  0.00     0.478 C  
HETATM   38  O   UNL     1      -5.775   9.949  72.796  1.00  0.00    -0.302 OA 
BRANCH  37  39
HETATM   39  C   UNL     1      -6.950   8.924  71.120  1.00  0.00    -0.089 A  
HETATM   40  C   UNL     1      -6.817   6.577  70.521  1.00  0.00    -0.062 A  
HETATM   41  C   UNL     1      -6.213   7.739  71.013  1.00  0.00    -0.034 A  
HETATM   42  C   UNL     1      -8.148   6.599  70.121  1.00  0.00    -0.124 A  
HETATM   43  C   UNL     1      -8.892   7.770  70.280  1.00  0.00    -0.144 A  
HETATM   44  C   UNL     1      -8.308   8.906  70.833  1.00  0.00    -0.219 A  
ENDBRANCH  37  39
ENDBRANCH   4  35
ENDBRANCH   2   3
TORSDOF 3
ENDMDL
MODEL       95
REMARK 921   NORMALIZED FREE ENERGY PREDICTED BY IDOCK:    0.46 KCAL/MOL
REMARK 922        TOTAL FREE ENERGY PREDICTED BY IDOCK:    0.02 KCAL/MOL
REMARK 923 INTER-LIGAND FREE ENERGY PREDICTED BY IDOCK:   -1.85 KCAL/MOL
REMARK 924 INTRA-LIGAND FREE ENERGY PREDICTED BY IDOCK:    1.87 KCAL/MOL
REMARK 927      BINDING AFFINITY PREDICTED BY RF-SCORE:    0.00 PKD
ROOT
HETATM    1  C   UNL     1      -8.685   2.032  66.958  1.00  0.00    -0.119 C  
HETATM    2  O   UNL     1      -9.547   2.750  67.841  1.00  0.00    -0.194 OA 
ENDROOT
BRANCH   2   3
HETATM    3  C   UNL     1      -9.519   4.233  67.891  1.00  0.00    -0.165 C  
HETATM    4  C   UNL     1      -9.171   4.697  66.454  1.00  0.00    -0.133 C  
HETATM    5  C   UNL     1      -7.653   4.678  66.265  1.00  0.00    -0.090 C  
HETATM    6  O   UNL     1      -5.241  11.204  67.395  1.00  0.00    -0.038 OA 
HETATM    7  C   UNL     1      -7.678   8.505  65.203  1.00  0.00    -0.102 A  
HETATM    8  C   UNL     1      -5.716  10.673  68.392  1.00  0.00    -0.043 C  
HETATM    9  C   UNL     1      -6.878   5.124  67.522  1.00  0.00    -0.057 C  
HETATM   10  H   UNL     1      -4.483  11.606  69.847  1.00  0.00     0.000 HD 
HETATM   11  O   UNL     1      -7.301   4.499  68.787  1.00  0.00    -0.055 OA 
HETATM   12  C   UNL     1      -6.957   7.969  64.137  1.00  0.00    -0.070 A  
HETATM   13  C   UNL     1      -5.649   7.544  64.353  1.00  0.00    -0.033 A  
HETATM   14  C   UNL     1      -8.670   4.764  69.168  1.00  0.00    -0.087 C  
HETATM   15  N   UNL     1      -5.226  10.928  69.678  1.00  0.00    -0.038 N  
HETATM   16  N   UNL     1      -8.588   6.079  69.877  1.00  0.00    -0.129 NA 
HETATM   17  C   UNL     1      -9.357   3.868  70.254  1.00  0.00    -0.238 C  
HETATM   18  C   UNL     1      -5.202   7.275  65.654  1.00  0.00    -0.024 A  
HETATM   19  C   UNL     1      -8.444   6.395  71.317  1.00  0.00    -0.123 A  
HETATM   20  C   UNL     1      -7.761   7.675  71.525  1.00  0.00    -0.085 A  
HETATM   21  N   UNL     1      -6.822   6.582  67.562  1.00  0.00    -0.073 NA 
HETATM   22  C   UNL     1      -5.838  10.174  70.760  1.00  0.00    -0.094 C  
HETATM   23  C   UNL     1      -7.568   8.244  70.268  1.00  0.00    -0.072 A  
HETATM   24  C   UNL     1      -7.433   8.104  72.837  1.00  0.00    -0.165 A  
HETATM   25  C   UNL     1      -8.053   7.244  69.429  1.00  0.00    -0.130 A  
HETATM   26  C   UNL     1      -7.798   7.362  73.952  1.00  0.00    -0.146 A  
HETATM   27  C   UNL     1      -8.498   6.188  73.783  1.00  0.00    -0.123 A  
HETATM   28  C   UNL     1      -7.701   7.460  68.127  1.00  0.00    -0.120 A  
HETATM   29  C   UNL     1      -7.571   8.839  67.772  1.00  0.00    -0.097 C  
HETATM   30  C   UNL     1      -8.819   5.702  72.503  1.00  0.00    -0.130 A  
HETATM   31  C   UNL     1      -7.057   8.560  66.478  1.00  0.00    -0.079 A  
HETATM   32  C   UNL     1      -6.745   9.696  68.607  1.00  0.00    -0.052 C  
HETATM   33  C   UNL     1      -6.139   7.471  66.669  1.00  0.00    -0.044 A  
HETATM   34  C   UNL     1      -6.798   9.388  69.979  1.00  0.00    -0.067 A  
BRANCH   4  35
HETATM   35  N   UNL     1      -9.932   3.922  65.339  1.00  0.00    -0.168 N  
HETATM   36  C   UNL     1     -11.396   3.801  65.405  1.00  0.00     2.008 C  
HETATM   37  C   UNL     1      -9.409   3.455  64.117  1.00  0.00    -0.133 C  
HETATM   38  O   UNL     1     -10.112   2.916  63.245  1.00  0.00    -0.116 OA 
BRANCH  37  39
HETATM   39  C   UNL     1      -7.968   3.499  63.797  1.00  0.00    -0.085 A  
HETATM   40  C   UNL     1      -5.816   2.380  63.811  1.00  0.00    -0.010 A  
HETATM   41  C   UNL     1      -7.179   2.390  64.124  1.00  0.00    -0.056 A  
HETATM   42  C   UNL     1      -5.236   3.478  63.187  1.00  0.00    -0.005 A  
HETATM   43  C   UNL     1      -6.039   4.559  62.816  1.00  0.00    -0.018 A  
HETATM   44  C   UNL     1      -7.407   4.538  63.066  1.00  0.00    -0.052 A  
ENDBRANCH  37  39
ENDBRANCH   4  35
ENDBRANCH   2   3
TORSDOF 3
ENDMDL
MODEL       96
REMARK 921   NORMALIZED FREE ENERGY PREDICTED BY IDOCK:    0.53 KCAL/MOL
REMARK 922        TOTAL FREE ENERGY PREDICTED BY IDOCK:    0.09 KCAL/MOL
REMARK 923 INTER-LIGAND FREE ENERGY PREDICTED BY IDOCK:   -2.73 KCAL/MOL
REMARK 924 INTRA-LIGAND FREE ENERGY PREDICTED BY IDOCK:    2.83 KCAL/MOL
REMARK 927      BINDING AFFINITY PREDICTED BY RF-SCORE:    0.00 PKD
ROOT
HETATM    1  C   UNL     1      -5.221  10.196  66.794  1.00  0.00    -0.040 C  
HETATM    2  O   UNL     1      -6.163   9.445  66.025  1.00  0.00    -0.064 OA 
ENDROOT
BRANCH   2   3
HETATM    3  C   UNL     1      -7.305   8.763  66.680  1.00  0.00    -0.082 C  
HETATM    4  C   UNL     1      -8.510   9.728  66.542  1.00  0.00    -0.124 C  
HETATM    5  C   UNL     1      -8.476  10.753  67.677  1.00  0.00    -0.119 C  
HETATM    6  O   UNL     1     -12.757   8.472  72.792  1.00  0.00    -0.289 OA 
HETATM    7  C   UNL     1     -12.152   9.736  68.784  1.00  0.00     1.229 A  
HETATM    8  C   UNL     1     -11.775   7.759  72.614  1.00  0.00    -0.309 C  
HETATM    9  C   UNL     1      -8.004  10.158  69.019  1.00  0.00    -0.115 C  
HETATM   10  H   UNL     1     -11.529   7.080  74.610  1.00  0.00     0.000 HD 
HETATM   11  O   UNL     1      -6.781   9.337  68.958  1.00  0.00    -0.050 OA 
HETATM   12  C   UNL     1     -12.308  11.119  68.691  1.00  0.00     0.231 A  
HETATM   13  C   UNL     1     -11.726  11.930  69.662  1.00  0.00    -0.413 A  
HETATM   14  C   UNL     1      -6.882   8.159  68.126  1.00  0.00    -0.076 C  
HETATM   15  N   UNL     1     -11.159   7.063  73.659  1.00  0.00    -0.039 N  
HETATM   16  N   UNL     1      -7.489   7.138  69.036  1.00  0.00    -0.092 NA 
HETATM   17  C   UNL     1      -5.576   7.426  67.664  1.00  0.00    -0.033 C  
HETATM   18  C   UNL     1     -10.689  11.434  70.464  1.00  0.00     1.408 A  
HETATM   19  C   UNL     1      -6.858   6.109  69.893  1.00  0.00    -0.058 A  
HETATM   20  C   UNL     1      -7.688   5.793  71.060  1.00  0.00    -0.101 A  
HETATM   21  N   UNL     1      -9.130   9.509  69.683  1.00  0.00    -0.181 NA 
HETATM   22  C   UNL     1      -9.962   6.313  73.315  1.00  0.00    -0.180 C  
HETATM   23  C   UNL     1      -8.880   6.499  70.916  1.00  0.00    -0.147 A  
HETATM   24  C   UNL     1      -7.208   4.907  72.059  1.00  0.00    -0.076 A  
HETATM   25  C   UNL     1      -8.636   7.231  69.757  1.00  0.00    -0.141 A  
HETATM   26  C   UNL     1      -5.979   4.274  71.931  1.00  0.00    -0.016 A  
HETATM   27  C   UNL     1      -5.211   4.506  70.812  1.00  0.00     0.000 A  
HETATM   28  C   UNL     1      -9.561   8.218  69.576  1.00  0.00    -0.171 A  
HETATM   29  C   UNL     1     -10.858   7.915  70.099  1.00  0.00    -0.243 C  
HETATM   30  C   UNL     1      -5.627   5.400  69.809  1.00  0.00    -0.012 A  
HETATM   31  C   UNL     1     -11.372   9.215  69.849  1.00  0.00    -0.047 A  
HETATM   32  C   UNL     1     -10.961   7.451  71.473  1.00  0.00    -0.255 C  
HETATM   33  C   UNL     1     -10.313  10.112  70.220  1.00  0.00    -0.174 A  
HETATM   34  C   UNL     1      -9.893   6.631  71.885  1.00  0.00    -0.174 A  
BRANCH   4  35
HETATM   35  N   UNL     1      -8.634  10.383  65.135  1.00  0.00    -0.175 N  
HETATM   36  C   UNL     1      -8.277   9.609  63.937  1.00  0.00    -0.159 C  
HETATM   37  C   UNL     1      -9.248  11.611  64.819  1.00  0.00     0.111 C  
HETATM   38  O   UNL     1      -9.376  12.019  63.652  1.00  0.00    -0.026 OA 
BRANCH  37  39
HETATM   39  C   UNL     1      -9.726  12.553  65.850  1.00  0.00    -0.226 A  
HETATM   40  C   UNL     1     -11.601  13.579  66.998  1.00  0.00    -0.394 A  
HETATM   41  C   UNL     1     -11.107  12.717  66.013  1.00  0.00    -0.315 A  
HETATM   42  C   UNL     1     -10.723  14.287  67.809  1.00  0.00    -0.253 A  
HETATM   43  C   UNL     1      -9.348  14.079  67.677  1.00  0.00    -0.203 A  
HETATM   44  C   UNL     1      -8.860  13.171  66.743  1.00  0.00    -0.140 A  
ENDBRANCH  37  39
ENDBRANCH   4  35
ENDBRANCH   2   3
TORSDOF 3
ENDMDL
MODEL       97
REMARK 921   NORMALIZED FREE ENERGY PREDICTED BY IDOCK:    0.80 KCAL/MOL
REMARK 922        TOTAL FREE ENERGY PREDICTED BY IDOCK:    0.42 KCAL/MOL
REMARK 923 INTER-LIGAND FREE ENERGY PREDICTED BY IDOCK:   -0.23 KCAL/MOL
REMARK 924 INTRA-LIGAND FREE ENERGY PREDICTED BY IDOCK:    0.64 KCAL/MOL
REMARK 927      BINDING AFFINITY PREDICTED BY RF-SCORE:    0.00 PKD
ROOT
HETATM    1  C   UNL     1     -11.313   6.595  69.479  1.00  0.00    -0.299 C  
HETATM    2  O   UNL     1     -11.659   7.926  69.091  1.00  0.00     0.533 OA 
ENDROOT
BRANCH   2   3
HETATM    3  C   UNL     1     -10.786   9.072  69.446  1.00  0.00    -0.138 C  
HETATM    4  C   UNL     1     -11.699  10.088  70.177  1.00  0.00    -0.215 C  
HETATM    5  C   UNL     1     -12.420  10.960  69.148  1.00  0.00     0.160 C  
HETATM    6  O   UNL     1      -8.775  16.953  68.442  1.00  0.00    -0.226 OA 
HETATM    7  C   UNL     1     -10.996  14.253  70.852  1.00  0.00     0.719 A  
HETATM    8  C   UNL     1      -8.173  15.958  68.052  1.00  0.00    -0.148 C  
HETATM    9  C   UNL     1     -11.541  11.318  67.931  1.00  0.00    -0.256 C  
HETATM   10  H   UNL     1      -7.045  16.877  66.506  1.00  0.00     0.000 HD 
HETATM   11  O   UNL     1     -10.818  10.192  67.315  1.00  0.00    -0.271 OA 
HETATM   12  C   UNL     1     -12.351  14.577  70.808  1.00  0.00    -0.410 A  
HETATM   13  C   UNL     1     -12.930  14.889  69.581  1.00  0.00     0.327 A  
HETATM   14  C   UNL     1      -9.872   9.529  68.184  1.00  0.00    -0.155 C  
HETATM   15  N   UNL     1      -7.275  16.003  66.980  1.00  0.00    -0.220 N  
HETATM   16  N   UNL     1      -8.634  10.360  68.054  1.00  0.00    -0.122 NA 
HETATM   17  C   UNL     1      -9.334   8.108  67.800  1.00  0.00    -0.149 C  
HETATM   18  C   UNL     1     -12.305  14.501  68.388  1.00  0.00    -0.011 A  
HETATM   19  C   UNL     1      -7.459  10.213  67.166  1.00  0.00    -0.091 A  
HETATM   20  C   UNL     1      -6.833  11.507  66.878  1.00  0.00    -0.138 A  
HETATM   21  N   UNL     1     -10.700  12.462  68.263  1.00  0.00    -0.222 NA 
HETATM   22  C   UNL     1      -6.687  14.735  66.580  1.00  0.00     1.918 C  
HETATM   23  C   UNL     1      -7.497  12.462  67.646  1.00  0.00    -0.138 A  
HETATM   24  C   UNL     1      -5.756  11.591  65.959  1.00  0.00     0.236 A  
HETATM   25  C   UNL     1      -8.497  11.698  68.242  1.00  0.00    -0.160 A  
HETATM   26  C   UNL     1      -5.230  10.455  65.358  1.00  0.00    -0.097 A  
HETATM   27  C   UNL     1      -5.760   9.222  65.663  1.00  0.00    -0.053 A  
HETATM   28  C   UNL     1      -9.454  12.479  68.822  1.00  0.00     0.110 A  
HETATM   29  C   UNL     1      -8.974  13.733  69.315  1.00  0.00     0.597 C  
HETATM   30  C   UNL     1      -6.850   9.088  66.543  1.00  0.00    -0.079 A  
HETATM   31  C   UNL     1     -10.270  14.218  69.633  1.00  0.00     0.254 A  
HETATM   32  C   UNL     1      -8.187  14.574  68.427  1.00  0.00    -0.150 C  
HETATM   33  C   UNL     1     -11.099  13.812  68.533  1.00  0.00    -0.267 A  
HETATM   34  C   UNL     1      -7.343  13.859  67.556  1.00  0.00    -0.181 A  
BRANCH   4  35
HETATM   35  N   UNL     1     -12.667   9.437  71.207  1.00  0.00    -0.323 N  
HETATM   36  C   UNL     1     -14.120   9.589  71.039  1.00  0.00     0.228 C  
HETATM   37  C   UNL     1     -12.337   8.520  72.225  1.00  0.00    -0.387 C  
HETATM   38  O   UNL     1     -13.191   7.985  72.952  1.00  0.00     0.248 OA 
BRANCH  37  39
HETATM   39  C   UNL     1     -10.943   8.172  72.564  1.00  0.00    -0.439 A  
HETATM   40  C   UNL     1      -9.332   6.463  73.170  1.00  0.00    -0.142 A  
HETATM   41  C   UNL     1     -10.645   6.840  72.872  1.00  0.00    -0.278 A  
HETATM   42  C   UNL     1      -8.318   7.414  73.177  1.00  0.00    -0.155 A  
HETATM   43  C   UNL     1      -8.612   8.731  72.817  1.00  0.00     0.157 A  
HETATM   44  C   UNL     1      -9.906   9.090  72.454  1.00  0.00     0.208 A  
ENDBRANCH  37  39
ENDBRANCH   4  35
ENDBRANCH   2   3
TORSDOF 3
ENDMDL
MODEL       98
REMARK 921   NORMALIZED FREE ENERGY PREDICTED BY IDOCK:    1.09 KCAL/MOL
REMARK 922        TOTAL FREE ENERGY PREDICTED BY IDOCK:    0.75 KCAL/MOL
REMARK 923 INTER-LIGAND FREE ENERGY PREDICTED BY IDOCK:   -1.45 KCAL/MOL
REMARK 924 INTRA-LIGAND FREE ENERGY PREDICTED BY IDOCK:    2.20 KCAL/MOL
REMARK 927      BINDING AFFINITY PREDICTED BY RF-SCORE:    0.00 PKD
ROOT
HETATM    1  C   UNL     1      -5.217  10.196  66.791  1.00  0.00    -0.040 C  
HETATM    2  O   UNL     1      -6.151   9.437  66.021  1.00  0.00    -0.060 OA 
ENDROOT
BRANCH   2   3
HETATM    3  C   UNL     1      -7.297   8.757  66.674  1.00  0.00    -0.082 C  
HETATM    4  C   UNL     1      -8.502   9.719  66.520  1.00  0.00    -0.124 C  
HETATM    5  C   UNL     1      -8.478  10.753  67.647  1.00  0.00    -0.119 C  
HETATM    6  O   UNL     1     -12.789   8.506  72.751  1.00  0.00    -0.273 OA 
HETATM    7  C   UNL     1     -12.159   9.739  68.737  1.00  0.00     1.229 A  
HETATM    8  C   UNL     1     -11.805   7.793  72.585  1.00  0.00    -0.262 C  
HETATM    9  C   UNL     1      -8.013  10.170  68.997  1.00  0.00    -0.115 C  
HETATM   10  H   UNL     1     -11.572   7.131  74.588  1.00  0.00     0.000 HD 
HETATM   11  O   UNL     1      -6.789   9.350  68.951  1.00  0.00    -0.054 OA 
HETATM   12  C   UNL     1     -12.317  11.121  68.632  1.00  0.00     0.231 A  
HETATM   13  C   UNL     1     -11.743  11.940  69.600  1.00  0.00    -0.413 A  
HETATM   14  C   UNL     1      -6.882   8.166  68.128  1.00  0.00    -0.076 C  
HETATM   15  N   UNL     1     -11.195   7.107  73.640  1.00  0.00     0.129 N  
HETATM   16  N   UNL     1      -7.493   7.151  69.041  1.00  0.00    -0.092 NA 
HETATM   17  C   UNL     1      -5.572   7.432  67.680  1.00  0.00    -0.033 C  
HETATM   18  C   UNL     1     -10.711  11.453  70.413  1.00  0.00     1.091 A  
HETATM   19  C   UNL     1      -6.867   6.130  69.911  1.00  0.00    -0.058 A  
HETATM   20  C   UNL     1      -7.704   5.822  71.075  1.00  0.00    -0.101 A  
HETATM   21  N   UNL     1      -9.143   9.524  69.658  1.00  0.00    -0.181 NA 
HETATM   22  C   UNL     1      -9.994   6.356  73.310  1.00  0.00    -0.183 C  
HETATM   23  C   UNL     1      -8.897   6.525  70.917  1.00  0.00    -0.147 A  
HETATM   24  C   UNL     1      -7.230   4.945  72.084  1.00  0.00    -0.080 A  
HETATM   25  C   UNL     1      -8.646   7.248  69.754  1.00  0.00    -0.141 A  
HETATM   26  C   UNL     1      -5.999   4.313  71.970  1.00  0.00    -0.013 A  
HETATM   27  C   UNL     1      -5.224   4.537  70.854  1.00  0.00     0.000 A  
HETATM   28  C   UNL     1      -9.572   8.232  69.558  1.00  0.00    -0.171 A  
HETATM   29  C   UNL     1     -10.871   7.931  70.075  1.00  0.00    -0.238 C  
HETATM   30  C   UNL     1      -5.634   5.422  69.841  1.00  0.00    -0.012 A  
HETATM   31  C   UNL     1     -11.386   9.227  69.811  1.00  0.00    -0.029 A  
HETATM   32  C   UNL     1     -10.983   7.477  71.452  1.00  0.00    -0.254 C  
HETATM   33  C   UNL     1     -10.331  10.129  70.182  1.00  0.00    -0.224 A  
HETATM   34  C   UNL     1      -9.917   6.663  71.878  1.00  0.00    -0.189 A  
BRANCH   4  35
HETATM   35  N   UNL     1      -8.617  10.363  65.107  1.00  0.00    -0.175 N  
HETATM   36  C   UNL     1      -8.998  11.778  64.979  1.00  0.00     0.333 C  
HETATM   37  C   UNL     1      -8.208   9.803  63.881  1.00  0.00    -0.159 C  
HETATM   38  O   UNL     1      -8.262  10.425  62.805  1.00  0.00    -0.146 OA 
BRANCH  37  39
HETATM   39  C   UNL     1      -7.748   8.406  63.754  1.00  0.00    -0.144 A  
HETATM   40  C   UNL     1      -8.104   6.062  64.269  1.00  0.00    -0.109 A  
HETATM   41  C   UNL     1      -8.489   7.402  64.388  1.00  0.00     0.198 A  
HETATM   42  C   UNL     1      -6.975   5.724  63.532  1.00  0.00    -0.042 A  
HETATM   43  C   UNL     1      -6.271   6.725  62.859  1.00  0.00    -0.043 A  
HETATM   44  C   UNL     1      -6.695   8.049  62.923  1.00  0.00    -0.085 A  
ENDBRANCH  37  39
ENDBRANCH   4  35
ENDBRANCH   2   3
TORSDOF 3
ENDMDL
MODEL       99
REMARK 921   NORMALIZED FREE ENERGY PREDICTED BY IDOCK:    1.11 KCAL/MOL
REMARK 922        TOTAL FREE ENERGY PREDICTED BY IDOCK:    0.78 KCAL/MOL
REMARK 923 INTER-LIGAND FREE ENERGY PREDICTED BY IDOCK:   -2.76 KCAL/MOL
REMARK 924 INTRA-LIGAND FREE ENERGY PREDICTED BY IDOCK:    3.54 KCAL/MOL
REMARK 927      BINDING AFFINITY PREDICTED BY RF-SCORE:    0.00 PKD
ROOT
HETATM    1  C   UNL     1      -6.588   9.822  67.138  1.00  0.00    -0.070 C  
HETATM    2  O   UNL     1      -7.999   9.821  66.912  1.00  0.00    -0.105 OA 
ENDROOT
BRANCH   2   3
HETATM    3  C   UNL     1      -8.844   8.701  67.395  1.00  0.00    -0.134 C  
HETATM    4  C   UNL     1     -10.186   9.342  67.831  1.00  0.00    -0.211 C  
HETATM    5  C   UNL     1     -10.062   9.862  69.264  1.00  0.00    -0.214 C  
HETATM    6  O   UNL     1     -12.676   4.950  73.592  1.00  0.00     0.966 OA 
HETATM    7  C   UNL     1     -13.189   7.688  70.387  1.00  0.00     0.934 A  
HETATM    8  C   UNL     1     -11.659   4.600  73.003  1.00  0.00    -0.112 C  
HETATM    9  C   UNL     1      -9.213   8.947  70.172  1.00  0.00    -0.180 C  
HETATM   10  H   UNL     1     -10.870   3.320  74.501  1.00  0.00     0.000 HD 
HETATM   11  O   UNL     1      -7.922   8.513  69.610  1.00  0.00    -0.097 OA 
HETATM   12  C   UNL     1     -13.578   8.933  70.880  1.00  0.00     0.155 A  
HETATM   13  C   UNL     1     -12.930   9.447  72.000  1.00  0.00    -0.508 A  
HETATM   14  C   UNL     1      -8.018   7.730  68.400  1.00  0.00    -0.122 C  
HETATM   15  N   UNL     1     -10.724   3.736  73.581  1.00  0.00    -0.202 N  
HETATM   16  N   UNL     1      -8.237   6.337  68.900  1.00  0.00    -0.113 NA 
HETATM   17  C   UNL     1      -6.749   7.540  67.500  1.00  0.00    -0.067 C  
HETATM   18  C   UNL     1     -11.675   8.950  72.377  1.00  0.00    -0.266 A  
HETATM   19  C   UNL     1      -7.277   5.243  69.172  1.00  0.00    -0.058 A  
HETATM   20  C   UNL     1      -7.765   4.342  70.220  1.00  0.00    -0.045 A  
HETATM   21  N   UNL     1     -10.046   7.859  70.673  1.00  0.00    -0.194 NA 
HETATM   22  C   UNL     1      -9.530   3.462  72.796  1.00  0.00    -0.107 C  
HETATM   23  C   UNL     1      -9.055   4.754  70.545  1.00  0.00    -0.170 A  
HETATM   24  C   UNL     1      -6.940   3.291  70.698  1.00  0.00    -0.033 A  
HETATM   25  C   UNL     1      -9.195   5.892  69.755  1.00  0.00    -0.145 A  
HETATM   26  C   UNL     1      -5.686   3.052  70.152  1.00  0.00    -0.017 A  
HETATM   27  C   UNL     1      -5.234   3.846  69.122  1.00  0.00    -0.011 A  
HETATM   28  C   UNL     1     -10.281   6.633  70.121  1.00  0.00    -0.187 A  
HETATM   29  C   UNL     1     -11.363   5.868  70.659  1.00  0.00    -0.206 C  
HETATM   30  C   UNL     1      -5.999   4.920  68.633  1.00  0.00    -0.025 A  
HETATM   31  C   UNL     1     -12.120   7.012  71.028  1.00  0.00    -0.413 A  
HETATM   32  C   UNL     1     -11.083   4.926  71.730  1.00  0.00     0.175 C  
HETATM   33  C   UNL     1     -11.160   7.932  71.572  1.00  0.00    -0.241 A  
HETATM   34  C   UNL     1      -9.834   4.285  71.620  1.00  0.00    -0.257 A  
BRANCH   4  35
HETATM   35  N   UNL     1     -10.723  10.415  66.840  1.00  0.00    -0.236 N  
HETATM   36  C   UNL     1     -10.652  10.169  65.391  1.00  0.00     0.167 C  
HETATM   37  C   UNL     1     -11.474  11.565  67.154  1.00  0.00    -0.237 C  
HETATM   38  O   UNL     1     -11.935  12.326  66.286  1.00  0.00    -0.588 OA 
BRANCH  37  39
HETATM   39  C   UNL     1     -11.716  12.005  68.542  1.00  0.00    -0.387 A  
HETATM   40  C   UNL     1     -11.199  13.556  70.335  1.00  0.00     0.453 A  
HETATM   41  C   UNL     1     -10.979  13.088  69.035  1.00  0.00    -0.242 A  
HETATM   42  C   UNL     1     -12.141  12.936  71.148  1.00  0.00     0.081 A  
HETATM   43  C   UNL     1     -12.910  11.891  70.632  1.00  0.00    -0.058 A  
HETATM   44  C   UNL     1     -12.737  11.472  69.317  1.00  0.00     0.566 A  
ENDBRANCH  37  39
ENDBRANCH   4  35
ENDBRANCH   2   3
TORSDOF 3
ENDMDL
MODEL      100
REMARK 921   NORMALIZED FREE ENERGY PREDICTED BY IDOCK:    1.57 KCAL/MOL
REMARK 922        TOTAL FREE ENERGY PREDICTED BY IDOCK:    1.32 KCAL/MOL
REMARK 923 INTER-LIGAND FREE ENERGY PREDICTED BY IDOCK:    0.33 KCAL/MOL
REMARK 924 INTRA-LIGAND FREE ENERGY PREDICTED BY IDOCK:    0.98 KCAL/MOL
REMARK 927      BINDING AFFINITY PREDICTED BY RF-SCORE:    0.00 PKD
ROOT
HETATM    1  C   UNL     1     -12.346  17.114  68.536  1.00  0.00     2.741 C  
HETATM    2  O   UNL     1     -11.281  16.551  67.769  1.00  0.00    -0.239 OA 
ENDROOT
BRANCH   2   3
HETATM    3  C   UNL     1     -10.888  15.131  67.942  1.00  0.00    -0.291 C  
HETATM    4  C   UNL     1      -9.858  15.117  69.101  1.00  0.00    -0.237 C  
HETATM    5  C   UNL     1      -8.466  15.431  68.551  1.00  0.00    -0.163 C  
HETATM    6  O   UNL     1      -5.131   9.320  67.450  1.00  0.00    -0.036 OA 
HETATM    7  C   UNL     1      -7.034  12.057  70.079  1.00  0.00     0.608 A  
HETATM    8  C   UNL     1      -6.103   9.491  66.723  1.00  0.00    -0.064 C  
HETATM    9  C   UNL     1      -8.205  14.809  67.164  1.00  0.00    -0.211 C  
HETATM   10  H   UNL     1      -5.399   8.429  65.025  1.00  0.00     0.000 HD 
HETATM   11  O   UNL     1      -9.269  15.009  66.165  1.00  0.00    -0.292 OA 
HETATM   12  C   UNL     1      -6.100  12.960  70.586  1.00  0.00     0.107 A  
HETATM   13  C   UNL     1      -5.168  13.523  69.719  1.00  0.00    -0.087 A  
HETATM   14  C   UNL     1     -10.548  14.434  66.516  1.00  0.00    -0.296 C  
HETATM   15  N   UNL     1      -6.152   8.996  65.415  1.00  0.00    -0.061 N  
HETATM   16  N   UNL     1     -10.430  13.013  66.064  1.00  0.00    -0.274 NA 
HETATM   17  C   UNL     1     -11.838  14.896  65.754  1.00  0.00    -0.118 C  
HETATM   18  C   UNL     1      -5.398  13.517  68.337  1.00  0.00    -0.095 A  
HETATM   19  C   UNL     1     -10.828  12.364  64.794  1.00  0.00    -0.304 A  
HETATM   20  C   UNL     1      -9.986  11.203  64.492  1.00  0.00    -0.350 A  
HETATM   21  N   UNL     1      -7.790  13.420  67.329  1.00  0.00    -0.136 NA 
HETATM   22  C   UNL     1      -7.338   9.335  64.644  1.00  0.00    -0.101 C  
HETATM   23  C   UNL     1      -9.139  11.017  65.583  1.00  0.00    -0.223 A  
HETATM   24  C   UNL     1     -10.140  10.510  63.264  1.00  0.00    -0.123 A  
HETATM   25  C   UNL     1      -9.470  12.107  66.384  1.00  0.00    -0.233 A  
HETATM   26  C   UNL     1     -11.122  10.869  62.351  1.00  0.00     1.805 A  
HETATM   27  C   UNL     1     -11.967  11.916  62.643  1.00  0.00     0.936 A  
HETATM   28  C   UNL     1      -8.560  12.295  67.385  1.00  0.00    -0.178 A  
HETATM   29  C   UNL     1      -7.935  11.094  67.847  1.00  0.00    -0.114 C  
HETATM   30  C   UNL     1     -11.835  12.657  63.832  1.00  0.00    -0.544 A  
HETATM   31  C   UNL     1      -7.017  11.777  68.688  1.00  0.00    -0.093 A  
HETATM   32  C   UNL     1      -7.343  10.197  66.867  1.00  0.00    -0.092 C  
HETATM   33  C   UNL     1      -6.588  12.915  67.923  1.00  0.00    -0.125 A  
HETATM   34  C   UNL     1      -8.049  10.128  65.651  1.00  0.00    -0.149 A  
BRANCH   4  35
HETATM   35  N   UNL     1     -10.254  16.018  70.306  1.00  0.00    -0.035 N  
HETATM   36  C   UNL     1      -9.740  17.394  70.388  1.00  0.00     2.277 C  
HETATM   37  C   UNL     1     -11.233  15.752  71.283  1.00  0.00    -0.314 C  
HETATM   38  O   UNL     1     -11.543  16.569  72.167  1.00  0.00    -0.424 OA 
BRANCH  37  39
HETATM   39  C   UNL     1     -11.924  14.451  71.388  1.00  0.00    -0.337 A  
HETATM   40  C   UNL     1     -13.612  13.092  72.479  1.00  0.00    -0.595 A  
HETATM   41  C   UNL     1     -12.914  14.299  72.366  1.00  0.00    -0.478 A  
HETATM   42  C   UNL     1     -13.315  12.033  71.629  1.00  0.00    -0.237 A  
HETATM   43  C   UNL     1     -12.364  12.209  70.622  1.00  0.00    -0.385 A  
HETATM   44  C   UNL     1     -11.719  13.432  70.467  1.00  0.00    -0.106 A  
ENDBRANCH  37  39
ENDBRANCH   4  35
ENDBRANCH   2   3
TORSDOF 3
ENDMDL
MODEL      101
REMARK 921   NORMALIZED FREE ENERGY PREDICTED BY IDOCK:    1.72 KCAL/MOL
REMARK 922        TOTAL FREE ENERGY PREDICTED BY IDOCK:    1.50 KCAL/MOL
REMARK 923 INTER-LIGAND FREE ENERGY PREDICTED BY IDOCK:   -1.43 KCAL/MOL
REMARK 924 INTRA-LIGAND FREE ENERGY PREDICTED BY IDOCK:    2.93 KCAL/MOL
REMARK 927      BINDING AFFINITY PREDICTED BY RF-SCORE:    0.00 PKD
ROOT
HETATM    1  C   UNL     1      -5.158   8.524  70.418  1.00  0.00    -0.022 C  
HETATM    2  O   UNL     1      -6.112   9.186  71.250  1.00  0.00    -0.059 OA 
ENDROOT
BRANCH   2   3
HETATM    3  C   UNL     1      -7.344   9.777  70.672  1.00  0.00    -0.050 C  
HETATM    4  C   UNL     1      -8.246   8.577  70.286  1.00  0.00    -0.115 C  
HETATM    5  C   UNL     1      -7.848   8.062  68.903  1.00  0.00    -0.113 C  
HETATM    6  O   UNL     1     -12.183  10.971  64.167  1.00  0.00     0.771 OA 
HETATM    7  C   UNL     1     -11.565   8.535  67.589  1.00  0.00     1.970 A  
HETATM    8  C   UNL     1     -11.450  11.778  64.728  1.00  0.00    -0.215 C  
HETATM    9  C   UNL     1      -7.454   9.187  67.925  1.00  0.00    -0.084 C  
HETATM   10  H   UNL     1     -11.246  13.161  63.130  1.00  0.00     0.000 HD 
HETATM   11  O   UNL     1      -6.510  10.189  68.452  1.00  0.00    -0.053 OA 
HETATM   12  C   UNL     1     -11.345   7.214  67.201  1.00  0.00     0.229 A  
HETATM   13  C   UNL     1     -10.491   6.959  66.131  1.00  0.00     0.591 A  
HETATM   14  C   UNL     1      -6.991  10.936  69.591  1.00  0.00    -0.128 C  
HETATM   15  N   UNL     1     -10.969  12.922  64.083  1.00  0.00    -0.385 N  
HETATM   16  N   UNL     1      -7.782  12.046  68.975  1.00  0.00     0.021 NA 
HETATM   17  C   UNL     1      -5.974  11.734  70.477  1.00  0.00    -0.066 C  
HETATM   18  C   UNL     1      -9.571   7.931  65.718  1.00  0.00     0.228 A  
HETATM   19  C   UNL     1      -7.392  13.429  68.616  1.00  0.00    -0.106 A  
HETATM   20  C   UNL     1      -8.185  13.941  67.493  1.00  0.00    -0.196 A  
HETATM   21  N   UNL     1      -8.660   9.754  67.330  1.00  0.00    -0.128 NA 
HETATM   22  C   UNL     1     -10.051  13.754  64.846  1.00  0.00    -0.267 C  
HETATM   23  C   UNL     1      -9.147  12.977  67.199  1.00  0.00    -0.225 A  
HETATM   24  C   UNL     1      -7.889  15.209  66.931  1.00  0.00    -0.110 A  
HETATM   25  C   UNL     1      -8.802  11.957  68.082  1.00  0.00    -0.178 A  
HETATM   26  C   UNL     1      -6.893  16.019  67.459  1.00  0.00    -0.205 A  
HETATM   27  C   UNL     1      -6.179  15.586  68.554  1.00  0.00    -0.098 A  
HETATM   28  C   UNL     1      -9.434  10.786  67.776  1.00  0.00    -0.155 A  
HETATM   29  C   UNL     1     -10.720  10.950  67.171  1.00  0.00    -0.320 C  
HETATM   30  C   UNL     1      -6.411  14.323  69.129  1.00  0.00    -0.104 A  
HETATM   31  C   UNL     1     -10.878   9.566  66.897  1.00  0.00    -0.085 A  
HETATM   32  C   UNL     1     -10.841  11.837  66.026  1.00  0.00    -0.343 C  
HETATM   33  C   UNL     1      -9.590   9.128  66.437  1.00  0.00    -0.245 A  
HETATM   34  C   UNL     1     -10.008  12.971  66.085  1.00  0.00    -0.278 A  
BRANCH   4  35
HETATM   35  N   UNL     1      -8.295   7.454  71.363  1.00  0.00    -0.111 N  
HETATM   36  C   UNL     1      -8.790   7.760  72.714  1.00  0.00    -0.173 C  
HETATM   37  C   UNL     1      -8.096   6.074  71.163  1.00  0.00    -0.121 C  
HETATM   38  O   UNL     1      -8.237   5.235  72.069  1.00  0.00    -0.114 OA 
BRANCH  37  39
HETATM   39  C   UNL     1      -7.633   5.511  69.879  1.00  0.00    -0.074 A  
HETATM   40  C   UNL     1      -6.170   3.970  68.709  1.00  0.00    -0.032 A  
HETATM   41  C   UNL     1      -6.617   4.549  69.901  1.00  0.00    -0.033 A  
HETATM   42  C   UNL     1      -6.723   4.360  67.495  1.00  0.00    -0.047 A  
HETATM   43  C   UNL     1      -7.772   5.281  67.484  1.00  0.00    -0.096 A  
HETATM   44  C   UNL     1      -8.262   5.805  68.676  1.00  0.00    -0.105 A  
ENDBRANCH  37  39
ENDBRANCH   4  35
ENDBRANCH   2   3
TORSDOF 3
ENDMDL
MODEL      102
REMARK 921   NORMALIZED FREE ENERGY PREDICTED BY IDOCK:    2.85 KCAL/MOL
REMARK 922        TOTAL FREE ENERGY PREDICTED BY IDOCK:    2.82 KCAL/MOL
REMARK 923 INTER-LIGAND FREE ENERGY PREDICTED BY IDOCK:    1.79 KCAL/MOL
REMARK 924 INTRA-LIGAND FREE ENERGY PREDICTED BY IDOCK:    1.04 KCAL/MOL
REMARK 927      BINDING AFFINITY PREDICTED BY RF-SCORE:    0.00 PKD
ROOT
HETATM    1  C   UNL     1     -11.726   7.939  68.507  1.00  0.00     1.746 C  
HETATM    2  O   UNL     1     -11.085   7.875  67.232  1.00  0.00    -0.079 OA 
ENDROOT
BRANCH   2   3
HETATM    3  C   UNL     1     -10.038   8.857  66.858  1.00  0.00    -0.273 C  
HETATM    4  C   UNL     1      -8.791   8.485  67.700  1.00  0.00    -0.136 C  
HETATM    5  C   UNL     1      -8.897   9.130  69.083  1.00  0.00    -0.146 C  
HETATM    6  O   UNL     1      -5.223  15.144  68.965  1.00  0.00    -0.096 OA 
HETATM    7  C   UNL     1      -5.387  10.918  68.584  1.00  0.00    -0.040 A  
HETATM    8  C   UNL     1      -6.208  15.152  68.236  1.00  0.00    -0.119 C  
HETATM    9  C   UNL     1      -9.520  10.540  69.050  1.00  0.00    -0.201 C  
HETATM   10  H   UNL     1      -6.673  17.219  68.379  1.00  0.00     0.000 HD 
HETATM   11  O   UNL     1     -10.760  10.672  68.265  1.00  0.00    -0.189 OA 
HETATM   12  C   UNL     1      -5.171  10.319  69.824  1.00  0.00    -0.038 A  
HETATM   13  C   UNL     1      -5.815  10.837  70.945  1.00  0.00    -0.034 A  
HETATM   14  C   UNL     1     -10.622  10.371  66.858  1.00  0.00    -0.230 C  
HETATM   15  N   UNL     1      -6.948  16.314  67.995  1.00  0.00    -0.125 N  
HETATM   16  N   UNL     1     -10.146  11.661  66.269  1.00  0.00    -0.215 NA 
HETATM   17  C   UNL     1     -11.904  10.093  65.999  1.00  0.00     3.431 C  
HETATM   18  C   UNL     1      -6.942  11.655  70.794  1.00  0.00     2.231 A  
HETATM   19  C   UNL     1     -10.894  12.777  65.647  1.00  0.00    -0.273 A  
HETATM   20  C   UNL     1     -10.195  14.055  65.809  1.00  0.00    -0.343 A  
HETATM   21  N   UNL     1      -8.488  11.515  68.711  1.00  0.00    -0.105 NA 
HETATM   22  C   UNL     1      -8.134  16.162  67.166  1.00  0.00    -0.192 C  
HETATM   23  C   UNL     1      -8.969  13.777  66.409  1.00  0.00    -0.005 A  
HETATM   24  C   UNL     1     -10.802  15.262  65.375  1.00  0.00    -0.399 A  
HETATM   25  C   UNL     1      -9.071  12.407  66.636  1.00  0.00    -0.204 A  
HETATM   26  C   UNL     1     -12.036  15.260  64.738  1.00  0.00    -0.184 A  
HETATM   27  C   UNL     1     -12.681  14.064  64.517  1.00  0.00    -0.101 A  
HETATM   28  C   UNL     1      -8.097  11.958  67.480  1.00  0.00    -0.156 A  
HETATM   29  C   UNL     1      -6.870  12.689  67.407  1.00  0.00    -0.141 C  
HETATM   30  C   UNL     1     -12.137  12.844  64.957  1.00  0.00    -0.480 A  
HETATM   31  C   UNL     1      -6.285  12.014  68.511  1.00  0.00    -0.053 A  
HETATM   32  C   UNL     1      -6.917  14.139  67.508  1.00  0.00    -0.173 C  
HETATM   33  C   UNL     1      -7.341  11.900  69.478  1.00  0.00     0.293 A  
HETATM   34  C   UNL     1      -8.050  14.721  66.908  1.00  0.00    -0.083 A  
BRANCH   4  35
HETATM   35  N   UNL     1      -8.506   6.956  67.762  1.00  0.00    -0.123 N  
HETATM   36  C   UNL     1      -8.486   6.167  66.521  1.00  0.00    -0.119 C  
HETATM   37  C   UNL     1      -8.058   6.218  68.875  1.00  0.00    -0.110 C  
HETATM   38  O   UNL     1      -7.775   5.009  68.812  1.00  0.00    -0.076 OA 
BRANCH  37  39
HETATM   39  C   UNL     1      -7.956   6.798  70.229  1.00  0.00    -0.115 A  
HETATM   40  C   UNL     1      -9.034   7.309  72.341  1.00  0.00    -0.149 A  
HETATM   41  C   UNL     1      -9.096   6.796  71.041  1.00  0.00    -0.156 A  
HETATM   42  C   UNL     1      -7.843   7.837  72.826  1.00  0.00    -0.143 A  
HETATM   43  C   UNL     1      -6.697   7.788  72.030  1.00  0.00    -0.057 A  
HETATM   44  C   UNL     1      -6.744   7.215  70.763  1.00  0.00    -0.052 A  
ENDBRANCH  37  39
ENDBRANCH   4  35
ENDBRANCH   2   3
TORSDOF 3
ENDMDL
MODEL      103
REMARK 921   NORMALIZED FREE ENERGY PREDICTED BY IDOCK:    2.96 KCAL/MOL
REMARK 922        TOTAL FREE ENERGY PREDICTED BY IDOCK:    2.96 KCAL/MOL
REMARK 923 INTER-LIGAND FREE ENERGY PREDICTED BY IDOCK:    0.77 KCAL/MOL
REMARK 924 INTRA-LIGAND FREE ENERGY PREDICTED BY IDOCK:    2.19 KCAL/MOL
REMARK 927      BINDING AFFINITY PREDICTED BY RF-SCORE:    0.00 PKD
ROOT
HETATM    1  C   UNL     1      -8.865  10.086  64.144  1.00  0.00    -0.221 C  
HETATM    2  O   UNL     1      -7.867  10.092  65.166  1.00  0.00    -0.125 OA 
ENDROOT
BRANCH   2   3
HETATM    3  C   UNL     1      -8.147  10.682  66.498  1.00  0.00    -0.140 C  
HETATM    4  C   UNL     1      -8.370   9.482  67.454  1.00  0.00    -0.125 C  
HETATM    5  C   UNL     1      -9.824   9.016  67.358  1.00  0.00    -0.244 C  
HETATM    6  O   UNL     1     -13.419  12.009  72.631  1.00  0.00    -0.147 OA 
HETATM    7  C   UNL     1     -10.292   9.477  71.274  1.00  0.00    -0.287 A  
HETATM    8  C   UNL     1     -13.002  12.809  71.800  1.00  0.00    -0.314 C  
HETATM    9  C   UNL     1     -10.825  10.177  67.192  1.00  0.00    -0.189 C  
HETATM   10  H   UNL     1     -14.559  14.244  71.955  1.00  0.00     0.000 HD 
HETATM   11  O   UNL     1     -10.480  11.175  66.164  1.00  0.00    -0.244 OA 
HETATM   12  C   UNL     1     -10.762   8.172  71.133  1.00  0.00    -0.258 A  
HETATM   13  C   UNL     1     -11.998   7.962  70.528  1.00  0.00     0.031 A  
HETATM   14  C   UNL     1      -9.239  11.879  66.395  1.00  0.00    -0.215 C  
HETATM   15  N   UNL     1     -13.696  13.979  71.477  1.00  0.00    -0.315 N  
HETATM   16  N   UNL     1      -9.634  12.997  67.308  1.00  0.00    -0.218 NA 
HETATM   17  C   UNL     1      -8.566  12.664  65.217  1.00  0.00     1.689 C  
HETATM   18  C   UNL     1     -12.567   8.960  69.724  1.00  0.00     1.787 A  
HETATM   19  C   UNL     1     -10.022  14.395  67.014  1.00  0.00    -0.257 A  
HETATM   20  C   UNL     1     -10.930  14.930  68.033  1.00  0.00    -0.282 A  
HETATM   21  N   UNL     1     -11.128  10.744  68.502  1.00  0.00    -0.241 NA 
HETATM   22  C   UNL     1     -13.120  14.799  70.423  1.00  0.00    -0.144 C  
HETATM   23  C   UNL     1     -11.043  13.963  69.029  1.00  0.00    -0.302 A  
HETATM   24  C   UNL     1     -11.500  16.220  67.875  1.00  0.00    -0.056 A  
HETATM   25  C   UNL     1     -10.290  12.920  68.495  1.00  0.00    -0.229 A  
HETATM   26  C   UNL     1     -11.171  17.027  66.794  1.00  0.00     0.506 A  
HETATM   27  C   UNL     1     -10.270  16.570  65.859  1.00  0.00    -0.368 A  
HETATM   28  C   UNL     1     -10.492  11.751  69.169  1.00  0.00    -0.024 A  
HETATM   29  C   UNL     1     -10.801  11.915  70.556  1.00  0.00     1.791 C  
HETATM   30  C   UNL     1      -9.701  15.287  65.952  1.00  0.00    -0.390 A  
HETATM   31  C   UNL     1     -11.081  10.538  70.760  1.00  0.00    -0.065 A  
HETATM   32  C   UNL     1     -11.863  12.836  70.927  1.00  0.00     0.285 C  
HETATM   33  C   UNL     1     -11.821  10.134  69.597  1.00  0.00    -0.045 A  
HETATM   34  C   UNL     1     -11.946  13.979  70.109  1.00  0.00    -0.399 A  
BRANCH   4  35
HETATM   35  N   UNL     1      -7.347   8.326  67.261  1.00  0.00    -0.087 N  
HETATM   36  C   UNL     1      -5.947   8.637  66.933  1.00  0.00    -0.057 C  
HETATM   37  C   UNL     1      -7.538   6.961  67.556  1.00  0.00    -0.109 C  
HETATM   38  O   UNL     1      -6.634   6.115  67.449  1.00  0.00    -0.048 OA 
BRANCH  37  39
HETATM   39  C   UNL     1      -8.849   6.405  67.946  1.00  0.00    -0.113 A  
HETATM   40  C   UNL     1     -11.080   5.720  67.283  1.00  0.00    -0.010 A  
HETATM   41  C   UNL     1      -9.835   6.270  66.961  1.00  0.00    -0.185 A  
HETATM   42  C   UNL     1     -11.349   5.320  68.586  1.00  0.00     1.614 A  
HETATM   43  C   UNL     1     -10.344   5.408  69.552  1.00  0.00    -0.350 A  
HETATM   44  C   UNL     1      -9.084   5.891  69.214  1.00  0.00    -0.128 A  
ENDBRANCH  37  39
ENDBRANCH   4  35
ENDBRANCH   2   3
TORSDOF 3
ENDMDL
MODEL      104
REMARK 921   NORMALIZED FREE ENERGY PREDICTED BY IDOCK:    4.27 KCAL/MOL
REMARK 922        TOTAL FREE ENERGY PREDICTED BY IDOCK:    4.49 KCAL/MOL
REMARK 923 INTER-LIGAND FREE ENERGY PREDICTED BY IDOCK:    4.97 KCAL/MOL
REMARK 924 INTRA-LIGAND FREE ENERGY PREDICTED BY IDOCK:   -0.48 KCAL/MOL
REMARK 927      BINDING AFFINITY PREDICTED BY RF-SCORE:    0.00 PKD
ROOT
HETATM    1  C   UNL     1      -7.008  10.593  68.000  1.00  0.00    -0.073 C  
HETATM    2  O   UNL     1      -7.495  11.621  67.136  1.00  0.00    -0.131 OA 
ENDROOT
BRANCH   2   3
HETATM    3  C   UNL     1      -8.409  12.672  67.647  1.00  0.00    -0.174 C  
HETATM    4  C   UNL     1      -9.665  12.617  66.741  1.00  0.00    -0.240 C  
HETATM    5  C   UNL     1      -9.422  13.446  65.479  1.00  0.00     0.161 C  
HETATM    6  O   UNL     1     -12.229  19.831  66.500  1.00  0.00     2.070 OA 
HETATM    7  C   UNL     1     -12.666  15.618  66.210  1.00  0.00     2.173 A  
HETATM    8  C   UNL     1     -11.278  19.586  67.234  1.00  0.00     0.051 C  
HETATM    9  C   UNL     1      -8.611  14.732  65.743  1.00  0.00     1.296 C  
HETATM   10  H   UNL     1     -10.527  21.562  67.426  1.00  0.00     0.000 HD 
HETATM   11  O   UNL     1      -7.393  14.562  66.555  1.00  0.00     0.634 OA 
HETATM   12  C   UNL     1     -12.918  15.254  64.887  1.00  0.00     0.850 A  
HETATM   13  C   UNL     1     -12.171  15.843  63.871  1.00  0.00     0.579 A  
HETATM   14  C   UNL     1      -7.620  14.070  67.895  1.00  0.00    -0.155 C  
HETATM   15  N   UNL     1     -10.393  20.579  67.666  1.00  0.00    -0.197 N  
HETATM   16  N   UNL     1      -7.934  15.307  68.675  1.00  0.00    -0.140 NA 
HETATM   17  C   UNL     1      -6.421  13.482  68.715  1.00  0.00    -0.098 C  
HETATM   18  C   UNL     1     -10.946  16.459  64.165  1.00  0.00     0.775 A  
HETATM   19  C   UNL     1      -7.060  16.195  69.474  1.00  0.00    -0.164 A  
HETATM   20  C   UNL     1      -7.570  17.570  69.508  1.00  0.00     0.365 A  
HETATM   21  N   UNL     1      -9.509  15.779  66.219  1.00  0.00    -0.289 NA 
HETATM   22  C   UNL     1      -9.270  20.133  68.475  1.00  0.00     0.030 C  
HETATM   23  C   UNL     1      -8.801  17.565  68.856  1.00  0.00    -0.136 A  
HETATM   24  C   UNL     1      -6.816  18.595  70.135  1.00  0.00     0.516 A  
HETATM   25  C   UNL     1      -8.881  16.246  68.416  1.00  0.00    -0.202 A  
HETATM   26  C   UNL     1      -5.618  18.319  70.780  1.00  0.00    -0.113 A  
HETATM   27  C   UNL     1      -5.153  17.024  70.817  1.00  0.00    -0.243 A  
HETATM   28  C   UNL     1      -9.878  16.077  67.499  1.00  0.00    -0.235 A  
HETATM   29  C   UNL     1     -10.994  16.955  67.671  1.00  0.00    -0.165 C  
HETATM   30  C   UNL     1      -5.845  15.977  70.183  1.00  0.00    -0.155 A  
HETATM   31  C   UNL     1     -11.627  16.550  66.467  1.00  0.00     1.019 A  
HETATM   32  C   UNL     1     -10.742  18.381  67.801  1.00  0.00    -0.371 C  
HETATM   33  C   UNL     1     -10.564  16.438  65.507  1.00  0.00    -0.330 A  
HETATM   34  C   UNL     1      -9.561  18.696  68.501  1.00  0.00    -0.399 A  
BRANCH   4  35
HETATM   35  N   UNL     1     -10.157  11.173  66.434  1.00  0.00    -0.219 N  
HETATM   36  C   UNL     1      -9.867  10.566  65.126  1.00  0.00    -0.297 C  
HETATM   37  C   UNL     1     -10.706  10.249  67.345  1.00  0.00    -0.281 C  
HETATM   38  O   UNL     1     -10.996   9.082  67.029  1.00  0.00    -0.091 OA 
BRANCH  37  39
HETATM   39  C   UNL     1     -11.054  10.608  68.734  1.00  0.00    -0.316 A  
HETATM   40  C   UNL     1     -12.365  11.981  70.244  1.00  0.00    -0.275 A  
HETATM   41  C   UNL     1     -11.986  11.631  68.944  1.00  0.00    -0.355 A  
HETATM   42  C   UNL     1     -11.806  11.325  71.334  1.00  0.00     0.442 A  
HETATM   43  C   UNL     1     -10.917  10.270  71.117  1.00  0.00     0.155 A  
HETATM   44  C   UNL     1     -10.594   9.877  69.822  1.00  0.00    -0.296 A  
ENDBRANCH  37  39
ENDBRANCH   4  35
ENDBRANCH   2   3
TORSDOF 3
ENDMDL
MODEL      105
REMARK 921   NORMALIZED FREE ENERGY PREDICTED BY IDOCK:    5.05 KCAL/MOL
REMARK 922        TOTAL FREE ENERGY PREDICTED BY IDOCK:    5.41 KCAL/MOL
REMARK 923 INTER-LIGAND FREE ENERGY PREDICTED BY IDOCK:    1.09 KCAL/MOL
REMARK 924 INTRA-LIGAND FREE ENERGY PREDICTED BY IDOCK:    4.32 KCAL/MOL
REMARK 927      BINDING AFFINITY PREDICTED BY RF-SCORE:    0.00 PKD
ROOT
HETATM    1  C   UNL     1      -8.571   9.549  66.560  1.00  0.00    -0.134 C  
HETATM    2  O   UNL     1      -9.442  10.101  67.550  1.00  0.00    -0.149 OA 
ENDROOT
BRANCH   2   3
HETATM    3  C   UNL     1      -9.908  11.506  67.452  1.00  0.00    -0.186 C  
HETATM    4  C   UNL     1      -8.853  12.242  66.589  1.00  0.00    -0.167 C  
HETATM    5  C   UNL     1      -7.691  12.693  67.476  1.00  0.00    -0.161 C  
HETATM    6  O   UNL     1      -8.800  19.422  69.258  1.00  0.00    -0.226 OA 
HETATM    7  C   UNL     1      -8.165  16.453  66.289  1.00  0.00    -0.343 A  
HETATM    8  C   UNL     1      -9.626  18.645  69.722  1.00  0.00     0.691 C  
HETATM    9  C   UNL     1      -8.141  13.171  68.871  1.00  0.00     0.194 C  
HETATM   10  H   UNL     1     -10.047  19.690  71.521  1.00  0.00     0.000 HD 
HETATM   11  O   UNL     1      -9.083  12.283  69.576  1.00  0.00     0.995 OA 
HETATM   12  C   UNL     1      -6.800  16.301  66.050  1.00  0.00     1.463 A  
HETATM   13  C   UNL     1      -5.927  16.251  67.134  1.00  0.00    -0.128 A  
HETATM   14  C   UNL     1     -10.347  12.083  68.904  1.00  0.00    -0.092 C  
HETATM   15  N   UNL     1     -10.232  18.855  70.965  1.00  0.00     2.146 N  
HETATM   16  N   UNL     1     -11.167  13.255  69.344  1.00  0.00    -0.202 NA 
HETATM   17  C   UNL     1     -11.266  10.886  69.328  1.00  0.00    -0.327 C  
HETATM   18  C   UNL     1      -6.411  15.950  68.414  1.00  0.00    -0.116 A  
HETATM   19  C   UNL     1     -12.127  13.401  70.461  1.00  0.00    -0.323 A  
HETATM   20  C   UNL     1     -12.194  14.784  70.942  1.00  0.00    -0.384 A  
HETATM   21  N   UNL     1      -8.575  14.561  68.789  1.00  0.00    -0.166 NA 
HETATM   22  C   UNL     1     -11.140  17.815  71.422  1.00  0.00     2.453 C  
HETATM   23  C   UNL     1     -11.396  15.550  70.095  1.00  0.00    -0.339 A  
HETATM   24  C   UNL     1     -12.978  15.108  72.079  1.00  0.00    -0.437 A  
HETATM   25  C   UNL     1     -10.859  14.576  69.257  1.00  0.00    -0.252 A  
HETATM   26  C   UNL     1     -13.745  14.147  72.724  1.00  0.00    -0.447 A  
HETATM   27  C   UNL     1     -13.749  12.855  72.250  1.00  0.00    -0.553 A  
HETATM   28  C   UNL     1      -9.817  15.059  68.519  1.00  0.00    -0.217 A  
HETATM   29  C   UNL     1      -9.911  16.451  68.206  1.00  0.00    -0.243 C  
HETATM   30  C   UNL     1     -12.963  12.475  71.146  1.00  0.00    -0.237 A  
HETATM   31  C   UNL     1      -8.613  16.513  67.635  1.00  0.00    -0.189 A  
HETATM   32  C   UNL     1     -10.170  17.391  69.285  1.00  0.00    -0.204 C  
HETATM   33  C   UNL     1      -7.786  15.724  68.505  1.00  0.00    -0.137 A  
HETATM   34  C   UNL     1     -11.030  16.896  70.285  1.00  0.00     0.244 A  
BRANCH   4  35
HETATM   35  N   UNL     1      -8.388  11.437  65.340  1.00  0.00     0.191 N  
HETATM   36  C   UNL     1      -7.189  10.589  65.424  1.00  0.00    -0.077 C  
HETATM   37  C   UNL     1      -9.094  11.252  64.136  1.00  0.00     0.035 C  
HETATM   38  O   UNL     1      -8.682  10.521  63.218  1.00  0.00    -0.174 OA 
BRANCH  37  39
HETATM   39  C   UNL     1     -10.349  11.966  63.827  1.00  0.00    -0.451 A  
HETATM   40  C   UNL     1     -12.567  11.913  62.846  1.00  0.00     0.168 A  
HETATM   41  C   UNL     1     -11.352  11.281  63.132  1.00  0.00     0.192 A  
HETATM   42  C   UNL     1     -12.777  13.229  63.238  1.00  0.00     0.156 A  
HETATM   43  C   UNL     1     -11.793  13.890  63.977  1.00  0.00    -0.372 A  
HETATM   44  C   UNL     1     -10.614  13.238  64.320  1.00  0.00    -0.402 A  
ENDBRANCH  37  39
ENDBRANCH   4  35
ENDBRANCH   2   3
TORSDOF 3
ENDMDL
MODEL      106
REMARK 921   NORMALIZED FREE ENERGY PREDICTED BY IDOCK:    5.29 KCAL/MOL
REMARK 922        TOTAL FREE ENERGY PREDICTED BY IDOCK:    5.70 KCAL/MOL
REMARK 923 INTER-LIGAND FREE ENERGY PREDICTED BY IDOCK:    1.33 KCAL/MOL
REMARK 924 INTRA-LIGAND FREE ENERGY PREDICTED BY IDOCK:    4.37 KCAL/MOL
REMARK 927      BINDING AFFINITY PREDICTED BY RF-SCORE:    0.00 PKD
ROOT
HETATM    1  C   UNL     1     -10.926  10.715  63.386  1.00  0.00     0.873 C  
HETATM    2  O   UNL     1     -10.673  12.061  63.794  1.00  0.00    -0.341 OA 
ENDROOT
BRANCH   2   3
HETATM    3  C   UNL     1      -9.465  12.400  64.586  1.00  0.00     0.297 C  
HETATM    4  C   UNL     1      -8.883  11.048  65.070  1.00  0.00    -0.083 C  
HETATM    5  C   UNL     1      -9.597  10.613  66.351  1.00  0.00    -0.230 C  
HETATM    6  O   UNL     1      -5.641  12.615  71.831  1.00  0.00    -0.378 OA 
HETATM    7  C   UNL     1      -6.130  10.357  68.269  1.00  0.00    -0.043 A  
HETATM    8  C   UNL     1      -6.105  13.550  71.187  1.00  0.00     0.197 C  
HETATM    9  C   UNL     1      -9.928  11.790  67.292  1.00  0.00    -0.192 C  
HETATM   10  H   UNL     1      -6.306  14.941  72.779  1.00  0.00     0.000 HD 
HETATM   11  O   UNL     1     -10.564  12.957  66.654  1.00  0.00    -0.258 OA 
HETATM   12  C   UNL     1      -6.658   9.101  68.568  1.00  0.00    -0.055 A  
HETATM   13  C   UNL     1      -7.710   9.011  69.475  1.00  0.00    -0.082 A  
HETATM   14  C   UNL     1      -9.767  13.601  65.635  1.00  0.00    -0.094 C  
HETATM   15  N   UNL     1      -6.461  14.763  71.786  1.00  0.00     0.724 N  
HETATM   16  N   UNL     1      -8.894  14.536  66.412  1.00  0.00    -0.125 NA 
HETATM   17  C   UNL     1     -10.452  14.584  64.625  1.00  0.00    -0.240 C  
HETATM   18  C   UNL     1      -8.486  10.142  69.767  1.00  0.00    -0.147 A  
HETATM   19  C   UNL     1      -9.070  15.966  66.752  1.00  0.00    -0.248 A  
HETATM   20  C   UNL     1      -8.393  16.312  68.006  1.00  0.00    -0.165 A  
HETATM   21  N   UNL     1      -8.753  12.111  68.095  1.00  0.00    -0.181 NA 
HETATM   22  C   UNL     1      -7.064  15.759  70.913  1.00  0.00     1.826 C  
HETATM   23  C   UNL     1      -7.694  15.180  68.418  1.00  0.00    -0.118 A  
HETATM   24  C   UNL     1      -8.532  17.611  68.558  1.00  0.00    -0.289 A  
HETATM   25  C   UNL     1      -8.073  14.248  67.455  1.00  0.00    -0.196 A  
HETATM   26  C   UNL     1      -9.255  18.600  67.903  1.00  0.00    -0.316 A  
HETATM   27  C   UNL     1      -9.845  18.317  66.692  1.00  0.00    -0.354 A  
HETATM   28  C   UNL     1      -7.734  12.976  67.818  1.00  0.00    -0.151 A  
HETATM   29  C   UNL     1      -6.560  12.888  68.629  1.00  0.00    -0.091 C  
HETATM   30  C   UNL     1      -9.764  17.035  66.118  1.00  0.00    -0.283 A  
HETATM   31  C   UNL     1      -6.714  11.498  68.876  1.00  0.00    -0.086 A  
HETATM   32  C   UNL     1      -6.466  13.730  69.810  1.00  0.00    -0.079 C  
HETATM   33  C   UNL     1      -8.121  11.315  69.104  1.00  0.00     0.026 A  
HETATM   34  C   UNL     1      -7.047  15.004  69.656  1.00  0.00    -0.193 A  
BRANCH   4  35
HETATM   35  N   UNL     1      -8.870   9.940  63.976  1.00  0.00    -0.210 N  
HETATM   36  C   UNL     1      -8.433  10.269  62.611  1.00  0.00    -0.181 C  
HETATM   37  C   UNL     1      -9.048   8.555  64.164  1.00  0.00     0.707 C  
HETATM   38  O   UNL     1      -8.938   7.731  63.241  1.00  0.00     0.649 OA 
BRANCH  37  39
HETATM   39  C   UNL     1      -9.454   7.971  65.458  1.00  0.00     0.329 A  
HETATM   40  C   UNL     1      -8.851   6.666  67.413  1.00  0.00    -0.116 A  
HETATM   41  C   UNL     1      -8.516   7.213  66.169  1.00  0.00    -0.143 A  
HETATM   42  C   UNL     1     -10.122   6.861  67.940  1.00  0.00    -0.195 A  
HETATM   43  C   UNL     1     -11.035   7.663  67.251  1.00  0.00    -0.122 A  
HETATM   44  C   UNL     1     -10.677   8.262  66.047  1.00  0.00     1.688 A  
ENDBRANCH  37  39
ENDBRANCH   4  35
ENDBRANCH   2   3
TORSDOF 3
ENDMDL
MODEL      107
REMARK 921   NORMALIZED FREE ENERGY PREDICTED BY IDOCK:    5.43 KCAL/MOL
REMARK 922        TOTAL FREE ENERGY PREDICTED BY IDOCK:    5.86 KCAL/MOL
REMARK 923 INTER-LIGAND FREE ENERGY PREDICTED BY IDOCK:    4.70 KCAL/MOL
REMARK 924 INTRA-LIGAND FREE ENERGY PREDICTED BY IDOCK:    1.16 KCAL/MOL
REMARK 927      BINDING AFFINITY PREDICTED BY RF-SCORE:    0.00 PKD
ROOT
HETATM    1  C   UNL     1     -11.762   7.644  67.286  1.00  0.00     2.216 C  
HETATM    2  O   UNL     1     -10.394   7.526  67.679  1.00  0.00    -0.194 OA 
ENDROOT
BRANCH   2   3
HETATM    3  C   UNL     1      -9.405   8.567  67.307  1.00  0.00    -0.149 C  
HETATM    4  C   UNL     1      -8.248   8.437  68.330  1.00  0.00    -0.124 C  
HETATM    5  C   UNL     1      -8.595   9.223  69.596  1.00  0.00    -0.151 C  
HETATM    6  O   UNL     1      -5.525  15.551  69.132  1.00  0.00    -0.096 OA 
HETATM    7  C   UNL     1      -5.236  11.318  69.286  1.00  0.00    -0.044 A  
HETATM    8  C   UNL     1      -6.403  15.365  68.297  1.00  0.00    -0.119 C  
HETATM    9  C   UNL     1      -9.339  10.542  69.307  1.00  0.00    -0.160 C  
HETATM   10  H   UNL     1      -7.076  17.370  68.114  1.00  0.00     0.000 HD 
HETATM   11  O   UNL     1     -10.473  10.443  68.371  1.00  0.00    -0.170 OA 
HETATM   12  C   UNL     1      -5.128  10.894  70.610  1.00  0.00    -0.082 A  
HETATM   13  C   UNL     1      -5.958  11.466  71.570  1.00  0.00     0.913 A  
HETATM   14  C   UNL     1     -10.125   9.997  67.041  1.00  0.00    -0.219 C  
HETATM   15  N   UNL     1      -7.212  16.402  67.821  1.00  0.00    -0.131 N  
HETATM   16  N   UNL     1      -9.700  11.254  66.349  1.00  0.00    -0.203 NA 
HETATM   17  C   UNL     1     -11.251   9.480  66.081  1.00  0.00     1.541 C  
HETATM   18  C   UNL     1      -7.129  12.131  71.182  1.00  0.00     4.529 A  
HETATM   19  C   UNL     1     -10.464  12.200  65.505  1.00  0.00    -0.265 A  
HETATM   20  C   UNL     1      -9.916  13.558  65.580  1.00  0.00    -0.252 A  
HETATM   21  N   UNL     1      -8.370  11.579  68.968  1.00  0.00     0.012 NA 
HETATM   22  C   UNL     1      -8.259  16.023  66.885  1.00  0.00    -0.242 C  
HETATM   23  C   UNL     1      -8.758  13.489  66.352  1.00  0.00     0.221 A  
HETATM   24  C   UNL     1     -10.574  14.631  64.925  1.00  0.00    -0.446 A  
HETATM   25  C   UNL     1      -8.759  12.152  66.741  1.00  0.00    -0.183 A  
HETATM   26  C   UNL     1     -11.708  14.418  64.153  1.00  0.00    -0.249 A  
HETATM   27  C   UNL     1     -12.202  13.141  64.015  1.00  0.00    -0.482 A  
HETATM   28  C   UNL     1      -7.864  11.915  67.745  1.00  0.00    -0.138 A  
HETATM   29  C   UNL     1      -6.713  12.764  67.722  1.00  0.00    -0.134 C  
HETATM   30  C   UNL     1     -11.607  12.048  64.670  1.00  0.00    -0.364 A  
HETATM   31  C   UNL     1      -6.217  12.291  68.966  1.00  0.00    -0.082 A  
HETATM   32  C   UNL     1      -6.912  14.201  67.628  1.00  0.00    -0.200 C  
HETATM   33  C   UNL     1      -7.374  12.175  69.809  1.00  0.00     0.758 A  
HETATM   34  C   UNL     1      -8.007  14.580  66.828  1.00  0.00     0.225 A  
BRANCH   4  35
HETATM   35  N   UNL     1      -7.830   6.966  68.623  1.00  0.00    -0.116 N  
HETATM   36  C   UNL     1      -7.980   6.422  69.982  1.00  0.00    -0.112 C  
HETATM   37  C   UNL     1      -7.485   5.976  67.683  1.00  0.00    -0.078 C  
HETATM   38  O   UNL     1      -7.244   4.798  68.002  1.00  0.00    -0.064 OA 
BRANCH  37  39
HETATM   39  C   UNL     1      -7.308   6.266  66.246  1.00  0.00    -0.081 A  
HETATM   40  C   UNL     1      -5.944   7.233  64.489  1.00  0.00    -0.037 A  
HETATM   41  C   UNL     1      -6.164   6.964  65.844  1.00  0.00    -0.039 A  
HETATM   42  C   UNL     1      -6.869   6.821  63.538  1.00  0.00    -0.053 A  
HETATM   43  C   UNL     1      -7.982   6.079  63.940  1.00  0.00    -0.114 A  
HETATM   44  C   UNL     1      -8.164   5.753  65.280  1.00  0.00    -0.139 A  
ENDBRANCH  37  39
ENDBRANCH   4  35
ENDBRANCH   2   3
TORSDOF 3
ENDMDL
MODEL      108
REMARK 921   NORMALIZED FREE ENERGY PREDICTED BY IDOCK:    7.57 KCAL/MOL
REMARK 922        TOTAL FREE ENERGY PREDICTED BY IDOCK:    8.37 KCAL/MOL
REMARK 923 INTER-LIGAND FREE ENERGY PREDICTED BY IDOCK:    7.47 KCAL/MOL
REMARK 924 INTRA-LIGAND FREE ENERGY PREDICTED BY IDOCK:    0.90 KCAL/MOL
REMARK 927      BINDING AFFINITY PREDICTED BY RF-SCORE:    0.00 PKD
ROOT
HETATM    1  C   UNL     1     -10.320  17.862  66.525  1.00  0.00    -0.362 C  
HETATM    2  O   UNL     1      -9.079  17.809  67.232  1.00  0.00    -0.241 OA 
ENDROOT
BRANCH   2   3
HETATM    3  C   UNL     1      -8.711  16.615  68.031  1.00  0.00    -0.194 C  
HETATM    4  C   UNL     1      -7.496  15.980  67.308  1.00  0.00    -0.201 C  
HETATM    5  C   UNL     1      -7.989  15.071  66.181  1.00  0.00     1.315 C  
HETATM    6  O   UNL     1      -8.132   8.462  68.629  1.00  0.00    -0.118 OA 
HETATM    7  C   UNL     1      -5.978  12.001  67.699  1.00  0.00    -0.093 A  
HETATM    8  C   UNL     1      -8.935   9.210  69.176  1.00  0.00    -0.144 C  
HETATM    9  C   UNL     1      -9.272  14.295  66.544  1.00  0.00    -0.235 C  
HETATM   10  H   UNL     1     -10.445   7.777  69.593  1.00  0.00     0.000 HD 
HETATM   11  O   UNL     1     -10.354  15.096  67.143  1.00  0.00    -0.255 OA 
HETATM   12  C   UNL     1      -5.525  11.952  66.381  1.00  0.00     0.262 A  
HETATM   13  C   UNL     1      -6.392  11.507  65.386  1.00  0.00     1.240 A  
HETATM   14  C   UNL     1     -10.019  15.726  68.400  1.00  0.00    -0.217 C  
HETATM   15  N   UNL     1     -10.174   8.759  69.644  1.00  0.00    -0.204 N  
HETATM   16  N   UNL     1     -10.288  14.657  69.411  1.00  0.00    -0.172 NA 
HETATM   17  C   UNL     1     -10.912  16.896  68.940  1.00  0.00    -0.207 C  
HETATM   18  C   UNL     1      -7.775  11.500  65.610  1.00  0.00     0.576 A  
HETATM   19  C   UNL     1     -11.493  14.373  70.222  1.00  0.00    -0.196 A  
HETATM   20  C   UNL     1     -11.600  12.949  70.555  1.00  0.00     0.221 A  
HETATM   21  N   UNL     1      -8.915  13.103  67.306  1.00  0.00    -0.207 NA 
HETATM   22  C   UNL     1     -11.055   9.770  70.207  1.00  0.00    -0.292 C  
HETATM   23  C   UNL     1     -10.442  12.333  70.084  1.00  0.00     1.857 A  
HETATM   24  C   UNL     1     -12.743  12.458  71.237  1.00  0.00    -0.347 A  
HETATM   25  C   UNL     1      -9.800  13.390  69.445  1.00  0.00     0.746 A  
HETATM   26  C   UNL     1     -13.754  13.312  71.658  1.00  0.00    -0.152 A  
HETATM   27  C   UNL     1     -13.644  14.663  71.414  1.00  0.00    -0.474 A  
HETATM   28  C   UNL     1      -8.773  12.957  68.656  1.00  0.00     0.060 A  
HETATM   29  C   UNL     1      -8.131  11.767  69.123  1.00  0.00     0.239 C  
HETATM   30  C   UNL     1     -12.547  15.196  70.713  1.00  0.00    -0.452 A  
HETATM   31  C   UNL     1      -7.321  11.630  67.965  1.00  0.00    -0.089 A  
HETATM   32  C   UNL     1      -8.956  10.617  69.455  1.00  0.00     0.025 C  
HETATM   33  C   UNL     1      -8.189  11.949  66.865  1.00  0.00    -0.157 A  
HETATM   34  C   UNL     1     -10.199  10.947  70.031  1.00  0.00     0.377 A  
BRANCH   4  35
HETATM   35  N   UNL     1      -6.436  17.016  66.832  1.00  0.00    -0.194 N  
HETATM   36  C   UNL     1      -6.024  17.042  65.421  1.00  0.00     1.807 C  
HETATM   37  C   UNL     1      -5.926  18.109  67.561  1.00  0.00    -0.157 C  
HETATM   38  O   UNL     1      -5.140  18.938  67.072  1.00  0.00    -0.141 OA 
BRANCH  37  39
HETATM   39  C   UNL     1      -6.224  18.323  68.992  1.00  0.00    -0.235 A  
HETATM   40  C   UNL     1      -5.852  17.668  71.298  1.00  0.00     0.864 A  
HETATM   41  C   UNL     1      -5.619  17.480  69.931  1.00  0.00    -0.242 A  
HETATM   42  C   UNL     1      -6.698  18.684  71.727  1.00  0.00     3.163 A  
HETATM   43  C   UNL     1      -7.255  19.554  70.788  1.00  0.00     1.027 A  
HETATM   44  C   UNL     1      -6.969  19.408  69.435  1.00  0.00    -0.330 A  
ENDBRANCH  37  39
ENDBRANCH   4  35
ENDBRANCH   2   3
TORSDOF 3
ENDMDL
MODEL      109
REMARK 921   NORMALIZED FREE ENERGY PREDICTED BY IDOCK:    8.07 KCAL/MOL
REMARK 922        TOTAL FREE ENERGY PREDICTED BY IDOCK:    8.96 KCAL/MOL
REMARK 923 INTER-LIGAND FREE ENERGY PREDICTED BY IDOCK:    3.40 KCAL/MOL
REMARK 924 INTRA-LIGAND FREE ENERGY PREDICTED BY IDOCK:    5.56 KCAL/MOL
REMARK 927      BINDING AFFINITY PREDICTED BY RF-SCORE:    0.00 PKD
ROOT
HETATM    1  C   UNL     1      -9.752   9.525  66.998  1.00  0.00    -0.176 C  
HETATM    2  O   UNL     1     -10.852  10.146  67.665  1.00  0.00    -0.265 OA 
ENDROOT
BRANCH   2   3
HETATM    3  C   UNL     1     -11.087  11.606  67.544  1.00  0.00    -0.276 C  
HETATM    4  C   UNL     1      -9.997  12.132  66.577  1.00  0.00    -0.213 C  
HETATM    5  C   UNL     1      -8.710  12.406  67.357  1.00  0.00    -0.183 C  
HETATM    6  O   UNL     1      -8.553  19.274  68.938  1.00  0.00    -0.360 OA 
HETATM    7  C   UNL     1      -8.652  16.158  66.056  1.00  0.00    -0.231 A  
HETATM    8  C   UNL     1      -9.458  18.659  69.493  1.00  0.00     0.355 C  
HETATM    9  C   UNL     1      -8.964  12.992  68.761  1.00  0.00     0.178 C  
HETATM   10  H   UNL     1      -9.557  19.810  71.274  1.00  0.00     0.000 HD 
HETATM   11  O   UNL     1      -9.981  12.294  69.568  1.00  0.00     0.567 OA 
HETATM   12  C   UNL     1      -7.353  15.773  65.724  1.00  0.00     3.155 A  
HETATM   13  C   UNL     1      -6.418  15.608  66.742  1.00  0.00     0.650 A  
HETATM   14  C   UNL     1     -11.310  12.290  69.000  1.00  0.00    -0.280 C  
HETATM   15  N   UNL     1      -9.920  19.002  70.768  1.00  0.00     1.808 N  
HETATM   16  N   UNL     1     -11.888  13.594  69.449  1.00  0.00    -0.319 NA 
HETATM   17  C   UNL     1     -12.377  11.276  69.538  1.00  0.00    -0.243 C  
HETATM   18  C   UNL     1      -6.843  15.429  68.066  1.00  0.00    -0.152 A  
HETATM   19  C   UNL     1     -12.721  13.930  70.627  1.00  0.00    -0.281 A  
HETATM   20  C   UNL     1     -12.521  15.318  71.054  1.00  0.00    -0.444 A  
HETATM   21  N   UNL     1      -9.168  14.433  68.654  1.00  0.00    -0.197 NA 
HETATM   22  C   UNL     1     -10.949  18.142  71.332  1.00  0.00     3.001 C  
HETATM   23  C   UNL     1     -11.677  15.915  70.120  1.00  0.00    -0.342 A  
HETATM   24  C   UNL     1     -13.149  15.800  72.231  1.00  0.00    -0.524 A  
HETATM   25  C   UNL     1     -11.375  14.842  69.286  1.00  0.00    -0.294 A  
HETATM   26  C   UNL     1     -14.010  14.999  72.969  1.00  0.00     0.007 A  
HETATM   27  C   UNL     1     -14.264  13.713  72.550  1.00  0.00    -0.368 A  
HETATM   28  C   UNL     1     -10.329  15.123  68.455  1.00  0.00    -0.230 A  
HETATM   29  C   UNL     1     -10.218  16.502  68.093  1.00  0.00    -0.271 C  
HETATM   30  C   UNL     1     -13.641  13.176  71.409  1.00  0.00     0.030 A  
HETATM   31  C   UNL     1      -8.976  16.330  67.426  1.00  0.00    -0.197 A  
HETATM   32  C   UNL     1     -10.233  17.502  69.149  1.00  0.00    -0.256 C  
HETATM   33  C   UNL     1      -8.224  15.438  68.266  1.00  0.00    -0.145 A  
HETATM   34  C   UNL     1     -11.081  17.186  70.228  1.00  0.00     0.717 A  
BRANCH   4  35
HETATM   35  N   UNL     1      -9.770  11.225  65.332  1.00  0.00    -0.222 N  
HETATM   36  C   UNL     1     -10.785  11.181  64.268  1.00  0.00    -0.333 C  
HETATM   37  C   UNL     1      -8.587  10.550  64.973  1.00  0.00    -0.176 C  
HETATM   38  O   UNL     1      -8.469   9.913  63.912  1.00  0.00    -0.152 OA 
BRANCH  37  39
HETATM   39  C   UNL     1      -7.408  10.480  65.860  1.00  0.00    -0.142 A  
HETATM   40  C   UNL     1      -6.070   9.185  67.414  1.00  0.00    -0.054 A  
HETATM   41  C   UNL     1      -7.190   9.303  66.585  1.00  0.00    -0.082 A  
HETATM   42  C   UNL     1      -5.176  10.242  67.532  1.00  0.00    -0.040 A  
HETATM   43  C   UNL     1      -5.370  11.393  66.766  1.00  0.00    -0.122 A  
HETATM   44  C   UNL     1      -6.447  11.482  65.890  1.00  0.00     0.506 A  
ENDBRANCH  37  39
ENDBRANCH   4  35
ENDBRANCH   2   3
TORSDOF 3
ENDMDL
MODEL      110
REMARK 921   NORMALIZED FREE ENERGY PREDICTED BY IDOCK:    8.83 KCAL/MOL
REMARK 922        TOTAL FREE ENERGY PREDICTED BY IDOCK:    9.85 KCAL/MOL
REMARK 923 INTER-LIGAND FREE ENERGY PREDICTED BY IDOCK:    8.77 KCAL/MOL
REMARK 924 INTRA-LIGAND FREE ENERGY PREDICTED BY IDOCK:    1.08 KCAL/MOL
REMARK 927      BINDING AFFINITY PREDICTED BY RF-SCORE:    0.00 PKD
ROOT
HETATM    1  C   UNL     1      -9.343  10.942  70.098  1.00  0.00     1.327 C  
HETATM    2  O   UNL     1      -9.088  10.829  68.696  1.00  0.00    -0.158 OA 
ENDROOT
BRANCH   2   3
HETATM    3  C   UNL     1      -8.744  12.025  67.889  1.00  0.00    -0.170 C  
HETATM    4  C   UNL     1      -7.421  12.571  68.485  1.00  0.00    -0.122 C  
HETATM    5  C   UNL     1      -7.734  13.473  69.680  1.00  0.00     0.811 C  
HETATM    6  O   UNL     1      -7.769  20.148  67.415  1.00  0.00    -0.281 OA 
HETATM    7  C   UNL     1      -5.731  16.472  68.017  1.00  0.00    -0.123 A  
HETATM    8  C   UNL     1      -8.670  19.461  66.946  1.00  0.00    -0.303 C  
HETATM    9  C   UNL     1      -9.002  14.328  69.481  1.00  0.00     0.575 C  
HETATM   10  H   UNL     1     -10.132  20.986  66.734  1.00  0.00     0.000 HD 
HETATM   11  O   UNL     1     -10.188  13.604  68.990  1.00  0.00    -0.135 OA 
HETATM   12  C   UNL     1      -5.133  16.458  69.276  1.00  0.00    -0.118 A  
HETATM   13  C   UNL     1      -5.856  16.920  70.372  1.00  0.00    -0.024 A  
HETATM   14  C   UNL     1     -10.031  12.994  67.690  1.00  0.00    -0.215 C  
HETATM   15  N   UNL     1      -9.925  19.992  66.631  1.00  0.00    -0.439 N  
HETATM   16  N   UNL     1     -10.349  14.105  66.739  1.00  0.00    -0.272 NA 
HETATM   17  C   UNL     1     -11.044  11.890  67.227  1.00  0.00    -0.344 C  
HETATM   18  C   UNL     1      -7.254  17.009  70.305  1.00  0.00     1.683 A  
HETATM   19  C   UNL     1     -11.619  14.477  66.076  1.00  0.00    -0.356 A  
HETATM   20  C   UNL     1     -11.680  15.914  65.790  1.00  0.00     0.635 A  
HETATM   21  N   UNL     1      -8.665  15.520  68.712  1.00  0.00    -0.178 NA 
HETATM   22  C   UNL     1     -10.920  19.047  66.147  1.00  0.00     0.015 C  
HETATM   23  C   UNL     1     -10.445  16.453  66.142  1.00  0.00    -0.321 A  
HETATM   24  C   UNL     1     -12.862  16.485  65.252  1.00  0.00     4.392 A  
HETATM   25  C   UNL     1      -9.797  15.344  66.680  1.00  0.00    -0.255 A  
HETATM   26  C   UNL     1     -13.961  15.700  64.929  1.00  0.00     3.561 A  
HETATM   27  C   UNL     1     -13.902  14.340  65.128  1.00  0.00     2.201 A  
HETATM   28  C   UNL     1      -8.665  15.697  67.358  1.00  0.00    -0.179 A  
HETATM   29  C   UNL     1      -8.012  16.864  66.849  1.00  0.00    -0.248 C  
HETATM   30  C   UNL     1     -12.766  13.728  65.688  1.00  0.00    -0.523 A  
HETATM   31  C   UNL     1      -7.072  16.923  67.911  1.00  0.00    -0.162 A  
HETATM   32  C   UNL     1      -8.802  18.066  66.639  1.00  0.00    -0.280 C  
HETATM   33  C   UNL     1      -7.829  16.620  69.095  1.00  0.00    -0.170 A  
HETATM   34  C   UNL     1     -10.117  17.821  66.199  1.00  0.00    -0.308 A  
BRANCH   4  35
HETATM   35  N   UNL     1      -6.375  11.466  68.814  1.00  0.00    -0.050 N  
HETATM   36  C   UNL     1      -5.860  11.335  70.185  1.00  0.00    -0.133 C  
HETATM   37  C   UNL     1      -5.972  10.402  67.984  1.00  0.00    -0.044 C  
HETATM   38  O   UNL     1      -5.189   9.513  68.361  1.00  0.00    -0.034 OA 
BRANCH  37  39
HETATM   39  C   UNL     1      -6.385  10.290  66.571  1.00  0.00    -0.078 A  
HETATM   40  C   UNL     1      -8.087   9.652  64.963  1.00  0.00    -0.127 A  
HETATM   41  C   UNL     1      -7.645   9.749  66.287  1.00  0.00    -0.100 A  
HETATM   42  C   UNL     1      -7.270  10.079  63.923  1.00  0.00    -0.125 A  
HETATM   43  C   UNL     1      -6.037  10.666  64.216  1.00  0.00     0.066 A  
HETATM   44  C   UNL     1      -5.628  10.824  65.536  1.00  0.00    -0.126 A  
ENDBRANCH  37  39
ENDBRANCH   4  35
ENDBRANCH   2   3
TORSDOF 3
ENDMDL
MODEL      111
REMARK 921   NORMALIZED FREE ENERGY PREDICTED BY IDOCK:    9.19 KCAL/MOL
REMARK 922        TOTAL FREE ENERGY PREDICTED BY IDOCK:   10.27 KCAL/MOL
REMARK 923 INTER-LIGAND FREE ENERGY PREDICTED BY IDOCK:    7.53 KCAL/MOL
REMARK 924 INTRA-LIGAND FREE ENERGY PREDICTED BY IDOCK:    2.74 KCAL/MOL
REMARK 927      BINDING AFFINITY PREDICTED BY RF-SCORE:    0.00 PKD
ROOT
HETATM    1  C   UNL     1     -10.599   7.919  71.036  1.00  0.00    -0.213 C  
HETATM    2  O   UNL     1      -9.504   8.837  71.026  1.00  0.00    -0.186 OA 
ENDROOT
BRANCH   2   3
HETATM    3  C   UNL     1      -8.388   8.678  70.061  1.00  0.00    -0.124 C  
HETATM    4  C   UNL     1      -8.689   9.661  68.902  1.00  0.00    -0.132 C  
HETATM    5  C   UNL     1      -9.641   9.000  67.905  1.00  0.00    -0.170 C  
HETATM    6  O   UNL     1      -5.772   6.297  62.669  1.00  0.00    -0.022 OA 
HETATM    7  C   UNL     1      -7.076   9.638  64.941  1.00  0.00    -0.114 A  
HETATM    8  C   UNL     1      -5.586   5.754  63.753  1.00  0.00    -0.017 C  
HETATM    9  C   UNL     1      -9.362   7.497  67.703  1.00  0.00    -0.137 C  
HETATM   10  H   UNL     1      -5.145   3.803  63.042  1.00  0.00     0.000 HD 
HETATM   11  O   UNL     1      -9.194   6.708  68.936  1.00  0.00    -0.132 OA 
HETATM   12  C   UNL     1      -8.230  10.179  64.375  1.00  0.00    -0.165 A  
HETATM   13  C   UNL     1      -9.241   9.320  63.952  1.00  0.00     0.136 A  
HETATM   14  C   UNL     1      -8.082   7.111  69.767  1.00  0.00    -0.129 C  
HETATM   15  N   UNL     1      -5.276   4.394  63.863  1.00  0.00    -0.012 N  
HETATM   16  N   UNL     1      -6.918   6.381  69.174  1.00  0.00    -0.065 NA 
HETATM   17  C   UNL     1      -8.020   6.634  71.259  1.00  0.00    -0.107 C  
HETATM   18  C   UNL     1      -9.296   8.007  64.438  1.00  0.00     1.583 A  
HETATM   19  C   UNL     1      -6.315   5.075  69.524  1.00  0.00    -0.034 A  
HETATM   20  C   UNL     1      -5.682   4.442  68.363  1.00  0.00    -0.021 A  
HETATM   21  N   UNL     1      -8.285   7.331  66.733  1.00  0.00    -0.118 NA 
HETATM   22  C   UNL     1      -5.152   3.870  65.214  1.00  0.00    -0.009 C  
HETATM   23  C   UNL     1      -5.757   5.352  67.311  1.00  0.00    -0.013 A  
HETATM   24  C   UNL     1      -5.140   3.135  68.469  1.00  0.00    -0.011 A  
HETATM   25  C   UNL     1      -6.491   6.386  67.885  1.00  0.00    -0.049 A  
HETATM   26  C   UNL     1      -5.139   2.450  69.677  1.00  0.00    -0.007 A  
HETATM   27  C   UNL     1      -5.671   3.051  70.795  1.00  0.00    -0.013 A  
HETATM   28  C   UNL     1      -6.938   7.273  66.948  1.00  0.00    -0.077 A  
HETATM   29  C   UNL     1      -6.086   7.404  65.806  1.00  0.00    -0.038 C  
HETATM   30  C   UNL     1      -6.249   4.332  70.737  1.00  0.00    -0.018 A  
HETATM   31  C   UNL     1      -6.997   8.230  65.097  1.00  0.00    -0.074 A  
HETATM   32  C   UNL     1      -5.659   6.199  65.115  1.00  0.00    -0.017 C  
HETATM   33  C   UNL     1      -8.289   7.649  65.336  1.00  0.00    -0.128 A  
HETATM   34  C   UNL     1      -5.432   5.098  65.964  1.00  0.00    -0.013 A  
BRANCH   4  35
HETATM   35  N   UNL     1      -9.179  11.061  69.375  1.00  0.00     0.090 N  
HETATM   36  C   UNL     1     -10.203  11.158  70.427  1.00  0.00     1.608 C  
HETATM   37  C   UNL     1      -8.619  12.313  69.053  1.00  0.00     0.419 C  
HETATM   38  O   UNL     1      -9.026  13.379  69.545  1.00  0.00     0.911 OA 
BRANCH  37  39
HETATM   39  C   UNL     1      -7.549  12.474  68.049  1.00  0.00    -0.127 A  
HETATM   40  C   UNL     1      -5.866  11.438  66.641  1.00  0.00    -0.144 A  
HETATM   41  C   UNL     1      -6.867  11.332  67.613  1.00  0.00    -0.077 A  
HETATM   42  C   UNL     1      -5.535  12.681  66.115  1.00  0.00     2.492 A  
HETATM   43  C   UNL     1      -6.254  13.809  66.516  1.00  0.00     3.134 A  
HETATM   44  C   UNL     1      -7.295  13.692  67.432  1.00  0.00    -0.127 A  
ENDBRANCH  37  39
ENDBRANCH   4  35
ENDBRANCH   2   3
TORSDOF 3
ENDMDL
MODEL      112
REMARK 921   NORMALIZED FREE ENERGY PREDICTED BY IDOCK:    9.37 KCAL/MOL
REMARK 922        TOTAL FREE ENERGY PREDICTED BY IDOCK:   10.48 KCAL/MOL
REMARK 923 INTER-LIGAND FREE ENERGY PREDICTED BY IDOCK:    6.79 KCAL/MOL
REMARK 924 INTRA-LIGAND FREE ENERGY PREDICTED BY IDOCK:    3.69 KCAL/MOL
REMARK 927      BINDING AFFINITY PREDICTED BY RF-SCORE:    0.00 PKD
ROOT
HETATM    1  C   UNL     1      -9.047   3.566  67.033  1.00  0.00    -0.168 C  
HETATM    2  O   UNL     1     -10.155   4.143  67.725  1.00  0.00    -0.033 OA 
ENDROOT
BRANCH   2   3
HETATM    3  C   UNL     1     -10.149   5.576  68.107  1.00  0.00    -0.172 C  
HETATM    4  C   UNL     1     -10.297   6.367  66.782  1.00  0.00    -0.213 C  
HETATM    5  C   UNL     1      -8.923   6.537  66.132  1.00  0.00    -0.161 C  
HETATM    6  O   UNL     1      -6.435  12.880  67.940  1.00  0.00    -0.094 OA 
HETATM    7  C   UNL     1      -9.384  10.480  66.050  1.00  0.00    -0.215 A  
HETATM    8  C   UNL     1      -6.547  12.105  68.884  1.00  0.00    -0.090 C  
HETATM    9  C   UNL     1      -7.793   6.780  67.154  1.00  0.00    -0.112 C  
HETATM   10  H   UNL     1      -4.932  12.825  70.059  1.00  0.00     0.000 HD 
HETATM   11  O   UNL     1      -7.767   5.862  68.306  1.00  0.00    -0.097 OA 
HETATM   12  C   UNL     1      -9.036  10.256  64.718  1.00  0.00    -0.232 A  
HETATM   13  C   UNL     1      -7.718   9.925  64.413  1.00  0.00    -0.142 A  
HETATM   14  C   UNL     1      -8.944   5.906  69.143  1.00  0.00    -0.119 C  
HETATM   15  N   UNL     1      -5.674  12.129  69.976  1.00  0.00    -0.125 N  
HETATM   16  N   UNL     1      -8.668   7.042  70.078  1.00  0.00    -0.141 NA 
HETATM   17  C   UNL     1      -9.219   4.737  70.150  1.00  0.00    -0.195 C  
HETATM   18  C   UNL     1      -6.867   9.432  65.411  1.00  0.00    -0.079 A  
HETATM   19  C   UNL     1      -8.073   7.058  71.433  1.00  0.00    -0.108 A  
HETATM   20  C   UNL     1      -7.391   8.326  71.710  1.00  0.00    -0.105 A  
HETATM   21  N   UNL     1      -7.763   8.195  67.512  1.00  0.00    -0.101 NA 
HETATM   22  C   UNL     1      -5.883  11.106  70.989  1.00  0.00     0.095 C  
HETATM   23  C   UNL     1      -7.630   9.164  70.624  1.00  0.00    -0.143 A  
HETATM   24  C   UNL     1      -6.666   8.497  72.917  1.00  0.00    -0.073 A  
HETATM   25  C   UNL     1      -8.337   8.322  69.769  1.00  0.00    -0.123 A  
HETATM   26  C   UNL     1      -6.632   7.503  73.886  1.00  0.00    -0.082 A  
HETATM   27  C   UNL     1      -7.319   6.329  73.675  1.00  0.00    -0.087 A  
HETATM   28  C   UNL     1      -8.432   8.842  68.510  1.00  0.00    -0.129 A  
HETATM   29  C   UNL     1      -8.458  10.272  68.462  1.00  0.00    -0.121 C  
HETATM   30  C   UNL     1      -8.027   6.097  72.482  1.00  0.00    -0.104 A  
HETATM   31  C   UNL     1      -8.385  10.325  67.045  1.00  0.00    -0.126 A  
HETATM   32  C   UNL     1      -7.427  11.009  69.174  1.00  0.00    -0.121 C  
HETATM   33  C   UNL     1      -7.429   9.315  66.684  1.00  0.00    -0.093 A  
HETATM   34  C   UNL     1      -7.025  10.413  70.384  1.00  0.00    -0.021 A  
BRANCH   4  35
HETATM   35  N   UNL     1     -11.359   5.774  65.811  1.00  0.00     1.138 N  
HETATM   36  C   UNL     1     -12.776   6.132  65.974  1.00  0.00     7.154 C  
HETATM   37  C   UNL     1     -11.120   5.055  64.623  1.00  0.00     1.202 C  
HETATM   38  O   UNL     1     -12.032   4.690  63.861  1.00  0.00     1.119 OA 
BRANCH  37  39
HETATM   39  C   UNL     1      -9.772   4.609  64.217  1.00  0.00     0.117 A  
HETATM   40  C   UNL     1      -7.573   5.189  63.375  1.00  0.00    -0.064 A  
HETATM   41  C   UNL     1      -8.869   5.566  63.742  1.00  0.00     0.225 A  
HETATM   42  C   UNL     1      -7.182   3.859  63.467  1.00  0.00    -0.050 A  
HETATM   43  C   UNL     1      -8.070   2.918  63.992  1.00  0.00    -0.082 A  
HETATM   44  C   UNL     1      -9.335   3.306  64.420  1.00  0.00    -0.140 A  
ENDBRANCH  37  39
ENDBRANCH   4  35
ENDBRANCH   2   3
TORSDOF 3
ENDMDL
MODEL      113
REMARK 921   NORMALIZED FREE ENERGY PREDICTED BY IDOCK:    9.37 KCAL/MOL
REMARK 922        TOTAL FREE ENERGY PREDICTED BY IDOCK:   10.49 KCAL/MOL
REMARK 923 INTER-LIGAND FREE ENERGY PREDICTED BY IDOCK:    8.16 KCAL/MOL
REMARK 924 INTRA-LIGAND FREE ENERGY PREDICTED BY IDOCK:    2.32 KCAL/MOL
REMARK 927      BINDING AFFINITY PREDICTED BY RF-SCORE:    0.00 PKD
ROOT
HETATM    1  C   UNL     1     -10.682   9.136  72.009  1.00  0.00    -0.155 C  
HETATM    2  O   UNL     1     -11.309   9.039  70.730  1.00  0.00    -0.261 OA 
ENDROOT
BRANCH   2   3
HETATM    3  C   UNL     1     -11.347  10.204  69.812  1.00  0.00    -0.256 C  
HETATM    4  C   UNL     1     -10.203   9.975  68.791  1.00  0.00    -0.186 C  
HETATM    5  C   UNL     1      -8.885  10.483  69.378  1.00  0.00    -0.091 C  
HETATM    6  O   UNL     1      -7.792  17.005  66.935  1.00  0.00    -0.178 OA 
HETATM    7  C   UNL     1      -8.333  12.851  66.238  1.00  0.00     0.618 A  
HETATM    8  C   UNL     1      -8.767  16.910  67.673  1.00  0.00    -0.209 C  
HETATM    9  C   UNL     1      -9.047  11.773  70.209  1.00  0.00     3.989 C  
HETATM   10  H   UNL     1      -8.696  18.856  68.518  1.00  0.00     0.000 HD 
HETATM   11  O   UNL     1     -10.142  11.762  71.195  1.00  0.00     5.154 OA 
HETATM   12  C   UNL     1      -7.101  12.199  66.261  1.00  0.00     0.837 A  
HETATM   13  C   UNL     1      -6.188  12.517  67.263  1.00  0.00    -0.124 A  
HETATM   14  C   UNL     1     -11.463  11.599  70.634  1.00  0.00     0.460 C  
HETATM   15  N   UNL     1      -9.168  17.952  68.516  1.00  0.00    -0.284 N  
HETATM   16  N   UNL     1     -11.857  12.991  70.253  1.00  0.00    -0.273 NA 
HETATM   17  C   UNL     1     -12.653  11.184  71.567  1.00  0.00    -0.431 C  
HETATM   18  C   UNL     1      -6.622  13.151  68.435  1.00  0.00    -0.092 A  
HETATM   19  C   UNL     1     -12.628  14.016  70.993  1.00  0.00    -0.366 A  
HETATM   20  C   UNL     1     -12.239  15.374  70.601  1.00  0.00    -0.431 A  
HETATM   21  N   UNL     1      -9.056  12.926  69.314  1.00  0.00     0.770 NA 
HETATM   22  C   UNL     1     -10.299  17.674  69.388  1.00  0.00    -0.006 C  
HETATM   23  C   UNL     1     -11.330  15.252  69.552  1.00  0.00    -0.299 A  
HETATM   24  C   UNL     1     -12.787  16.496  71.274  1.00  0.00     1.881 A  
HETATM   25  C   UNL     1     -11.183  13.870  69.467  1.00  0.00    -0.184 A  
HETATM   26  C   UNL     1     -13.742  16.344  72.270  1.00  0.00     1.084 A  
HETATM   27  C   UNL     1     -14.170  15.081  72.610  1.00  0.00    -0.257 A  
HETATM   28  C   UNL     1     -10.115  13.521  68.691  1.00  0.00    -0.166 A  
HETATM   29  C   UNL     1      -9.822  14.445  67.640  1.00  0.00    -0.224 C  
HETATM   30  C   UNL     1     -13.635  13.934  71.996  1.00  0.00    -0.566 A  
HETATM   31  C   UNL     1      -8.620  13.789  67.263  1.00  0.00    -0.221 A  
HETATM   32  C   UNL     1      -9.693  15.855  67.970  1.00  0.00    -0.216 C  
HETATM   33  C   UNL     1      -7.988  13.430  68.503  1.00  0.00    -0.107 A  
HETATM   34  C   UNL     1     -10.567  16.291  68.984  1.00  0.00    -0.286 A  
BRANCH   4  35
HETATM   35  N   UNL     1     -10.111   8.512  68.267  1.00  0.00    -0.186 N  
HETATM   36  C   UNL     1     -10.975   8.080  67.158  1.00  0.00     0.124 C  
HETATM   37  C   UNL     1      -9.137   7.549  68.597  1.00  0.00    -0.134 C  
HETATM   38  O   UNL     1      -9.092   6.427  68.065  1.00  0.00    -0.116 OA 
BRANCH  37  39
HETATM   39  C   UNL     1      -8.132   7.761  69.657  1.00  0.00    -0.122 A  
HETATM   40  C   UNL     1      -7.161   7.031  71.757  1.00  0.00    -0.078 A  
HETATM   41  C   UNL     1      -8.117   6.882  70.746  1.00  0.00    -0.114 A  
HETATM   42  C   UNL     1      -6.232   8.062  71.691  1.00  0.00    -0.040 A  
HETATM   43  C   UNL     1      -6.219   8.903  70.576  1.00  0.00    -0.042 A  
HETATM   44  C   UNL     1      -7.126   8.711  69.539  1.00  0.00    -0.055 A  
ENDBRANCH  37  39
ENDBRANCH   4  35
ENDBRANCH   2   3
TORSDOF 3
ENDMDL
MODEL      114
REMARK 921   NORMALIZED FREE ENERGY PREDICTED BY IDOCK:    9.68 KCAL/MOL
REMARK 922        TOTAL FREE ENERGY PREDICTED BY IDOCK:   10.85 KCAL/MOL
REMARK 923 INTER-LIGAND FREE ENERGY PREDICTED BY IDOCK:    0.24 KCAL/MOL
REMARK 924 INTRA-LIGAND FREE ENERGY PREDICTED BY IDOCK:   10.61 KCAL/MOL
REMARK 927      BINDING AFFINITY PREDICTED BY RF-SCORE:    0.00 PKD
ROOT
HETATM    1  C   UNL     1      -6.104  17.456  70.138  1.00  0.00    -0.014 C  
HETATM    2  O   UNL     1      -6.256  16.140  70.673  1.00  0.00     0.141 OA 
ENDROOT
BRANCH   2   3
HETATM    3  C   UNL     1      -7.220  15.184  70.076  1.00  0.00    -0.008 C  
HETATM    4  C   UNL     1      -6.552  13.790  70.177  1.00  0.00     0.090 C  
HETATM    5  C   UNL     1      -5.616  13.585  68.985  1.00  0.00    -0.074 C  
HETATM    6  O   UNL     1      -9.119   9.937  64.074  1.00  0.00    -0.232 OA 
HETATM    7  C   UNL     1      -7.514  10.241  67.994  1.00  0.00    -0.087 A  
HETATM    8  C   UNL     1      -9.575  11.057  64.278  1.00  0.00    -0.262 C  
HETATM    9  C   UNL     1      -6.164  14.180  67.672  1.00  0.00    -0.085 C  
HETATM   10  H   UNL     1     -10.296  11.450  62.320  1.00  0.00     0.000 HD 
HETATM   11  O   UNL     1      -6.677  15.558  67.761  1.00  0.00    -0.134 OA 
HETATM   12  C   UNL     1      -6.201   9.771  68.010  1.00  0.00    -0.055 A  
HETATM   13  C   UNL     1      -5.337  10.148  66.986  1.00  0.00    -0.041 A  
HETATM   14  C   UNL     1      -7.795  15.733  68.660  1.00  0.00    -0.156 C  
HETATM   15  N   UNL     1     -10.171  11.815  63.265  1.00  0.00    -0.430 N  
HETATM   16  N   UNL     1      -8.980  15.377  67.820  1.00  0.00    -0.172 NA 
HETATM   17  C   UNL     1      -8.179  17.174  69.144  1.00  0.00    -0.010 C  
HETATM   18  C   UNL     1      -5.628  11.270  66.198  1.00  0.00    -0.101 A  
HETATM   19  C   UNL     1      -9.886  16.226  67.014  1.00  0.00    -0.244 A  
HETATM   20  C   UNL     1     -10.452  15.490  65.879  1.00  0.00    -0.356 A  
HETATM   21  N   UNL     1      -7.093  13.232  67.064  1.00  0.00     0.086 NA 
HETATM   22  C   UNL     1     -10.604  13.154  63.633  1.00  0.00     0.181 C  
HETATM   23  C   UNL     1     -10.032  14.167  66.000  1.00  0.00    -0.340 A  
HETATM   24  C   UNL     1     -11.261  16.159  64.926  1.00  0.00    -0.292 A  
HETATM   25  C   UNL     1      -9.197  14.238  67.112  1.00  0.00    -0.223 A  
HETATM   26  C   UNL     1     -11.586  17.502  65.070  1.00  0.00     1.830 A  
HETATM   27  C   UNL     1     -11.119  18.197  66.163  1.00  0.00     0.520 A  
HETATM   28  C   UNL     1      -8.440  13.110  67.251  1.00  0.00    -0.198 A  
HETATM   29  C   UNL     1      -9.063  11.918  66.765  1.00  0.00    -0.197 C  
HETATM   30  C   UNL     1     -10.286  17.588  67.119  1.00  0.00    -0.330 A  
HETATM   31  C   UNL     1      -7.904  11.118  66.949  1.00  0.00    -0.152 A  
HETATM   32  C   UNL     1      -9.620  11.922  65.422  1.00  0.00    -0.183 C  
HETATM   33  C   UNL     1      -6.811  11.941  66.511  1.00  0.00     0.202 A  
HETATM   34  C   UNL     1     -10.195  13.149  65.041  1.00  0.00    -0.296 A  
BRANCH   4  35
HETATM   35  N   UNL     1      -5.861  13.521  71.545  1.00  0.00    -0.069 N  
HETATM   36  C   UNL     1      -5.576  14.643  72.452  1.00  0.00     0.115 C  
HETATM   37  C   UNL     1      -5.627  12.269  72.149  1.00  0.00     0.861 C  
HETATM   38  O   UNL     1      -5.141  12.151  73.288  1.00  0.00    -0.338 OA 
BRANCH  37  39
HETATM   39  C   UNL     1      -5.868  10.989  71.454  1.00  0.00     0.365 A  
HETATM   40  C   UNL     1      -5.359   9.528  69.585  1.00  0.00    -0.034 A  
HETATM   41  C   UNL     1      -5.181  10.740  70.260  1.00  0.00    -0.057 A  
HETATM   42  C   UNL     1      -6.232   8.571  70.091  1.00  0.00    -0.034 A  
HETATM   43  C   UNL     1      -6.873   8.804  71.309  1.00  0.00    -0.082 A  
HETATM   44  C   UNL     1      -6.643   9.981  72.013  1.00  0.00     1.134 A  
ENDBRANCH  37  39
ENDBRANCH   4  35
ENDBRANCH   2   3
TORSDOF 3
ENDMDL
MODEL      115
REMARK 921   NORMALIZED FREE ENERGY PREDICTED BY IDOCK:    9.82 KCAL/MOL
REMARK 922        TOTAL FREE ENERGY PREDICTED BY IDOCK:   11.01 KCAL/MOL
REMARK 923 INTER-LIGAND FREE ENERGY PREDICTED BY IDOCK:    9.89 KCAL/MOL
REMARK 924 INTRA-LIGAND FREE ENERGY PREDICTED BY IDOCK:    1.13 KCAL/MOL
REMARK 927      BINDING AFFINITY PREDICTED BY RF-SCORE:    0.00 PKD
ROOT
HETATM    1  C   UNL     1     -10.700  16.798  68.553  1.00  0.00    -0.358 C  
HETATM    2  O   UNL     1     -11.590  15.931  69.258  1.00  0.00    -0.353 OA 
ENDROOT
BRANCH   2   3
HETATM    3  C   UNL     1     -11.590  14.470  68.999  1.00  0.00    -0.298 C  
HETATM    4  C   UNL     1     -10.837  13.829  70.193  1.00  0.00     0.611 C  
HETATM    5  C   UNL     1      -9.331  13.873  69.930  1.00  0.00     1.671 C  
HETATM    6  O   UNL     1      -7.412   7.639  67.258  1.00  0.00    -0.095 OA 
HETATM    7  C   UNL     1      -9.072   9.940  70.416  1.00  0.00    -0.021 A  
HETATM    8  C   UNL     1      -8.155   8.283  66.526  1.00  0.00    -0.105 C  
HETATM    9  C   UNL     1      -8.965  13.624  68.452  1.00  0.00    -0.160 C  
HETATM   10  H   UNL     1      -7.414   7.593  64.660  1.00  0.00     0.000 HD 
HETATM   11  O   UNL     1      -9.737  14.399  67.465  1.00  0.00    -0.212 OA 
HETATM   12  C   UNL     1      -8.065  10.352  71.287  1.00  0.00     3.089 A  
HETATM   13  C   UNL     1      -6.875  10.845  70.758  1.00  0.00     0.919 A  
HETATM   14  C   UNL     1     -11.159  14.142  67.469  1.00  0.00    -0.291 C  
HETATM   15  N   UNL     1      -8.069   8.217  65.131  1.00  0.00    -0.134 N  
HETATM   16  N   UNL     1     -11.300  12.937  66.593  1.00  0.00    -0.301 NA 
HETATM   17  C   UNL     1     -12.129  15.152  66.766  1.00  0.00     0.267 C  
HETATM   18  C   UNL     1      -6.830  11.299  69.433  1.00  0.00    -0.121 A  
HETATM   19  C   UNL     1     -11.590  12.821  65.146  1.00  0.00    -0.338 A  
HETATM   20  C   UNL     1     -11.009  11.603  64.573  1.00  0.00    -0.376 A  
HETATM   21  N   UNL     1      -8.935  12.188  68.197  1.00  0.00    -0.190 NA 
HETATM   22  C   UNL     1      -8.967   9.089  64.390  1.00  0.00     0.016 C  
HETATM   23  C   UNL     1     -10.459  10.878  65.627  1.00  0.00    -0.274 A  
HETATM   24  C   UNL     1     -11.086  11.364  63.176  1.00  0.00    -0.077 A  
HETATM   25  C   UNL     1     -10.666  11.741  66.701  1.00  0.00    -0.263 A  
HETATM   26  C   UNL     1     -11.758  12.236  62.331  1.00  0.00     2.252 A  
HETATM   27  C   UNL     1     -12.367  13.353  62.856  1.00  0.00     0.475 A  
HETATM   28  C   UNL     1      -9.949  11.365  67.800  1.00  0.00    -0.178 A  
HETATM   29  C   UNL     1      -9.730   9.955  67.908  1.00  0.00    -0.162 C  
HETATM   30  C   UNL     1     -12.293  13.653  64.229  1.00  0.00    -0.388 A  
HETATM   31  C   UNL     1      -8.855  10.076  69.020  1.00  0.00    -0.159 A  
HETATM   32  C   UNL     1      -9.194   9.245  66.759  1.00  0.00    -0.185 C  
HETATM   33  C   UNL     1      -8.026  11.210  68.720  1.00  0.00    -0.144 A  
HETATM   34  C   UNL     1      -9.648   9.732  65.518  1.00  0.00    -0.348 A  
BRANCH   4  35
HETATM   35  N   UNL     1     -11.229  14.424  71.577  1.00  0.00     0.511 N  
HETATM   36  C   UNL     1     -10.810  15.789  71.930  1.00  0.00     0.553 C  
HETATM   37  C   UNL     1     -12.133  13.881  72.511  1.00  0.00     0.606 C  
HETATM   38  O   UNL     1     -12.452  14.468  73.560  1.00  0.00    -0.361 OA 
BRANCH  37  39
HETATM   39  C   UNL     1     -12.724  12.536  72.363  1.00  0.00     0.336 A  
HETATM   40  C   UNL     1     -12.569  10.308  71.415  1.00  0.00    -0.539 A  
HETATM   41  C   UNL     1     -12.059  11.602  71.559  1.00  0.00     0.363 A  
HETATM   42  C   UNL     1     -13.748   9.948  72.059  1.00  0.00    -0.298 A  
HETATM   43  C   UNL     1     -14.377  10.867  72.901  1.00  0.00     2.080 A  
HETATM   44  C   UNL     1     -13.831  12.131  73.097  1.00  0.00     2.870 A  
ENDBRANCH  37  39
ENDBRANCH   4  35
ENDBRANCH   2   3
TORSDOF 3
ENDMDL
MODEL      116
REMARK 921   NORMALIZED FREE ENERGY PREDICTED BY IDOCK:   10.67 KCAL/MOL
REMARK 922        TOTAL FREE ENERGY PREDICTED BY IDOCK:   12.01 KCAL/MOL
REMARK 923 INTER-LIGAND FREE ENERGY PREDICTED BY IDOCK:   11.09 KCAL/MOL
REMARK 924 INTRA-LIGAND FREE ENERGY PREDICTED BY IDOCK:    0.92 KCAL/MOL
REMARK 927      BINDING AFFINITY PREDICTED BY RF-SCORE:    0.00 PKD
ROOT
HETATM    1  C   UNL     1      -5.126  12.763  67.754  1.00  0.00    -0.103 C  
HETATM    2  O   UNL     1      -6.005  11.994  68.577  1.00  0.00    -0.049 OA 
ENDROOT
BRANCH   2   3
HETATM    3  C   UNL     1      -7.443  11.865  68.238  1.00  0.00    -0.104 C  
HETATM    4  C   UNL     1      -7.531  10.723  67.194  1.00  0.00    -0.102 C  
HETATM    5  C   UNL     1      -7.256  11.284  65.798  1.00  0.00     0.301 C  
HETATM    6  O   UNL     1     -13.461  12.602  62.724  1.00  0.00     0.712 OA 
HETATM    7  C   UNL     1     -10.725   9.871  64.481  1.00  0.00     1.896 A  
HETATM    8  C   UNL     1     -13.231  13.310  63.698  1.00  0.00     1.416 C  
HETATM    9  C   UNL     1      -7.849  12.692  65.581  1.00  0.00     2.611 C  
HETATM   10  H   UNL     1     -14.272  15.047  63.061  1.00  0.00     0.000 HD 
HETATM   11  O   UNL     1      -7.579  13.669  66.650  1.00  0.00     0.488 OA 
HETATM   12  C   UNL     1      -9.874   9.353  63.505  1.00  0.00     1.468 A  
HETATM   13  C   UNL     1      -9.324  10.218  62.563  1.00  0.00    -0.322 A  
HETATM   14  C   UNL     1      -8.113  13.315  67.946  1.00  0.00    -0.159 C  
HETATM   15  N   UNL     1     -13.687  14.629  63.785  1.00  0.00     3.802 N  
HETATM   16  N   UNL     1      -9.525  13.807  67.890  1.00  0.00    -0.207 NA 
HETATM   17  C   UNL     1      -7.580  14.045  69.226  1.00  0.00     0.108 C  
HETATM   18  C   UNL     1      -9.283  11.597  62.812  1.00  0.00    -0.024 A  
HETATM   19  C   UNL     1     -10.121  15.089  68.331  1.00  0.00    -0.225 A  
HETATM   20  C   UNL     1     -11.306  15.435  67.540  1.00  0.00    -0.269 A  
HETATM   21  N   UNL     1      -9.258  12.571  65.219  1.00  0.00     0.300 NA 
HETATM   22  C   UNL     1     -13.280  15.374  64.966  1.00  0.00     1.476 C  
HETATM   23  C   UNL     1     -11.555  14.363  66.687  1.00  0.00    -0.396 A  
HETATM   24  C   UNL     1     -11.958  16.679  67.738  1.00  0.00     1.036 A  
HETATM   25  C   UNL     1     -10.477  13.526  66.963  1.00  0.00    -0.265 A  
HETATM   26  C   UNL     1     -11.534  17.568  68.718  1.00  0.00     1.094 A  
HETATM   27  C   UNL     1     -10.464  17.235  69.516  1.00  0.00    -0.054 A  
HETATM   28  C   UNL     1     -10.353  12.534  66.033  1.00  0.00    -0.256 A  
HETATM   29  C   UNL     1     -11.589  12.115  65.449  1.00  0.00    -0.383 C  
HETATM   30  C   UNL     1      -9.763  16.028  69.339  1.00  0.00    -0.248 A  
HETATM   31  C   UNL     1     -10.967  11.269  64.494  1.00  0.00    -0.301 A  
HETATM   32  C   UNL     1     -12.481  13.128  64.907  1.00  0.00    -0.490 C  
HETATM   33  C   UNL     1      -9.826  12.009  64.030  1.00  0.00    -0.211 A  
HETATM   34  C   UNL     1     -12.488  14.335  65.632  1.00  0.00    -0.432 A  
BRANCH   4  35
HETATM   35  N   UNL     1      -6.649   9.488  67.537  1.00  0.00    -0.063 N  
HETATM   36  C   UNL     1      -5.190   9.564  67.369  1.00  0.00    -0.036 C  
HETATM   37  C   UNL     1      -7.053   8.310  68.196  1.00  0.00    -0.082 C  
HETATM   38  O   UNL     1      -6.259   7.404  68.505  1.00  0.00    -0.033 OA 
BRANCH  37  39
HETATM   39  C   UNL     1      -8.465   8.015  68.511  1.00  0.00    -0.128 A  
HETATM   40  C   UNL     1     -10.341   6.487  68.341  1.00  0.00    -0.220 A  
HETATM   41  C   UNL     1      -9.016   6.818  68.040  1.00  0.00    -0.117 A  
HETATM   42  C   UNL     1     -11.121   7.354  69.097  1.00  0.00     0.032 A  
HETATM   43  C   UNL     1     -10.550   8.521  69.608  1.00  0.00    -0.221 A  
HETATM   44  C   UNL     1      -9.212   8.815  69.365  1.00  0.00    -0.146 A  
ENDBRANCH  37  39
ENDBRANCH   4  35
ENDBRANCH   2   3
TORSDOF 3
ENDMDL
MODEL      117
REMARK 921   NORMALIZED FREE ENERGY PREDICTED BY IDOCK:   10.73 KCAL/MOL
REMARK 922        TOTAL FREE ENERGY PREDICTED BY IDOCK:   12.09 KCAL/MOL
REMARK 923 INTER-LIGAND FREE ENERGY PREDICTED BY IDOCK:    4.83 KCAL/MOL
REMARK 924 INTRA-LIGAND FREE ENERGY PREDICTED BY IDOCK:    7.25 KCAL/MOL
REMARK 927      BINDING AFFINITY PREDICTED BY RF-SCORE:    0.00 PKD
ROOT
HETATM    1  C   UNL     1     -11.412   4.645  66.662  1.00  0.00     3.066 C  
HETATM    2  O   UNL     1      -9.987   4.604  66.566  1.00  0.00    -0.200 OA 
ENDROOT
BRANCH   2   3
HETATM    3  C   UNL     1      -9.157   5.695  67.132  1.00  0.00    -0.111 C  
HETATM    4  C   UNL     1      -9.804   6.056  68.493  1.00  0.00    -0.130 C  
HETATM    5  C   UNL     1     -10.947   7.047  68.270  1.00  0.00    -0.148 C  
HETATM    6  O   UNL     1      -8.444  13.540  69.391  1.00  0.00     0.558 OA 
HETATM    7  C   UNL     1      -9.287   9.623  70.795  1.00  0.00    -0.093 A  
HETATM    8  C   UNL     1      -7.951  12.981  68.418  1.00  0.00    -0.135 C  
HETATM    9  C   UNL     1     -10.649   8.078  67.162  1.00  0.00    -0.297 C  
HETATM   10  H   UNL     1      -7.605  14.703  67.225  1.00  0.00     0.000 HD 
HETATM   11  O   UNL     1     -10.120   7.526  65.902  1.00  0.00     0.350 OA 
HETATM   12  C   UNL     1     -10.577   9.572  71.324  1.00  0.00    -0.358 A  
HETATM   13  C   UNL     1     -11.614  10.188  70.629  1.00  0.00    -0.429 A  
HETATM   14  C   UNL     1      -8.853   6.842  66.024  1.00  0.00    -0.135 C  
HETATM   15  N   UNL     1      -7.549  13.685  67.278  1.00  0.00    -0.118 N  
HETATM   16  N   UNL     1      -7.847   7.945  65.930  1.00  0.00    -0.096 NA 
HETATM   17  C   UNL     1      -8.376   5.889  64.874  1.00  0.00    -0.115 C  
HETATM   18  C   UNL     1     -11.469  10.490  69.268  1.00  0.00    -0.323 A  
HETATM   19  C   UNL     1      -7.103   8.480  64.767  1.00  0.00    -0.080 A  
HETATM   20  C   UNL     1      -6.762   9.895  64.947  1.00  0.00    -0.123 A  
HETATM   21  N   UNL     1      -9.856   9.169  67.719  1.00  0.00    -0.165 NA 
HETATM   22  C   UNL     1      -7.047  12.886  66.172  1.00  0.00     2.736 C  
HETATM   23  C   UNL     1      -7.161  10.251  66.233  1.00  0.00    -0.117 A  
HETATM   24  C   UNL     1      -6.141  10.619  63.896  1.00  0.00     0.065 A  
HETATM   25  C   UNL     1      -7.774   9.080  66.672  1.00  0.00    -0.096 A  
HETATM   26  C   UNL     1      -5.787  10.000  62.705  1.00  0.00    -0.111 A  
HETATM   27  C   UNL     1      -6.038   8.657  62.540  1.00  0.00    -0.088 A  
HETATM   28  C   UNL     1      -8.499   9.284  67.811  1.00  0.00    -0.116 A  
HETATM   29  C   UNL     1      -7.984  10.311  68.663  1.00  0.00    -0.111 C  
HETATM   30  C   UNL     1      -6.681   7.901  63.537  1.00  0.00    -0.070 A  
HETATM   31  C   UNL     1      -9.093  10.271  69.549  1.00  0.00    -0.187 A  
HETATM   32  C   UNL     1      -7.688  11.611  68.083  1.00  0.00    -0.122 C  
HETATM   33  C   UNL     1     -10.244  10.141  68.698  1.00  0.00    -0.176 A  
HETATM   34  C   UNL     1      -7.186  11.554  66.768  1.00  0.00    -0.111 A  
BRANCH   4  35
HETATM   35  N   UNL     1     -10.229   4.818  69.336  1.00  0.00    -0.175 N  
HETATM   36  C   UNL     1     -11.313   4.944  70.321  1.00  0.00     2.219 C  
HETATM   37  C   UNL     1      -9.827   3.480  69.147  1.00  0.00     0.201 C  
HETATM   38  O   UNL     1     -10.283   2.539  69.818  1.00  0.00     0.689 OA 
BRANCH  37  39
HETATM   39  C   UNL     1      -8.776   3.091  68.186  1.00  0.00    -0.139 A  
HETATM   40  C   UNL     1      -6.517   2.289  67.812  1.00  0.00    -0.029 A  
HETATM   41  C   UNL     1      -7.531   2.694  68.687  1.00  0.00    -0.048 A  
HETATM   42  C   UNL     1      -6.738   2.294  66.440  1.00  0.00    -0.039 A  
HETATM   43  C   UNL     1      -8.000   2.639  65.950  1.00  0.00    -0.082 A  
HETATM   44  C   UNL     1      -9.027   2.976  66.825  1.00  0.00    -0.174 A  
ENDBRANCH  37  39
ENDBRANCH   4  35
ENDBRANCH   2   3
TORSDOF 3
ENDMDL
MODEL      118
REMARK 921   NORMALIZED FREE ENERGY PREDICTED BY IDOCK:   10.91 KCAL/MOL
REMARK 922        TOTAL FREE ENERGY PREDICTED BY IDOCK:   12.29 KCAL/MOL
REMARK 923 INTER-LIGAND FREE ENERGY PREDICTED BY IDOCK:    4.77 KCAL/MOL
REMARK 924 INTRA-LIGAND FREE ENERGY PREDICTED BY IDOCK:    7.52 KCAL/MOL
REMARK 927      BINDING AFFINITY PREDICTED BY RF-SCORE:    0.00 PKD
ROOT
HETATM    1  C   UNL     1     -10.599   7.919  71.036  1.00  0.00    -0.213 C  
HETATM    2  O   UNL     1      -9.504   8.837  71.026  1.00  0.00    -0.186 OA 
ENDROOT
BRANCH   2   3
HETATM    3  C   UNL     1      -8.388   8.678  70.061  1.00  0.00    -0.124 C  
HETATM    4  C   UNL     1      -8.689   9.661  68.902  1.00  0.00    -0.132 C  
HETATM    5  C   UNL     1      -9.641   9.000  67.905  1.00  0.00    -0.170 C  
HETATM    6  O   UNL     1      -5.772   6.297  62.669  1.00  0.00    -0.022 OA 
HETATM    7  C   UNL     1      -7.076   9.638  64.941  1.00  0.00    -0.114 A  
HETATM    8  C   UNL     1      -5.586   5.754  63.753  1.00  0.00    -0.017 C  
HETATM    9  C   UNL     1      -9.362   7.497  67.703  1.00  0.00    -0.137 C  
HETATM   10  H   UNL     1      -5.145   3.803  63.042  1.00  0.00     0.000 HD 
HETATM   11  O   UNL     1      -9.194   6.708  68.936  1.00  0.00    -0.132 OA 
HETATM   12  C   UNL     1      -8.230  10.179  64.375  1.00  0.00    -0.165 A  
HETATM   13  C   UNL     1      -9.241   9.320  63.952  1.00  0.00     0.136 A  
HETATM   14  C   UNL     1      -8.082   7.111  69.767  1.00  0.00    -0.129 C  
HETATM   15  N   UNL     1      -5.276   4.394  63.863  1.00  0.00    -0.012 N  
HETATM   16  N   UNL     1      -6.918   6.381  69.174  1.00  0.00    -0.065 NA 
HETATM   17  C   UNL     1      -8.020   6.634  71.259  1.00  0.00    -0.107 C  
HETATM   18  C   UNL     1      -9.296   8.007  64.438  1.00  0.00     1.583 A  
HETATM   19  C   UNL     1      -6.315   5.075  69.524  1.00  0.00    -0.034 A  
HETATM   20  C   UNL     1      -5.682   4.442  68.363  1.00  0.00    -0.021 A  
HETATM   21  N   UNL     1      -8.285   7.331  66.733  1.00  0.00    -0.118 NA 
HETATM   22  C   UNL     1      -5.152   3.870  65.214  1.00  0.00    -0.009 C  
HETATM   23  C   UNL     1      -5.757   5.352  67.311  1.00  0.00    -0.013 A  
HETATM   24  C   UNL     1      -5.140   3.135  68.469  1.00  0.00    -0.011 A  
HETATM   25  C   UNL     1      -6.491   6.386  67.885  1.00  0.00    -0.049 A  
HETATM   26  C   UNL     1      -5.139   2.450  69.677  1.00  0.00    -0.007 A  
HETATM   27  C   UNL     1      -5.671   3.051  70.795  1.00  0.00    -0.013 A  
HETATM   28  C   UNL     1      -6.938   7.273  66.948  1.00  0.00    -0.077 A  
HETATM   29  C   UNL     1      -6.086   7.404  65.806  1.00  0.00    -0.038 C  
HETATM   30  C   UNL     1      -6.249   4.332  70.737  1.00  0.00    -0.018 A  
HETATM   31  C   UNL     1      -6.997   8.230  65.097  1.00  0.00    -0.074 A  
HETATM   32  C   UNL     1      -5.659   6.199  65.115  1.00  0.00    -0.017 C  
HETATM   33  C   UNL     1      -8.289   7.649  65.336  1.00  0.00    -0.128 A  
HETATM   34  C   UNL     1      -5.432   5.098  65.964  1.00  0.00    -0.013 A  
BRANCH   4  35
HETATM   35  N   UNL     1      -9.179  11.061  69.375  1.00  0.00     0.090 N  
HETATM   36  C   UNL     1      -8.332  12.243  69.155  1.00  0.00     0.536 C  
HETATM   37  C   UNL     1     -10.465  11.400  69.839  1.00  0.00     0.553 C  
HETATM   38  O   UNL     1     -10.795  12.566  70.119  1.00  0.00     0.626 OA 
BRANCH  37  39
HETATM   39  C   UNL     1     -11.510  10.391  70.105  1.00  0.00    -0.396 A  
HETATM   40  C   UNL     1     -13.309   9.611  71.534  1.00  0.00    -0.468 A  
HETATM   41  C   UNL     1     -12.289  10.528  71.260  1.00  0.00    -0.502 A  
HETATM   42  C   UNL     1     -13.542   8.550  70.667  1.00  0.00     0.709 A  
HETATM   43  C   UNL     1     -12.797   8.449  69.490  1.00  0.00     3.471 A  
HETATM   44  C   UNL     1     -11.830   9.401  69.186  1.00  0.00     0.801 A  
ENDBRANCH  37  39
ENDBRANCH   4  35
ENDBRANCH   2   3
TORSDOF 3
ENDMDL
MODEL      119
REMARK 921   NORMALIZED FREE ENERGY PREDICTED BY IDOCK:   11.02 KCAL/MOL
REMARK 922        TOTAL FREE ENERGY PREDICTED BY IDOCK:   12.42 KCAL/MOL
REMARK 923 INTER-LIGAND FREE ENERGY PREDICTED BY IDOCK:    9.87 KCAL/MOL
REMARK 924 INTRA-LIGAND FREE ENERGY PREDICTED BY IDOCK:    2.55 KCAL/MOL
REMARK 927      BINDING AFFINITY PREDICTED BY RF-SCORE:    0.00 PKD
ROOT
HETATM    1  C   UNL     1     -11.608   7.086  67.862  1.00  0.00     0.763 C  
HETATM    2  O   UNL     1     -10.285   6.895  68.365  1.00  0.00    -0.161 OA 
ENDROOT
BRANCH   2   3
HETATM    3  C   UNL     1      -9.189   7.821  67.990  1.00  0.00    -0.138 C  
HETATM    4  C   UNL     1      -8.199   7.811  69.182  1.00  0.00    -0.129 C  
HETATM    5  C   UNL     1      -8.670   8.804  70.246  1.00  0.00    -0.170 C  
HETATM    6  O   UNL     1      -5.170  14.846  69.279  1.00  0.00    -0.090 OA 
HETATM    7  C   UNL     1      -5.175  10.685  70.123  1.00  0.00    -0.044 A  
HETATM    8  C   UNL     1      -5.931  14.563  68.361  1.00  0.00    -0.103 C  
HETATM    9  C   UNL     1      -9.281  10.089  69.650  1.00  0.00    -0.215 C  
HETATM   10  H   UNL     1      -6.443  16.538  67.774  1.00  0.00     0.000 HD 
HETATM   11  O   UNL     1     -10.275   9.886  68.581  1.00  0.00    -0.165 OA 
HETATM   12  C   UNL     1      -5.282  10.477  71.498  1.00  0.00    -0.047 A  
HETATM   13  C   UNL     1      -6.201  11.229  72.224  1.00  0.00     2.772 A  
HETATM   14  C   UNL     1      -9.772   9.218  67.403  1.00  0.00    -0.161 C  
HETATM   15  N   UNL     1      -6.598  15.542  67.616  1.00  0.00    -0.157 N  
HETATM   16  N   UNL     1      -9.175  10.329  66.598  1.00  0.00    -0.153 NA 
HETATM   17  C   UNL     1     -10.782   8.599  66.376  1.00  0.00     0.453 C  
HETATM   18  C   UNL     1      -7.261  11.869  71.568  1.00  0.00     6.547 A  
HETATM   19  C   UNL     1      -9.750  11.156  65.513  1.00  0.00    -0.228 A  
HETATM   20  C   UNL     1      -9.133  12.485  65.460  1.00  0.00     0.395 A  
HETATM   21  N   UNL     1      -8.209  11.018  69.304  1.00  0.00    -0.048 NA 
HETATM   22  C   UNL     1      -7.524  15.060  66.604  1.00  0.00     0.707 C  
HETATM   23  C   UNL     1      -8.102  12.494  66.397  1.00  0.00     0.423 A  
HETATM   24  C   UNL     1      -9.622  13.464  64.557  1.00  0.00     0.625 A  
HETATM   25  C   UNL     1      -8.243  11.239  66.983  1.00  0.00    -0.151 A  
HETATM   26  C   UNL     1     -10.647  13.176  63.666  1.00  0.00     0.146 A  
HETATM   27  C   UNL     1     -11.198  11.914  63.653  1.00  0.00    -0.522 A  
HETATM   28  C   UNL     1      -7.516  11.132  68.134  1.00  0.00    -0.093 A  
HETATM   29  C   UNL     1      -6.322  11.918  68.153  1.00  0.00    -0.052 C  
HETATM   30  C   UNL     1     -10.771  10.918  64.550  1.00  0.00    -0.258 A  
HETATM   31  C   UNL     1      -6.037  11.633  69.514  1.00  0.00    -0.103 A  
HETATM   32  C   UNL     1      -6.413  13.328  67.811  1.00  0.00    -0.161 C  
HETATM   33  C   UNL     1      -7.307  11.701  70.183  1.00  0.00     1.292 A  
HETATM   34  C   UNL     1      -7.358  13.617  66.807  1.00  0.00     0.955 A  
BRANCH   4  35
HETATM   35  N   UNL     1      -7.921   6.392  69.757  1.00  0.00    -0.117 N  
HETATM   36  C   UNL     1      -6.775   5.615  69.259  1.00  0.00    -0.060 C  
HETATM   37  C   UNL     1      -8.532   5.791  70.875  1.00  0.00    -0.126 C  
HETATM   38  O   UNL     1      -8.187   4.681  71.316  1.00  0.00    -0.096 OA 
BRANCH  37  39
HETATM   39  C   UNL     1      -9.683   6.393  71.576  1.00  0.00    -0.182 A  
HETATM   40  C   UNL     1     -10.495   7.888  73.306  1.00  0.00    -0.259 A  
HETATM   41  C   UNL     1      -9.432   7.273  72.635  1.00  0.00    -0.186 A  
HETATM   42  C   UNL     1     -11.806   7.616  72.932  1.00  0.00    -0.117 A  
HETATM   43  C   UNL     1     -12.048   6.779  71.841  1.00  0.00    -0.375 A  
HETATM   44  C   UNL     1     -10.988   6.222  71.132  1.00  0.00    -0.336 A  
ENDBRANCH  37  39
ENDBRANCH   4  35
ENDBRANCH   2   3
TORSDOF 3
ENDMDL
MODEL      120
REMARK 921   NORMALIZED FREE ENERGY PREDICTED BY IDOCK:   11.60 KCAL/MOL
REMARK 922        TOTAL FREE ENERGY PREDICTED BY IDOCK:   13.10 KCAL/MOL
REMARK 923 INTER-LIGAND FREE ENERGY PREDICTED BY IDOCK:   11.94 KCAL/MOL
REMARK 924 INTRA-LIGAND FREE ENERGY PREDICTED BY IDOCK:    1.17 KCAL/MOL
REMARK 927      BINDING AFFINITY PREDICTED BY RF-SCORE:    0.00 PKD
ROOT
HETATM    1  C   UNL     1     -11.212  11.353  65.984  1.00  0.00    -0.112 C  
HETATM    2  O   UNL     1     -10.588  10.911  67.191  1.00  0.00    -0.227 OA 
ENDROOT
BRANCH   2   3
HETATM    3  C   UNL     1     -10.161  11.884  68.226  1.00  0.00    -0.203 C  
HETATM    4  C   UNL     1     -11.057  11.610  69.460  1.00  0.00    -0.164 C  
HETATM    5  C   UNL     1     -12.381  12.360  69.307  1.00  0.00     0.088 C  
HETATM    6  O   UNL     1     -11.863  18.430  72.853  1.00  0.00     2.788 OA 
HETATM    7  C   UNL     1     -11.820  14.185  72.789  1.00  0.00     0.712 A  
HETATM    8  C   UNL     1     -11.113  18.357  71.885  1.00  0.00     3.532 C  
HETATM    9  C   UNL     1     -12.221  13.749  68.655  1.00  0.00    -0.167 C  
HETATM   10  H   UNL     1     -11.079  20.417  71.373  1.00  0.00     0.000 HD 
HETATM   11  O   UNL     1     -11.400  13.788  67.431  1.00  0.00    -0.298 OA 
HETATM   12  C   UNL     1     -13.109  13.691  72.986  1.00  0.00     0.037 A  
HETATM   13  C   UNL     1     -14.169  14.283  72.305  1.00  0.00    -0.587 A  
HETATM   14  C   UNL     1     -10.025  13.379  67.610  1.00  0.00    -0.229 C  
HETATM   15  N   UNL     1     -10.763  19.479  71.126  1.00  0.00     2.559 N  
HETATM   16  N   UNL     1      -9.345  14.629  68.073  1.00  0.00    -0.194 NA 
HETATM   17  C   UNL     1      -9.163  13.003  66.356  1.00  0.00    -0.141 C  
HETATM   18  C   UNL     1     -13.927  15.060  71.164  1.00  0.00    -0.451 A  
HETATM   19  C   UNL     1      -8.619  15.674  67.316  1.00  0.00    -0.192 A  
HETATM   20  C   UNL     1      -8.693  16.977  67.984  1.00  0.00    -0.218 A  
HETATM   21  N   UNL     1     -11.828  14.718  69.673  1.00  0.00    -0.301 NA 
HETATM   22  C   UNL     1      -9.922  19.232  69.965  1.00  0.00     0.666 C  
HETATM   23  C   UNL     1      -9.341  16.776  69.200  1.00  0.00    -0.155 A  
HETATM   24  C   UNL     1      -8.150  18.130  67.361  1.00  0.00    -0.229 A  
HETATM   25  C   UNL     1      -9.676  15.426  69.122  1.00  0.00    -0.252 A  
HETATM   26  C   UNL     1      -7.487  18.049  66.144  1.00  0.00    -0.305 A  
HETATM   27  C   UNL     1      -7.349  16.824  65.530  1.00  0.00     1.690 A  
HETATM   28  C   UNL     1     -10.575  15.069  70.085  1.00  0.00    -0.127 A  
HETATM   29  C   UNL     1     -10.471  15.821  71.297  1.00  0.00     0.694 C  
HETATM   30  C   UNL     1      -7.897  15.656  66.089  1.00  0.00     0.775 A  
HETATM   31  C   UNL     1     -11.638  15.250  71.869  1.00  0.00    -0.515 A  
HETATM   32  C   UNL     1     -10.454  17.272  71.216  1.00  0.00     2.537 C  
HETATM   33  C   UNL     1     -12.588  15.189  70.792  1.00  0.00    -0.393 A  
HETATM   34  C   UNL     1      -9.783  17.778  70.086  1.00  0.00     1.596 A  
BRANCH   4  35
HETATM   35  N   UNL     1     -11.249  10.098  69.776  1.00  0.00    -0.259 N  
HETATM   36  C   UNL     1     -12.604   9.558  69.966  1.00  0.00     0.680 C  
HETATM   37  C   UNL     1     -10.270   9.086  69.719  1.00  0.00    -0.205 C  
HETATM   38  O   UNL     1     -10.531   7.885  69.907  1.00  0.00    -0.220 OA 
BRANCH  37  39
HETATM   39  C   UNL     1      -8.838   9.371  69.503  1.00  0.00    -0.165 A  
HETATM   40  C   UNL     1      -6.717  10.101  70.428  1.00  0.00    -0.134 A  
HETATM   41  C   UNL     1      -8.084   9.846  70.582  1.00  0.00     0.247 A  
HETATM   42  C   UNL     1      -6.105   9.897  69.197  1.00  0.00    -0.037 A  
HETATM   43  C   UNL     1      -6.851   9.373  68.139  1.00  0.00    -0.064 A  
HETATM   44  C   UNL     1      -8.194   9.056  68.313  1.00  0.00    -0.116 A  
ENDBRANCH  37  39
ENDBRANCH   4  35
ENDBRANCH   2   3
TORSDOF 3
ENDMDL
MODEL      121
REMARK 921   NORMALIZED FREE ENERGY PREDICTED BY IDOCK:   12.39 KCAL/MOL
REMARK 922        TOTAL FREE ENERGY PREDICTED BY IDOCK:   14.04 KCAL/MOL
REMARK 923 INTER-LIGAND FREE ENERGY PREDICTED BY IDOCK:   12.73 KCAL/MOL
REMARK 924 INTRA-LIGAND FREE ENERGY PREDICTED BY IDOCK:    1.31 KCAL/MOL
REMARK 927      BINDING AFFINITY PREDICTED BY RF-SCORE:    0.00 PKD
ROOT
HETATM    1  C   UNL     1     -10.376  18.314  71.966  1.00  0.00     4.452 C  
HETATM    2  O   UNL     1     -11.107  17.433  71.111  1.00  0.00     0.753 OA 
ENDROOT
BRANCH   2   3
HETATM    3  C   UNL     1     -10.403  16.433  70.271  1.00  0.00     0.250 C  
HETATM    4  C   UNL     1     -10.014  17.175  68.967  1.00  0.00    -0.273 C  
HETATM    5  C   UNL     1     -11.195  17.154  67.995  1.00  0.00     0.037 C  
HETATM    6  O   UNL     1     -10.230  11.801  63.513  1.00  0.00    -0.370 OA 
HETATM    7  C   UNL     1      -8.937  15.481  65.191  1.00  0.00     1.746 A  
HETATM    8  C   UNL     1     -10.416  11.448  64.672  1.00  0.00    -0.315 C  
HETATM    9  C   UNL     1     -11.984  15.829  68.025  1.00  0.00     0.196 C  
HETATM   10  H   UNL     1     -11.392   9.606  64.274  1.00  0.00     0.000 HD 
HETATM   11  O   UNL     1     -12.341  15.329  69.365  1.00  0.00    -0.238 OA 
HETATM   12  C   UNL     1      -9.463  16.548  64.464  1.00  0.00     3.862 A  
HETATM   13  C   UNL     1     -10.801  16.509  64.082  1.00  0.00     1.229 A  
HETATM   14  C   UNL     1     -11.215  15.029  70.220  1.00  0.00    -0.252 C  
HETATM   15  N   UNL     1     -11.077  10.257  64.993  1.00  0.00     0.870 N  
HETATM   16  N   UNL     1     -10.841  13.634  69.830  1.00  0.00     0.253 NA 
HETATM   17  C   UNL     1     -11.439  14.870  71.763  1.00  0.00    -0.275 C  
HETATM   18  C   UNL     1     -11.695  15.651  64.737  1.00  0.00    -0.134 A  
HETATM   19  C   UNL     1     -11.239  12.328  70.404  1.00  0.00     0.868 A  
HETATM   20  C   UNL     1     -11.215  11.264  69.396  1.00  0.00    -0.345 A  
HETATM   21  N   UNL     1     -11.313  14.849  67.178  1.00  0.00    -0.345 NA 
HETATM   22  C   UNL     1     -11.289  10.000  66.408  1.00  0.00     1.048 C  
HETATM   23  C   UNL     1     -10.703  11.820  68.226  1.00  0.00    -0.246 A  
HETATM   24  C   UNL     1     -11.668   9.959  69.724  1.00  0.00    -0.079 A  
HETATM   25  C   UNL     1     -10.555  13.156  68.591  1.00  0.00    -0.239 A  
HETATM   26  C   UNL     1     -12.083   9.642  71.010  1.00  0.00    -0.421 A  
HETATM   27  C   UNL     1     -12.053  10.610  71.989  1.00  0.00     0.585 A  
HETATM   28  C   UNL     1     -10.334  13.956  67.508  1.00  0.00    -0.245 A  
HETATM   29  C   UNL     1      -9.641  13.316  66.432  1.00  0.00    -0.260 C  
HETATM   30  C   UNL     1     -11.644  11.926  71.708  1.00  0.00     2.890 A  
HETATM   31  C   UNL     1      -9.801  14.413  65.544  1.00  0.00    -0.299 A  
HETATM   32  C   UNL     1     -10.136  12.037  65.950  1.00  0.00    -0.264 C  
HETATM   33  C   UNL     1     -11.148  14.867  65.755  1.00  0.00    -0.342 A  
HETATM   34  C   UNL     1     -10.666  11.209  66.958  1.00  0.00    -0.316 A  
BRANCH   4  35
HETATM   35  N   UNL     1      -9.445  18.604  69.202  1.00  0.00    -0.156 N  
HETATM   36  C   UNL     1     -10.251  19.601  69.924  1.00  0.00     0.457 C  
HETATM   37  C   UNL     1      -8.126  19.044  68.972  1.00  0.00    -0.200 C  
HETATM   38  O   UNL     1      -7.736  20.187  69.268  1.00  0.00    -0.007 OA 
BRANCH  37  39
HETATM   39  C   UNL     1      -7.114  18.211  68.294  1.00  0.00    -0.249 A  
HETATM   40  C   UNL     1      -5.384  16.519  68.462  1.00  0.00    -0.113 A  
HETATM   41  C   UNL     1      -6.334  17.346  69.070  1.00  0.00    -0.220 A  
HETATM   42  C   UNL     1      -5.199  16.564  67.085  1.00  0.00    -0.115 A  
HETATM   43  C   UNL     1      -6.016  17.391  66.311  1.00  0.00    -0.231 A  
HETATM   44  C   UNL     1      -7.007  18.162  66.910  1.00  0.00    -0.216 A  
ENDBRANCH  37  39
ENDBRANCH   4  35
ENDBRANCH   2   3
TORSDOF 3
ENDMDL
MODEL      122
REMARK 921   NORMALIZED FREE ENERGY PREDICTED BY IDOCK:   13.40 KCAL/MOL
REMARK 922        TOTAL FREE ENERGY PREDICTED BY IDOCK:   15.23 KCAL/MOL
REMARK 923 INTER-LIGAND FREE ENERGY PREDICTED BY IDOCK:   14.73 KCAL/MOL
REMARK 924 INTRA-LIGAND FREE ENERGY PREDICTED BY IDOCK:    0.49 KCAL/MOL
REMARK 927      BINDING AFFINITY PREDICTED BY RF-SCORE:    0.00 PKD
ROOT
HETATM    1  C   UNL     1     -12.113  11.837  65.466  1.00  0.00     0.383 C  
HETATM    2  O   UNL     1     -10.923  11.591  64.715  1.00  0.00    -0.310 OA 
ENDROOT
BRANCH   2   3
HETATM    3  C   UNL     1      -9.612  11.450  65.393  1.00  0.00    -0.228 C  
HETATM    4  C   UNL     1      -9.587  10.013  65.972  1.00  0.00    -0.222 C  
HETATM    5  C   UNL     1     -10.288   9.996  67.331  1.00  0.00    -0.292 C  
HETATM    6  O   UNL     1      -5.348  10.528  72.331  1.00  0.00    -0.314 OA 
HETATM    7  C   UNL     1      -7.057   8.451  69.046  1.00  0.00    -0.069 A  
HETATM    8  C   UNL     1      -5.451  11.528  71.628  1.00  0.00     0.289 C  
HETATM    9  C   UNL     1     -10.018  11.262  68.169  1.00  0.00    -0.181 C  
HETATM   10  H   UNL     1      -4.913  12.976  73.085  1.00  0.00     0.000 HD 
HETATM   11  O   UNL     1     -10.182  12.544  67.460  1.00  0.00    -0.213 OA 
HETATM   12  C   UNL     1      -8.018   7.549  69.499  1.00  0.00    -0.126 A  
HETATM   13  C   UNL     1      -8.923   7.961  70.474  1.00  0.00    -0.145 A  
HETATM   14  C   UNL     1      -9.294  12.733  66.336  1.00  0.00    -0.194 C  
HETATM   15  N   UNL     1      -5.222  12.815  72.126  1.00  0.00     0.030 N  
HETATM   16  N   UNL     1      -8.046  13.271  66.961  1.00  0.00    -0.074 NA 
HETATM   17  C   UNL     1      -9.615  13.845  65.278  1.00  0.00     0.113 C  
HETATM   18  C   UNL     1      -9.139   9.327  70.701  1.00  0.00    -0.309 A  
HETATM   19  C   UNL     1      -7.590  14.664  67.169  1.00  0.00    -0.044 A  
HETATM   20  C   UNL     1      -6.713  14.778  68.338  1.00  0.00    -0.102 A  
HETATM   21  N   UNL     1      -8.742  11.119  68.863  1.00  0.00    -0.125 NA 
HETATM   22  C   UNL     1      -5.449  13.913  71.198  1.00  0.00    -0.199 C  
HETATM   23  C   UNL     1      -6.499  13.487  68.816  1.00  0.00    -0.098 A  
HETATM   24  C   UNL     1      -6.257  16.052  68.767  1.00  0.00    -0.115 A  
HETATM   25  C   UNL     1      -7.317  12.737  67.975  1.00  0.00    -0.117 A  
HETATM   26  C   UNL     1      -6.575  17.206  68.064  1.00  0.00    -0.158 A  
HETATM   27  C   UNL     1      -7.343  17.115  66.926  1.00  0.00    -0.242 A  
HETATM   28  C   UNL     1      -7.491  11.465  68.439  1.00  0.00    -0.111 A  
HETATM   29  C   UNL     1      -6.382  10.950  69.181  1.00  0.00    -0.058 C  
HETATM   30  C   UNL     1      -7.847  15.881  66.477  1.00  0.00    -0.169 A  
HETATM   31  C   UNL     1      -7.064   9.768  69.573  1.00  0.00    -0.075 A  
HETATM   32  C   UNL     1      -5.839  11.752  70.266  1.00  0.00    -0.163 C  
HETATM   33  C   UNL     1      -8.394  10.199  69.905  1.00  0.00    -0.089 A  
HETATM   34  C   UNL     1      -5.863  13.139  70.023  1.00  0.00    -0.139 A  
BRANCH   4  35
HETATM   35  N   UNL     1     -10.131   8.931  64.993  1.00  0.00     1.100 N  
HETATM   36  C   UNL     1     -11.581   8.703  64.892  1.00  0.00    11.611 C  
HETATM   37  C   UNL     1      -9.407   8.234  64.006  1.00  0.00     1.701 C  
HETATM   38  O   UNL     1      -9.943   7.445  63.209  1.00  0.00     4.671 OA 
BRANCH  37  39
HETATM   39  C   UNL     1      -7.939   8.325  63.878  1.00  0.00    -0.146 A  
HETATM   40  C   UNL     1      -5.752   7.729  64.742  1.00  0.00    -0.037 A  
HETATM   41  C   UNL     1      -7.147   7.692  64.843  1.00  0.00    -0.063 A  
HETATM   42  C   UNL     1      -5.147   8.410  63.692  1.00  0.00    -0.052 A  
HETATM   43  C   UNL     1      -5.943   8.994  62.705  1.00  0.00    -0.090 A  
HETATM   44  C   UNL     1      -7.329   8.898  62.770  1.00  0.00    -0.096 A  
ENDBRANCH  37  39
ENDBRANCH   4  35
ENDBRANCH   2   3
TORSDOF 3
ENDMDL
MODEL      123
REMARK 921   NORMALIZED FREE ENERGY PREDICTED BY IDOCK:   14.07 KCAL/MOL
REMARK 922        TOTAL FREE ENERGY PREDICTED BY IDOCK:   16.01 KCAL/MOL
REMARK 923 INTER-LIGAND FREE ENERGY PREDICTED BY IDOCK:    2.21 KCAL/MOL
REMARK 924 INTRA-LIGAND FREE ENERGY PREDICTED BY IDOCK:   13.80 KCAL/MOL
REMARK 927      BINDING AFFINITY PREDICTED BY RF-SCORE:    0.00 PKD
ROOT
HETATM    1  C   UNL     1      -8.747   7.002  72.992  1.00  0.00    -0.121 C  
HETATM    2  O   UNL     1      -8.727   8.072  72.046  1.00  0.00    -0.122 OA 
ENDROOT
BRANCH   2   3
HETATM    3  C   UNL     1      -7.966   7.951  70.778  1.00  0.00    -0.100 C  
HETATM    4  C   UNL     1      -7.302   9.332  70.550  1.00  0.00    -0.116 C  
HETATM    5  C   UNL     1      -8.295  10.269  69.860  1.00  0.00    -0.025 C  
HETATM    6  O   UNL     1      -6.974  10.120  62.938  1.00  0.00    -0.126 OA 
HETATM    7  C   UNL     1      -5.717  10.927  66.912  1.00  0.00    -0.067 A  
HETATM    8  C   UNL     1      -7.385   9.055  63.386  1.00  0.00    -0.097 C  
HETATM    9  C   UNL     1      -9.175   9.558  68.812  1.00  0.00    -0.140 C  
HETATM   10  H   UNL     1      -8.414   8.377  61.658  1.00  0.00     0.000 HD 
HETATM   11  O   UNL     1      -9.795   8.295  69.252  1.00  0.00    -0.178 OA 
HETATM   12  C   UNL     1      -6.027  12.244  67.253  1.00  0.00    -0.150 A  
HETATM   13  C   UNL     1      -7.278  12.752  66.913  1.00  0.00     0.276 A  
HETATM   14  C   UNL     1      -8.861   7.255  69.617  1.00  0.00    -0.141 C  
HETATM   15  N   UNL     1      -8.180   8.185  62.632  1.00  0.00    -0.166 N  
HETATM   16  N   UNL     1      -8.532   6.605  68.310  1.00  0.00    -0.120 NA 
HETATM   17  C   UNL     1      -9.361   6.028  70.455  1.00  0.00    -0.177 C  
HETATM   18  C   UNL     1      -8.334  11.880  66.615  1.00  0.00    -0.117 A  
HETATM   19  C   UNL     1      -9.121   5.423  67.640  1.00  0.00    -0.108 A  
HETATM   20  C   UNL     1      -9.003   5.512  66.182  1.00  0.00    -0.146 A  
HETATM   21  N   UNL     1      -8.443   9.460  67.554  1.00  0.00    -0.122 NA 
HETATM   22  C   UNL     1      -8.653   6.991  63.315  1.00  0.00     0.488 C  
HETATM   23  C   UNL     1      -8.255   6.654  65.901  1.00  0.00    -0.132 A  
HETATM   24  C   UNL     1      -9.603   4.527  65.355  1.00  0.00    -0.185 A  
HETATM   25  C   UNL     1      -8.072   7.189  67.173  1.00  0.00    -0.114 A  
HETATM   26  C   UNL     1     -10.258   3.431  65.900  1.00  0.00     0.605 A  
HETATM   27  C   UNL     1     -10.325   3.292  67.267  1.00  0.00     1.749 A  
HETATM   28  C   UNL     1      -7.606   8.472  67.121  1.00  0.00    -0.096 A  
HETATM   29  C   UNL     1      -6.788   8.757  65.983  1.00  0.00    -0.073 C  
HETATM   30  C   UNL     1      -9.775   4.258  68.131  1.00  0.00    -0.165 A  
HETATM   31  C   UNL     1      -6.708  10.147  66.264  1.00  0.00    -0.102 A  
HETATM   32  C   UNL     1      -7.287   8.408  64.663  1.00  0.00    -0.093 C  
HETATM   33  C   UNL     1      -8.033  10.518  66.679  1.00  0.00    -0.125 A  
HETATM   34  C   UNL     1      -8.045   7.222  64.630  1.00  0.00    -0.081 A  
BRANCH   4  35
HETATM   35  N   UNL     1      -6.676   9.949  71.835  1.00  0.00     0.762 N  
HETATM   36  C   UNL     1      -6.632   9.161  73.076  1.00  0.00     0.399 C  
HETATM   37  C   UNL     1      -5.940  11.147  71.932  1.00  0.00     1.292 C  
HETATM   38  O   UNL     1      -5.402  11.523  72.988  1.00  0.00    -0.033 OA 
BRANCH  37  39
HETATM   39  C   UNL     1      -5.805  12.095  70.809  1.00  0.00     0.011 A  
HETATM   40  C   UNL     1      -5.131  12.491  68.512  1.00  0.00    -0.057 A  
HETATM   41  C   UNL     1      -5.250  11.632  69.610  1.00  0.00    -0.059 A  
HETATM   42  C   UNL     1      -5.550  13.812  68.612  1.00  0.00    -0.085 A  
HETATM   43  C   UNL     1      -6.151  14.253  69.793  1.00  0.00    -0.132 A  
HETATM   44  C   UNL     1      -6.331  13.379  70.861  1.00  0.00     0.498 A  
ENDBRANCH  37  39
ENDBRANCH   4  35
ENDBRANCH   2   3
TORSDOF 3
ENDMDL
MODEL      124
REMARK 921   NORMALIZED FREE ENERGY PREDICTED BY IDOCK:   15.57 KCAL/MOL
REMARK 922        TOTAL FREE ENERGY PREDICTED BY IDOCK:   17.78 KCAL/MOL
REMARK 923 INTER-LIGAND FREE ENERGY PREDICTED BY IDOCK:    0.43 KCAL/MOL
REMARK 924 INTRA-LIGAND FREE ENERGY PREDICTED BY IDOCK:   17.35 KCAL/MOL
REMARK 927      BINDING AFFINITY PREDICTED BY RF-SCORE:    0.00 PKD
ROOT
HETATM    1  C   UNL     1      -9.260   6.879  71.003  1.00  0.00    -0.156 C  
HETATM    2  O   UNL     1      -9.954   8.128  71.049  1.00  0.00    -0.183 OA 
ENDROOT
BRANCH   2   3
HETATM    3  C   UNL     1     -10.514   8.731  69.815  1.00  0.00    -0.219 C  
HETATM    4  C   UNL     1      -9.791   8.030  68.636  1.00  0.00    -0.174 C  
HETATM    5  C   UNL     1      -8.457   8.727  68.367  1.00  0.00    -0.130 C  
HETATM    6  O   UNL     1      -9.429  13.335  63.123  1.00  0.00     2.409 OA 
HETATM    7  C   UNL     1      -9.476   9.347  64.580  1.00  0.00     0.047 A  
HETATM    8  C   UNL     1     -10.043  13.614  64.147  1.00  0.00     0.587 C  
HETATM    9  C   UNL     1      -8.524  10.258  68.543  1.00  0.00    -0.121 C  
HETATM   10  H   UNL     1     -10.003  15.728  63.955  1.00  0.00     0.000 HD 
HETATM   11  O   UNL     1      -9.173  10.730  69.779  1.00  0.00     0.120 OA 
HETATM   12  C   UNL     1      -8.226   8.756  64.394  1.00  0.00    -0.169 A  
HETATM   13  C   UNL     1      -7.082   9.487  64.704  1.00  0.00    -0.106 A  
HETATM   14  C   UNL     1     -10.561  10.350  69.919  1.00  0.00    -0.251 C  
HETATM   15  N   UNL     1     -10.285  14.936  64.534  1.00  0.00     0.101 N  
HETATM   16  N   UNL     1     -11.294  11.412  69.161  1.00  0.00    -0.261 NA 
HETATM   17  C   UNL     1     -11.248  10.442  71.325  1.00  0.00     0.198 C  
HETATM   18  C   UNL     1      -7.167  10.602  65.549  1.00  0.00    -0.052 A  
HETATM   19  C   UNL     1     -11.908  12.679  69.619  1.00  0.00    -0.311 A  
HETATM   20  C   UNL     1     -11.921  13.689  68.557  1.00  0.00    -0.396 A  
HETATM   21  N   UNL     1      -9.048  10.861  67.322  1.00  0.00    -0.141 NA 
HETATM   22  C   UNL     1     -10.963  15.120  65.807  1.00  0.00    -0.349 C  
HETATM   23  C   UNL     1     -11.443  13.074  67.402  1.00  0.00    -0.380 A  
HETATM   24  C   UNL     1     -12.372  15.006  68.830  1.00  0.00    -0.023 A  
HETATM   25  C   UNL     1     -11.105  11.809  67.876  1.00  0.00    -0.245 A  
HETATM   26  C   UNL     1     -12.866  15.355  70.080  1.00  0.00    -0.196 A  
HETATM   27  C   UNL     1     -12.924  14.405  71.074  1.00  0.00    -0.416 A  
HETATM   28  C   UNL     1     -10.344  11.118  66.978  1.00  0.00    -0.224 A  
HETATM   29  C   UNL     1     -10.608  11.439  65.610  1.00  0.00    -0.314 C  
HETATM   30  C   UNL     1     -12.459  13.094  70.864  1.00  0.00    -0.407 A  
HETATM   31  C   UNL     1      -9.529  10.660  65.114  1.00  0.00    -0.276 A  
HETATM   32  C   UNL     1     -10.609  12.838  65.212  1.00  0.00    -0.312 C  
HETATM   33  C   UNL     1      -8.444  10.908  66.023  1.00  0.00    -0.167 A  
HETATM   34  C   UNL     1     -11.121  13.713  66.189  1.00  0.00    -0.299 A  
BRANCH   4  35
HETATM   35  N   UNL     1      -9.648   6.490  68.812  1.00  0.00    -0.127 N  
HETATM   36  C   UNL     1      -9.826   5.888  70.143  1.00  0.00    -0.176 C  
HETATM   37  C   UNL     1      -9.552   5.522  67.793  1.00  0.00    -0.123 C  
HETATM   38  O   UNL     1      -9.525   4.301  68.024  1.00  0.00    -0.145 OA 
BRANCH  37  39
HETATM   39  C   UNL     1      -9.402   5.875  66.368  1.00  0.00    -0.171 A  
HETATM   40  C   UNL     1     -10.151   5.584  64.079  1.00  0.00     2.016 A  
HETATM   41  C   UNL     1     -10.242   5.256  65.435  1.00  0.00     0.276 A  
HETATM   42  C   UNL     1      -9.215   6.517  63.649  1.00  0.00     1.695 A  
HETATM   43  C   UNL     1      -8.417   7.171  64.590  1.00  0.00     0.152 A  
HETATM   44  C   UNL     1      -8.555   6.893  65.946  1.00  0.00    -0.152 A  
ENDBRANCH  37  39
ENDBRANCH   4  35
ENDBRANCH   2   3
TORSDOF 3
ENDMDL
MODEL      125
REMARK 921   NORMALIZED FREE ENERGY PREDICTED BY IDOCK:   15.99 KCAL/MOL
REMARK 922        TOTAL FREE ENERGY PREDICTED BY IDOCK:   18.27 KCAL/MOL
REMARK 923 INTER-LIGAND FREE ENERGY PREDICTED BY IDOCK:    4.57 KCAL/MOL
REMARK 924 INTRA-LIGAND FREE ENERGY PREDICTED BY IDOCK:   13.70 KCAL/MOL
REMARK 927      BINDING AFFINITY PREDICTED BY RF-SCORE:    0.00 PKD
ROOT
HETATM    1  C   UNL     1     -10.021   8.330  69.337  1.00  0.00    -0.188 C  
HETATM    2  O   UNL     1     -10.054   8.595  67.933  1.00  0.00    -0.182 OA 
ENDROOT
BRANCH   2   3
HETATM    3  C   UNL     1      -9.462   9.838  67.381  1.00  0.00    -0.152 C  
HETATM    4  C   UNL     1      -8.598  10.437  68.520  1.00  0.00    -0.134 C  
HETATM    5  C   UNL     1      -9.483  11.274  69.446  1.00  0.00     0.327 C  
HETATM    6  O   UNL     1      -8.939  18.016  67.461  1.00  0.00    -0.247 OA 
HETATM    7  C   UNL     1      -7.153  14.444  68.904  1.00  0.00    -0.116 A  
HETATM    8  C   UNL     1      -9.477  17.296  66.626  1.00  0.00    -0.265 C  
HETATM    9  C   UNL     1     -10.576  12.061  68.694  1.00  0.00    -0.229 C  
HETATM   10  H   UNL     1     -10.782  18.740  65.779  1.00  0.00     0.000 HD 
HETATM   11  O   UNL     1     -11.354  11.289  67.710  1.00  0.00    -0.265 OA 
HETATM   12  C   UNL     1      -7.196  14.418  70.297  1.00  0.00     0.391 A  
HETATM   13  C   UNL     1      -8.370  14.796  70.943  1.00  0.00     2.566 A  
HETATM   14  C   UNL     1     -10.580  10.737  66.621  1.00  0.00    -0.232 C  
HETATM   15  N   UNL     1     -10.483  17.765  65.775  1.00  0.00    -0.291 N  
HETATM   16  N   UNL     1     -10.505  11.862  65.638  1.00  0.00    -0.252 NA 
HETATM   17  C   UNL     1     -11.191   9.595  65.739  1.00  0.00     2.098 C  
HETATM   18  C   UNL     1      -9.585  14.806  70.245  1.00  0.00     0.777 A  
HETATM   19  C   UNL     1     -11.355  12.185  64.470  1.00  0.00    -0.334 A  
HETATM   20  C   UNL     1     -11.377  13.626  64.197  1.00  0.00    -0.330 A  
HETATM   21  N   UNL     1     -10.008  13.299  68.172  1.00  0.00    -0.229 NA 
HETATM   22  C   UNL     1     -11.080  16.783  64.884  1.00  0.00    -0.054 C  
HETATM   23  C   UNL     1     -10.478  14.222  65.079  1.00  0.00    -0.458 A  
HETATM   24  C   UNL     1     -12.219  14.148  63.182  1.00  0.00     0.730 A  
HETATM   25  C   UNL     1     -10.073  13.133  65.847  1.00  0.00    -0.290 A  
HETATM   26  C   UNL     1     -12.992  13.313  62.386  1.00  0.00     3.089 A  
HETATM   27  C   UNL     1     -12.938  11.951  62.581  1.00  0.00     1.200 A  
HETATM   28  C   UNL     1      -9.403  13.526  66.970  1.00  0.00    -0.247 A  
HETATM   29  C   UNL     1      -8.671  14.746  66.824  1.00  0.00    -0.255 C  
HETATM   30  C   UNL     1     -12.144  11.386  63.595  1.00  0.00     0.062 A  
HETATM   31  C   UNL     1      -8.326  14.821  68.199  1.00  0.00    -0.144 A  
HETATM   32  C   UNL     1      -9.359  15.908  66.284  1.00  0.00    -0.357 C  
HETATM   33  C   UNL     1      -9.516  14.430  68.903  1.00  0.00    -0.107 A  
HETATM   34  C   UNL     1     -10.308  15.604  65.289  1.00  0.00    -0.405 A  
BRANCH   4  35
HETATM   35  N   UNL     1      -7.745   9.383  69.284  1.00  0.00    -0.079 N  
HETATM   36  C   UNL     1      -6.356   9.132  68.871  1.00  0.00    -0.044 C  
HETATM   37  C   UNL     1      -8.071   8.738  70.493  1.00  0.00    -0.124 C  
HETATM   38  O   UNL     1      -7.289   7.969  71.078  1.00  0.00    -0.055 OA 
BRANCH  37  39
HETATM   39  C   UNL     1      -9.396   8.861  71.132  1.00  0.00    -0.326 A  
HETATM   40  C   UNL     1     -11.359  10.219  71.566  1.00  0.00     0.214 A  
HETATM   41  C   UNL     1     -10.088  10.071  71.001  1.00  0.00     0.414 A  
HETATM   42  C   UNL     1     -11.934   9.169  72.273  1.00  0.00    -0.277 A  
HETATM   43  C   UNL     1     -11.261   7.948  72.355  1.00  0.00    -0.409 A  
HETATM   44  C   UNL     1     -10.027   7.781  71.735  1.00  0.00    -0.219 A  
ENDBRANCH  37  39
ENDBRANCH   4  35
ENDBRANCH   2   3
TORSDOF 3
ENDMDL
MODEL      126
REMARK 921   NORMALIZED FREE ENERGY PREDICTED BY IDOCK:   16.19 KCAL/MOL
REMARK 922        TOTAL FREE ENERGY PREDICTED BY IDOCK:   18.51 KCAL/MOL
REMARK 923 INTER-LIGAND FREE ENERGY PREDICTED BY IDOCK:   13.65 KCAL/MOL
REMARK 924 INTRA-LIGAND FREE ENERGY PREDICTED BY IDOCK:    4.86 KCAL/MOL
REMARK 927      BINDING AFFINITY PREDICTED BY RF-SCORE:    0.00 PKD
ROOT
HETATM    1  C   UNL     1      -6.217  16.337  66.581  1.00  0.00     0.360 C  
HETATM    2  O   UNL     1      -7.437  16.231  67.318  1.00  0.00    -0.144 OA 
ENDROOT
BRANCH   2   3
HETATM    3  C   UNL     1      -8.374  15.106  67.077  1.00  0.00    -0.231 C  
HETATM    4  C   UNL     1      -9.708  15.517  67.749  1.00  0.00    -0.211 C  
HETATM    5  C   UNL     1      -9.664  15.157  69.235  1.00  0.00    -0.225 C  
HETATM    6  O   UNL     1     -12.853   8.925  70.057  1.00  0.00     1.064 OA 
HETATM    7  C   UNL     1     -12.979  13.000  68.872  1.00  0.00     1.790 A  
HETATM    8  C   UNL     1     -11.815   8.868  69.407  1.00  0.00     1.022 C  
HETATM    9  C   UNL     1      -8.936  13.827  69.517  1.00  0.00     1.058 C  
HETATM   10  H   UNL     1     -11.209   6.915  69.978  1.00  0.00     0.000 HD 
HETATM   11  O   UNL     1      -7.631  13.661  68.852  1.00  0.00    -0.101 OA 
HETATM   12  C   UNL     1     -13.336  13.802  69.956  1.00  0.00     1.031 A  
HETATM   13  C   UNL     1     -12.747  13.563  71.194  1.00  0.00    -0.425 A  
HETATM   14  C   UNL     1      -7.679  13.677  67.408  1.00  0.00    -0.143 C  
HETATM   15  N   UNL     1     -10.973   7.751  69.444  1.00  0.00    -0.108 N  
HETATM   16  N   UNL     1      -8.009  12.262  67.052  1.00  0.00    -0.155 NA 
HETATM   17  C   UNL     1      -6.358  13.902  66.594  1.00  0.00     2.518 C  
HETATM   18  C   UNL     1     -11.552  12.835  71.277  1.00  0.00     1.670 A  
HETATM   19  C   UNL     1      -7.131  11.121  66.708  1.00  0.00    -0.139 A  
HETATM   20  C   UNL     1      -7.743   9.838  67.071  1.00  0.00    -0.095 A  
HETATM   21  N   UNL     1      -9.861  12.717  69.309  1.00  0.00     0.508 NA 
HETATM   22  C   UNL     1      -9.740   7.850  68.678  1.00  0.00    -0.158 C  
HETATM   23  C   UNL     1      -9.030  10.115  67.526  1.00  0.00    -0.136 A  
HETATM   24  C   UNL     1      -7.014   8.631  66.919  1.00  0.00    -0.077 A  
HETATM   25  C   UNL     1      -9.050  11.507  67.488  1.00  0.00    -0.166 A  
HETATM   26  C   UNL     1      -5.737   8.623  66.373  1.00  0.00    -0.047 A  
HETATM   27  C   UNL     1      -5.168   9.808  65.966  1.00  0.00    -0.035 A  
HETATM   28  C   UNL     1     -10.119  12.018  68.166  1.00  0.00    -0.200 A  
HETATM   29  C   UNL     1     -11.278  11.179  68.158  1.00  0.00    -0.356 C  
HETATM   30  C   UNL     1      -5.836  11.036  66.124  1.00  0.00    -0.142 A  
HETATM   31  C   UNL     1     -11.997  11.995  69.070  1.00  0.00    -0.321 A  
HETATM   32  C   UNL     1     -11.129   9.785  68.542  1.00  0.00    -0.138 C  
HETATM   33  C   UNL     1     -11.033  12.383  70.062  1.00  0.00     0.667 A  
HETATM   34  C   UNL     1      -9.911   9.203  68.140  1.00  0.00    -0.206 A  
BRANCH   4  35
HETATM   35  N   UNL     1     -10.112  16.999  67.494  1.00  0.00    -0.285 N  
HETATM   36  C   UNL     1      -9.983  17.568  66.144  1.00  0.00    -0.270 C  
HETATM   37  C   UNL     1     -10.793  17.860  68.378  1.00  0.00    -0.029 C  
HETATM   38  O   UNL     1     -11.150  19.007  68.059  1.00  0.00    -0.110 OA 
BRANCH  37  39
HETATM   39  C   UNL     1     -11.076  17.502  69.782  1.00  0.00     1.110 A  
HETATM   40  C   UNL     1     -10.961  18.106  72.129  1.00  0.00     2.998 A  
HETATM   41  C   UNL     1     -10.686  18.394  70.788  1.00  0.00     2.507 A  
HETATM   42  C   UNL     1     -11.611  16.925  72.469  1.00  0.00     0.303 A  
HETATM   43  C   UNL     1     -12.044  16.066  71.457  1.00  0.00    -0.513 A  
HETATM   44  C   UNL     1     -11.830  16.386  70.121  1.00  0.00     0.210 A  
ENDBRANCH  37  39
ENDBRANCH   4  35
ENDBRANCH   2   3
TORSDOF 3
ENDMDL
MODEL      127
REMARK 921   NORMALIZED FREE ENERGY PREDICTED BY IDOCK:   16.63 KCAL/MOL
REMARK 922        TOTAL FREE ENERGY PREDICTED BY IDOCK:   19.02 KCAL/MOL
REMARK 923 INTER-LIGAND FREE ENERGY PREDICTED BY IDOCK:   17.42 KCAL/MOL
REMARK 924 INTRA-LIGAND FREE ENERGY PREDICTED BY IDOCK:    1.60 KCAL/MOL
REMARK 927      BINDING AFFINITY PREDICTED BY RF-SCORE:    0.00 PKD
ROOT
HETATM    1  C   UNL     1     -11.336   6.111  67.903  1.00  0.00     0.233 C  
HETATM    2  O   UNL     1     -10.037   5.970  68.483  1.00  0.00    -0.139 OA 
ENDROOT
BRANCH   2   3
HETATM    3  C   UNL     1      -8.930   6.879  68.096  1.00  0.00    -0.123 C  
HETATM    4  C   UNL     1      -8.070   7.063  69.372  1.00  0.00    -0.130 C  
HETATM    5  C   UNL     1      -8.671   8.170  70.239  1.00  0.00    -0.133 C  
HETATM    6  O   UNL     1      -5.233  14.157  68.818  1.00  0.00    -0.082 OA 
HETATM    7  C   UNL     1      -5.227  10.146  70.212  1.00  0.00    -0.040 A  
HETATM    8  C   UNL     1      -5.888  13.727  67.875  1.00  0.00    -0.131 C  
HETATM    9  C   UNL     1      -9.247   9.341  69.417  1.00  0.00    -0.159 C  
HETATM   10  H   UNL     1      -6.383  15.587  66.979  1.00  0.00     0.000 HD 
HETATM   11  O   UNL     1     -10.121   8.962  68.293  1.00  0.00    -0.173 OA 
HETATM   12  C   UNL     1      -5.471  10.118  71.584  1.00  0.00     0.019 A  
HETATM   13  C   UNL     1      -6.478  10.924  72.107  1.00  0.00     2.853 A  
HETATM   14  C   UNL     1      -9.483   8.163  67.271  1.00  0.00    -0.155 C  
HETATM   15  N   UNL     1      -6.497  14.573  66.943  1.00  0.00     1.017 N  
HETATM   16  N   UNL     1      -8.832   9.179  66.387  1.00  0.00    -0.135 NA 
HETATM   17  C   UNL     1     -10.366   7.377  66.242  1.00  0.00     0.304 C  
HETATM   18  C   UNL     1      -7.479  11.433  71.268  1.00  0.00     5.438 A  
HETATM   19  C   UNL     1      -9.311   9.835  65.149  1.00  0.00    -0.260 A  
HETATM   20  C   UNL     1      -8.723  11.167  64.978  1.00  0.00     0.040 A  
HETATM   21  N   UNL     1      -8.168  10.255  69.058  1.00  0.00    -0.128 NA 
HETATM   22  C   UNL     1      -7.302  13.928  65.917  1.00  0.00     4.993 C  
HETATM   23  C   UNL     1      -7.795  11.338  66.003  1.00  0.00     0.046 A  
HETATM   24  C   UNL     1      -9.139  11.999  63.907  1.00  0.00     0.523 A  
HETATM   25  C   UNL     1      -7.966  10.166  66.736  1.00  0.00    -0.115 A  
HETATM   26  C   UNL     1     -10.059  11.558  62.966  1.00  0.00    -0.330 A  
HETATM   27  C   UNL     1     -10.575  10.286  63.069  1.00  0.00     1.275 A  
HETATM   28  C   UNL     1      -7.360  10.239  67.957  1.00  0.00    -0.086 A  
HETATM   29  C   UNL     1      -6.193  11.066  67.989  1.00  0.00    -0.053 C  
HETATM   30  C   UNL     1     -10.221   9.433  64.130  1.00  0.00     2.197 A  
HETATM   31  C   UNL     1      -6.044  10.973  69.398  1.00  0.00    -0.060 A  
HETATM   32  C   UNL     1      -6.282  12.414  67.452  1.00  0.00    -0.158 C  
HETATM   33  C   UNL     1      -7.378  11.082  69.921  1.00  0.00     0.181 A  
HETATM   34  C   UNL     1      -7.124  12.532  66.330  1.00  0.00     1.503 A  
BRANCH   4  35
HETATM   35  N   UNL     1      -7.819   5.743  70.158  1.00  0.00    -0.097 N  
HETATM   36  C   UNL     1      -8.096   5.691  71.602  1.00  0.00    -0.118 C  
HETATM   37  C   UNL     1      -7.526   4.475  69.620  1.00  0.00    -0.051 C  
HETATM   38  O   UNL     1      -7.423   3.453  70.321  1.00  0.00    -0.041 OA 
BRANCH  37  39
HETATM   39  C   UNL     1      -7.244   4.261  68.187  1.00  0.00    -0.060 A  
HETATM   40  C   UNL     1      -5.711   4.519  66.324  1.00  0.00    -0.022 A  
HETATM   41  C   UNL     1      -6.030   4.727  67.671  1.00  0.00    -0.023 A  
HETATM   42  C   UNL     1      -6.606   3.861  65.490  1.00  0.00    -0.040 A  
HETATM   43  C   UNL     1      -7.792   3.351  66.023  1.00  0.00    -0.082 A  
HETATM   44  C   UNL     1      -8.077   3.499  67.377  1.00  0.00    -0.082 A  
ENDBRANCH  37  39
ENDBRANCH   4  35
ENDBRANCH   2   3
TORSDOF 3
ENDMDL
MODEL      128
REMARK 921   NORMALIZED FREE ENERGY PREDICTED BY IDOCK:   17.42 KCAL/MOL
REMARK 922        TOTAL FREE ENERGY PREDICTED BY IDOCK:   19.95 KCAL/MOL
REMARK 923 INTER-LIGAND FREE ENERGY PREDICTED BY IDOCK:    6.61 KCAL/MOL
REMARK 924 INTRA-LIGAND FREE ENERGY PREDICTED BY IDOCK:   13.34 KCAL/MOL
REMARK 927      BINDING AFFINITY PREDICTED BY RF-SCORE:    0.00 PKD
ROOT
HETATM    1  C   UNL     1      -9.241  11.151  71.491  1.00  0.00     9.420 C  
HETATM    2  O   UNL     1      -9.506   9.909  70.837  1.00  0.00     0.001 OA 
ENDROOT
BRANCH   2   3
HETATM    3  C   UNL     1      -8.395   9.012  70.431  1.00  0.00    -0.164 C  
HETATM    4  C   UNL     1      -7.985   9.466  69.007  1.00  0.00    -0.091 C  
HETATM    5  C   UNL     1      -8.896   8.799  67.975  1.00  0.00    -0.141 C  
HETATM    6  O   UNL     1      -5.585   3.077  65.528  1.00  0.00    -0.016 OA 
HETATM    7  C   UNL     1      -5.748   7.283  66.087  1.00  0.00    -0.032 A  
HETATM    8  C   UNL     1      -5.887   3.005  66.715  1.00  0.00    -0.023 C  
HETATM    9  C   UNL     1      -9.265   7.346  68.339  1.00  0.00    -0.138 C  
HETATM   10  H   UNL     1      -6.201   0.907  66.818  1.00  0.00     0.000 HD 
HETATM   11  O   UNL     1      -9.721   7.132  69.724  1.00  0.00    -0.165 OA 
HETATM   12  C   UNL     1      -6.402   7.882  65.012  1.00  0.00    -0.041 A  
HETATM   13  C   UNL     1      -7.572   7.304  64.526  1.00  0.00    -0.107 A  
HETATM   14  C   UNL     1      -8.748   7.459  70.741  1.00  0.00    -0.145 C  
HETATM   15  N   UNL     1      -6.232   1.793  67.323  1.00  0.00    -0.023 N  
HETATM   16  N   UNL     1      -7.924   6.215  70.850  1.00  0.00    -0.113 NA 
HETATM   17  C   UNL     1      -9.217   7.651  72.225  1.00  0.00    -0.189 C  
HETATM   18  C   UNL     1      -8.296   6.406  65.322  1.00  0.00    -0.131 A  
HETATM   19  C   UNL     1      -8.039   5.054  71.762  1.00  0.00    -0.115 A  
HETATM   20  C   UNL     1      -7.516   3.829  71.148  1.00  0.00    -0.044 A  
HETATM   21  N   UNL     1      -8.189   6.455  67.917  1.00  0.00    -0.115 NA 
HETATM   22  C   UNL     1      -6.637   1.867  68.718  1.00  0.00    -0.029 C  
HETATM   23  C   UNL     1      -6.963   4.192  69.921  1.00  0.00    -0.042 A  
HETATM   24  C   UNL     1      -7.634   2.586  71.821  1.00  0.00    -0.041 A  
HETATM   25  C   UNL     1      -7.275   5.547  69.861  1.00  0.00    -0.068 A  
HETATM   26  C   UNL     1      -8.187   2.504  73.092  1.00  0.00    -0.069 A  
HETATM   27  C   UNL     1      -8.626   3.650  73.714  1.00  0.00    -0.086 A  
HETATM   28  C   UNL     1      -7.082   6.058  68.609  1.00  0.00    -0.082 A  
HETATM   29  C   UNL     1      -6.038   5.421  67.867  1.00  0.00    -0.022 C  
HETATM   30  C   UNL     1      -8.561   4.903  73.077  1.00  0.00    -0.110 A  
HETATM   31  C   UNL     1      -6.326   6.124  66.668  1.00  0.00    -0.045 A  
HETATM   32  C   UNL     1      -6.044   3.970  67.764  1.00  0.00    -0.032 C  
HETATM   33  C   UNL     1      -7.760   6.147  66.585  1.00  0.00    -0.103 A  
HETATM   34  C   UNL     1      -6.505   3.313  68.921  1.00  0.00    -0.030 A  
BRANCH   4  35
HETATM   35  N   UNL     1      -7.903  11.011  68.838  1.00  0.00    -0.137 N  
HETATM   36  C   UNL     1      -6.653  11.628  68.369  1.00  0.00    -0.061 C  
HETATM   37  C   UNL     1      -8.969  11.931  68.894  1.00  0.00     0.172 C  
HETATM   38  O   UNL     1      -8.825  13.144  68.664  1.00  0.00    -0.088 OA 
BRANCH  37  39
HETATM   39  C   UNL     1     -10.334  11.547  69.305  1.00  0.00    -0.010 A  
HETATM   40  C   UNL     1     -12.715  12.011  69.244  1.00  0.00     0.787 A  
HETATM   41  C   UNL     1     -11.403  12.356  68.901  1.00  0.00    -0.342 A  
HETATM   42  C   UNL     1     -12.960  10.872  70.001  1.00  0.00     0.046 A  
HETATM   43  C   UNL     1     -11.895  10.042  70.356  1.00  0.00    -0.343 A  
HETATM   44  C   UNL     1     -10.599  10.350  69.956  1.00  0.00    -0.282 A  
ENDBRANCH  37  39
ENDBRANCH   4  35
ENDBRANCH   2   3
TORSDOF 3
ENDMDL
MODEL      129
REMARK 921   NORMALIZED FREE ENERGY PREDICTED BY IDOCK:   18.81 KCAL/MOL
REMARK 922        TOTAL FREE ENERGY PREDICTED BY IDOCK:   21.58 KCAL/MOL
REMARK 923 INTER-LIGAND FREE ENERGY PREDICTED BY IDOCK:   16.15 KCAL/MOL
REMARK 924 INTRA-LIGAND FREE ENERGY PREDICTED BY IDOCK:    5.43 KCAL/MOL
REMARK 927      BINDING AFFINITY PREDICTED BY RF-SCORE:    0.00 PKD
ROOT
HETATM    1  C   UNL     1      -8.505  10.443  71.791  1.00  0.00     5.478 C  
HETATM    2  O   UNL     1      -9.538   9.670  71.177  1.00  0.00    -0.151 OA 
ENDROOT
BRANCH   2   3
HETATM    3  C   UNL     1      -9.652   9.593  69.700  1.00  0.00    -0.208 C  
HETATM    4  C   UNL     1      -9.091   8.204  69.304  1.00  0.00    -0.151 C  
HETATM    5  C   UNL     1      -7.569   8.284  69.179  1.00  0.00    -0.088 C  
HETATM    6  O   UNL     1      -5.995   9.237  62.374  1.00  0.00    -0.090 OA 
HETATM    7  C   UNL     1      -7.742   6.902  65.460  1.00  0.00    -0.101 A  
HETATM    8  C   UNL     1      -6.594  10.180  62.881  1.00  0.00    -0.133 C  
HETATM    9  C   UNL     1      -7.078   9.612  68.567  1.00  0.00    -0.069 C  
HETATM   10  H   UNL     1      -5.735  11.739  61.724  1.00  0.00     0.000 HD 
HETATM   11  O   UNL     1      -7.667  10.835  69.143  1.00  0.00    -0.125 OA 
HETATM   12  C   UNL     1      -6.795   6.028  65.992  1.00  0.00    -0.061 A  
HETATM   13  C   UNL     1      -5.515   6.505  66.263  1.00  0.00    -0.014 A  
HETATM   14  C   UNL     1      -9.100  10.947  68.994  1.00  0.00    -0.098 C  
HETATM   15  N   UNL     1      -6.372  11.503  62.486  1.00  0.00     0.592 N  
HETATM   16  N   UNL     1      -9.266  11.541  67.631  1.00  0.00    -0.168 NA 
HETATM   17  C   UNL     1      -9.890  11.972  69.878  1.00  0.00     1.956 C  
HETATM   18  C   UNL     1      -5.290   7.882  66.392  1.00  0.00    -0.025 A  
HETATM   19  C   UNL     1      -9.415  12.950  67.201  1.00  0.00    -0.229 A  
HETATM   20  C   UNL     1      -8.899  13.161  65.845  1.00  0.00     0.636 A  
HETATM   21  N   UNL     1      -7.161   9.533  67.113  1.00  0.00    -0.086 NA 
HETATM   22  C   UNL     1      -7.100  12.525  63.221  1.00  0.00     7.475 C  
HETATM   23  C   UNL     1      -8.532  11.911  65.350  1.00  0.00     0.708 A  
HETATM   24  C   UNL     1      -8.854  14.467  65.293  1.00  0.00     2.119 A  
HETATM   25  C   UNL     1      -8.765  11.092  66.452  1.00  0.00    -0.177 A  
HETATM   26  C   UNL     1      -9.348  15.562  65.989  1.00  0.00    -0.379 A  
HETATM   27  C   UNL     1      -9.897  15.378  67.237  1.00  0.00    -0.217 A  
HETATM   28  C   UNL     1      -8.203   9.857  66.293  1.00  0.00    -0.114 A  
HETATM   29  C   UNL     1      -8.134   9.410  64.936  1.00  0.00    -0.128 C  
HETATM   30  C   UNL     1      -9.936  14.109  67.843  1.00  0.00    -0.231 A  
HETATM   31  C   UNL     1      -7.371   8.255  65.251  1.00  0.00    -0.081 A  
HETATM   32  C   UNL     1      -7.554  10.297  63.941  1.00  0.00    -0.084 C  
HETATM   33  C   UNL     1      -6.410   8.698  66.223  1.00  0.00    -0.061 A  
HETATM   34  C   UNL     1      -7.828  11.661  64.156  1.00  0.00     1.969 A  
BRANCH   4  35
HETATM   35  N   UNL     1      -9.565   7.047  70.231  1.00  0.00    -0.169 N  
HETATM   36  C   UNL     1     -10.118   7.356  71.559  1.00  0.00    -0.185 C  
HETATM   37  C   UNL     1      -9.719   5.689  69.888  1.00  0.00    -0.168 C  
HETATM   38  O   UNL     1     -10.185   4.844  70.672  1.00  0.00    -0.238 OA 
BRANCH  37  39
HETATM   39  C   UNL     1      -9.273   5.138  68.593  1.00  0.00    -0.150 A  
HETATM   40  C   UNL     1      -7.950   3.493  67.396  1.00  0.00    -0.082 A  
HETATM   41  C   UNL     1      -8.375   4.064  68.601  1.00  0.00    -0.093 A  
HETATM   42  C   UNL     1      -8.407   4.001  66.185  1.00  0.00    -0.108 A  
HETATM   43  C   UNL     1      -9.343   5.037  66.186  1.00  0.00    -0.157 A  
HETATM   44  C   UNL     1      -9.816   5.558  67.386  1.00  0.00    -0.167 A  
ENDBRANCH  37  39
ENDBRANCH   4  35
ENDBRANCH   2   3
TORSDOF 3
ENDMDL
MODEL      130
REMARK 921   NORMALIZED FREE ENERGY PREDICTED BY IDOCK:   19.15 KCAL/MOL
REMARK 922        TOTAL FREE ENERGY PREDICTED BY IDOCK:   21.98 KCAL/MOL
REMARK 923 INTER-LIGAND FREE ENERGY PREDICTED BY IDOCK:   12.06 KCAL/MOL
REMARK 924 INTRA-LIGAND FREE ENERGY PREDICTED BY IDOCK:    9.92 KCAL/MOL
REMARK 927      BINDING AFFINITY PREDICTED BY RF-SCORE:    0.00 PKD
ROOT
HETATM    1  C   UNL     1      -9.852  10.212  64.965  1.00  0.00    -0.322 C  
HETATM    2  O   UNL     1     -10.539  11.362  65.464  1.00  0.00    -0.268 OA 
ENDROOT
BRANCH   2   3
HETATM    3  C   UNL     1     -10.240  11.898  66.814  1.00  0.00    -0.206 C  
HETATM    4  C   UNL     1     -10.929  10.933  67.813  1.00  0.00    -0.283 C  
HETATM    5  C   UNL     1     -12.395  11.334  67.982  1.00  0.00     0.756 C  
HETATM    6  O   UNL     1     -12.903  15.344  73.756  1.00  0.00    -0.517 OA 
HETATM    7  C   UNL     1     -11.919  11.649  71.912  1.00  0.00     1.536 A  
HETATM    8  C   UNL     1     -12.253  15.858  72.852  1.00  0.00    -0.500 C  
HETATM    9  C   UNL     1     -12.613  12.861  67.976  1.00  0.00     0.954 C  
HETATM   10  H   UNL     1     -12.729  17.888  73.255  1.00  0.00     0.000 HD 
HETATM   11  O   UNL     1     -11.945  13.596  66.888  1.00  0.00    -0.386 OA 
HETATM   12  C   UNL     1     -13.040  10.820  71.876  1.00  0.00    -0.557 A  
HETATM   13  C   UNL     1     -14.267  11.361  71.501  1.00  0.00     2.024 A  
HETATM   14  C   UNL     1     -10.503  13.498  66.885  1.00  0.00    -0.271 C  
HETATM   15  N   UNL     1     -12.237  17.241  72.638  1.00  0.00     1.248 N  
HETATM   16  N   UNL     1     -10.077  14.573  67.836  1.00  0.00    -0.225 NA 
HETATM   17  C   UNL     1      -9.705  13.891  65.595  1.00  0.00    -0.157 C  
HETATM   18  C   UNL     1     -14.316  12.570  70.794  1.00  0.00     4.364 A  
HETATM   19  C   UNL     1      -9.680  15.978  67.593  1.00  0.00    -0.224 A  
HETATM   20  C   UNL     1      -9.977  16.832  68.747  1.00  0.00    -0.269 A  
HETATM   21  N   UNL     1     -12.349  13.391  69.310  1.00  0.00    -0.157 NA 
HETATM   22  C   UNL     1     -11.480  17.705  71.486  1.00  0.00     2.659 C  
HETATM   23  C   UNL     1     -10.443  15.999  69.762  1.00  0.00    -0.300 A  
HETATM   24  C   UNL     1      -9.769  18.233  68.671  1.00  0.00    -0.379 A  
HETATM   25  C   UNL     1     -10.473  14.764  69.120  1.00  0.00    -0.239 A  
HETATM   26  C   UNL     1      -9.226  18.821  67.536  1.00  0.00    -0.306 A  
HETATM   27  C   UNL     1      -8.879  18.030  66.464  1.00  0.00    -0.276 A  
HETATM   28  C   UNL     1     -11.172  13.836  69.839  1.00  0.00     0.007 A  
HETATM   29  C   UNL     1     -11.121  14.026  71.256  1.00  0.00     1.517 C  
HETATM   30  C   UNL     1      -9.095  16.641  66.477  1.00  0.00    -0.303 A  
HETATM   31  C   UNL     1     -12.070  13.006  71.527  1.00  0.00     0.486 A  
HETATM   32  C   UNL     1     -11.437  15.340  71.793  1.00  0.00    -0.494 C  
HETATM   33  C   UNL     1     -13.082  13.162  70.519  1.00  0.00     0.309 A  
HETATM   34  C   UNL     1     -11.009  16.410  70.984  1.00  0.00     0.157 A  
BRANCH   4  35
HETATM   35  N   UNL     1     -10.746   9.428  67.462  1.00  0.00    -0.268 N  
HETATM   36  C   UNL     1     -11.889   8.509  67.575  1.00  0.00     3.519 C  
HETATM   37  C   UNL     1      -9.633   8.827  66.843  1.00  0.00    -0.190 C  
HETATM   38  O   UNL     1      -9.606   7.626  66.523  1.00  0.00    -0.197 OA 
BRANCH  37  39
HETATM   39  C   UNL     1      -8.373   9.554  66.586  1.00  0.00    -0.116 A  
HETATM   40  C   UNL     1      -6.087  10.018  67.251  1.00  0.00    -0.058 A  
HETATM   41  C   UNL     1      -7.307   9.371  67.474  1.00  0.00    -0.084 A  
HETATM   42  C   UNL     1      -5.934  10.857  66.154  1.00  0.00    -0.141 A  
HETATM   43  C   UNL     1      -6.984  10.994  65.244  1.00  0.00     0.364 A  
HETATM   44  C   UNL     1      -8.173  10.296  65.430  1.00  0.00    -0.156 A  
ENDBRANCH  37  39
ENDBRANCH   4  35
ENDBRANCH   2   3
TORSDOF 3
ENDMDL
MODEL      131
REMARK 921   NORMALIZED FREE ENERGY PREDICTED BY IDOCK:   19.26 KCAL/MOL
REMARK 922        TOTAL FREE ENERGY PREDICTED BY IDOCK:   22.11 KCAL/MOL
REMARK 923 INTER-LIGAND FREE ENERGY PREDICTED BY IDOCK:   16.48 KCAL/MOL
REMARK 924 INTRA-LIGAND FREE ENERGY PREDICTED BY IDOCK:    5.63 KCAL/MOL
REMARK 927      BINDING AFFINITY PREDICTED BY RF-SCORE:    0.00 PKD
ROOT
HETATM    1  C   UNL     1     -11.586   8.232  69.148  1.00  0.00     0.985 C  
HETATM    2  O   UNL     1     -11.281   8.935  67.942  1.00  0.00     0.138 OA 
ENDROOT
BRANCH   2   3
HETATM    3  C   UNL     1     -10.591  10.247  67.981  1.00  0.00    -0.231 C  
HETATM    4  C   UNL     1     -10.371  10.564  69.482  1.00  0.00    -0.221 C  
HETATM    5  C   UNL     1     -11.630  11.213  70.059  1.00  0.00    -0.421 C  
HETATM    6  O   UNL     1     -10.720  18.202  69.948  1.00  0.00     0.690 OA 
HETATM    7  C   UNL     1      -9.527  14.351  71.281  1.00  0.00     4.343 A  
HETATM    8  C   UNL     1     -10.778  17.693  68.834  1.00  0.00     0.002 C  
HETATM    9  C   UNL     1     -12.324  12.175  69.073  1.00  0.00     0.198 C  
HETATM   10  H   UNL     1     -11.663  19.323  67.803  1.00  0.00     0.000 HD 
HETATM   11  O   UNL     1     -12.526  11.654  67.709  1.00  0.00    -0.025 OA 
HETATM   12  C   UNL     1     -10.185  14.032  72.468  1.00  0.00     6.961 A  
HETATM   13  C   UNL     1     -11.546  14.300  72.578  1.00  0.00     0.939 A  
HETATM   14  C   UNL     1     -11.311  11.322  67.000  1.00  0.00    -0.187 C  
HETATM   15  N   UNL     1     -11.328  18.362  67.736  1.00  0.00     0.324 N  
HETATM   16  N   UNL     1     -10.882  12.627  66.408  1.00  0.00    -0.264 NA 
HETATM   17  C   UNL     1     -11.385  10.412  65.725  1.00  0.00     1.000 C  
HETATM   18  C   UNL     1     -12.320  14.496  71.425  1.00  0.00    -0.425 A  
HETATM   19  C   UNL     1     -11.141  13.217  65.075  1.00  0.00    -0.301 A  
HETATM   20  C   UNL     1     -11.137  14.682  65.121  1.00  0.00    -0.382 A  
HETATM   21  N   UNL     1     -11.668  13.477  69.127  1.00  0.00    -0.305 NA 
HETATM   22  C   UNL     1     -11.395  17.611  66.493  1.00  0.00     1.079 C  
HETATM   23  C   UNL     1     -10.770  15.049  66.413  1.00  0.00    -0.322 A  
HETATM   24  C   UNL     1     -11.472  15.434  63.965  1.00  0.00     0.162 A  
HETATM   25  C   UNL     1     -10.677  13.810  67.042  1.00  0.00    -0.283 A  
HETATM   26  C   UNL     1     -11.749  14.811  62.755  1.00  0.00     3.660 A  
HETATM   27  C   UNL     1     -11.694  13.438  62.672  1.00  0.00     2.065 A  
HETATM   28  C   UNL     1     -10.607  13.935  68.400  1.00  0.00    -0.255 A  
HETATM   29  C   UNL     1      -9.973  15.135  68.851  1.00  0.00    -0.227 C  
HETATM   30  C   UNL     1     -11.400  12.646  63.797  1.00  0.00    -0.529 A  
HETATM   31  C   UNL     1     -10.284  14.905  70.217  1.00  0.00     0.175 A  
HETATM   32  C   UNL     1     -10.424  16.406  68.307  1.00  0.00    -0.302 C  
HETATM   33  C   UNL     1     -11.633  14.411  70.213  1.00  0.00    -0.248 A  
HETATM   34  C   UNL     1     -10.807  16.349  66.953  1.00  0.00    -0.118 A  
BRANCH   4  35
HETATM   35  N   UNL     1      -9.878   9.346  70.317  1.00  0.00    -0.226 N  
HETATM   36  C   UNL     1     -10.826   8.285  70.689  1.00  0.00    -0.236 C  
HETATM   37  C   UNL     1      -8.545   9.007  70.623  1.00  0.00    -0.210 C  
HETATM   38  O   UNL     1      -8.237   7.965  71.227  1.00  0.00    -0.095 OA 
BRANCH  37  39
HETATM   39  C   UNL     1      -7.405   9.894  70.317  1.00  0.00    -0.166 A  
HETATM   40  C   UNL     1      -6.474  11.656  68.934  1.00  0.00    -0.071 A  
HETATM   41  C   UNL     1      -7.520  10.778  69.239  1.00  0.00    -0.135 A  
HETATM   42  C   UNL     1      -5.310  11.642  69.692  1.00  0.00    -0.065 A  
HETATM   43  C   UNL     1      -5.222  10.795  70.799  1.00  0.00    -0.091 A  
HETATM   44  C   UNL     1      -6.290   9.971  71.141  1.00  0.00     0.099 A  
ENDBRANCH  37  39
ENDBRANCH   4  35
ENDBRANCH   2   3
TORSDOF 3
ENDMDL
MODEL      132
REMARK 921   NORMALIZED FREE ENERGY PREDICTED BY IDOCK:   19.60 KCAL/MOL
REMARK 922        TOTAL FREE ENERGY PREDICTED BY IDOCK:   22.51 KCAL/MOL
REMARK 923 INTER-LIGAND FREE ENERGY PREDICTED BY IDOCK:   20.79 KCAL/MOL
REMARK 924 INTRA-LIGAND FREE ENERGY PREDICTED BY IDOCK:    1.72 KCAL/MOL
REMARK 927      BINDING AFFINITY PREDICTED BY RF-SCORE:    0.00 PKD
ROOT
HETATM    1  C   UNL     1      -9.093  17.445  69.281  1.00  0.00     0.180 C  
HETATM    2  O   UNL     1      -8.252  16.305  69.097  1.00  0.00    -0.241 OA 
ENDROOT
BRANCH   2   3
HETATM    3  C   UNL     1      -8.829  14.983  68.748  1.00  0.00    -0.192 C  
HETATM    4  C   UNL     1      -7.912  13.930  69.420  1.00  0.00     0.441 C  
HETATM    5  C   UNL     1      -6.714  13.642  68.513  1.00  0.00    -0.095 C  
HETATM    6  O   UNL     1      -8.168   7.850  64.768  1.00  0.00    -0.148 OA 
HETATM    7  C   UNL     1      -7.572   9.765  68.511  1.00  0.00    -0.080 A  
HETATM    8  C   UNL     1      -8.890   8.805  64.503  1.00  0.00     0.033 C  
HETATM    9  C   UNL     1      -7.076  13.632  67.014  1.00  0.00     0.542 C  
HETATM   10  H   UNL     1      -9.230   8.366  62.454  1.00  0.00     0.000 HD 
HETATM   11  O   UNL     1      -7.884  14.772  66.545  1.00  0.00     0.273 OA 
HETATM   12  C   UNL     1      -6.225   9.708  68.867  1.00  0.00    -0.042 A  
HETATM   13  C   UNL     1      -5.260   9.982  67.902  1.00  0.00    -0.038 A  
HETATM   14  C   UNL     1      -9.183  14.893  67.166  1.00  0.00    -0.220 C  
HETATM   15  N   UNL     1      -9.399   9.021  63.218  1.00  0.00     0.579 N  
HETATM   16  N   UNL     1     -10.047  13.982  66.353  1.00  0.00    -0.286 NA 
HETATM   17  C   UNL     1      -9.969  16.244  67.058  1.00  0.00    -0.255 C  
HETATM   18  C   UNL     1      -5.607  10.684  66.739  1.00  0.00    -0.060 A  
HETATM   19  C   UNL     1     -10.915  14.258  65.186  1.00  0.00    -0.363 A  
HETATM   20  C   UNL     1     -11.044  13.084  64.316  1.00  0.00    -0.418 A  
HETATM   21  N   UNL     1      -7.619  12.325  66.657  1.00  0.00     0.117 NA 
HETATM   22  C   UNL     1     -10.184  10.231  63.032  1.00  0.00     0.558 C  
HETATM   23  C   UNL     1     -10.383  12.033  64.949  1.00  0.00    -0.316 A  
HETATM   24  C   UNL     1     -11.749  13.178  63.089  1.00  0.00    -0.054 A  
HETATM   25  C   UNL     1      -9.849  12.669  66.067  1.00  0.00    -0.254 A  
HETATM   26  C   UNL     1     -12.382  14.354  62.709  1.00  0.00     2.174 A  
HETATM   27  C   UNL     1     -12.329  15.450  63.541  1.00  0.00     0.995 A  
HETATM   28  C   UNL     1      -8.914  11.895  66.692  1.00  0.00    -0.198 A  
HETATM   29  C   UNL     1      -9.140  10.487  66.576  1.00  0.00    -0.175 C  
HETATM   30  C   UNL     1     -11.616  15.419  64.753  1.00  0.00    -0.286 A  
HETATM   31  C   UNL     1      -7.904  10.138  67.182  1.00  0.00    -0.099 A  
HETATM   32  C   UNL     1      -9.374   9.927  65.255  1.00  0.00    -0.309 C  
HETATM   33  C   UNL     1      -6.948  11.060  66.635  1.00  0.00    -0.140 A  
HETATM   34  C   UNL     1     -10.104  10.769  64.394  1.00  0.00    -0.419 A  
BRANCH   4  35
HETATM   35  N   UNL     1      -7.498  14.293  70.876  1.00  0.00     1.596 N  
HETATM   36  C   UNL     1      -6.074  14.330  71.242  1.00  0.00    -0.035 C  
HETATM   37  C   UNL     1      -8.328  14.799  71.896  1.00  0.00     5.492 C  
HETATM   38  O   UNL     1      -7.894  15.142  73.010  1.00  0.00     6.042 OA 
BRANCH  37  39
HETATM   39  C   UNL     1      -9.794  14.897  71.757  1.00  0.00     3.215 A  
HETATM   40  C   UNL     1     -11.859  15.999  72.396  1.00  0.00    -0.639 A  
HETATM   41  C   UNL     1     -10.473  15.854  72.520  1.00  0.00     2.909 A  
HETATM   42  C   UNL     1     -12.570  15.181  71.526  1.00  0.00    -0.425 A  
HETATM   43  C   UNL     1     -11.880  14.264  70.730  1.00  0.00    -0.336 A  
HETATM   44  C   UNL     1     -10.495  14.169  70.804  1.00  0.00     1.767 A  
ENDBRANCH  37  39
ENDBRANCH   4  35
ENDBRANCH   2   3
TORSDOF 3
ENDMDL
MODEL      133
REMARK 921   NORMALIZED FREE ENERGY PREDICTED BY IDOCK:   19.67 KCAL/MOL
REMARK 922        TOTAL FREE ENERGY PREDICTED BY IDOCK:   22.59 KCAL/MOL
REMARK 923 INTER-LIGAND FREE ENERGY PREDICTED BY IDOCK:   18.27 KCAL/MOL
REMARK 924 INTRA-LIGAND FREE ENERGY PREDICTED BY IDOCK:    4.32 KCAL/MOL
REMARK 927      BINDING AFFINITY PREDICTED BY RF-SCORE:    0.00 PKD
ROOT
HETATM    1  C   UNL     1      -9.687  10.743  72.943  1.00  0.00    13.899 C  
HETATM    2  O   UNL     1     -10.037  10.667  71.559  1.00  0.00     2.480 OA 
ENDROOT
BRANCH   2   3
HETATM    3  C   UNL     1      -8.989  10.537  70.517  1.00  0.00     1.569 C  
HETATM    4  C   UNL     1      -9.464  11.411  69.329  1.00  0.00     0.285 C  
HETATM    5  C   UNL     1     -10.428  10.606  68.455  1.00  0.00    -0.212 C  
HETATM    6  O   UNL     1      -6.748   7.889  63.092  1.00  0.00    -0.077 OA 
HETATM    7  C   UNL     1      -8.166  11.255  65.257  1.00  0.00     0.320 A  
HETATM    8  C   UNL     1      -6.431   7.439  64.188  1.00  0.00    -0.048 C  
HETATM    9  C   UNL     1     -10.032   9.121  68.323  1.00  0.00    -0.175 C  
HETATM   10  H   UNL     1      -5.874   5.488  63.563  1.00  0.00     0.000 HD 
HETATM   11  O   UNL     1      -9.700   8.435  69.584  1.00  0.00    -0.170 OA 
HETATM   12  C   UNL     1      -9.403  11.658  64.756  1.00  0.00     0.000 A  
HETATM   13  C   UNL     1     -10.363  10.691  64.471  1.00  0.00    -0.352 A  
HETATM   14  C   UNL     1      -8.568   8.985  70.294  1.00  0.00    -0.178 C  
HETATM   15  N   UNL     1      -5.994   6.120  64.354  1.00  0.00    -0.025 N  
HETATM   16  N   UNL     1      -7.393   8.317  69.653  1.00  0.00    -0.071 NA 
HETATM   17  C   UNL     1      -8.349   8.617  71.802  1.00  0.00    -0.203 C  
HETATM   18  C   UNL     1     -10.264   9.413  65.039  1.00  0.00     0.859 A  
HETATM   19  C   UNL     1      -6.650   7.093  70.030  1.00  0.00    -0.050 A  
HETATM   20  C   UNL     1      -6.054   6.438  68.861  1.00  0.00    -0.029 A  
HETATM   21  N   UNL     1      -9.022   8.982  67.279  1.00  0.00    -0.126 NA 
HETATM   22  C   UNL     1      -5.720   5.701  65.720  1.00  0.00    -0.014 C  
HETATM   23  C   UNL     1      -6.291   7.265  67.766  1.00  0.00    -0.048 A  
HETATM   24  C   UNL     1      -5.391   5.192  69.002  1.00  0.00    -0.004 A  
HETATM   25  C   UNL     1      -7.068   8.271  68.335  1.00  0.00    -0.081 A  
HETATM   26  C   UNL     1      -5.237   4.592  70.244  1.00  0.00     0.000 A  
HETATM   27  C   UNL     1      -5.732   5.221  71.365  1.00  0.00    -0.013 A  
HETATM   28  C   UNL     1      -7.663   9.051  67.385  1.00  0.00    -0.092 A  
HETATM   29  C   UNL     1      -6.916   9.176  66.172  1.00  0.00    -0.086 C  
HETATM   30  C   UNL     1      -6.425   6.441  71.276  1.00  0.00    -0.050 A  
HETATM   31  C   UNL     1      -7.949   9.873  65.491  1.00  0.00    -0.128 A  
HETATM   32  C   UNL     1      -6.438   7.967  65.522  1.00  0.00    -0.042 C  
HETATM   33  C   UNL     1      -9.162   9.203  65.870  1.00  0.00    -0.227 A  
HETATM   34  C   UNL     1      -6.049   6.949  66.415  1.00  0.00    -0.034 A  
BRANCH   4  35
HETATM   35  N   UNL     1     -10.039  12.793  69.755  1.00  0.00     1.282 N  
HETATM   36  C   UNL     1      -9.368  14.028  69.321  1.00  0.00     0.407 C  
HETATM   37  C   UNL     1     -11.280  13.045  70.373  1.00  0.00     0.821 C  
HETATM   38  O   UNL     1     -11.697  14.193  70.603  1.00  0.00    -0.277 OA 
BRANCH  37  39
HETATM   39  C   UNL     1     -12.159  11.967  70.867  1.00  0.00    -0.203 A  
HETATM   40  C   UNL     1     -13.885  11.260  72.419  1.00  0.00     0.521 A  
HETATM   41  C   UNL     1     -13.015  12.245  71.939  1.00  0.00    -0.411 A  
HETATM   42  C   UNL     1     -13.892   9.996  71.842  1.00  0.00    -0.121 A  
HETATM   43  C   UNL     1     -13.074   9.741  70.739  1.00  0.00    -0.196 A  
HETATM   44  C   UNL     1     -12.259  10.742  70.220  1.00  0.00    -0.431 A  
ENDBRANCH  37  39
ENDBRANCH   4  35
ENDBRANCH   2   3
TORSDOF 3
ENDMDL
MODEL      134
REMARK 921   NORMALIZED FREE ENERGY PREDICTED BY IDOCK:   19.83 KCAL/MOL
REMARK 922        TOTAL FREE ENERGY PREDICTED BY IDOCK:   22.79 KCAL/MOL
REMARK 923 INTER-LIGAND FREE ENERGY PREDICTED BY IDOCK:   21.73 KCAL/MOL
REMARK 924 INTRA-LIGAND FREE ENERGY PREDICTED BY IDOCK:    1.05 KCAL/MOL
REMARK 927      BINDING AFFINITY PREDICTED BY RF-SCORE:    0.00 PKD
ROOT
HETATM    1  C   UNL     1      -9.632  13.798  64.940  1.00  0.00     0.446 C  
HETATM    2  O   UNL     1      -9.438  14.054  66.332  1.00  0.00    -0.282 OA 
ENDROOT
BRANCH   2   3
HETATM    3  C   UNL     1      -9.014  12.970  67.252  1.00  0.00    -0.212 C  
HETATM    4  C   UNL     1      -7.671  12.440  66.690  1.00  0.00     0.251 C  
HETATM    5  C   UNL     1      -7.946  11.403  65.600  1.00  0.00     0.335 C  
HETATM    6  O   UNL     1      -7.566   5.008  68.541  1.00  0.00    -0.076 OA 
HETATM    7  C   UNL     1      -5.752   8.710  67.525  1.00  0.00    -0.039 A  
HETATM    8  C   UNL     1      -8.498   5.688  68.955  1.00  0.00    -0.102 C  
HETATM    9  C   UNL     1      -9.161  10.503  65.910  1.00  0.00    -0.168 C  
HETATM   10  H   UNL     1      -9.867   4.114  69.351  1.00  0.00     0.000 HD 
HETATM   11  O   UNL     1     -10.380  11.206  66.347  1.00  0.00    -0.236 OA 
HETATM   12  C   UNL     1      -5.172   8.626  66.260  1.00  0.00    -0.031 A  
HETATM   13  C   UNL     1      -5.883   8.013  65.232  1.00  0.00    -0.041 A  
HETATM   14  C   UNL     1     -10.241  11.957  67.575  1.00  0.00    -0.196 C  
HETATM   15  N   UNL     1      -9.717   5.123  69.347  1.00  0.00    -0.160 N  
HETATM   16  N   UNL     1     -10.482  10.935  68.640  1.00  0.00    -0.184 NA 
HETATM   17  C   UNL     1     -11.309  13.044  67.940  1.00  0.00    -0.327 C  
HETATM   18  C   UNL     1      -7.271   7.853  65.334  1.00  0.00    -0.064 A  
HETATM   19  C   UNL     1     -11.719  10.563  69.363  1.00  0.00    -0.223 A  
HETATM   20  C   UNL     1     -11.693   9.162  69.796  1.00  0.00     0.322 A  
HETATM   21  N   UNL     1      -8.745   9.418  66.793  1.00  0.00    -0.127 NA 
HETATM   22  C   UNL     1     -10.758   6.056  69.750  1.00  0.00    -0.330 C  
HETATM   23  C   UNL     1     -10.433   8.660  69.479  1.00  0.00    -0.222 A  
HETATM   24  C   UNL     1     -12.833   8.584  70.413  1.00  0.00     0.889 A  
HETATM   25  C   UNL     1      -9.858   9.741  68.816  1.00  0.00    -0.169 A  
HETATM   26  C   UNL     1     -13.970   9.336  70.675  1.00  0.00     0.458 A  
HETATM   27  C   UNL     1     -13.993  10.670  70.335  1.00  0.00     1.793 A  
HETATM   28  C   UNL     1      -8.717   9.383  68.157  1.00  0.00    -0.124 A  
HETATM   29  C   UNL     1      -7.991   8.314  68.771  1.00  0.00    -0.114 C  
HETATM   30  C   UNL     1     -12.902  11.283  69.693  1.00  0.00     0.318 A  
HETATM   31  C   UNL     1      -7.063   8.198  67.702  1.00  0.00    -0.087 A  
HETATM   32  C   UNL     1      -8.707   7.098  69.119  1.00  0.00    -0.133 C  
HETATM   33  C   UNL     1      -7.852   8.334  66.509  1.00  0.00    -0.093 A  
HETATM   34  C   UNL     1     -10.028   7.313  69.556  1.00  0.00    -0.170 A  
BRANCH   4  35
HETATM   35  N   UNL     1      -6.695  13.562  66.229  1.00  0.00     3.185 N  
HETATM   36  C   UNL     1      -6.723  14.024  64.833  1.00  0.00    16.388 C  
HETATM   37  C   UNL     1      -5.876  14.366  67.045  1.00  0.00     1.266 C  
HETATM   38  O   UNL     1      -5.187  15.299  66.597  1.00  0.00     0.700 OA 
BRANCH  37  39
HETATM   39  C   UNL     1      -5.708  14.125  68.492  1.00  0.00    -0.095 A  
HETATM   40  C   UNL     1      -5.285  12.547  70.286  1.00  0.00    -0.109 A  
HETATM   41  C   UNL     1      -5.479  12.814  68.926  1.00  0.00    -0.067 A  
HETATM   42  C   UNL     1      -5.335  13.582  71.213  1.00  0.00    -0.196 A  
HETATM   43  C   UNL     1      -5.511  14.894  70.768  1.00  0.00    -0.142 A  
HETATM   44  C   UNL     1      -5.635  15.165  69.409  1.00  0.00    -0.097 A  
ENDBRANCH  37  39
ENDBRANCH   4  35
ENDBRANCH   2   3
TORSDOF 3
ENDMDL
MODEL      135
REMARK 921   NORMALIZED FREE ENERGY PREDICTED BY IDOCK:   19.97 KCAL/MOL
REMARK 922        TOTAL FREE ENERGY PREDICTED BY IDOCK:   22.94 KCAL/MOL
REMARK 923 INTER-LIGAND FREE ENERGY PREDICTED BY IDOCK:   19.89 KCAL/MOL
REMARK 924 INTRA-LIGAND FREE ENERGY PREDICTED BY IDOCK:    3.05 KCAL/MOL
REMARK 927      BINDING AFFINITY PREDICTED BY RF-SCORE:    0.00 PKD
ROOT
HETATM    1  C   UNL     1     -12.476  12.199  65.803  1.00  0.00     0.610 C  
HETATM    2  O   UNL     1     -12.482  12.229  67.231  1.00  0.00    -0.152 OA 
ENDROOT
BRANCH   2   3
HETATM    3  C   UNL     1     -11.615  13.175  67.975  1.00  0.00    -0.334 C  
HETATM    4  C   UNL     1     -11.772  12.806  69.471  1.00  0.00    -0.318 C  
HETATM    5  C   UNL     1     -13.010  13.498  70.042  1.00  0.00     0.371 C  
HETATM    6  O   UNL     1     -10.914  19.426  73.228  1.00  0.00     2.549 OA 
HETATM    7  C   UNL     1     -10.825  15.195  72.890  1.00  0.00     1.390 A  
HETATM    8  C   UNL     1     -10.745  19.431  72.013  1.00  0.00     4.257 C  
HETATM    9  C   UNL     1     -13.224  14.920  69.483  1.00  0.00     1.033 C  
HETATM   10  H   UNL     1     -11.011  21.510  71.679  1.00  0.00     0.000 HD 
HETATM   11  O   UNL     1     -13.123  15.051  68.019  1.00  0.00     1.706 OA 
HETATM   12  C   UNL     1     -11.833  14.632  73.671  1.00  0.00    -0.042 A  
HETATM   13  C   UNL     1     -13.104  15.201  73.644  1.00  0.00    -0.374 A  
HETATM   14  C   UNL     1     -11.834  14.701  67.465  1.00  0.00    -0.347 C  
HETATM   15  N   UNL     1     -10.842  20.600  71.251  1.00  0.00     4.154 N  
HETATM   16  N   UNL     1     -11.038  15.960  67.605  1.00  0.00    -0.303 NA 
HETATM   17  C   UNL     1     -11.704  14.421  65.929  1.00  0.00    -0.371 C  
HETATM   18  C   UNL     1     -13.478  16.037  72.583  1.00  0.00    -0.414 A  
HETATM   19  C   UNL     1     -10.808  17.070  66.654  1.00  0.00     0.034 A  
HETATM   20  C   UNL     1     -10.564  18.338  67.349  1.00  0.00    -0.425 A  
HETATM   21  N   UNL     1     -12.395  15.861  70.229  1.00  0.00    -0.295 NA 
HETATM   22  C   UNL     1     -10.687  20.445  69.813  1.00  0.00     0.971 C  
HETATM   23  C   UNL     1     -10.516  18.054  68.712  1.00  0.00    -0.182 A  
HETATM   24  C   UNL     1     -10.427  19.542  66.611  1.00  0.00    -0.593 A  
HETATM   25  C   UNL     1     -10.818  16.695  68.726  1.00  0.00    -0.331 A  
HETATM   26  C   UNL     1     -10.457  19.545  65.223  1.00  0.00     0.257 A  
HETATM   27  C   UNL     1     -10.619  18.357  64.547  1.00  0.00     3.708 A  
HETATM   28  C   UNL     1     -11.111  16.254  69.985  1.00  0.00    -0.348 A  
HETATM   29  C   UNL     1     -10.431  16.956  71.029  1.00  0.00     1.666 C  
HETATM   30  C   UNL     1     -10.793  17.140  65.232  1.00  0.00    -0.043 A  
HETATM   31  C   UNL     1     -11.146  16.306  72.069  1.00  0.00     0.524 A  
HETATM   32  C   UNL     1     -10.486  18.409  71.040  1.00  0.00     2.672 C  
HETATM   33  C   UNL     1     -12.505  16.247  71.604  1.00  0.00     0.006 A  
HETATM   34  C   UNL     1     -10.477  18.994  69.759  1.00  0.00     0.937 A  
BRANCH   4  35
HETATM   35  N   UNL     1     -11.750  11.274  69.747  1.00  0.00    -0.317 N  
HETATM   36  C   UNL     1     -12.667  10.699  70.744  1.00  0.00    -0.378 C  
HETATM   37  C   UNL     1     -11.073  10.285  69.007  1.00  0.00    -0.230 C  
HETATM   38  O   UNL     1     -11.179   9.070  69.250  1.00  0.00    -0.019 OA 
BRANCH  37  39
HETATM   39  C   UNL     1     -10.121  10.609  67.926  1.00  0.00    -0.194 A  
HETATM   40  C   UNL     1      -9.336  10.181  65.670  1.00  0.00    -0.250 A  
HETATM   41  C   UNL     1     -10.200   9.886  66.730  1.00  0.00    -0.301 A  
HETATM   42  C   UNL     1      -8.385  11.185  65.806  1.00  0.00    -0.041 A  
HETATM   43  C   UNL     1      -8.346  11.937  66.982  1.00  0.00    -0.178 A  
HETATM   44  C   UNL     1      -9.250  11.688  68.008  1.00  0.00    -0.178 A  
ENDBRANCH  37  39
ENDBRANCH   4  35
ENDBRANCH   2   3
TORSDOF 3
ENDMDL
MODEL      136
REMARK 921   NORMALIZED FREE ENERGY PREDICTED BY IDOCK:   21.12 KCAL/MOL
REMARK 922        TOTAL FREE ENERGY PREDICTED BY IDOCK:   24.30 KCAL/MOL
REMARK 923 INTER-LIGAND FREE ENERGY PREDICTED BY IDOCK:   23.43 KCAL/MOL
REMARK 924 INTRA-LIGAND FREE ENERGY PREDICTED BY IDOCK:    0.86 KCAL/MOL
REMARK 927      BINDING AFFINITY PREDICTED BY RF-SCORE:    0.00 PKD
ROOT
HETATM    1  C   UNL     1     -12.714   8.218  68.096  1.00  0.00     8.889 C  
HETATM    2  O   UNL     1     -12.000   8.666  66.942  1.00  0.00     3.523 OA 
ENDROOT
BRANCH   2   3
HETATM    3  C   UNL     1     -10.786   9.507  67.080  1.00  0.00    -0.149 C  
HETATM    4  C   UNL     1      -9.671   8.559  67.591  1.00  0.00    -0.160 C  
HETATM    5  C   UNL     1      -9.757   8.442  69.113  1.00  0.00    -0.171 C  
HETATM    6  O   UNL     1      -5.156  12.990  71.910  1.00  0.00    -0.225 OA 
HETATM    7  C   UNL     1      -5.979   9.608  69.478  1.00  0.00    -0.033 A  
HETATM    8  C   UNL     1      -6.079  13.527  71.308  1.00  0.00     0.299 C  
HETATM    9  C   UNL     1     -10.140   9.766  69.804  1.00  0.00    -0.239 C  
HETATM   10  H   UNL     1      -6.210  15.296  72.474  1.00  0.00     0.000 HD 
HETATM   11  O   UNL     1     -11.291  10.480  69.223  1.00  0.00    -0.240 OA 
HETATM   12  C   UNL     1      -5.943   8.446  70.248  1.00  0.00    -0.028 A  
HETATM   13  C   UNL     1      -6.562   8.444  71.495  1.00  0.00    -0.064 A  
HETATM   14  C   UNL     1     -11.115  10.897  67.850  1.00  0.00    -0.302 C  
HETATM   15  N   UNL     1      -6.604  14.764  71.699  1.00  0.00     0.806 N  
HETATM   16  N   UNL     1     -10.400  12.206  67.970  1.00  0.00    -0.199 NA 
HETATM   17  C   UNL     1     -12.369  11.306  67.002  1.00  0.00     2.013 C  
HETATM   18  C   UNL     1      -7.530   9.409  71.802  1.00  0.00     0.523 A  
HETATM   19  C   UNL     1     -10.917  13.592  68.008  1.00  0.00    -0.250 A  
HETATM   20  C   UNL     1     -10.030  14.481  68.766  1.00  0.00    -0.232 A  
HETATM   21  N   UNL     1      -8.945  10.587  69.969  1.00  0.00     0.297 NA 
HETATM   22  C   UNL     1      -7.744  15.248  70.936  1.00  0.00     1.967 C  
HETATM   23  C   UNL     1      -8.906  13.735  69.114  1.00  0.00     0.425 A  
HETATM   24  C   UNL     1     -10.406  15.827  69.008  1.00  0.00    -0.223 A  
HETATM   25  C   UNL     1      -9.244  12.474  68.631  1.00  0.00     0.030 A  
HETATM   26  C   UNL     1     -11.581  16.353  68.488  1.00  0.00    -0.100 A  
HETATM   27  C   UNL     1     -12.397  15.555  67.718  1.00  0.00     0.839 A  
HETATM   28  C   UNL     1      -8.410  11.506  69.113  1.00  0.00     0.199 A  
HETATM   29  C   UNL     1      -7.078  11.954  69.380  1.00  0.00     0.055 C  
HETATM   30  C   UNL     1     -12.087  14.205  67.476  1.00  0.00    -0.363 A  
HETATM   31  C   UNL     1      -6.682  10.732  69.985  1.00  0.00    -0.149 A  
HETATM   32  C   UNL     1      -6.896  13.147  70.192  1.00  0.00     0.589 C  
HETATM   33  C   UNL     1      -7.801  10.338  70.795  1.00  0.00     1.148 A  
HETATM   34  C   UNL     1      -7.880  14.135  69.992  1.00  0.00     0.932 A  
BRANCH   4  35
HETATM   35  N   UNL     1      -9.642   7.178  66.874  1.00  0.00    -0.159 N  
HETATM   36  C   UNL     1      -9.999   5.962  67.622  1.00  0.00    -0.138 C  
HETATM   37  C   UNL     1      -9.497   6.937  65.494  1.00  0.00     0.591 C  
HETATM   38  O   UNL     1      -9.570   5.800  64.997  1.00  0.00     0.376 OA 
BRANCH  37  39
HETATM   39  C   UNL     1      -9.172   8.004  64.527  1.00  0.00     1.118 A  
HETATM   40  C   UNL     1      -7.683   8.848  62.808  1.00  0.00    -0.118 A  
HETATM   41  C   UNL     1      -8.011   7.874  63.756  1.00  0.00    -0.119 A  
HETATM   42  C   UNL     1      -8.501   9.959  62.638  1.00  0.00    -0.177 A  
HETATM   43  C   UNL     1      -9.685  10.057  63.373  1.00  0.00     0.029 A  
HETATM   44  C   UNL     1     -10.045   9.053  64.266  1.00  0.00     2.618 A  
ENDBRANCH  37  39
ENDBRANCH   4  35
ENDBRANCH   2   3
TORSDOF 3
ENDMDL
MODEL      137
REMARK 921   NORMALIZED FREE ENERGY PREDICTED BY IDOCK:   23.81 KCAL/MOL
REMARK 922        TOTAL FREE ENERGY PREDICTED BY IDOCK:   27.46 KCAL/MOL
REMARK 923 INTER-LIGAND FREE ENERGY PREDICTED BY IDOCK:   21.12 KCAL/MOL
REMARK 924 INTRA-LIGAND FREE ENERGY PREDICTED BY IDOCK:    6.34 KCAL/MOL
REMARK 927      BINDING AFFINITY PREDICTED BY RF-SCORE:    0.00 PKD
ROOT
HETATM    1  C   UNL     1      -5.599   8.527  70.267  1.00  0.00    -0.021 C  
HETATM    2  O   UNL     1      -6.249   9.253  71.311  1.00  0.00    -0.074 OA 
ENDROOT
BRANCH   2   3
HETATM    3  C   UNL     1      -7.381  10.164  71.011  1.00  0.00     0.884 C  
HETATM    4  C   UNL     1      -8.213   9.456  69.912  1.00  0.00    -0.149 C  
HETATM    5  C   UNL     1      -7.610   9.759  68.539  1.00  0.00    -0.080 C  
HETATM    6  O   UNL     1     -11.188  15.146  65.734  1.00  0.00    -0.337 OA 
HETATM    7  C   UNL     1     -11.088  11.184  67.259  1.00  0.00    -0.366 A  
HETATM    8  C   UNL     1     -10.548  15.445  66.736  1.00  0.00    -0.309 C  
HETATM    9  C   UNL     1      -7.075  11.200  68.415  1.00  0.00    -0.076 C  
HETATM   10  H   UNL     1     -10.109  17.458  66.223  1.00  0.00     0.000 HD 
HETATM   11  O   UNL     1      -6.223  11.662  69.525  1.00  0.00    -0.088 OA 
HETATM   12  C   UNL     1     -10.810  10.284  66.231  1.00  0.00     0.014 A  
HETATM   13  C   UNL     1      -9.805  10.592  65.318  1.00  0.00    -0.334 A  
HETATM   14  C   UNL     1      -6.872  11.693  70.816  1.00  0.00     1.903 C  
HETATM   15  N   UNL     1      -9.977  16.711  66.906  1.00  0.00    -0.262 N  
HETATM   16  N   UNL     1      -7.562  13.020  70.830  1.00  0.00     3.928 NA 
HETATM   17  C   UNL     1      -6.000  11.783  72.116  1.00  0.00     2.028 C  
HETATM   18  C   UNL     1      -8.834  11.551  65.638  1.00  0.00    -0.016 A  
HETATM   19  C   UNL     1      -7.125  14.333  71.356  1.00  0.00     2.171 A  
HETATM   20  C   UNL     1      -7.740  15.443  70.622  1.00  0.00     1.429 A  
HETATM   21  N   UNL     1      -8.179  12.099  68.091  1.00  0.00    -0.156 NA 
HETATM   22  C   UNL     1      -9.187  16.903  68.111  1.00  0.00    -0.234 C  
HETATM   23  C   UNL     1      -8.646  14.885  69.722  1.00  0.00     0.200 A  
HETATM   24  C   UNL     1      -7.366  16.782  70.905  1.00  0.00     3.879 A  
HETATM   25  C   UNL     1      -8.436  13.523  69.920  1.00  0.00     2.189 A  
HETATM   26  C   UNL     1      -6.461  17.079  71.916  1.00  0.00     4.042 A  
HETATM   27  C   UNL     1      -5.920  16.057  72.662  1.00  0.00     2.114 A  
HETATM   28  C   UNL     1      -9.013  12.773  68.936  1.00  0.00     0.340 A  
HETATM   29  C   UNL     1     -10.194  13.349  68.370  1.00  0.00    -0.251 C  
HETATM   30  C   UNL     1      -6.234  14.711  72.400  1.00  0.00     0.767 A  
HETATM   31  C   UNL     1     -10.307  12.365  67.353  1.00  0.00    -0.217 A  
HETATM   32  C   UNL     1     -10.142  14.727  67.910  1.00  0.00    -0.221 C  
HETATM   33  C   UNL     1      -8.963  12.149  66.893  1.00  0.00    -0.201 A  
HETATM   34  C   UNL     1      -9.330  15.566  68.697  1.00  0.00    -0.201 A  
BRANCH   4  35
HETATM   35  N   UNL     1      -8.421   7.934  70.162  1.00  0.00    -0.128 N  
HETATM   36  C   UNL     1      -8.753   7.456  71.513  1.00  0.00    -0.117 C  
HETATM   37  C   UNL     1      -8.526   6.918  69.191  1.00  0.00    -0.129 C  
HETATM   38  O   UNL     1      -8.776   5.735  69.479  1.00  0.00    -0.110 OA 
BRANCH  37  39
HETATM   39  C   UNL     1      -8.274   7.156  67.756  1.00  0.00    -0.115 A  
HETATM   40  C   UNL     1      -7.500   6.291  65.625  1.00  0.00    -0.082 A  
HETATM   41  C   UNL     1      -7.727   6.116  66.995  1.00  0.00    -0.100 A  
HETATM   42  C   UNL     1      -7.803   7.504  65.018  1.00  0.00    -0.127 A  
HETATM   43  C   UNL     1      -8.397   8.518  65.772  1.00  0.00    -0.144 A  
HETATM   44  C   UNL     1      -8.685   8.319  67.118  1.00  0.00    -0.127 A  
ENDBRANCH  37  39
ENDBRANCH   4  35
ENDBRANCH   2   3
TORSDOF 3
ENDMDL
MODEL      138
REMARK 921   NORMALIZED FREE ENERGY PREDICTED BY IDOCK:   23.89 KCAL/MOL
REMARK 922        TOTAL FREE ENERGY PREDICTED BY IDOCK:   27.55 KCAL/MOL
REMARK 923 INTER-LIGAND FREE ENERGY PREDICTED BY IDOCK:   25.58 KCAL/MOL
REMARK 924 INTRA-LIGAND FREE ENERGY PREDICTED BY IDOCK:    1.97 KCAL/MOL
REMARK 927      BINDING AFFINITY PREDICTED BY RF-SCORE:    0.00 PKD
ROOT
HETATM    1  C   UNL     1     -10.079  13.329  72.239  1.00  0.00    12.519 C  
HETATM    2  O   UNL     1     -10.229  12.101  71.523  1.00  0.00     7.478 OA 
ENDROOT
BRANCH   2   3
HETATM    3  C   UNL     1      -9.275  11.727  70.451  1.00  0.00     4.630 C  
HETATM    4  C   UNL     1      -9.644  12.608  69.230  1.00  0.00     0.816 C  
HETATM    5  C   UNL     1     -10.779  11.947  68.447  1.00  0.00    -0.248 C  
HETATM    6  O   UNL     1      -7.920   8.320  63.121  1.00  0.00    -0.149 OA 
HETATM    7  C   UNL     1      -8.599  12.000  65.128  1.00  0.00     0.947 A  
HETATM    8  C   UNL     1      -7.635   7.879  64.230  1.00  0.00    -0.118 C  
HETATM    9  C   UNL     1     -10.664  10.410  68.391  1.00  0.00    -0.225 C  
HETATM   10  H   UNL     1      -7.469   5.829  63.704  1.00  0.00     0.000 HD 
HETATM   11  O   UNL     1     -10.398   9.743  69.678  1.00  0.00    -0.206 OA 
HETATM   12  C   UNL     1      -9.767  12.595  64.652  1.00  0.00     0.061 A  
HETATM   13  C   UNL     1     -10.898  11.805  64.466  1.00  0.00    -0.377 A  
HETATM   14  C   UNL     1      -9.151  10.115  70.308  1.00  0.00     0.256 C  
HETATM   15  N   UNL     1      -7.435   6.514  64.460  1.00  0.00    -0.083 N  
HETATM   16  N   UNL     1      -8.149   9.210  69.663  1.00  0.00    -0.099 NA 
HETATM   17  C   UNL     1      -8.928   9.794  71.826  1.00  0.00     2.034 C  
HETATM   18  C   UNL     1     -11.003  10.562  65.106  1.00  0.00     0.346 A  
HETATM   19  C   UNL     1      -7.621   7.893  70.086  1.00  0.00    -0.083 A  
HETATM   20  C   UNL     1      -7.212   7.079  68.937  1.00  0.00    -0.091 A  
HETATM   21  N   UNL     1      -9.749  10.033  67.319  1.00  0.00    -0.162 NA 
HETATM   22  C   UNL     1      -7.173   6.125  65.837  1.00  0.00    -0.075 C  
HETATM   23  C   UNL     1      -7.351   7.875  67.803  1.00  0.00    -0.096 A  
HETATM   24  C   UNL     1      -6.778   5.742  69.128  1.00  0.00    -0.060 A  
HETATM   25  C   UNL     1      -7.904   9.035  68.339  1.00  0.00    -0.103 A  
HETATM   26  C   UNL     1      -6.672   5.192  70.399  1.00  0.00    -0.040 A  
HETATM   27  C   UNL     1      -6.989   5.959  71.496  1.00  0.00    -0.076 A  
HETATM   28  C   UNL     1      -8.396   9.858  67.367  1.00  0.00    -0.118 A  
HETATM   29  C   UNL     1      -7.700   9.780  66.120  1.00  0.00    -0.104 C  
HETATM   30  C   UNL     1      -7.455   7.279  71.360  1.00  0.00    -0.082 A  
HETATM   31  C   UNL     1      -8.624  10.616  65.438  1.00  0.00    -0.185 A  
HETATM   32  C   UNL     1      -7.480   8.470  65.528  1.00  0.00    -0.085 C  
HETATM   33  C   UNL     1      -9.917  10.200  65.906  1.00  0.00    -0.267 A  
HETATM   34  C   UNL     1      -7.237   7.448  66.466  1.00  0.00    -0.079 A  
BRANCH   4  35
HETATM   35  N   UNL     1      -9.939  14.093  69.592  1.00  0.00     0.384 N  
HETATM   36  C   UNL     1     -11.191  14.440  70.282  1.00  0.00    -0.051 C  
HETATM   37  C   UNL     1      -9.048  15.181  69.515  1.00  0.00    -0.128 C  
HETATM   38  O   UNL     1      -9.344  16.324  69.906  1.00  0.00     0.121 OA 
BRANCH  37  39
HETATM   39  C   UNL     1      -7.711  15.077  68.896  1.00  0.00    -0.152 A  
HETATM   40  C   UNL     1      -5.529  16.067  68.519  1.00  0.00    -0.100 A  
HETATM   41  C   UNL     1      -6.815  16.139  69.064  1.00  0.00    -0.176 A  
HETATM   42  C   UNL     1      -5.141  14.946  67.795  1.00  0.00    -0.021 A  
HETATM   43  C   UNL     1      -6.021  13.868  67.676  1.00  0.00    -0.059 A  
HETATM   44  C   UNL     1      -7.275  13.913  68.277  1.00  0.00    -0.112 A  
ENDBRANCH  37  39
ENDBRANCH   4  35
ENDBRANCH   2   3
TORSDOF 3
ENDMDL
MODEL      139
REMARK 921   NORMALIZED FREE ENERGY PREDICTED BY IDOCK:   23.95 KCAL/MOL
REMARK 922        TOTAL FREE ENERGY PREDICTED BY IDOCK:   27.62 KCAL/MOL
REMARK 923 INTER-LIGAND FREE ENERGY PREDICTED BY IDOCK:   16.35 KCAL/MOL
REMARK 924 INTRA-LIGAND FREE ENERGY PREDICTED BY IDOCK:   11.27 KCAL/MOL
REMARK 927      BINDING AFFINITY PREDICTED BY RF-SCORE:    0.00 PKD
ROOT
HETATM    1  C   UNL     1      -7.687  10.069  64.281  1.00  0.00    -0.141 C  
HETATM    2  O   UNL     1      -7.253  10.693  65.490  1.00  0.00    -0.132 OA 
ENDROOT
BRANCH   2   3
HETATM    3  C   UNL     1      -8.202  11.466  66.329  1.00  0.00    -0.088 C  
HETATM    4  C   UNL     1      -9.368  11.865  65.390  1.00  0.00    -0.036 C  
HETATM    5  C   UNL     1      -9.001  13.143  64.634  1.00  0.00     2.136 C  
HETATM    6  O   UNL     1     -11.838  18.599  68.080  1.00  0.00     1.435 OA 
HETATM    7  C   UNL     1     -12.281  14.943  65.965  1.00  0.00     0.090 A  
HETATM    8  C   UNL     1     -10.962  18.016  68.710  1.00  0.00     0.581 C  
HETATM    9  C   UNL     1      -8.208  14.150  65.491  1.00  0.00     3.748 C  
HETATM   10  H   UNL     1     -10.216  19.680  69.797  1.00  0.00     0.000 HD 
HETATM   11  O   UNL     1      -7.073  13.590  66.246  1.00  0.00     1.659 OA 
HETATM   12  C   UNL     1     -12.411  15.195  64.599  1.00  0.00    -0.060 A  
HETATM   13  C   UNL     1     -11.567  16.126  64.001  1.00  0.00     0.290 A  
HETATM   14  C   UNL     1      -7.428  12.583  67.218  1.00  0.00    -0.125 C  
HETATM   15  N   UNL     1     -10.113  18.685  69.598  1.00  0.00     0.230 N  
HETATM   16  N   UNL     1      -7.804  13.379  68.428  1.00  0.00    -0.136 NA 
HETATM   17  C   UNL     1      -6.316  11.643  67.799  1.00  0.00    -0.067 C  
HETATM   18  C   UNL     1     -10.370  16.497  64.630  1.00  0.00     0.868 A  
HETATM   19  C   UNL     1      -7.001  13.795  69.600  1.00  0.00     0.119 A  
HETATM   20  C   UNL     1      -7.500  15.045  70.183  1.00  0.00     0.239 A  
HETATM   21  N   UNL     1      -9.137  14.934  66.298  1.00  0.00    -0.266 NA 
HETATM   22  C   UNL     1      -9.075  17.881  70.224  1.00  0.00     2.865 C  
HETATM   23  C   UNL     1      -8.664  15.379  69.495  1.00  0.00    -0.210 A  
HETATM   24  C   UNL     1      -6.800  15.665  71.250  1.00  0.00     2.002 A  
HETATM   25  C   UNL     1      -8.714  14.382  68.524  1.00  0.00    -0.180 A  
HETATM   26  C   UNL     1      -5.670  15.082  71.807  1.00  0.00     0.287 A  
HETATM   27  C   UNL     1      -5.221  13.876  71.319  1.00  0.00    -0.163 A  
HETATM   28  C   UNL     1      -9.623  14.671  67.547  1.00  0.00    -0.206 A  
HETATM   29  C   UNL     1     -10.742  15.443  67.991  1.00  0.00    -0.279 C  
HETATM   30  C   UNL     1      -5.859  13.236  70.241  1.00  0.00    -0.158 A  
HETATM   31  C   UNL     1     -11.263  15.624  66.682  1.00  0.00    -0.067 A  
HETATM   32  C   UNL     1     -10.492  16.661  68.743  1.00  0.00    -0.324 C  
HETATM   33  C   UNL     1     -10.115  15.884  65.858  1.00  0.00    -0.352 A  
HETATM   34  C   UNL     1      -9.379  16.588  69.603  1.00  0.00     0.272 A  
BRANCH   4  35
HETATM   35  N   UNL     1      -9.841  10.717  64.451  1.00  0.00    -0.287 N  
HETATM   36  C   UNL     1     -10.307  11.032  63.092  1.00  0.00    -0.189 C  
HETATM   37  C   UNL     1      -9.703   9.331  64.664  1.00  0.00     0.506 C  
HETATM   38  O   UNL     1     -10.036   8.483  63.818  1.00  0.00     3.605 OA 
BRANCH  37  39
HETATM   39  C   UNL     1      -9.220   8.764  65.938  1.00  0.00    -0.282 A  
HETATM   40  C   UNL     1      -7.343   8.226  67.378  1.00  0.00    -0.092 A  
HETATM   41  C   UNL     1      -7.840   8.729  66.171  1.00  0.00    -0.102 A  
HETATM   42  C   UNL     1      -8.217   7.744  68.345  1.00  0.00    -0.124 A  
HETATM   43  C   UNL     1      -9.594   7.830  68.128  1.00  0.00    -0.161 A  
HETATM   44  C   UNL     1     -10.088   8.393  66.957  1.00  0.00    -0.354 A  
ENDBRANCH  37  39
ENDBRANCH   4  35
ENDBRANCH   2   3
TORSDOF 3
ENDMDL
MODEL      140
REMARK 921   NORMALIZED FREE ENERGY PREDICTED BY IDOCK:   24.11 KCAL/MOL
REMARK 922        TOTAL FREE ENERGY PREDICTED BY IDOCK:   27.81 KCAL/MOL
REMARK 923 INTER-LIGAND FREE ENERGY PREDICTED BY IDOCK:   22.99 KCAL/MOL
REMARK 924 INTRA-LIGAND FREE ENERGY PREDICTED BY IDOCK:    4.82 KCAL/MOL
REMARK 927      BINDING AFFINITY PREDICTED BY RF-SCORE:    0.00 PKD
ROOT
HETATM    1  C   UNL     1     -12.002  17.192  72.613  1.00  0.00     0.869 C  
HETATM    2  O   UNL     1     -11.119  16.587  71.667  1.00  0.00     0.109 OA 
ENDROOT
BRANCH   2   3
HETATM    3  C   UNL     1     -11.647  15.758  70.557  1.00  0.00    -0.375 C  
HETATM    4  C   UNL     1     -11.587  14.292  71.058  1.00  0.00    -0.030 C  
HETATM    5  C   UNL     1     -10.188  13.725  70.811  1.00  0.00     3.376 C  
HETATM    6  O   UNL     1     -10.343  10.115  64.759  1.00  0.00    -0.221 OA 
HETATM    7  C   UNL     1     -11.715  10.704  68.734  1.00  0.00    -0.259 A  
HETATM    8  C   UNL     1     -10.522  11.320  64.621  1.00  0.00    -0.325 C  
HETATM    9  C   UNL     1      -9.563  14.204  69.485  1.00  0.00     0.562 C  
HETATM   10  H   UNL     1      -9.644  11.536  62.700  1.00  0.00     0.000 HD 
HETATM   11  O   UNL     1      -9.642  15.653  69.230  1.00  0.00    -0.232 OA 
HETATM   12  C   UNL     1     -10.912   9.995  69.626  1.00  0.00    -0.301 A  
HETATM   13  C   UNL     1      -9.530  10.032  69.465  1.00  0.00    -0.245 A  
HETATM   14  C   UNL     1     -10.984  16.181  69.137  1.00  0.00    -0.309 C  
HETATM   15  N   UNL     1     -10.087  12.013  63.486  1.00  0.00    -0.433 N  
HETATM   16  N   UNL     1     -11.359  15.937  67.709  1.00  0.00    -0.258 NA 
HETATM   17  C   UNL     1     -11.216  17.726  69.259  1.00  0.00     1.367 C  
HETATM   18  C   UNL     1      -8.936  11.052  68.710  1.00  0.00    -0.153 A  
HETATM   19  C   UNL     1     -11.257  16.811  66.519  1.00  0.00     0.492 A  
HETATM   20  C   UNL     1     -11.094  16.033  65.287  1.00  0.00    -0.219 A  
HETATM   21  N   UNL     1     -10.057  13.374  68.391  1.00  0.00    -0.245 NA 
HETATM   22  C   UNL     1     -10.303  13.451  63.489  1.00  0.00     1.331 C  
HETATM   23  C   UNL     1     -11.206  14.689  65.636  1.00  0.00    -0.342 A  
HETATM   24  C   UNL     1     -10.872  16.691  64.050  1.00  0.00     1.924 A  
HETATM   25  C   UNL     1     -11.330  14.767  67.021  1.00  0.00    -0.353 A  
HETATM   26  C   UNL     1     -10.863  18.077  63.962  1.00  0.00     5.918 A  
HETATM   27  C   UNL     1     -11.079  18.828  65.095  1.00  0.00     1.156 A  
HETATM   28  C   UNL     1     -11.165  13.548  67.614  1.00  0.00    -0.279 A  
HETATM   29  C   UNL     1     -11.585  12.440  66.813  1.00  0.00    -0.444 C  
HETATM   30  C   UNL     1     -11.271  18.225  66.351  1.00  0.00     0.764 A  
HETATM   31  C   UNL     1     -11.084  11.467  67.717  1.00  0.00    -0.319 A  
HETATM   32  C   UNL     1     -11.093  12.344  65.448  1.00  0.00    -0.344 C  
HETATM   33  C   UNL     1      -9.814  11.982  68.151  1.00  0.00    -0.201 A  
HETATM   34  C   UNL     1     -10.943  13.585  64.801  1.00  0.00    -0.382 A  
BRANCH   4  35
HETATM   35  N   UNL     1     -12.067  14.109  72.527  1.00  0.00     0.134 N  
HETATM   36  C   UNL     1     -11.927  15.217  73.484  1.00  0.00    -0.421 C  
HETATM   37  C   UNL     1     -12.826  13.042  73.048  1.00  0.00     1.397 C  
HETATM   38  O   UNL     1     -13.238  13.018  74.221  1.00  0.00     5.709 OA 
BRANCH  37  39
HETATM   39  C   UNL     1     -13.133  11.826  72.269  1.00  0.00    -0.086 A  
HETATM   40  C   UNL     1     -13.979  10.850  70.216  1.00  0.00     2.441 A  
HETATM   41  C   UNL     1     -13.699  11.975  70.998  1.00  0.00     1.377 A  
HETATM   42  C   UNL     1     -13.710   9.577  70.705  1.00  0.00     0.132 A  
HETATM   43  C   UNL     1     -13.096   9.437  71.952  1.00  0.00    -0.505 A  
HETATM   44  C   UNL     1     -12.756  10.560  72.699  1.00  0.00     1.209 A  
ENDBRANCH  37  39
ENDBRANCH   4  35
ENDBRANCH   2   3
TORSDOF 3
ENDMDL
MODEL      141
REMARK 921   NORMALIZED FREE ENERGY PREDICTED BY IDOCK:   26.14 KCAL/MOL
REMARK 922        TOTAL FREE ENERGY PREDICTED BY IDOCK:   30.20 KCAL/MOL
REMARK 923 INTER-LIGAND FREE ENERGY PREDICTED BY IDOCK:   -0.34 KCAL/MOL
REMARK 924 INTRA-LIGAND FREE ENERGY PREDICTED BY IDOCK:   30.54 KCAL/MOL
REMARK 927      BINDING AFFINITY PREDICTED BY RF-SCORE:    0.00 PKD
ROOT
HETATM    1  C   UNL     1      -7.675  10.029  65.376  1.00  0.00    -0.137 C  
HETATM    2  O   UNL     1      -7.801   8.613  65.523  1.00  0.00    -0.092 OA 
ENDROOT
BRANCH   2   3
HETATM    3  C   UNL     1      -8.942   8.026  66.268  1.00  0.00    -0.171 C  
HETATM    4  C   UNL     1      -9.816   9.225  66.717  1.00  0.00    -0.225 C  
HETATM    5  C   UNL     1      -9.264   9.800  68.022  1.00  0.00    -0.131 C  
HETATM    6  O   UNL     1     -12.934   7.007  73.352  1.00  0.00     2.215 OA 
HETATM    7  C   UNL     1     -12.785   9.318  69.794  1.00  0.00     1.557 A  
HETATM    8  C   UNL     1     -12.257   6.191  72.736  1.00  0.00     0.282 C  
HETATM    9  C   UNL     1      -8.731   8.719  68.985  1.00  0.00    -0.133 C  
HETATM   10  H   UNL     1     -11.834   4.874  74.347  1.00  0.00     0.000 HD 
HETATM   11  O   UNL     1      -7.838   7.713  68.384  1.00  0.00    -0.117 OA 
HETATM   12  C   UNL     1     -12.546  10.657  70.104  1.00  0.00    -0.283 A  
HETATM   13  C   UNL     1     -11.575  10.967  71.052  1.00  0.00    -0.004 A  
HETATM   14  C   UNL     1      -8.438   6.915  67.339  1.00  0.00    -0.121 C  
HETATM   15  N   UNL     1     -11.678   5.080  73.359  1.00  0.00    -0.109 N  
HETATM   16  N   UNL     1      -9.125   5.817  68.088  1.00  0.00    -0.111 NA 
HETATM   17  C   UNL     1      -7.519   6.100  66.366  1.00  0.00    -0.086 C  
HETATM   18  C   UNL     1     -10.591  10.026  71.385  1.00  0.00     0.493 A  
HETATM   19  C   UNL     1      -8.667   4.456  68.447  1.00  0.00    -0.100 A  
HETATM   20  C   UNL     1      -9.307   3.975  69.675  1.00  0.00    -0.243 A  
HETATM   21  N   UNL     1      -9.845   8.157  69.742  1.00  0.00    -0.184 NA 
HETATM   22  C   UNL     1     -10.843   4.235  72.521  1.00  0.00     0.011 C  
HETATM   23  C   UNL     1     -10.246   4.934  70.049  1.00  0.00    -0.313 A  
HETATM   24  C   UNL     1      -8.920   2.734  70.243  1.00  0.00    -0.165 A  
HETATM   25  C   UNL     1     -10.031   5.925  69.094  1.00  0.00    -0.165 A  
HETATM   26  C   UNL     1      -7.978   1.921  69.627  1.00  0.00    -0.053 A  
HETATM   27  C   UNL     1      -7.411   2.323  68.439  1.00  0.00    -0.047 A  
HETATM   28  C   UNL     1     -10.646   7.096  69.431  1.00  0.00    -0.233 A  
HETATM   29  C   UNL     1     -11.846   6.935  70.194  1.00  0.00    -0.266 C  
HETATM   30  C   UNL     1      -7.737   3.558  67.851  1.00  0.00    -0.069 A  
HETATM   31  C   UNL     1     -11.998   8.326  70.434  1.00  0.00     0.186 A  
HETATM   32  C   UNL     1     -11.809   6.091  71.377  1.00  0.00    -0.042 C  
HETATM   33  C   UNL     1     -10.672   8.802  70.719  1.00  0.00    -0.228 A  
HETATM   34  C   UNL     1     -10.967   4.969  71.258  1.00  0.00     0.120 A  
BRANCH   4  35
HETATM   35  N   UNL     1     -10.017  10.305  65.614  1.00  0.00    -0.269 N  
HETATM   36  C   UNL     1     -11.056  11.332  65.780  1.00  0.00    -0.084 C  
HETATM   37  C   UNL     1      -9.178  10.562  64.511  1.00  0.00    -0.240 C  
HETATM   38  O   UNL     1      -9.372  11.503  63.723  1.00  0.00    -0.158 OA 
BRANCH  37  39
HETATM   39  C   UNL     1      -8.040   9.693  64.154  1.00  0.00    -0.151 A  
HETATM   40  C   UNL     1      -5.673   9.204  64.358  1.00  0.00    -0.068 A  
HETATM   41  C   UNL     1      -6.772  10.018  64.649  1.00  0.00    -0.128 A  
HETATM   42  C   UNL     1      -5.832   8.076  63.562  1.00  0.00    -0.062 A  
HETATM   43  C   UNL     1      -7.109   7.728  63.115  1.00  0.00    -0.083 A  
HETATM   44  C   UNL     1      -8.212   8.501  63.462  1.00  0.00    -0.133 A  
ENDBRANCH  37  39
ENDBRANCH   4  35
ENDBRANCH   2   3
TORSDOF 3
ENDMDL
MODEL      142
REMARK 921   NORMALIZED FREE ENERGY PREDICTED BY IDOCK:   27.74 KCAL/MOL
REMARK 922        TOTAL FREE ENERGY PREDICTED BY IDOCK:   32.08 KCAL/MOL
REMARK 923 INTER-LIGAND FREE ENERGY PREDICTED BY IDOCK:   30.40 KCAL/MOL
REMARK 924 INTRA-LIGAND FREE ENERGY PREDICTED BY IDOCK:    1.67 KCAL/MOL
REMARK 927      BINDING AFFINITY PREDICTED BY RF-SCORE:    0.00 PKD
ROOT
HETATM    1  C   UNL     1      -8.822   7.032  73.017  1.00  0.00    -0.126 C  
HETATM    2  O   UNL     1      -9.211   8.271  72.423  1.00  0.00    -0.206 OA 
ENDROOT
BRANCH   2   3
HETATM    3  C   UNL     1      -8.758   8.633  71.057  1.00  0.00    -0.186 C  
HETATM    4  C   UNL     1      -8.426  10.146  71.108  1.00  0.00     2.061 C  
HETATM    5  C   UNL     1      -9.705  10.957  70.895  1.00  0.00     3.483 C  
HETATM    6  O   UNL     1     -10.033  12.748  64.085  1.00  0.00    -0.293 OA 
HETATM    7  C   UNL     1      -8.049  12.875  67.837  1.00  0.00    -0.161 A  
HETATM    8  C   UNL     1     -10.128  11.541  64.285  1.00  0.00    -0.291 C  
HETATM    9  C   UNL     1     -10.662  10.324  69.865  1.00  0.00    -0.294 C  
HETATM   10  H   UNL     1     -11.393  11.064  62.648  1.00  0.00     0.000 HD 
HETATM   11  O   UNL     1     -10.924   8.884  70.038  1.00  0.00    -0.236 OA 
HETATM   12  C   UNL     1      -8.504  13.964  68.581  1.00  0.00    -0.082 A  
HETATM   13  C   UNL     1      -9.870  14.228  68.624  1.00  0.00    -0.228 A  
HETATM   14  C   UNL     1      -9.759   8.037  69.926  1.00  0.00    -0.180 C  
HETATM   15  N   UNL     1     -10.907  10.710  63.473  1.00  0.00     0.315 N  
HETATM   16  N   UNL     1      -9.632   7.808  68.453  1.00  0.00    -0.151 NA 
HETATM   17  C   UNL     1      -9.818   6.566  70.465  1.00  0.00    -0.197 C  
HETATM   18  C   UNL     1     -10.791  13.227  68.289  1.00  0.00    -0.276 A  
HETATM   19  C   UNL     1     -10.138   6.711  67.597  1.00  0.00    -0.155 A  
HETATM   20  C   UNL     1     -10.382   7.164  66.224  1.00  0.00     0.274 A  
HETATM   21  N   UNL     1     -10.239  10.699  68.519  1.00  0.00    -0.167 NA 
HETATM   22  C   UNL     1     -10.984   9.313  63.869  1.00  0.00     7.375 C  
HETATM   23  C   UNL     1      -9.939   8.483  66.144  1.00  0.00    -0.160 A  
HETATM   24  C   UNL     1     -10.970   6.287  65.277  1.00  0.00     3.550 A  
HETATM   25  C   UNL     1      -9.563   8.734  67.462  1.00  0.00    -0.152 A  
HETATM   26  C   UNL     1     -11.271   4.971  65.602  1.00  0.00     0.322 A  
HETATM   27  C   UNL     1     -10.990   4.505  66.866  1.00  0.00     1.294 A  
HETATM   28  C   UNL     1      -9.362  10.065  67.687  1.00  0.00    -0.144 A  
HETATM   29  C   UNL     1      -8.897  10.793  66.547  1.00  0.00    -0.162 C  
HETATM   30  C   UNL     1     -10.437   5.343  67.852  1.00  0.00    -0.202 A  
HETATM   31  C   UNL     1      -9.007  12.057  67.184  1.00  0.00    -0.185 A  
HETATM   32  C   UNL     1      -9.620  10.655  65.293  1.00  0.00    -0.293 C  
HETATM   33  C   UNL     1     -10.243  11.999  67.915  1.00  0.00    -0.196 A  
HETATM   34  C   UNL     1     -10.138   9.366  65.066  1.00  0.00     0.554 A  
BRANCH   4  35
HETATM   35  N   UNL     1      -7.639  10.575  72.381  1.00  0.00     5.539 N  
HETATM   36  C   UNL     1      -7.907   9.907  73.664  1.00  0.00     4.419 C  
HETATM   37  C   UNL     1      -6.517  11.426  72.442  1.00  0.00     4.392 C  
HETATM   38  O   UNL     1      -5.898  11.649  73.496  1.00  0.00     1.063 OA 
BRANCH  37  39
HETATM   39  C   UNL     1      -6.026  12.185  71.275  1.00  0.00     0.758 A  
HETATM   40  C   UNL     1      -5.255  12.162  68.975  1.00  0.00    -0.055 A  
HETATM   41  C   UNL     1      -5.696  11.478  70.113  1.00  0.00    -0.137 A  
HETATM   42  C   UNL     1      -5.128  13.546  68.999  1.00  0.00    -0.066 A  
HETATM   43  C   UNL     1      -5.510  14.249  70.144  1.00  0.00    -0.107 A  
HETATM   44  C   UNL     1      -6.013  13.573  71.251  1.00  0.00     0.090 A  
ENDBRANCH  37  39
ENDBRANCH   4  35
ENDBRANCH   2   3
TORSDOF 3
ENDMDL
MODEL      143
REMARK 921   NORMALIZED FREE ENERGY PREDICTED BY IDOCK:   28.42 KCAL/MOL
REMARK 922        TOTAL FREE ENERGY PREDICTED BY IDOCK:   32.88 KCAL/MOL
REMARK 923 INTER-LIGAND FREE ENERGY PREDICTED BY IDOCK:   23.50 KCAL/MOL
REMARK 924 INTRA-LIGAND FREE ENERGY PREDICTED BY IDOCK:    9.38 KCAL/MOL
REMARK 927      BINDING AFFINITY PREDICTED BY RF-SCORE:    0.00 PKD
ROOT
HETATM    1  C   UNL     1      -6.883  17.990  71.215  1.00  0.00     3.694 C  
HETATM    2  O   UNL     1      -6.722  16.910  70.293  1.00  0.00     0.392 OA 
ENDROOT
BRANCH   2   3
HETATM    3  C   UNL     1      -7.901  16.265  69.666  1.00  0.00     0.230 C  
HETATM    4  C   UNL     1      -7.654  14.739  69.771  1.00  0.00     0.025 C  
HETATM    5  C   UNL     1      -6.784  14.280  68.600  1.00  0.00    -0.092 C  
HETATM    6  O   UNL     1     -11.048  11.770  63.579  1.00  0.00    -0.407 OA 
HETATM    7  C   UNL     1      -9.520  11.605  67.537  1.00  0.00    -0.173 A  
HETATM    8  C   UNL     1     -11.176  12.972  63.781  1.00  0.00    -0.349 C  
HETATM    9  C   UNL     1      -7.111  15.006  67.279  1.00  0.00    -0.099 C  
HETATM   10  H   UNL     1     -11.709  13.554  61.810  1.00  0.00     0.000 HD 
HETATM   11  O   UNL     1      -7.217  16.474  67.367  1.00  0.00    -0.125 OA 
HETATM   12  C   UNL     1      -8.393  10.785  67.580  1.00  0.00    -0.119 A  
HETATM   13  C   UNL     1      -7.433  10.906  66.580  1.00  0.00    -0.142 A  
HETATM   14  C   UNL     1      -8.263  16.955  68.241  1.00  0.00    -0.222 C  
HETATM   15  N   UNL     1     -11.510  13.869  62.760  1.00  0.00     2.105 N  
HETATM   16  N   UNL     1      -9.479  16.947  67.371  1.00  0.00    -0.236 NA 
HETATM   17  C   UNL     1      -8.239  18.445  68.727  1.00  0.00    -0.257 C  
HETATM   18  C   UNL     1      -7.377  12.065  65.794  1.00  0.00     1.517 A  
HETATM   19  C   UNL     1     -10.089  18.017  66.550  1.00  0.00    -0.379 A  
HETATM   20  C   UNL     1     -10.812  17.471  65.397  1.00  0.00     0.058 A  
HETATM   21  N   UNL     1      -8.253  14.359  66.641  1.00  0.00     0.127 NA 
HETATM   22  C   UNL     1     -11.558  15.275  63.129  1.00  0.00     2.917 C  
HETATM   23  C   UNL     1     -10.783  16.084  65.517  1.00  0.00    -0.374 A  
HETATM   24  C   UNL     1     -11.376  18.342  64.430  1.00  0.00     4.413 A  
HETATM   25  C   UNL     1      -9.989  15.915  66.649  1.00  0.00    -0.257 A  
HETATM   26  C   UNL     1     -11.314  19.722  64.578  1.00  0.00     3.010 A  
HETATM   27  C   UNL     1     -10.698  20.256  65.686  1.00  0.00    -0.121 A  
HETATM   28  C   UNL     1      -9.584  14.620  66.796  1.00  0.00    -0.253 A  
HETATM   29  C   UNL     1     -10.505  13.652  66.287  1.00  0.00    -0.291 C  
HETATM   30  C   UNL     1     -10.094  19.437  66.657  1.00  0.00    -0.503 A  
HETATM   31  C   UNL     1      -9.623  12.558  66.491  1.00  0.00    -0.242 A  
HETATM   32  C   UNL     1     -11.004  13.813  64.931  1.00  0.00    -0.378 C  
HETATM   33  C   UNL     1      -8.332  13.041  66.085  1.00  0.00     0.951 A  
HETATM   34  C   UNL     1     -11.201  15.153  64.546  1.00  0.00    -0.283 A  
BRANCH   4  35
HETATM   35  N   UNL     1      -7.101  14.284  71.153  1.00  0.00     1.252 N  
HETATM   36  C   UNL     1      -7.413  15.070  72.357  1.00  0.00     4.973 C  
HETATM   37  C   UNL     1      -6.467  13.063  71.457  1.00  0.00     2.329 C  
HETATM   38  O   UNL     1      -6.131  12.748  72.612  1.00  0.00     1.146 OA 
BRANCH  37  39
HETATM   39  C   UNL     1      -6.081  12.084  70.421  1.00  0.00    -0.027 A  
HETATM   40  C   UNL     1      -5.746  11.592  68.070  1.00  0.00    -0.044 A  
HETATM   41  C   UNL     1      -6.131  12.480  69.080  1.00  0.00    -0.081 A  
HETATM   42  C   UNL     1      -5.326  10.308  68.394  1.00  0.00    -0.034 A  
HETATM   43  C   UNL     1      -5.229   9.937  69.737  1.00  0.00    -0.037 A  
HETATM   44  C   UNL     1      -5.547  10.843  70.742  1.00  0.00    -0.113 A  
ENDBRANCH  37  39
ENDBRANCH   4  35
ENDBRANCH   2   3
TORSDOF 3
ENDMDL
MODEL      144
REMARK 921   NORMALIZED FREE ENERGY PREDICTED BY IDOCK:   29.82 KCAL/MOL
REMARK 922        TOTAL FREE ENERGY PREDICTED BY IDOCK:   34.52 KCAL/MOL
REMARK 923 INTER-LIGAND FREE ENERGY PREDICTED BY IDOCK:   22.47 KCAL/MOL
REMARK 924 INTRA-LIGAND FREE ENERGY PREDICTED BY IDOCK:   12.06 KCAL/MOL
REMARK 927      BINDING AFFINITY PREDICTED BY RF-SCORE:    0.00 PKD
ROOT
HETATM    1  C   UNL     1     -10.573  15.679  67.213  1.00  0.00    -0.305 C  
HETATM    2  O   UNL     1      -9.678  14.986  66.340  1.00  0.00    -0.251 OA 
ENDROOT
BRANCH   2   3
HETATM    3  C   UNL     1      -8.672  14.040  66.880  1.00  0.00    -0.164 C  
HETATM    4  C   UNL     1      -9.064  12.646  66.328  1.00  0.00    -0.046 C  
HETATM    5  C   UNL     1     -10.130  12.020  67.228  1.00  0.00    -0.208 C  
HETATM    6  O   UNL     1      -6.891   7.700  71.759  1.00  0.00    -0.058 OA 
HETATM    7  C   UNL     1      -7.868   8.804  67.777  1.00  0.00    -0.102 A  
HETATM    8  C   UNL     1      -6.609   8.883  71.916  1.00  0.00    -0.028 C  
HETATM    9  C   UNL     1      -9.913  12.319  68.726  1.00  0.00    -0.034 C  
HETATM   10  H   UNL     1      -6.293   8.843  74.015  1.00  0.00     0.000 HD 
HETATM   11  O   UNL     1      -9.639  13.727  69.062  1.00  0.00    -0.004 OA 
HETATM   12  C   UNL     1      -9.059   8.191  67.391  1.00  0.00    -0.148 A  
HETATM   13  C   UNL     1     -10.130   8.176  68.280  1.00  0.00    -0.230 A  
HETATM   14  C   UNL     1      -8.438  14.270  68.470  1.00  0.00    -0.164 C  
HETATM   15  N   UNL     1      -6.325   9.422  73.175  1.00  0.00     0.408 N  
HETATM   16  N   UNL     1      -7.361  13.862  69.425  1.00  0.00     0.048 NA 
HETATM   17  C   UNL     1      -8.236  15.824  68.420  1.00  0.00    -0.151 C  
HETATM   18  C   UNL     1     -10.169   9.083  69.348  1.00  0.00    -0.206 A  
HETATM   19  C   UNL     1      -6.759  14.581  70.570  1.00  0.00     0.126 A  
HETATM   20  C   UNL     1      -6.264  13.654  71.593  1.00  0.00     0.760 A  
HETATM   21  N   UNL     1      -8.945  11.373  69.271  1.00  0.00     0.218 NA 
HETATM   22  C   UNL     1      -6.076  10.854  73.221  1.00  0.00     2.556 C  
HETATM   23  C   UNL     1      -6.424  12.366  71.087  1.00  0.00     1.977 A  
HETATM   24  C   UNL     1      -5.749  14.151  72.818  1.00  0.00     0.016 A  
HETATM   25  C   UNL     1      -7.068  12.616  69.878  1.00  0.00     0.714 A  
HETATM   26  C   UNL     1      -5.642  15.514  73.056  1.00  0.00     0.986 A  
HETATM   27  C   UNL     1      -6.040  16.404  72.083  1.00  0.00     2.450 A  
HETATM   28  C   UNL     1      -7.586  11.475  69.334  1.00  0.00     0.164 A  
HETATM   29  C   UNL     1      -6.852  10.287  69.645  1.00  0.00    -0.094 C  
HETATM   30  C   UNL     1      -6.588  15.964  70.865  1.00  0.00     1.197 A  
HETATM   31  C   UNL     1      -7.809   9.422  69.053  1.00  0.00    -0.079 A  
HETATM   32  C   UNL     1      -6.529  10.013  71.035  1.00  0.00     0.064 C  
HETATM   33  C   UNL     1      -9.085   9.957  69.442  1.00  0.00    -0.206 A  
HETATM   34  C   UNL     1      -6.245  11.163  71.798  1.00  0.00     1.764 A  
BRANCH   4  35
HETATM   35  N   UNL     1      -9.466  12.655  64.825  1.00  0.00     0.247 N  
HETATM   36  C   UNL     1      -8.595  12.008  63.832  1.00  0.00     1.497 C  
HETATM   37  C   UNL     1     -10.702  13.053  64.276  1.00  0.00    -0.407 C  
HETATM   38  O   UNL     1     -10.967  12.948  63.066  1.00  0.00     0.115 OA 
BRANCH  37  39
HETATM   39  C   UNL     1     -11.761  13.697  65.079  1.00  0.00    -0.354 A  
HETATM   40  C   UNL     1     -12.411  15.487  66.581  1.00  0.00     1.461 A  
HETATM   41  C   UNL     1     -11.431  14.830  65.830  1.00  0.00    -0.319 A  
HETATM   42  C   UNL     1     -13.716  15.007  66.595  1.00  0.00     5.202 A  
HETATM   43  C   UNL     1     -14.050  13.908  65.801  1.00  0.00     4.107 A  
HETATM   44  C   UNL     1     -13.089  13.297  65.002  1.00  0.00    -0.053 A  
ENDBRANCH  37  39
ENDBRANCH   4  35
ENDBRANCH   2   3
TORSDOF 3
ENDMDL
MODEL      145
REMARK 921   NORMALIZED FREE ENERGY PREDICTED BY IDOCK:   31.10 KCAL/MOL
REMARK 922        TOTAL FREE ENERGY PREDICTED BY IDOCK:   36.03 KCAL/MOL
REMARK 923 INTER-LIGAND FREE ENERGY PREDICTED BY IDOCK:   35.53 KCAL/MOL
REMARK 924 INTRA-LIGAND FREE ENERGY PREDICTED BY IDOCK:    0.49 KCAL/MOL
REMARK 927      BINDING AFFINITY PREDICTED BY RF-SCORE:    0.00 PKD
ROOT
HETATM    1  C   UNL     1      -5.356  15.287  69.124  1.00  0.00    -0.095 C  
HETATM    2  O   UNL     1      -6.113  14.935  67.964  1.00  0.00    -0.129 OA 
ENDROOT
BRANCH   2   3
HETATM    3  C   UNL     1      -7.505  14.436  68.089  1.00  0.00    -0.128 C  
HETATM    4  C   UNL     1      -8.396  15.697  68.219  1.00  0.00    -0.154 C  
HETATM    5  C   UNL     1      -8.431  16.151  69.679  1.00  0.00     0.233 C  
HETATM    6  O   UNL     1     -14.261  13.511  72.634  1.00  0.00    -0.751 OA 
HETATM    7  C   UNL     1     -12.397  15.957  69.706  1.00  0.00    -0.065 A  
HETATM    8  C   UNL     1     -13.445  12.658  72.302  1.00  0.00    -0.438 C  
HETATM    9  C   UNL     1      -8.456  14.977  70.679  1.00  0.00     1.775 C  
HETATM   10  H   UNL     1     -13.868  11.231  73.816  1.00  0.00     0.000 HD 
HETATM   11  O   UNL     1      -7.466  13.912  70.438  1.00  0.00     0.899 OA 
HETATM   12  C   UNL     1     -12.221  17.247  70.204  1.00  0.00     4.538 A  
HETATM   13  C   UNL     1     -11.744  17.410  71.501  1.00  0.00     2.356 A  
HETATM   14  C   UNL     1      -7.605  13.230  69.171  1.00  0.00     0.226 C  
HETATM   15  N   UNL     1     -13.281  11.466  73.015  1.00  0.00     2.433 N  
HETATM   16  N   UNL     1      -8.629  12.176  69.450  1.00  0.00     0.847 NA 
HETATM   17  C   UNL     1      -6.415  12.369  68.624  1.00  0.00    -0.077 C  
HETATM   18  C   UNL     1     -11.078  16.357  72.144  1.00  0.00     0.761 A  
HETATM   19  C   UNL     1      -8.476  10.759  69.852  1.00  0.00     0.589 A  
HETATM   20  C   UNL     1      -9.623  10.292  70.636  1.00  0.00     0.769 A  
HETATM   21  N   UNL     1      -9.827  14.499  70.829  1.00  0.00     1.589 NA 
HETATM   22  C   UNL     1     -12.228  10.578  72.549  1.00  0.00     1.711 C  
HETATM   23  C   UNL     1     -10.557  11.325  70.649  1.00  0.00     1.800 A  
HETATM   24  C   UNL     1      -9.617   8.992  71.206  1.00  0.00    -0.361 A  
HETATM   25  C   UNL     1      -9.874  12.331  69.971  1.00  0.00     2.675 A  
HETATM   26  C   UNL     1      -8.563   8.114  70.989  1.00  0.00    -0.152 A  
HETATM   27  C   UNL     1      -7.505   8.509  70.202  1.00  0.00    -0.060 A  
HETATM   28  C   UNL     1     -10.486  13.543  70.111  1.00  0.00     1.467 A  
HETATM   29  C   UNL     1     -11.907  13.473  70.263  1.00  0.00    -0.327 C  
HETATM   30  C   UNL     1      -7.447   9.798  69.641  1.00  0.00    -0.113 A  
HETATM   31  C   UNL     1     -12.047  14.860  70.534  1.00  0.00    -0.378 A  
HETATM   32  C   UNL     1     -12.455  12.576  71.267  1.00  0.00    -0.273 C  
HETATM   33  C   UNL     1     -10.949  15.181  71.404  1.00  0.00    -0.058 A  
HETATM   34  C   UNL     1     -11.731  11.379  71.426  1.00  0.00     0.881 A  
BRANCH   4  35
HETATM   35  N   UNL     1      -8.013  16.842  67.236  1.00  0.00    -0.165 N  
HETATM   36  C   UNL     1      -6.980  17.817  67.618  1.00  0.00    -0.181 C  
HETATM   37  C   UNL     1      -8.403  16.973  65.888  1.00  0.00     0.019 C  
HETATM   38  O   UNL     1      -7.980  17.880  65.150  1.00  0.00     0.644 OA 
BRANCH  37  39
HETATM   39  C   UNL     1      -9.403  16.089  65.257  1.00  0.00     0.553 A  
HETATM   40  C   UNL     1     -11.651  15.176  65.269  1.00  0.00    -0.206 A  
HETATM   41  C   UNL     1     -10.665  15.980  65.852  1.00  0.00    -0.287 A  
HETATM   42  C   UNL     1     -11.375  14.471  64.104  1.00  0.00     0.009 A  
HETATM   43  C   UNL     1     -10.132  14.626  63.486  1.00  0.00     5.235 A  
HETATM   44  C   UNL     1      -9.177  15.479  64.030  1.00  0.00     7.922 A  
ENDBRANCH  37  39
ENDBRANCH   4  35
ENDBRANCH   2   3
TORSDOF 3
ENDMDL
MODEL      146
REMARK 921   NORMALIZED FREE ENERGY PREDICTED BY IDOCK:   31.89 KCAL/MOL
REMARK 922        TOTAL FREE ENERGY PREDICTED BY IDOCK:   36.95 KCAL/MOL
REMARK 923 INTER-LIGAND FREE ENERGY PREDICTED BY IDOCK:   29.85 KCAL/MOL
REMARK 924 INTRA-LIGAND FREE ENERGY PREDICTED BY IDOCK:    7.11 KCAL/MOL
REMARK 927      BINDING AFFINITY PREDICTED BY RF-SCORE:    0.00 PKD
ROOT
HETATM    1  C   UNL     1     -10.266  14.336  70.374  1.00  0.00     1.254 C  
HETATM    2  O   UNL     1     -10.423  13.420  69.289  1.00  0.00    -0.028 OA 
ENDROOT
BRANCH   2   3
HETATM    3  C   UNL     1      -9.524  12.248  69.149  1.00  0.00     0.551 C  
HETATM    4  C   UNL     1      -9.063  12.244  67.669  1.00  0.00    -0.184 C  
HETATM    5  C   UNL     1     -10.112  11.537  66.809  1.00  0.00    -0.245 C  
HETATM    6  O   UNL     1      -8.068   4.847  65.945  1.00  0.00    -0.106 OA 
HETATM    7  C   UNL     1      -7.375   9.006  65.443  1.00  0.00    -0.085 A  
HETATM    8  C   UNL     1      -8.352   5.132  67.104  1.00  0.00    -0.107 C  
HETATM    9  C   UNL     1     -10.756  10.324  67.510  1.00  0.00    -0.294 C  
HETATM   10  H   UNL     1      -9.077   3.232  67.713  1.00  0.00     0.000 HD 
HETATM   11  O   UNL     1     -11.215  10.554  68.891  1.00  0.00    -0.243 OA 
HETATM   12  C   UNL     1      -7.920   9.438  64.235  1.00  0.00    -0.133 A  
HETATM   13  C   UNL     1      -9.192   9.002  63.875  1.00  0.00     0.422 A  
HETATM   14  C   UNL     1     -10.173  10.922  69.823  1.00  0.00     0.129 C  
HETATM   15  N   UNL     1      -8.919   4.203  67.983  1.00  0.00    -0.113 N  
HETATM   16  N   UNL     1      -9.611   9.606  70.259  1.00  0.00    -0.256 NA 
HETATM   17  C   UNL     1     -10.560  11.565  71.199  1.00  0.00     4.238 C  
HETATM   18  C   UNL     1     -10.063   8.492  64.847  1.00  0.00     2.483 A  
HETATM   19  C   UNL     1      -9.936   8.753  71.426  1.00  0.00    -0.283 A  
HETATM   20  C   UNL     1      -9.682   7.336  71.148  1.00  0.00    -0.171 A  
HETATM   21  N   UNL     1      -9.890   9.160  67.352  1.00  0.00    -0.173 NA 
HETATM   22  C   UNL     1      -9.269   4.699  69.305  1.00  0.00    -0.127 C  
HETATM   23  C   UNL     1      -9.096   7.266  69.886  1.00  0.00    -0.141 A  
HETATM   24  C   UNL     1     -10.031   6.348  72.104  1.00  0.00    -0.180 A  
HETATM   25  C   UNL     1      -9.132   8.599  69.484  1.00  0.00    -0.146 A  
HETATM   26  C   UNL     1     -10.560   6.694  73.340  1.00  0.00    -0.333 A  
HETATM   27  C   UNL     1     -10.747   8.023  73.647  1.00  0.00     0.721 A  
HETATM   28  C   UNL     1      -8.869   8.734  68.151  1.00  0.00    -0.141 A  
HETATM   29  C   UNL     1      -7.991   7.738  67.619  1.00  0.00    -0.124 C  
HETATM   30  C   UNL     1     -10.448   9.040  72.723  1.00  0.00     0.878 A  
HETATM   31  C   UNL     1      -8.159   8.166  66.275  1.00  0.00    -0.107 A  
HETATM   32  C   UNL     1      -8.289   6.339  67.877  1.00  0.00    -0.118 C  
HETATM   33  C   UNL     1      -9.561   8.453  66.149  1.00  0.00    -0.176 A  
HETATM   34  C   UNL     1      -8.845   6.093  69.147  1.00  0.00    -0.123 A  
BRANCH   4  35
HETATM   35  N   UNL     1      -8.678  13.651  67.125  1.00  0.00    -0.219 N  
HETATM   36  C   UNL     1      -8.907  14.842  67.958  1.00  0.00    -0.169 C  
HETATM   37  C   UNL     1      -7.933  13.940  65.965  1.00  0.00     2.428 C  
HETATM   38  O   UNL     1      -7.600  15.096  65.650  1.00  0.00     2.752 OA 
BRANCH  37  39
HETATM   39  C   UNL     1      -7.547  12.906  64.985  1.00  0.00     6.499 A  
HETATM   40  C   UNL     1      -8.091  11.663  62.974  1.00  0.00     0.957 A  
HETATM   41  C   UNL     1      -8.432  12.616  63.940  1.00  0.00     3.850 A  
HETATM   42  C   UNL     1      -6.878  10.990  63.056  1.00  0.00     0.452 A  
HETATM   43  C   UNL     1      -5.978  11.323  64.070  1.00  0.00     1.305 A  
HETATM   44  C   UNL     1      -6.289  12.318  64.991  1.00  0.00     5.453 A  
ENDBRANCH  37  39
ENDBRANCH   4  35
ENDBRANCH   2   3
TORSDOF 3
ENDMDL
MODEL      147
REMARK 921   NORMALIZED FREE ENERGY PREDICTED BY IDOCK:   32.64 KCAL/MOL
REMARK 922        TOTAL FREE ENERGY PREDICTED BY IDOCK:   37.84 KCAL/MOL
REMARK 923 INTER-LIGAND FREE ENERGY PREDICTED BY IDOCK:    4.54 KCAL/MOL
REMARK 924 INTRA-LIGAND FREE ENERGY PREDICTED BY IDOCK:   33.30 KCAL/MOL
REMARK 927      BINDING AFFINITY PREDICTED BY RF-SCORE:    0.00 PKD
ROOT
HETATM    1  C   UNL     1     -10.275  14.332  70.361  1.00  0.00     1.254 C  
HETATM    2  O   UNL     1     -10.388  13.485  69.215  1.00  0.00     0.010 OA 
ENDROOT
BRANCH   2   3
HETATM    3  C   UNL     1      -9.462  12.343  69.022  1.00  0.00     0.394 C  
HETATM    4  C   UNL     1      -8.908  12.487  67.582  1.00  0.00    -0.179 C  
HETATM    5  C   UNL     1      -9.888  11.856  66.591  1.00  0.00    -0.219 C  
HETATM    6  O   UNL     1      -7.681   5.303  65.222  1.00  0.00    -0.080 OA 
HETATM    7  C   UNL     1      -7.027   9.498  65.169  1.00  0.00    -0.100 A  
HETATM    8  C   UNL     1      -8.043   5.472  66.381  1.00  0.00    -0.105 C  
HETATM    9  C   UNL     1     -10.554  10.573  67.128  1.00  0.00    -0.264 C  
HETATM   10  H   UNL     1      -8.773   3.514  66.756  1.00  0.00     0.000 HD 
HETATM   11  O   UNL     1     -11.104  10.664  68.493  1.00  0.00    -0.226 OA 
HETATM   12  C   UNL     1      -7.501  10.040  63.975  1.00  0.00    -0.135 A  
HETATM   13  C   UNL     1      -8.740   9.628  63.492  1.00  0.00    -0.236 A  
HETATM   14  C   UNL     1     -10.131  10.950  69.522  1.00  0.00    -0.020 C  
HETATM   15  N   UNL     1      -8.648   4.455  67.128  1.00  0.00    -0.104 N  
HETATM   16  N   UNL     1      -9.576   9.604  69.865  1.00  0.00    -0.216 NA 
HETATM   17  C   UNL     1     -10.616  11.453  70.925  1.00  0.00     2.899 C  
HETATM   18  C   UNL     1      -9.662   9.017  64.352  1.00  0.00     1.133 A  
HETATM   19  C   UNL     1      -9.960   8.639  70.920  1.00  0.00    -0.206 A  
HETATM   20  C   UNL     1      -9.665   7.258  70.524  1.00  0.00    -0.176 A  
HETATM   21  N   UNL     1      -9.661   9.440  66.915  1.00  0.00    -0.155 NA 
HETATM   22  C   UNL     1      -9.091   4.817  68.466  1.00  0.00    -0.117 C  
HETATM   23  C   UNL     1      -8.998   7.317  69.302  1.00  0.00    -0.135 A  
HETATM   24  C   UNL     1     -10.057   6.178  71.356  1.00  0.00    -0.230 A  
HETATM   25  C   UNL     1      -9.031   8.682  69.029  1.00  0.00    -0.142 A  
HETATM   26  C   UNL     1     -10.671   6.397  72.582  1.00  0.00    -0.262 A  
HETATM   27  C   UNL     1     -10.899   7.687  73.003  1.00  0.00    -0.457 A  
HETATM   28  C   UNL     1      -8.686   8.949  67.735  1.00  0.00    -0.125 A  
HETATM   29  C   UNL     1      -7.759   8.019  67.168  1.00  0.00    -0.101 C  
HETATM   30  C   UNL     1     -10.558   8.792  72.202  1.00  0.00    -0.386 A  
HETATM   31  C   UNL     1      -7.848   8.573  65.864  1.00  0.00    -0.099 A  
HETATM   32  C   UNL     1      -8.049   6.598  67.270  1.00  0.00    -0.121 C  
HETATM   33  C   UNL     1      -9.244   8.857  65.675  1.00  0.00    -0.204 A  
HETATM   34  C   UNL     1      -8.681   6.225  68.471  1.00  0.00    -0.112 A  
BRANCH   4  35
HETATM   35  N   UNL     1      -8.513  13.944  67.202  1.00  0.00    -0.201 N  
HETATM   36  C   UNL     1      -7.735  14.194  65.979  1.00  0.00     3.162 C  
HETATM   37  C   UNL     1      -8.978  15.134  67.796  1.00  0.00    -0.178 C  
HETATM   38  O   UNL     1      -8.672  16.262  67.372  1.00  0.00    -0.178 OA 
BRANCH  37  39
HETATM   39  C   UNL     1      -9.808  15.146  69.017  1.00  0.00    -0.238 A  
HETATM   40  C   UNL     1      -9.915  15.215  71.439  1.00  0.00     1.786 A  
HETATM   41  C   UNL     1      -9.165  15.174  70.259  1.00  0.00     0.650 A  
HETATM   42  C   UNL     1     -11.304  15.214  71.382  1.00  0.00    -0.380 A  
HETATM   43  C   UNL     1     -11.939  15.240  70.139  1.00  0.00    -0.373 A  
HETATM   44  C   UNL     1     -11.191  15.268  68.966  1.00  0.00    -0.287 A  
ENDBRANCH  37  39
ENDBRANCH   4  35
ENDBRANCH   2   3
TORSDOF 3
ENDMDL
MODEL      148
REMARK 921   NORMALIZED FREE ENERGY PREDICTED BY IDOCK:   33.31 KCAL/MOL
REMARK 922        TOTAL FREE ENERGY PREDICTED BY IDOCK:   38.62 KCAL/MOL
REMARK 923 INTER-LIGAND FREE ENERGY PREDICTED BY IDOCK:   32.15 KCAL/MOL
REMARK 924 INTRA-LIGAND FREE ENERGY PREDICTED BY IDOCK:    6.47 KCAL/MOL
REMARK 927      BINDING AFFINITY PREDICTED BY RF-SCORE:    0.00 PKD
ROOT
HETATM    1  C   UNL     1     -12.390   9.809  64.442  1.00  0.00    10.645 C  
HETATM    2  O   UNL     1     -12.306  11.234  64.391  1.00  0.00     0.317 OA 
ENDROOT
BRANCH   2   3
HETATM    3  C   UNL     1     -11.068  11.938  64.806  1.00  0.00    -0.311 C  
HETATM    4  C   UNL     1     -10.246  10.904  65.617  1.00  0.00    -0.263 C  
HETATM    5  C   UNL     1     -10.725  10.896  67.070  1.00  0.00    -0.323 C  
HETATM    6  O   UNL     1      -6.429  15.061  70.796  1.00  0.00     0.028 OA 
HETATM    7  C   UNL     1      -7.042  11.644  68.351  1.00  0.00    -0.083 A  
HETATM    8  C   UNL     1      -7.096  15.660  69.960  1.00  0.00     0.103 C  
HETATM    9  C   UNL     1     -11.096  12.298  67.595  1.00  0.00    -0.268 C  
HETATM   10  H   UNL     1      -7.288  17.504  70.993  1.00  0.00     0.000 HD 
HETATM   11  O   UNL     1     -11.964  13.100  66.714  1.00  0.00    -0.384 OA 
HETATM   12  C   UNL     1      -7.347  10.538  69.143  1.00  0.00    -0.109 A  
HETATM   13  C   UNL     1      -8.253  10.688  70.189  1.00  0.00     0.736 A  
HETATM   14  C   UNL     1     -11.400  13.404  65.419  1.00  0.00    -0.291 C  
HETATM   15  N   UNL     1      -7.540  16.971  70.161  1.00  0.00     1.451 N  
HETATM   16  N   UNL     1     -10.576  14.627  65.673  1.00  0.00    -0.312 NA 
HETATM   17  C   UNL     1     -12.338  13.897  64.264  1.00  0.00    -0.390 C  
HETATM   18  C   UNL     1      -9.137  11.776  70.205  1.00  0.00     3.294 A  
HETATM   19  C   UNL     1     -10.906  16.063  65.530  1.00  0.00    -0.292 A  
HETATM   20  C   UNL     1     -10.131  16.891  66.460  1.00  0.00    -0.320 A  
HETATM   21  N   UNL     1      -9.886  12.986  68.032  1.00  0.00    -0.218 NA 
HETATM   22  C   UNL     1      -8.382  17.532  69.116  1.00  0.00     0.078 C  
HETATM   23  C   UNL     1      -9.234  16.047  67.109  1.00  0.00    -0.221 A  
HETATM   24  C   UNL     1     -10.381  18.285  66.551  1.00  0.00    -0.410 A  
HETATM   25  C   UNL     1      -9.598  14.803  66.599  1.00  0.00    -0.272 A  
HETATM   26  C   UNL     1     -11.311  18.907  65.730  1.00  0.00     1.030 A  
HETATM   27  C   UNL     1     -12.004  18.159  64.805  1.00  0.00     5.246 A  
HETATM   28  C   UNL     1      -9.041  13.780  67.311  1.00  0.00    -0.232 A  
HETATM   29  C   UNL     1      -7.773  14.089  67.895  1.00  0.00    -0.161 C  
HETATM   30  C   UNL     1     -11.817  16.769  64.696  1.00  0.00     1.074 A  
HETATM   31  C   UNL     1      -7.699  12.872  68.622  1.00  0.00    -0.067 A  
HETATM   32  C   UNL     1      -7.650  15.303  68.685  1.00  0.00    -0.129 C  
HETATM   33  C   UNL     1      -9.026  12.662  69.131  1.00  0.00     0.732 A  
HETATM   34  C   UNL     1      -8.418  16.382  68.207  1.00  0.00    -0.195 A  
BRANCH   4  35
HETATM   35  N   UNL     1     -10.216   9.484  64.980  1.00  0.00     0.374 N  
HETATM   36  C   UNL     1     -11.462   8.881  64.482  1.00  0.00    11.388 C  
HETATM   37  C   UNL     1      -9.077   8.734  64.625  1.00  0.00     0.210 C  
HETATM   38  O   UNL     1      -9.146   7.639  64.042  1.00  0.00     0.949 OA 
BRANCH  37  39
HETATM   39  C   UNL     1      -7.705   9.148  64.982  1.00  0.00    -0.109 A  
HETATM   40  C   UNL     1      -5.923  10.781  64.775  1.00  0.00     0.079 A  
HETATM   41  C   UNL     1      -7.207  10.338  64.439  1.00  0.00    -0.065 A  
HETATM   42  C   UNL     1      -5.131  10.033  65.637  1.00  0.00    -0.044 A  
HETATM   43  C   UNL     1      -5.654   8.874  66.216  1.00  0.00    -0.045 A  
HETATM   44  C   UNL     1      -6.955   8.472  65.935  1.00  0.00    -0.071 A  
ENDBRANCH  37  39
ENDBRANCH   4  35
ENDBRANCH   2   3
TORSDOF 3
ENDMDL
MODEL      149
REMARK 921   NORMALIZED FREE ENERGY PREDICTED BY IDOCK:   33.45 KCAL/MOL
REMARK 922        TOTAL FREE ENERGY PREDICTED BY IDOCK:   38.79 KCAL/MOL
REMARK 923 INTER-LIGAND FREE ENERGY PREDICTED BY IDOCK:   33.80 KCAL/MOL
REMARK 924 INTRA-LIGAND FREE ENERGY PREDICTED BY IDOCK:    4.99 KCAL/MOL
REMARK 927      BINDING AFFINITY PREDICTED BY RF-SCORE:    0.00 PKD
ROOT
HETATM    1  C   UNL     1      -8.776  10.627  69.118  1.00  0.00    -0.126 C  
HETATM    2  O   UNL     1      -9.879  11.352  68.570  1.00  0.00    -0.189 OA 
ENDROOT
BRANCH   2   3
HETATM    3  C   UNL     1     -10.103  12.774  68.925  1.00  0.00     0.068 C  
HETATM    4  C   UNL     1     -11.014  13.349  67.810  1.00  0.00    -0.262 C  
HETATM    5  C   UNL     1     -10.156  13.784  66.622  1.00  0.00    -0.277 C  
HETATM    6  O   UNL     1      -8.978  20.709  67.210  1.00  0.00    -0.350 OA 
HETATM    7  C   UNL     1     -11.669  17.451  66.794  1.00  0.00     1.935 A  
HETATM    8  C   UNL     1      -8.458  20.041  68.097  1.00  0.00    -0.172 C  
HETATM    9  C   UNL     1      -8.812  14.415  67.040  1.00  0.00    -0.237 C  
HETATM   10  H   UNL     1      -6.762  21.269  68.444  1.00  0.00     0.000 HD 
HETATM   11  O   UNL     1      -8.045  13.668  68.053  1.00  0.00    -0.136 OA 
HETATM   12  C   UNL     1     -11.878  17.174  65.444  1.00  0.00     2.335 A  
HETATM   13  C   UNL     1     -10.784  17.151  64.583  1.00  0.00     0.830 A  
HETATM   14  C   UNL     1      -8.712  13.509  69.325  1.00  0.00     0.738 C  
HETATM   15  N   UNL     1      -7.245  20.405  68.691  1.00  0.00    -0.088 N  
HETATM   16  N   UNL     1      -8.386  14.775  70.052  1.00  0.00     0.390 NA 
HETATM   17  C   UNL     1      -8.197  12.429  70.337  1.00  0.00     4.906 C  
HETATM   18  C   UNL     1      -9.488  17.001  65.096  1.00  0.00     1.541 A  
HETATM   19  C   UNL     1      -7.297  15.092  71.005  1.00  0.00     1.567 A  
HETATM   20  C   UNL     1      -6.939  16.513  70.965  1.00  0.00     3.068 A  
HETATM   21  N   UNL     1      -9.020  15.823  67.363  1.00  0.00    -0.189 NA 
HETATM   22  C   UNL     1      -6.711  19.483  69.680  1.00  0.00    -0.279 C  
HETATM   23  C   UNL     1      -7.840  17.137  70.106  1.00  0.00     2.119 A  
HETATM   24  C   UNL     1      -5.844  16.995  71.728  1.00  0.00     1.481 A  
HETATM   25  C   UNL     1      -8.583  16.055  69.642  1.00  0.00     0.123 A  
HETATM   26  C   UNL     1      -5.127  16.156  72.571  1.00  0.00     1.234 A  
HETATM   27  C   UNL     1      -5.488  14.831  72.674  1.00  0.00     0.065 A  
HETATM   28  C   UNL     1      -9.347  16.390  68.561  1.00  0.00    -0.225 A  
HETATM   29  C   UNL     1      -9.781  17.753  68.545  1.00  0.00    -0.343 C  
HETATM   30  C   UNL     1      -6.544  14.297  71.914  1.00  0.00     1.405 A  
HETATM   31  C   UNL     1     -10.340  17.663  67.243  1.00  0.00    -0.354 A  
HETATM   32  C   UNL     1      -8.791  18.800  68.735  1.00  0.00    -0.308 C  
HETATM   33  C   UNL     1      -9.395  16.891  66.485  1.00  0.00    -0.270 A  
HETATM   34  C   UNL     1      -7.763  18.463  69.636  1.00  0.00     0.557 A  
BRANCH   4  35
HETATM   35  N   UNL     1     -12.183  12.404  67.403  1.00  0.00     0.029 N  
HETATM   36  C   UNL     1     -13.403  12.359  68.223  1.00  0.00     5.339 C  
HETATM   37  C   UNL     1     -12.319  11.689  66.197  1.00  0.00     1.597 C  
HETATM   38  O   UNL     1     -13.330  11.021  65.920  1.00  0.00     6.645 OA 
BRANCH  37  39
HETATM   39  C   UNL     1     -11.243  11.611  65.189  1.00  0.00    -0.262 A  
HETATM   40  C   UNL     1     -10.611  11.374  62.859  1.00  0.00    -0.017 A  
HETATM   41  C   UNL     1     -11.598  11.424  63.849  1.00  0.00    -0.154 A  
HETATM   42  C   UNL     1      -9.270  11.495  63.206  1.00  0.00    -0.150 A  
HETATM   43  C   UNL     1      -8.926  11.734  64.538  1.00  0.00     0.483 A  
HETATM   44  C   UNL     1      -9.913  11.852  65.510  1.00  0.00    -0.266 A  
ENDBRANCH  37  39
ENDBRANCH   4  35
ENDBRANCH   2   3
TORSDOF 3
ENDMDL
MODEL      150
REMARK 921   NORMALIZED FREE ENERGY PREDICTED BY IDOCK:   33.51 KCAL/MOL
REMARK 922        TOTAL FREE ENERGY PREDICTED BY IDOCK:   38.86 KCAL/MOL
REMARK 923 INTER-LIGAND FREE ENERGY PREDICTED BY IDOCK:   27.18 KCAL/MOL
REMARK 924 INTRA-LIGAND FREE ENERGY PREDICTED BY IDOCK:   11.67 KCAL/MOL
REMARK 927      BINDING AFFINITY PREDICTED BY RF-SCORE:    0.00 PKD
ROOT
HETATM    1  C   UNL     1      -7.442  10.302  64.418  1.00  0.00    -0.084 C  
HETATM    2  O   UNL     1      -7.021  10.893  65.649  1.00  0.00    -0.069 OA 
ENDROOT
BRANCH   2   3
HETATM    3  C   UNL     1      -7.966  11.686  66.472  1.00  0.00    -0.053 C  
HETATM    4  C   UNL     1      -9.044  12.213  65.491  1.00  0.00     0.214 C  
HETATM    5  C   UNL     1      -8.547  13.498  64.828  1.00  0.00     4.260 C  
HETATM    6  O   UNL     1     -11.220  18.956  68.400  1.00  0.00     0.517 OA 
HETATM    7  C   UNL     1     -11.775  15.453  66.066  1.00  0.00     0.215 A  
HETATM    8  C   UNL     1     -10.425  18.283  69.047  1.00  0.00     0.076 C  
HETATM    9  C   UNL     1      -7.743  14.403  65.784  1.00  0.00     4.475 C  
HETATM   10  H   UNL     1      -9.638  19.834  70.264  1.00  0.00     0.000 HD 
HETATM   11  O   UNL     1      -6.695  13.728  66.571  1.00  0.00     1.193 OA 
HETATM   12  C   UNL     1     -11.805  15.782  64.711  1.00  0.00     0.018 A  
HETATM   13  C   UNL     1     -10.866  16.682  64.214  1.00  0.00     0.982 A  
HETATM   14  C   UNL     1      -7.176  12.699  67.465  1.00  0.00    -0.155 C  
HETATM   15  N   UNL     1      -9.589  18.845  70.018  1.00  0.00     0.816 N  
HETATM   16  N   UNL     1      -7.570  13.458  68.693  1.00  0.00    -0.122 NA 
HETATM   17  C   UNL     1      -6.166  11.656  68.056  1.00  0.00    -0.047 C  
HETATM   18  C   UNL     1      -9.688  16.936  64.930  1.00  0.00     1.926 A  
HETATM   19  C   UNL     1      -6.815  13.757  69.930  1.00  0.00     0.164 A  
HETATM   20  C   UNL     1      -7.265  15.007  70.551  1.00  0.00     0.554 A  
HETATM   21  N   UNL     1      -8.665  15.208  66.578  1.00  0.00    -0.277 NA 
HETATM   22  C   UNL     1      -8.647  17.940  70.657  1.00  0.00     4.955 C  
HETATM   23  C   UNL     1      -8.360  15.456  69.817  1.00  0.00    -0.006 A  
HETATM   24  C   UNL     1      -6.592  15.522  71.689  1.00  0.00     1.957 A  
HETATM   25  C   UNL     1      -8.417  14.515  68.791  1.00  0.00    -0.145 A  
HETATM   26  C   UNL     1      -5.539  14.833  72.277  1.00  0.00     0.155 A  
HETATM   27  C   UNL     1      -5.142  13.625  71.750  1.00  0.00    -0.179 A  
HETATM   28  C   UNL     1      -9.242  14.916  67.780  1.00  0.00    -0.186 A  
HETATM   29  C   UNL     1     -10.333  15.740  68.201  1.00  0.00    -0.242 C  
HETATM   30  C   UNL     1      -5.754  13.087  70.604  1.00  0.00    -0.165 A  
HETATM   31  C   UNL     1     -10.760  16.024  66.877  1.00  0.00    -0.262 A  
HETATM   32  C   UNL     1     -10.049  16.899  69.032  1.00  0.00    -0.292 C  
HETATM   33  C   UNL     1      -9.549  16.245  66.135  1.00  0.00    -0.331 A  
HETATM   34  C   UNL     1      -8.998  16.704  69.950  1.00  0.00     1.052 A  
BRANCH   4  35
HETATM   35  N   UNL     1      -9.533  11.150  64.465  1.00  0.00    -0.235 N  
HETATM   36  C   UNL     1      -8.747   9.925  64.251  1.00  0.00    -0.209 C  
HETATM   37  C   UNL     1     -10.783  11.106  63.815  1.00  0.00    -0.329 C  
HETATM   38  O   UNL     1     -11.123  10.170  63.071  1.00  0.00     1.969 OA 
BRANCH  37  39
HETATM   39  C   UNL     1     -11.768  12.202  63.904  1.00  0.00    -0.546 A  
HETATM   40  C   UNL     1     -13.508  13.315  65.176  1.00  0.00     0.903 A  
HETATM   41  C   UNL     1     -12.583  12.275  65.040  1.00  0.00    -0.157 A  
HETATM   42  C   UNL     1     -13.633  14.272  64.176  1.00  0.00     2.955 A  
HETATM   43  C   UNL     1     -12.781  14.224  63.071  1.00  0.00     1.703 A  
HETATM   44  C   UNL     1     -11.815  13.228  62.969  1.00  0.00     0.213 A  
ENDBRANCH  37  39
ENDBRANCH   4  35
ENDBRANCH   2   3
TORSDOF 3
ENDMDL
MODEL      151
REMARK 921   NORMALIZED FREE ENERGY PREDICTED BY IDOCK:   34.34 KCAL/MOL
REMARK 922        TOTAL FREE ENERGY PREDICTED BY IDOCK:   39.84 KCAL/MOL
REMARK 923 INTER-LIGAND FREE ENERGY PREDICTED BY IDOCK:   32.53 KCAL/MOL
REMARK 924 INTRA-LIGAND FREE ENERGY PREDICTED BY IDOCK:    7.30 KCAL/MOL
REMARK 927      BINDING AFFINITY PREDICTED BY RF-SCORE:    0.00 PKD
ROOT
HETATM    1  C   UNL     1      -7.464   9.697  67.592  1.00  0.00    -0.091 C  
HETATM    2  O   UNL     1      -8.879   9.549  67.729  1.00  0.00    -0.120 OA 
ENDROOT
BRANCH   2   3
HETATM    3  C   UNL     1      -9.467   8.271  68.198  1.00  0.00    -0.137 C  
HETATM    4  C   UNL     1     -10.463   8.652  69.323  1.00  0.00    -0.217 C  
HETATM    5  C   UNL     1      -9.711   8.788  70.648  1.00  0.00    -0.239 C  
HETATM    6  O   UNL     1     -10.348   2.702  74.146  1.00  0.00    -0.117 OA 
HETATM    7  C   UNL     1     -12.111   6.124  72.354  1.00  0.00    -0.186 A  
HETATM    8  C   UNL     1      -9.701   2.611  73.108  1.00  0.00    -0.101 C  
HETATM    9  C   UNL     1      -8.584   7.749  70.817  1.00  0.00    -0.133 C  
HETATM   10  H   UNL     1      -8.382   1.060  73.711  1.00  0.00     0.000 HD 
HETATM   11  O   UNL     1      -7.680   7.595  69.663  1.00  0.00    -0.095 OA 
HETATM   12  C   UNL     1     -12.204   7.156  73.286  1.00  0.00     1.305 A  
HETATM   13  C   UNL     1     -11.117   7.417  74.115  1.00  0.00     1.919 A  
HETATM   14  C   UNL     1      -8.320   7.149  68.446  1.00  0.00    -0.125 C  
HETATM   15  N   UNL     1      -8.636   1.714  72.970  1.00  0.00    -0.060 N  
HETATM   16  N   UNL     1      -8.347   5.660  68.588  1.00  0.00    -0.106 NA 
HETATM   17  C   UNL     1      -7.576   7.316  67.076  1.00  0.00    -0.106 C  
HETATM   18  C   UNL     1      -9.840   6.953  73.769  1.00  0.00    -0.313 A  
HETATM   19  C   UNL     1      -7.401   4.625  68.113  1.00  0.00    -0.066 A  
HETATM   20  C   UNL     1      -7.415   3.441  68.977  1.00  0.00    -0.049 A  
HETATM   21  N   UNL     1      -9.152   6.497  71.306  1.00  0.00    -0.148 NA 
HETATM   22  C   UNL     1      -7.913   1.764  71.709  1.00  0.00    -0.041 C  
HETATM   23  C   UNL     1      -8.420   3.635  69.921  1.00  0.00    -0.091 A  
HETATM   24  C   UNL     1      -6.500   2.380  68.749  1.00  0.00    -0.029 A  
HETATM   25  C   UNL     1      -8.851   4.923  69.611  1.00  0.00    -0.086 A  
HETATM   26  C   UNL     1      -5.617   2.406  67.678  1.00  0.00    -0.018 A  
HETATM   27  C   UNL     1      -5.632   3.479  66.815  1.00  0.00    -0.022 A  
HETATM   28  C   UNL     1      -9.645   5.442  70.594  1.00  0.00    -0.172 A  
HETATM   29  C   UNL     1     -10.411   4.468  71.310  1.00  0.00    -0.102 C  
HETATM   30  C   UNL     1      -6.496   4.570  67.015  1.00  0.00    -0.042 A  
HETATM   31  C   UNL     1     -10.892   5.403  72.264  1.00  0.00    -0.286 A  
HETATM   32  C   UNL     1      -9.724   3.308  71.855  1.00  0.00    -0.233 C  
HETATM   33  C   UNL     1      -9.761   6.232  72.576  1.00  0.00    -0.156 A  
HETATM   34  C   UNL     1      -8.670   2.834  71.051  1.00  0.00    -0.119 A  
BRANCH   4  35
HETATM   35  N   UNL     1     -11.341   9.894  68.992  1.00  0.00    -0.091 N  
HETATM   36  C   UNL     1     -11.695  10.185  67.594  1.00  0.00     1.051 C  
HETATM   37  C   UNL     1     -12.035  10.713  69.904  1.00  0.00    -0.310 C  
HETATM   38  O   UNL     1     -12.784  11.638  69.543  1.00  0.00     0.086 OA 
BRANCH  37  39
HETATM   39  C   UNL     1     -11.877  10.593  71.367  1.00  0.00    -0.157 A  
HETATM   40  C   UNL     1     -12.835  10.878  73.577  1.00  0.00     7.606 A  
HETATM   41  C   UNL     1     -12.934  11.003  72.187  1.00  0.00    -0.244 A  
HETATM   42  C   UNL     1     -11.679  10.360  74.149  1.00  0.00    16.790 A  
HETATM   43  C   UNL     1     -10.650   9.904  73.323  1.00  0.00     7.303 A  
HETATM   44  C   UNL     1     -10.778   9.966  71.940  1.00  0.00     1.079 A  
ENDBRANCH  37  39
ENDBRANCH   4  35
ENDBRANCH   2   3
TORSDOF 3
ENDMDL
MODEL      152
REMARK 921   NORMALIZED FREE ENERGY PREDICTED BY IDOCK:   35.14 KCAL/MOL
REMARK 922        TOTAL FREE ENERGY PREDICTED BY IDOCK:   40.78 KCAL/MOL
REMARK 923 INTER-LIGAND FREE ENERGY PREDICTED BY IDOCK:   29.18 KCAL/MOL
REMARK 924 INTRA-LIGAND FREE ENERGY PREDICTED BY IDOCK:   11.60 KCAL/MOL
REMARK 927      BINDING AFFINITY PREDICTED BY RF-SCORE:    0.00 PKD
ROOT
HETATM    1  C   UNL     1      -8.359  10.827  72.025  1.00  0.00     9.149 C  
HETATM    2  O   UNL     1      -9.710  10.374  71.912  1.00  0.00     3.189 OA 
ENDROOT
BRANCH   2   3
HETATM    3  C   UNL     1     -10.473  10.570  70.655  1.00  0.00     0.542 C  
HETATM    4  C   UNL     1     -10.278   9.269  69.836  1.00  0.00    -0.214 C  
HETATM    5  C   UNL     1      -8.969   9.351  69.049  1.00  0.00    -0.141 C  
HETATM    6  O   UNL     1     -10.492  11.512  62.514  1.00  0.00     0.231 OA 
HETATM    7  C   UNL     1     -10.901   8.674  65.647  1.00  0.00     3.035 A  
HETATM    8  C   UNL     1     -10.713  12.353  63.378  1.00  0.00    -0.352 C  
HETATM    9  C   UNL     1      -8.678  10.763  68.499  1.00  0.00    -0.149 C  
HETATM   10  H   UNL     1     -10.313  14.087  62.219  1.00  0.00     0.000 HD 
HETATM   11  O   UNL     1      -8.833  11.867  69.462  1.00  0.00     0.778 OA 
HETATM   12  C   UNL     1      -9.902   7.706  65.547  1.00  0.00     1.090 A  
HETATM   13  C   UNL     1      -8.597   8.109  65.280  1.00  0.00    -0.132 A  
HETATM   14  C   UNL     1     -10.167  12.022  69.998  1.00  0.00     1.825 C  
HETATM   15  N   UNL     1     -10.566  13.724  63.139  1.00  0.00     2.669 N  
HETATM   16  N   UNL     1     -10.863  12.858  68.971  1.00  0.00    -0.192 NA 
HETATM   17  C   UNL     1     -10.383  12.879  71.293  1.00  0.00     7.453 C  
HETATM   18  C   UNL     1      -8.210   9.437  65.508  1.00  0.00    -0.127 A  
HETATM   19  C   UNL     1     -11.054  14.323  68.883  1.00  0.00    -0.262 A  
HETATM   20  C   UNL     1     -11.175  14.771  67.492  1.00  0.00    -0.339 A  
HETATM   21  N   UNL     1      -9.404  10.952  67.247  1.00  0.00    -0.155 NA 
HETATM   22  C   UNL     1     -10.794  14.603  64.274  1.00  0.00     0.219 C  
HETATM   23  C   UNL     1     -11.184  13.629  66.694  1.00  0.00    -0.324 A  
HETATM   24  C   UNL     1     -11.257  16.156  67.192  1.00  0.00     0.051 A  
HETATM   25  C   UNL     1     -10.981  12.625  67.638  1.00  0.00    -0.241 A  
HETATM   26  C   UNL     1     -11.287  17.111  68.199  1.00  0.00     0.197 A  
HETATM   27  C   UNL     1     -11.241  16.710  69.515  1.00  0.00    -0.060 A  
HETATM   28  C   UNL     1     -10.666  11.433  67.051  1.00  0.00    -0.261 A  
HETATM   29  C   UNL     1     -11.248  11.241  65.758  1.00  0.00    -0.084 C  
HETATM   30  C   UNL     1     -11.126  15.352  69.864  1.00  0.00    -0.304 A  
HETATM   31  C   UNL     1     -10.536  10.038  65.507  1.00  0.00    -0.008 A  
HETATM   32  C   UNL     1     -11.088  12.287  64.761  1.00  0.00    -0.356 C  
HETATM   33  C   UNL     1      -9.207  10.284  65.995  1.00  0.00    -0.164 A  
HETATM   34  C   UNL     1     -11.109  13.593  65.289  1.00  0.00    -0.307 A  
BRANCH   4  35
HETATM   35  N   UNL     1     -10.398   7.968  70.682  1.00  0.00    -0.200 N  
HETATM   36  C   UNL     1     -11.402   6.954  70.322  1.00  0.00    -0.324 C  
HETATM   37  C   UNL     1      -9.513   7.517  71.681  1.00  0.00    -0.149 C  
HETATM   38  O   UNL     1      -9.642   6.420  72.250  1.00  0.00    -0.153 OA 
BRANCH  37  39
HETATM   39  C   UNL     1      -8.398   8.340  72.190  1.00  0.00    -0.232 A  
HETATM   40  C   UNL     1      -7.458   9.644  74.007  1.00  0.00     2.075 A  
HETATM   41  C   UNL     1      -8.505   8.883  73.476  1.00  0.00     0.694 A  
HETATM   42  C   UNL     1      -6.314   9.878  73.253  1.00  0.00     1.240 A  
HETATM   43  C   UNL     1      -6.192   9.290  71.993  1.00  0.00     0.078 A  
HETATM   44  C   UNL     1      -7.204   8.477  71.494  1.00  0.00    -0.104 A  
ENDBRANCH  37  39
ENDBRANCH   4  35
ENDBRANCH   2   3
TORSDOF 3
ENDMDL
MODEL      153
REMARK 921   NORMALIZED FREE ENERGY PREDICTED BY IDOCK:   35.33 KCAL/MOL
REMARK 922        TOTAL FREE ENERGY PREDICTED BY IDOCK:   41.00 KCAL/MOL
REMARK 923 INTER-LIGAND FREE ENERGY PREDICTED BY IDOCK:   39.93 KCAL/MOL
REMARK 924 INTRA-LIGAND FREE ENERGY PREDICTED BY IDOCK:    1.07 KCAL/MOL
REMARK 927      BINDING AFFINITY PREDICTED BY RF-SCORE:    0.00 PKD
ROOT
HETATM    1  C   UNL     1     -12.308  14.801  70.066  1.00  0.00    -0.316 C  
HETATM    2  O   UNL     1     -12.340  13.504  69.467  1.00  0.00    -0.268 OA 
ENDROOT
BRANCH   2   3
HETATM    3  C   UNL     1     -11.106  12.890  68.919  1.00  0.00    -0.255 C  
HETATM    4  C   UNL     1     -11.580  11.832  67.891  1.00  0.00    -0.307 C  
HETATM    5  C   UNL     1     -11.905  10.525  68.615  1.00  0.00    -0.047 C  
HETATM    6  O   UNL     1      -6.266   6.321  68.150  1.00  0.00    -0.029 OA 
HETATM    7  C   UNL     1      -9.374   8.537  66.289  1.00  0.00    -0.287 A  
HETATM    8  C   UNL     1      -6.076   7.332  68.818  1.00  0.00    -0.027 C  
HETATM    9  C   UNL     1     -10.940  10.217  69.777  1.00  0.00    -0.289 C  
HETATM   10  H   UNL     1      -4.663   6.529  70.184  1.00  0.00     0.000 HD 
HETATM   11  O   UNL     1     -10.683  11.333  70.705  1.00  0.00     1.135 OA 
HETATM   12  C   UNL     1     -10.507   7.738  66.141  1.00  0.00     0.817 A  
HETATM   13  C   UNL     1     -10.908   6.933  67.204  1.00  0.00    -0.447 A  
HETATM   14  C   UNL     1     -10.069  12.494  70.104  1.00  0.00     2.845 C  
HETATM   15  N   UNL     1      -5.212   7.347  69.917  1.00  0.00    -0.022 N  
HETATM   16  N   UNL     1      -8.608  12.172  70.131  1.00  0.00     3.072 NA 
HETATM   17  C   UNL     1     -10.098  13.865  70.864  1.00  0.00     3.736 C  
HETATM   18  C   UNL     1     -10.457   7.206  68.502  1.00  0.00    -0.229 A  
HETATM   19  C   UNL     1      -7.561  12.507  71.123  1.00  0.00     7.092 A  
HETATM   20  C   UNL     1      -6.490  11.506  71.140  1.00  0.00     1.632 A  
HETATM   21  N   UNL     1      -9.734   9.586  69.249  1.00  0.00    -0.168 NA 
HETATM   22  C   UNL     1      -5.137   8.596  70.660  1.00  0.00    -0.021 C  
HETATM   23  C   UNL     1      -6.757  10.604  70.112  1.00  0.00    -0.143 A  
HETATM   24  C   UNL     1      -5.447  11.591  72.098  1.00  0.00     0.664 A  
HETATM   25  C   UNL     1      -7.980  11.073  69.638  1.00  0.00     0.281 A  
HETATM   26  C   UNL     1      -5.379  12.647  72.997  1.00  0.00     0.600 A  
HETATM   27  C   UNL     1      -6.338  13.634  72.956  1.00  0.00     1.887 A  
HETATM   28  C   UNL     1      -8.582  10.171  68.808  1.00  0.00    -0.133 A  
HETATM   29  C   UNL     1      -7.673   9.351  68.068  1.00  0.00    -0.084 C  
HETATM   30  C   UNL     1      -7.410  13.579  72.048  1.00  0.00     6.423 A  
HETATM   31  C   UNL     1      -8.696   8.523  67.536  1.00  0.00    -0.135 A  
HETATM   32  C   UNL     1      -6.615   8.661  68.789  1.00  0.00    -0.054 C  
HETATM   33  C   UNL     1      -9.601   8.301  68.630  1.00  0.00    -0.149 A  
HETATM   34  C   UNL     1      -6.089   9.388  69.874  1.00  0.00    -0.039 A  
BRANCH   4  35
HETATM   35  N   UNL     1     -12.737  12.322  66.972  1.00  0.00     1.583 N  
HETATM   36  C   UNL     1     -14.008  12.759  67.569  1.00  0.00    11.803 C  
HETATM   37  C   UNL     1     -12.670  12.597  65.591  1.00  0.00     0.239 C  
HETATM   38  O   UNL     1     -13.626  13.067  64.951  1.00  0.00    -0.171 OA 
BRANCH  37  39
HETATM   39  C   UNL     1     -11.483  12.282  64.771  1.00  0.00    -0.382 A  
HETATM   40  C   UNL     1     -10.580  11.589  62.629  1.00  0.00     0.454 A  
HETATM   41  C   UNL     1     -11.678  11.869  63.449  1.00  0.00    -0.500 A  
HETATM   42  C   UNL     1      -9.289  11.706  63.131  1.00  0.00    -0.198 A  
HETATM   43  C   UNL     1      -9.099  12.170  64.434  1.00  0.00     0.668 A  
HETATM   44  C   UNL     1     -10.191  12.513  65.225  1.00  0.00    -0.302 A  
ENDBRANCH  37  39
ENDBRANCH   4  35
ENDBRANCH   2   3
TORSDOF 3
ENDMDL
MODEL      154
REMARK 921   NORMALIZED FREE ENERGY PREDICTED BY IDOCK:   36.77 KCAL/MOL
REMARK 922        TOTAL FREE ENERGY PREDICTED BY IDOCK:   42.69 KCAL/MOL
REMARK 923 INTER-LIGAND FREE ENERGY PREDICTED BY IDOCK:   39.56 KCAL/MOL
REMARK 924 INTRA-LIGAND FREE ENERGY PREDICTED BY IDOCK:    3.13 KCAL/MOL
REMARK 927      BINDING AFFINITY PREDICTED BY RF-SCORE:    0.00 PKD
ROOT
HETATM    1  C   UNL     1      -8.960  14.175  72.050  1.00  0.00     8.756 C  
HETATM    2  O   UNL     1      -9.506  13.222  71.136  1.00  0.00     7.563 OA 
ENDROOT
BRANCH   2   3
HETATM    3  C   UNL     1      -8.626  12.462  70.215  1.00  0.00     4.797 C  
HETATM    4  C   UNL     1      -9.169  12.736  68.789  1.00  0.00     0.168 C  
HETATM    5  C   UNL     1     -10.316  11.771  68.485  1.00  0.00    -0.228 C  
HETATM    6  O   UNL     1      -7.673   6.336  64.855  1.00  0.00    -0.086 OA 
HETATM    7  C   UNL     1      -8.452  10.494  65.219  1.00  0.00    -0.175 A  
HETATM    8  C   UNL     1      -7.257   6.411  66.007  1.00  0.00    -0.075 C  
HETATM    9  C   UNL     1     -10.088  10.357  69.058  1.00  0.00    -0.213 C  
HETATM   10  H   UNL     1      -6.982   4.337  66.364  1.00  0.00     0.000 HD 
HETATM   11  O   UNL     1      -9.658  10.302  70.467  1.00  0.00     0.198 OA 
HETATM   12  C   UNL     1      -9.700  10.795  64.675  1.00  0.00    -0.344 A  
HETATM   13  C   UNL     1     -10.779   9.964  64.963  1.00  0.00     1.152 A  
HETATM   14  C   UNL     1      -8.392  10.944  70.740  1.00  0.00     3.515 C  
HETATM   15  N   UNL     1      -6.933   5.277  66.758  1.00  0.00    -0.063 N  
HETATM   16  N   UNL     1      -7.385   9.885  70.420  1.00  0.00    -0.217 NA 
HETATM   17  C   UNL     1      -8.010  11.299  72.218  1.00  0.00    12.794 C  
HETATM   18  C   UNL     1     -10.730   9.104  66.068  1.00  0.00     0.824 A  
HETATM   19  C   UNL     1      -6.721   8.886  71.288  1.00  0.00    -0.083 A  
HETATM   20  C   UNL     1      -6.355   7.679  70.541  1.00  0.00    -0.038 A  
HETATM   21  N   UNL     1      -9.246   9.594  68.143  1.00  0.00    -0.126 NA 
HETATM   22  C   UNL     1      -6.520   5.512  68.132  1.00  0.00    -0.044 C  
HETATM   23  C   UNL     1      -6.655   7.919  69.202  1.00  0.00    -0.040 A  
HETATM   24  C   UNL     1      -5.804   6.560  71.219  1.00  0.00    -0.028 A  
HETATM   25  C   UNL     1      -7.246   9.178  69.268  1.00  0.00    -0.065 A  
HETATM   26  C   UNL     1      -5.543   6.599  72.582  1.00  0.00    -0.038 A  
HETATM   27  C   UNL     1      -5.819   7.746  73.291  1.00  0.00    -0.049 A  
HETATM   28  C   UNL     1      -7.885   9.500  68.105  1.00  0.00    -0.083 A  
HETATM   29  C   UNL     1      -7.300   8.927  66.933  1.00  0.00    -0.083 C  
HETATM   30  C   UNL     1      -6.395   8.871  72.673  1.00  0.00     0.030 A  
HETATM   31  C   UNL     1      -8.342   9.369  66.075  1.00  0.00    -0.123 A  
HETATM   32  C   UNL     1      -7.033   7.498  66.916  1.00  0.00    -0.079 C  
HETATM   33  C   UNL     1      -9.552   9.146  66.817  1.00  0.00    -0.195 A  
HETATM   34  C   UNL     1      -6.629   6.974  68.159  1.00  0.00    -0.055 A  
BRANCH   4  35
HETATM   35  N   UNL     1      -9.544  14.225  68.534  1.00  0.00    -0.220 N  
HETATM   36  C   UNL     1      -8.799  15.293  69.219  1.00  0.00    -0.242 C  
HETATM   37  C   UNL     1     -10.418  14.726  67.549  1.00  0.00    -0.245 C  
HETATM   38  O   UNL     1     -10.596  15.942  67.362  1.00  0.00    -0.305 OA 
BRANCH  37  39
HETATM   39  C   UNL     1     -11.253  13.851  66.703  1.00  0.00    -0.328 A  
HETATM   40  C   UNL     1     -13.363  12.698  66.378  1.00  0.00     3.748 A  
HETATM   41  C   UNL     1     -12.528  13.501  67.162  1.00  0.00    -0.056 A  
HETATM   42  C   UNL     1     -12.923  12.231  65.145  1.00  0.00     0.648 A  
HETATM   43  C   UNL     1     -11.671  12.627  64.669  1.00  0.00    -0.411 A  
HETATM   44  C   UNL     1     -10.870  13.482  65.420  1.00  0.00    -0.299 A  
ENDBRANCH  37  39
ENDBRANCH   4  35
ENDBRANCH   2   3
TORSDOF 3
ENDMDL
MODEL      155
REMARK 921   NORMALIZED FREE ENERGY PREDICTED BY IDOCK:   37.83 KCAL/MOL
REMARK 922        TOTAL FREE ENERGY PREDICTED BY IDOCK:   43.94 KCAL/MOL
REMARK 923 INTER-LIGAND FREE ENERGY PREDICTED BY IDOCK:   36.96 KCAL/MOL
REMARK 924 INTRA-LIGAND FREE ENERGY PREDICTED BY IDOCK:    6.98 KCAL/MOL
REMARK 927      BINDING AFFINITY PREDICTED BY RF-SCORE:    0.00 PKD
ROOT
HETATM    1  C   UNL     1     -12.415   9.287  63.690  1.00  0.00    15.937 C  
HETATM    2  O   UNL     1     -12.174  10.676  63.923  1.00  0.00     2.124 OA 
ENDROOT
BRANCH   2   3
HETATM    3  C   UNL     1     -10.829  11.156  64.323  1.00  0.00    -0.284 C  
HETATM    4  C   UNL     1     -10.029   9.890  64.722  1.00  0.00    -0.062 C  
HETATM    5  C   UNL     1     -10.331   9.531  66.177  1.00  0.00    -0.188 C  
HETATM    6  O   UNL     1      -5.214  12.249  70.192  1.00  0.00    -0.083 OA 
HETATM    7  C   UNL     1      -6.464   9.654  67.072  1.00  0.00    -0.066 A  
HETATM    8  C   UNL     1      -5.909  13.093  69.638  1.00  0.00    -0.109 C  
HETATM    9  C   UNL     1     -10.489  10.766  67.088  1.00  0.00    -0.237 C  
HETATM   10  H   UNL     1      -5.784  14.607  71.121  1.00  0.00     0.000 HD 
HETATM   11  O   UNL     1     -11.367  11.831  66.570  1.00  0.00    -0.325 OA 
HETATM   12  C   UNL     1      -6.787   8.401  67.594  1.00  0.00    -0.067 A  
HETATM   13  C   UNL     1      -7.543   8.332  68.761  1.00  0.00    -0.101 A  
HETATM   14  C   UNL     1     -10.931  12.427  65.328  1.00  0.00    -0.298 C  
HETATM   15  N   UNL     1      -6.187  14.332  70.225  1.00  0.00    -0.167 N  
HETATM   16  N   UNL     1      -9.960  13.478  65.765  1.00  0.00    -0.276 NA 
HETATM   17  C   UNL     1     -11.943  13.273  64.480  1.00  0.00    -0.449 C  
HETATM   18  C   UNL     1      -8.300   9.436  69.176  1.00  0.00    -0.125 A  
HETATM   19  C   UNL     1     -10.153  14.921  66.039  1.00  0.00    -0.311 A  
HETATM   20  C   UNL     1      -9.192  15.417  67.029  1.00  0.00    -0.242 A  
HETATM   21  N   UNL     1      -9.171  11.228  67.509  1.00  0.00    -0.157 NA 
HETATM   22  C   UNL     1      -7.084  15.207  69.486  1.00  0.00    -0.195 C  
HETATM   23  C   UNL     1      -8.317  14.370  67.310  1.00  0.00    -0.228 A  
HETATM   24  C   UNL     1      -9.282  16.750  67.505  1.00  0.00    -0.215 A  
HETATM   25  C   UNL     1      -8.867  13.335  66.557  1.00  0.00     0.017 A  
HETATM   26  C   UNL     1     -10.233  17.631  67.008  1.00  0.00    -0.332 A  
HETATM   27  C   UNL     1     -11.104  17.206  66.031  1.00  0.00     0.390 A  
HETATM   28  C   UNL     1      -8.339  12.123  66.901  1.00  0.00    -0.151 A  
HETATM   29  C   UNL     1      -6.985  12.177  67.359  1.00  0.00    -0.146 C  
HETATM   30  C   UNL     1     -11.078  15.885  65.548  1.00  0.00    -0.149 A  
HETATM   31  C   UNL     1      -6.953  10.808  67.736  1.00  0.00    -0.077 A  
HETATM   32  C   UNL     1      -6.644  13.127  68.406  1.00  0.00    -0.092 C  
HETATM   33  C   UNL     1      -8.226  10.564  68.358  1.00  0.00    -0.121 A  
HETATM   34  C   UNL     1      -7.346  14.345  68.329  1.00  0.00    -0.122 A  
BRANCH   4  35
HETATM   35  N   UNL     1     -10.222   8.691  63.748  1.00  0.00     4.599 N  
HETATM   36  C   UNL     1     -11.521   8.491  63.086  1.00  0.00    16.649 C  
HETATM   37  C   UNL     1      -9.224   7.836  63.241  1.00  0.00     1.918 C  
HETATM   38  O   UNL     1      -9.457   6.953  62.398  1.00  0.00     1.162 OA 
BRANCH  37  39
HETATM   39  C   UNL     1      -7.828   7.867  63.720  1.00  0.00    -0.141 A  
HETATM   40  C   UNL     1      -6.029   6.753  64.907  1.00  0.00    -0.035 A  
HETATM   41  C   UNL     1      -7.354   6.777  64.459  1.00  0.00    -0.090 A  
HETATM   42  C   UNL     1      -5.181   7.820  64.633  1.00  0.00    -0.029 A  
HETATM   43  C   UNL     1      -5.645   8.880  63.850  1.00  0.00    -0.069 A  
HETATM   44  C   UNL     1      -6.942   8.870  63.348  1.00  0.00    -0.089 A  
ENDBRANCH  37  39
ENDBRANCH   4  35
ENDBRANCH   2   3
TORSDOF 3
ENDMDL
MODEL      156
REMARK 921   NORMALIZED FREE ENERGY PREDICTED BY IDOCK:   37.85 KCAL/MOL
REMARK 922        TOTAL FREE ENERGY PREDICTED BY IDOCK:   43.96 KCAL/MOL
REMARK 923 INTER-LIGAND FREE ENERGY PREDICTED BY IDOCK:   12.27 KCAL/MOL
REMARK 924 INTRA-LIGAND FREE ENERGY PREDICTED BY IDOCK:   31.69 KCAL/MOL
REMARK 927      BINDING AFFINITY PREDICTED BY RF-SCORE:    0.00 PKD
ROOT
HETATM    1  C   UNL     1      -5.900  14.713  68.761  1.00  0.00    -0.085 C  
HETATM    2  O   UNL     1      -6.876  14.151  69.641  1.00  0.00    -0.121 OA 
ENDROOT
BRANCH   2   3
HETATM    3  C   UNL     1      -8.193  13.703  69.127  1.00  0.00     0.381 C  
HETATM    4  C   UNL     1      -8.116  12.157  69.055  1.00  0.00     0.251 C  
HETATM    5  C   UNL     1      -7.463  11.739  67.736  1.00  0.00    -0.117 C  
HETATM    6  O   UNL     1     -12.600  10.241  63.148  1.00  0.00     4.082 OA 
HETATM    7  C   UNL     1     -10.608   9.494  66.823  1.00  0.00    -0.208 A  
HETATM    8  C   UNL     1     -12.559  11.422  63.477  1.00  0.00     0.330 C  
HETATM    9  C   UNL     1      -7.869  12.634  66.547  1.00  0.00     0.507 C  
HETATM   10  H   UNL     1     -13.268  12.264  61.662  1.00  0.00     0.000 HD 
HETATM   11  O   UNL     1      -7.790  14.086  66.785  1.00  0.00     0.153 OA 
HETATM   12  C   UNL     1      -9.590   8.561  66.632  1.00  0.00    -0.292 A  
HETATM   13  C   UNL     1      -8.758   8.688  65.523  1.00  0.00    -0.219 A  
HETATM   14  C   UNL     1      -8.651  14.576  67.837  1.00  0.00    -0.161 C  
HETATM   15  N   UNL     1     -12.913  12.452  62.599  1.00  0.00     1.022 N  
HETATM   16  N   UNL     1      -9.961  14.789  67.147  1.00  0.00    -0.234 NA 
HETATM   17  C   UNL     1      -8.390  15.995  68.450  1.00  0.00    -0.178 C  
HETATM   18  C   UNL     1      -8.667   9.913  64.848  1.00  0.00    -0.198 A  
HETATM   19  C   UNL     1     -10.541  15.999  66.522  1.00  0.00    -0.284 A  
HETATM   20  C   UNL     1     -11.465  15.658  65.436  1.00  0.00     0.025 A  
HETATM   21  N   UNL     1      -9.151  12.181  66.018  1.00  0.00    -0.123 NA 
HETATM   22  C   UNL     1     -12.748  13.808  63.100  1.00  0.00     0.905 C  
HETATM   23  C   UNL     1     -11.585  14.270  65.422  1.00  0.00    -0.346 A  
HETATM   24  C   UNL     1     -12.042  16.682  64.641  1.00  0.00     1.483 A  
HETATM   25  C   UNL     1     -10.677  13.900  66.411  1.00  0.00    -0.281 A  
HETATM   26  C   UNL     1     -11.800  18.024  64.906  1.00  0.00     4.038 A  
HETATM   27  C   UNL     1     -10.988  18.369  65.963  1.00  0.00     0.186 A  
HETATM   28  C   UNL     1     -10.411  12.561  66.380  1.00  0.00    -0.247 A  
HETATM   29  C   UNL     1     -11.498  11.754  65.916  1.00  0.00    -0.273 C  
HETATM   30  C   UNL     1     -10.365  17.391  66.760  1.00  0.00    -0.305 A  
HETATM   31  C   UNL     1     -10.731  10.559  65.893  1.00  0.00    -0.061 A  
HETATM   32  C   UNL     1     -12.144  12.112  64.664  1.00  0.00    -0.389 C  
HETATM   33  C   UNL     1      -9.455  10.946  65.358  1.00  0.00    -0.214 A  
HETATM   34  C   UNL     1     -12.230  13.499  64.436  1.00  0.00    -0.440 A  
BRANCH   4  35
HETATM   35  N   UNL     1      -7.447  11.502  70.299  1.00  0.00     1.354 N  
HETATM   36  C   UNL     1      -7.702  10.085  70.602  1.00  0.00     0.338 C  
HETATM   37  C   UNL     1      -6.435  12.051  71.110  1.00  0.00     1.993 C  
HETATM   38  O   UNL     1      -5.898  11.421  72.037  1.00  0.00     0.205 OA 
BRANCH  37  39
HETATM   39  C   UNL     1      -5.976  13.448  70.977  1.00  0.00     0.023 A  
HETATM   40  C   UNL     1      -5.407  15.304  69.522  1.00  0.00    -0.094 A  
HETATM   41  C   UNL     1      -5.813  13.976  69.691  1.00  0.00    -0.109 A  
HETATM   42  C   UNL     1      -5.150  16.101  70.631  1.00  0.00    -0.192 A  
HETATM   43  C   UNL     1      -5.365  15.584  71.911  1.00  0.00     0.176 A  
HETATM   44  C   UNL     1      -5.834  14.285  72.076  1.00  0.00    -0.006 A  
ENDBRANCH  37  39
ENDBRANCH   4  35
ENDBRANCH   2   3
TORSDOF 3
ENDMDL
MODEL      157
REMARK 921   NORMALIZED FREE ENERGY PREDICTED BY IDOCK:   38.82 KCAL/MOL
REMARK 922        TOTAL FREE ENERGY PREDICTED BY IDOCK:   45.10 KCAL/MOL
REMARK 923 INTER-LIGAND FREE ENERGY PREDICTED BY IDOCK:   36.26 KCAL/MOL
REMARK 924 INTRA-LIGAND FREE ENERGY PREDICTED BY IDOCK:    8.85 KCAL/MOL
REMARK 927      BINDING AFFINITY PREDICTED BY RF-SCORE:    0.00 PKD
ROOT
HETATM    1  C   UNL     1      -8.549  12.446  72.185  1.00  0.00    20.546 C  
HETATM    2  O   UNL     1      -8.866  12.091  70.838  1.00  0.00     6.666 OA 
ENDROOT
BRANCH   2   3
HETATM    3  C   UNL     1      -8.451  12.956  69.706  1.00  0.00     2.291 C  
HETATM    4  C   UNL     1      -7.384  13.922  70.282  1.00  0.00     1.007 C  
HETATM    5  C   UNL     1      -8.078  15.117  70.937  1.00  0.00     2.208 C  
HETATM    6  O   UNL     1      -8.211  20.384  66.253  1.00  0.00    -0.180 OA 
HETATM    7  C   UNL     1      -6.032  17.634  68.645  1.00  0.00    -0.179 A  
HETATM    8  C   UNL     1      -8.890  19.415  65.928  1.00  0.00     0.002 C  
HETATM    9  C   UNL     1      -9.334  15.584  70.173  1.00  0.00     0.369 C  
HETATM   10  H   UNL     1     -10.397  20.451  64.850  1.00  0.00     0.000 HD 
HETATM   11  O   UNL     1     -10.278  14.520  69.788  1.00  0.00     0.019 OA 
HETATM   12  C   UNL     1      -5.773  18.192  69.897  1.00  0.00    -0.249 A  
HETATM   13  C   UNL     1      -6.794  18.871  70.557  1.00  0.00     0.899 A  
HETATM   14  C   UNL     1      -9.736  13.522  68.894  1.00  0.00     0.100 C  
HETATM   15  N   UNL     1     -10.072  19.546  65.191  1.00  0.00     0.791 N  
HETATM   16  N   UNL     1      -9.914  14.132  67.539  1.00  0.00    -0.234 NA 
HETATM   17  C   UNL     1     -10.483  12.155  68.719  1.00  0.00    -0.201 C  
HETATM   18  C   UNL     1      -8.130  18.662  70.190  1.00  0.00     1.839 A  
HETATM   19  C   UNL     1     -11.006  13.990  66.549  1.00  0.00    -0.306 A  
HETATM   20  C   UNL     1     -11.137  15.186  65.712  1.00  0.00    -0.330 A  
HETATM   21  N   UNL     1      -8.935  16.458  69.075  1.00  0.00    -0.254 NA 
HETATM   22  C   UNL     1     -10.811  18.320  64.938  1.00  0.00     1.562 C  
HETATM   23  C   UNL     1     -10.091  16.041  66.054  1.00  0.00    -0.362 A  
HETATM   24  C   UNL     1     -12.196  15.288  64.773  1.00  0.00    -0.049 A  
HETATM   25  C   UNL     1      -9.493  15.347  67.102  1.00  0.00    -0.213 A  
HETATM   26  C   UNL     1     -13.092  14.245  64.580  1.00  0.00     0.616 A  
HETATM   27  C   UNL     1     -12.949  13.086  65.309  1.00  0.00    -0.092 A  
HETATM   28  C   UNL     1      -8.611  16.130  67.791  1.00  0.00    -0.167 A  
HETATM   29  C   UNL     1      -7.971  17.135  66.998  1.00  0.00    -0.230 C  
HETATM   30  C   UNL     1     -11.936  12.947  66.275  1.00  0.00    -0.472 A  
HETATM   31  C   UNL     1      -7.342  17.753  68.111  1.00  0.00    -0.238 A  
HETATM   32  C   UNL     1      -8.799  18.006  66.180  1.00  0.00    -0.111 C  
HETATM   33  C   UNL     1      -8.338  17.759  69.146  1.00  0.00     0.116 A  
HETATM   34  C   UNL     1      -9.929  17.373  65.627  1.00  0.00     0.034 A  
BRANCH   4  35
HETATM   35  N   UNL     1      -6.350  13.232  71.218  1.00  0.00     0.810 N  
HETATM   36  C   UNL     1      -5.847  13.946  72.402  1.00  0.00     0.219 C  
HETATM   37  C   UNL     1      -5.948  11.882  71.195  1.00  0.00     0.570 C  
HETATM   38  O   UNL     1      -5.175  11.394  72.037  1.00  0.00    -0.332 OA 
BRANCH  37  39
HETATM   39  C   UNL     1      -6.351  10.947  70.125  1.00  0.00    -0.149 A  
HETATM   40  C   UNL     1      -8.141   9.874  68.889  1.00  0.00    -0.105 A  
HETATM   41  C   UNL     1      -7.716  10.729  69.911  1.00  0.00     0.200 A  
HETATM   42  C   UNL     1      -7.206   9.225  68.090  1.00  0.00    -0.078 A  
HETATM   43  C   UNL     1      -5.847   9.488  68.274  1.00  0.00    -0.040 A  
HETATM   44  C   UNL     1      -5.430  10.391  69.247  1.00  0.00    -0.038 A  
ENDBRANCH  37  39
ENDBRANCH   4  35
ENDBRANCH   2   3
TORSDOF 3
ENDMDL
MODEL      158
REMARK 921   NORMALIZED FREE ENERGY PREDICTED BY IDOCK:   47.51 KCAL/MOL
REMARK 922        TOTAL FREE ENERGY PREDICTED BY IDOCK:   55.32 KCAL/MOL
REMARK 923 INTER-LIGAND FREE ENERGY PREDICTED BY IDOCK:   44.41 KCAL/MOL
REMARK 924 INTRA-LIGAND FREE ENERGY PREDICTED BY IDOCK:   10.91 KCAL/MOL
REMARK 927      BINDING AFFINITY PREDICTED BY RF-SCORE:    0.00 PKD
ROOT
HETATM    1  C   UNL     1      -9.598  17.532  66.137  1.00  0.00    -0.182 C  
HETATM    2  O   UNL     1      -8.274  17.065  66.404  1.00  0.00    -0.245 OA 
ENDROOT
BRANCH   2   3
HETATM    3  C   UNL     1      -8.048  15.866  67.249  1.00  0.00    -0.184 C  
HETATM    4  C   UNL     1      -7.415  14.804  66.315  1.00  0.00     2.261 C  
HETATM    5  C   UNL     1      -8.520  14.061  65.562  1.00  0.00     2.658 C  
HETATM    6  O   UNL     1      -9.873   8.080  69.038  1.00  0.00    -0.171 OA 
HETATM    7  C   UNL     1      -7.177  10.576  66.910  1.00  0.00    -0.106 A  
HETATM    8  C   UNL     1     -10.166   9.093  69.664  1.00  0.00    -0.203 C  
HETATM    9  C   UNL     1      -9.776  13.808  66.422  1.00  0.00    -0.294 C  
HETATM   10  H   UNL     1     -11.810   8.309  70.755  1.00  0.00     0.000 HD 
HETATM   11  O   UNL     1     -10.281  14.972  67.171  1.00  0.00    -0.245 OA 
HETATM   12  C   UNL     1      -7.240  10.293  65.546  1.00  0.00    -0.149 A  
HETATM   13  C   UNL     1      -8.486  10.123  64.949  1.00  0.00    -0.178 A  
HETATM   14  C   UNL     1      -9.359  15.517  68.140  1.00  0.00    -0.197 C  
HETATM   15  N   UNL     1     -11.246   9.135  70.553  1.00  0.00    -0.258 N  
HETATM   16  N   UNL     1      -9.586  14.672  69.354  1.00  0.00    -0.014 NA 
HETATM   17  C   UNL     1      -9.602  16.955  68.714  1.00  0.00    -0.268 C  
HETATM   18  C   UNL     1      -9.639  10.615  65.576  1.00  0.00    -0.271 A  
HETATM   19  C   UNL     1     -10.467  14.878  70.526  1.00  0.00     0.188 A  
HETATM   20  C   UNL     1     -10.892  13.604  71.115  1.00  0.00     2.912 A  
HETATM   21  N   UNL     1      -9.572  12.613  67.235  1.00  0.00    -0.198 NA 
HETATM   22  C   UNL     1     -11.520  10.422  71.172  1.00  0.00    -0.140 C  
HETATM   23  C   UNL     1     -10.219  12.594  70.432  1.00  0.00     3.582 A  
HETATM   24  C   UNL     1     -11.826  13.588  72.183  1.00  0.00     1.480 A  
HETATM   25  C   UNL     1      -9.538  13.319  69.457  1.00  0.00     1.253 A  
HETATM   26  C   UNL     1     -12.313  14.765  72.734  1.00  0.00    -0.372 A  
HETATM   27  C   UNL     1     -11.878  15.974  72.240  1.00  0.00    -0.628 A  
HETATM   28  C   UNL     1      -9.031  12.507  68.483  1.00  0.00    -0.052 A  
HETATM   29  C   UNL     1      -8.673  11.197  68.933  1.00  0.00    -0.086 C  
HETATM   30  C   UNL     1     -10.977  16.045  71.161  1.00  0.00    -0.026 A  
HETATM   31  C   UNL     1      -8.393  10.716  67.627  1.00  0.00    -0.114 A  
HETATM   32  C   UNL     1      -9.651  10.432  69.690  1.00  0.00    -0.142 C  
HETATM   33  C   UNL     1      -9.438  11.254  66.801  1.00  0.00    -0.179 A  
HETATM   34  C   UNL     1     -10.453  11.210  70.547  1.00  0.00     1.457 A  
BRANCH   4  35
HETATM   35  N   UNL     1      -6.313  15.371  65.372  1.00  0.00     8.314 N  
HETATM   36  C   UNL     1      -5.654  14.482  64.404  1.00  0.00    21.634 C  
HETATM   37  C   UNL     1      -5.973  16.724  65.178  1.00  0.00     3.666 C  
HETATM   38  O   UNL     1      -5.133  17.094  64.339  1.00  0.00     1.220 OA 
BRANCH  37  39
HETATM   39  C   UNL     1      -6.530  17.814  66.003  1.00  0.00    -0.294 A  
HETATM   40  C   UNL     1      -6.673  18.895  68.170  1.00  0.00    -0.249 A  
HETATM   41  C   UNL     1      -6.190  17.862  67.360  1.00  0.00    -0.167 A  
HETATM   42  C   UNL     1      -7.506  19.870  67.634  1.00  0.00    -0.320 A  
HETATM   43  C   UNL     1      -7.798  19.847  66.268  1.00  0.00    -0.336 A  
HETATM   44  C   UNL     1      -7.262  18.858  65.450  1.00  0.00     0.052 A  
ENDBRANCH  37  39
ENDBRANCH   4  35
ENDBRANCH   2   3
TORSDOF 3
ENDMDL
MODEL      159
REMARK 921   NORMALIZED FREE ENERGY PREDICTED BY IDOCK:   47.77 KCAL/MOL
REMARK 922        TOTAL FREE ENERGY PREDICTED BY IDOCK:   55.62 KCAL/MOL
REMARK 923 INTER-LIGAND FREE ENERGY PREDICTED BY IDOCK:   52.94 KCAL/MOL
REMARK 924 INTRA-LIGAND FREE ENERGY PREDICTED BY IDOCK:    2.68 KCAL/MOL
REMARK 927      BINDING AFFINITY PREDICTED BY RF-SCORE:    0.00 PKD
ROOT
HETATM    1  C   UNL     1     -10.687  19.373  73.044  1.00  0.00     3.950 C  
HETATM    2  O   UNL     1     -11.360  18.347  72.313  1.00  0.00     2.241 OA 
ENDROOT
BRANCH   2   3
HETATM    3  C   UNL     1     -10.600  17.393  71.468  1.00  0.00     2.765 C  
HETATM    4  C   UNL     1     -10.025  18.231  70.298  1.00  0.00     1.626 C  
HETATM    5  C   UNL     1     -11.078  18.363  69.196  1.00  0.00     1.618 C  
HETATM    6  O   UNL     1      -9.791  13.404  64.355  1.00  0.00    -0.168 OA 
HETATM    7  C   UNL     1      -8.563  16.840  66.527  1.00  0.00    -0.312 A  
HETATM    8  C   UNL     1     -10.131  12.955  65.444  1.00  0.00    -0.251 C  
HETATM    9  C   UNL     1     -11.918  17.083  69.003  1.00  0.00     1.551 C  
HETATM   10  H   UNL     1     -11.126  11.211  64.755  1.00  0.00     0.000 HD 
HETATM   11  O   UNL     1     -12.456  16.481  70.235  1.00  0.00     0.442 OA 
HETATM   12  C   UNL     1      -8.953  17.996  65.851  1.00  0.00     0.172 A  
HETATM   13  C   UNL     1     -10.235  18.062  65.313  1.00  0.00     0.718 A  
HETATM   14  C   UNL     1     -11.457  16.044  71.184  1.00  0.00    -0.419 C  
HETATM   15  N   UNL     1     -10.875  11.776  65.566  1.00  0.00    -0.291 N  
HETATM   16  N   UNL     1     -11.095  14.674  70.705  1.00  0.00    -0.043 NA 
HETATM   17  C   UNL     1     -11.874  15.755  72.667  1.00  0.00    -0.596 C  
HETATM   18  C   UNL     1     -11.236  17.196  65.770  1.00  0.00     0.555 A  
HETATM   19  C   UNL     1     -11.613  13.343  71.097  1.00  0.00     1.027 A  
HETATM   20  C   UNL     1     -11.510  12.377  69.999  1.00  0.00    -0.110 A  
HETATM   21  N   UNL     1     -11.188  16.152  68.149  1.00  0.00    -0.339 NA 
HETATM   22  C   UNL     1     -11.269  11.401  66.915  1.00  0.00    -0.264 C  
HETATM   23  C   UNL     1     -10.836  13.012  68.958  1.00  0.00    -0.197 A  
HETATM   24  C   UNL     1     -12.052  11.073  70.142  1.00  0.00    -0.438 A  
HETATM   25  C   UNL     1     -10.679  14.298  69.468  1.00  0.00    -0.065 A  
HETATM   26  C   UNL     1     -12.634  10.661  71.333  1.00  0.00    -0.526 A  
HETATM   27  C   UNL     1     -12.684  11.530  72.399  1.00  0.00     0.833 A  
HETATM   28  C   UNL     1     -10.295  15.183  68.502  1.00  0.00    -0.230 A  
HETATM   29  C   UNL     1      -9.502  14.610  67.458  1.00  0.00    -0.198 C  
HETATM   30  C   UNL     1     -12.191  12.844  72.299  1.00  0.00     1.138 A  
HETATM   31  C   UNL     1      -9.508  15.790  66.669  1.00  0.00    -0.279 A  
HETATM   32  C   UNL     1      -9.986  13.408  66.798  1.00  0.00    -0.264 C  
HETATM   33  C   UNL     1     -10.850  16.294  66.763  1.00  0.00    -0.125 A  
HETATM   34  C   UNL     1     -10.669  12.519  67.650  1.00  0.00    -0.242 A  
BRANCH   4  35
HETATM   35  N   UNL     1      -9.431  19.601  70.737  1.00  0.00     1.455 N  
HETATM   36  C   UNL     1     -10.195  20.836  70.504  1.00  0.00     1.829 C  
HETATM   37  C   UNL     1      -8.290  19.818  71.535  1.00  0.00     3.020 C  
HETATM   38  O   UNL     1      -7.934  20.949  71.908  1.00  0.00     1.229 OA 
BRANCH  37  39
HETATM   39  C   UNL     1      -7.376  18.729  71.934  1.00  0.00     5.421 A  
HETATM   40  C   UNL     1      -7.089  16.405  72.568  1.00  0.00     8.629 A  
HETATM   41  C   UNL     1      -7.923  17.471  72.214  1.00  0.00    13.857 A  
HETATM   42  C   UNL     1      -5.715  16.595  72.658  1.00  0.00     2.138 A  
HETATM   43  C   UNL     1      -5.172  17.838  72.326  1.00  0.00     1.455 A  
HETATM   44  C   UNL     1      -5.996  18.878  71.909  1.00  0.00     0.631 A  
ENDBRANCH  37  39
ENDBRANCH   4  35
ENDBRANCH   2   3
TORSDOF 3
ENDMDL
MODEL      160
REMARK 921   NORMALIZED FREE ENERGY PREDICTED BY IDOCK:   51.05 KCAL/MOL
REMARK 922        TOTAL FREE ENERGY PREDICTED BY IDOCK:   59.48 KCAL/MOL
REMARK 923 INTER-LIGAND FREE ENERGY PREDICTED BY IDOCK:   41.39 KCAL/MOL
REMARK 924 INTRA-LIGAND FREE ENERGY PREDICTED BY IDOCK:   18.09 KCAL/MOL
REMARK 927      BINDING AFFINITY PREDICTED BY RF-SCORE:    0.00 PKD
ROOT
HETATM    1  C   UNL     1      -9.157  13.793  64.923  1.00  0.00     1.960 C  
HETATM    2  O   UNL     1      -8.715  13.660  66.275  1.00  0.00     0.114 OA 
ENDROOT
BRANCH   2   3
HETATM    3  C   UNL     1      -8.399  12.326  66.843  1.00  0.00    -0.137 C  
HETATM    4  C   UNL     1      -7.410  11.666  65.849  1.00  0.00     0.623 C  
HETATM    5  C   UNL     1      -8.193  10.996  64.718  1.00  0.00     0.261 C  
HETATM    6  O   UNL     1      -8.881   4.163  66.307  1.00  0.00    -0.113 OA 
HETATM    7  C   UNL     1      -6.422   7.523  65.473  1.00  0.00    -0.041 A  
HETATM    8  C   UNL     1      -9.478   4.912  67.073  1.00  0.00    -0.148 C  
HETATM    9  C   UNL     1      -9.500  10.331  65.195  1.00  0.00    -0.252 C  
HETATM   10  H   UNL     1     -11.091   3.620  67.559  1.00  0.00     0.000 HD 
HETATM   11  O   UNL     1     -10.355  11.157  66.066  1.00  0.00    -0.241 OA 
HETATM   12  C   UNL     1      -6.188   7.613  64.101  1.00  0.00    -0.049 A  
HETATM   13  C   UNL     1      -7.250   7.424  63.221  1.00  0.00    -0.079 A  
HETATM   14  C   UNL     1      -9.746  11.553  67.316  1.00  0.00    -0.182 C  
HETATM   15  N   UNL     1     -10.681   4.546  67.686  1.00  0.00     0.535 N  
HETATM   16  N   UNL     1     -10.003  10.386  68.217  1.00  0.00    -0.148 NA 
HETATM   17  C   UNL     1     -10.373  12.728  68.143  1.00  0.00    -0.243 C  
HETATM   18  C   UNL     1      -8.570   7.547  63.676  1.00  0.00     0.462 A  
HETATM   19  C   UNL     1     -11.098  10.130  69.180  1.00  0.00    -0.212 A  
HETATM   20  C   UNL     1     -11.350   8.695  69.345  1.00  0.00     0.325 A  
HETATM   21  N   UNL     1      -9.201   9.006  65.730  1.00  0.00    -0.222 NA 
HETATM   22  C   UNL     1     -11.316   5.560  68.514  1.00  0.00     1.011 C  
HETATM   23  C   UNL     1     -10.377   8.023  68.609  1.00  0.00    -0.224 A  
HETATM   24  C   UNL     1     -12.432   8.248  70.145  1.00  0.00     1.005 A  
HETATM   25  C   UNL     1      -9.699   9.080  68.007  1.00  0.00    -0.155 A  
HETATM   26  C   UNL     1     -13.237   9.144  70.836  1.00  0.00     0.027 A  
HETATM   27  C   UNL     1     -12.979  10.493  70.748  1.00  0.00    -0.413 A  
HETATM   28  C   UNL     1      -8.875   8.649  67.006  1.00  0.00    -0.132 A  
HETATM   29  C   UNL     1      -8.342   7.337  67.204  1.00  0.00    -0.118 C  
HETATM   30  C   UNL     1     -11.938  10.990  69.942  1.00  0.00    -0.427 A  
HETATM   31  C   UNL     1      -7.747   7.276  65.917  1.00  0.00    -0.097 A  
HETATM   32  C   UNL     1      -9.259   6.255  67.525  1.00  0.00    -0.108 C  
HETATM   33  C   UNL     1      -8.720   7.853  65.030  1.00  0.00     0.104 A  
HETATM   34  C   UNL     1     -10.340   6.641  68.342  1.00  0.00    -0.220 A  
BRANCH   4  35
HETATM   35  N   UNL     1      -6.301  12.628  65.332  1.00  0.00     5.366 N  
HETATM   36  C   UNL     1      -5.207  12.102  64.501  1.00  0.00     4.345 C  
HETATM   37  C   UNL     1      -6.297  14.036  65.397  1.00  0.00    12.052 C  
HETATM   38  O   UNL     1      -5.404  14.731  64.882  1.00  0.00    12.925 OA 
BRANCH  37  39
HETATM   39  C   UNL     1      -7.313  14.804  66.143  1.00  0.00     3.150 A  
HETATM   40  C   UNL     1      -8.629  15.064  68.164  1.00  0.00    -0.156 A  
HETATM   41  C   UNL     1      -7.692  14.349  67.412  1.00  0.00    -0.207 A  
HETATM   42  C   UNL     1      -9.200  16.222  67.649  1.00  0.00    -0.206 A  
HETATM   43  C   UNL     1      -8.779  16.699  66.406  1.00  0.00    -0.345 A  
HETATM   44  C   UNL     1      -7.796  16.024  65.688  1.00  0.00     1.994 A  
ENDBRANCH  37  39
ENDBRANCH   4  35
ENDBRANCH   2   3
TORSDOF 3
ENDMDL
MODEL      161
REMARK 921   NORMALIZED FREE ENERGY PREDICTED BY IDOCK:   52.98 KCAL/MOL
REMARK 922        TOTAL FREE ENERGY PREDICTED BY IDOCK:   61.74 KCAL/MOL
REMARK 923 INTER-LIGAND FREE ENERGY PREDICTED BY IDOCK:   59.79 KCAL/MOL
REMARK 924 INTRA-LIGAND FREE ENERGY PREDICTED BY IDOCK:    1.95 KCAL/MOL
REMARK 927      BINDING AFFINITY PREDICTED BY RF-SCORE:    0.00 PKD
ROOT
HETATM    1  C   UNL     1      -6.868  10.048  67.060  1.00  0.00    -0.087 C  
HETATM    2  O   UNL     1      -7.747  11.113  66.694  1.00  0.00    -0.146 OA 
ENDROOT
BRANCH   2   3
HETATM    3  C   UNL     1      -8.632  11.748  67.702  1.00  0.00    -0.153 C  
HETATM    4  C   UNL     1      -9.906  12.181  66.933  1.00  0.00    -0.203 C  
HETATM    5  C   UNL     1      -9.672  13.546  66.284  1.00  0.00    -0.287 C  
HETATM    6  O   UNL     1     -12.341  18.473  70.560  1.00  0.00    10.397 OA 
HETATM    7  C   UNL     1     -12.861  15.034  68.124  1.00  0.00     1.547 A  
HETATM    8  C   UNL     1     -11.381  17.875  71.033  1.00  0.00     3.261 C  
HETATM    9  C   UNL     1      -8.833  14.500  67.159  1.00  0.00    -0.229 C  
HETATM   10  H   UNL     1     -10.590  19.455  72.209  1.00  0.00     0.000 HD 
HETATM   11  O   UNL     1      -7.603  13.924  67.731  1.00  0.00    -0.136 OA 
HETATM   12  C   UNL     1     -13.145  15.416  66.814  1.00  0.00     3.091 A  
HETATM   13  C   UNL     1     -12.406  16.445  66.236  1.00  0.00     2.893 A  
HETATM   14  C   UNL     1      -7.813  12.806  68.622  1.00  0.00    -0.044 C  
HETATM   15  N   UNL     1     -10.470  18.492  71.897  1.00  0.00     3.062 N  
HETATM   16  N   UNL     1      -8.089  13.456  69.941  1.00  0.00     1.616 NA 
HETATM   17  C   UNL     1      -6.609  11.869  68.983  1.00  0.00    -0.091 C  
HETATM   18  C   UNL     1     -11.166  16.810  66.775  1.00  0.00     0.424 A  
HETATM   19  C   UNL     1      -7.184  13.790  71.064  1.00  0.00     2.569 A  
HETATM   20  C   UNL     1      -7.668  14.947  71.823  1.00  0.00     3.909 A  
HETATM   21  N   UNL     1      -9.702  15.150  68.135  1.00  0.00    -0.214 NA 
HETATM   22  C   UNL     1      -9.340  17.682  72.325  1.00  0.00    12.279 C  
HETATM   23  C   UNL     1      -8.911  15.291  71.296  1.00  0.00     3.444 A  
HETATM   24  C   UNL     1      -6.884  15.490  72.874  1.00  0.00     4.870 A  
HETATM   25  C   UNL     1      -9.024  14.397  70.235  1.00  0.00     1.785 A  
HETATM   26  C   UNL     1      -5.679  14.911  73.248  1.00  0.00     0.359 A  
HETATM   27  C   UNL     1      -5.236  13.785  72.592  1.00  0.00    -0.169 A  
HETATM   28  C   UNL     1     -10.041  14.737  69.391  1.00  0.00    -0.109 A  
HETATM   29  C   UNL     1     -11.137  15.402  70.025  1.00  0.00    -0.317 C  
HETATM   30  C   UNL     1      -5.960  13.227  71.522  1.00  0.00     0.488 A  
HETATM   31  C   UNL     1     -11.801  15.689  68.803  1.00  0.00    -0.336 A  
HETATM   32  C   UNL     1     -10.857  16.549  70.874  1.00  0.00     0.345 C  
HETATM   33  C   UNL     1     -10.758  16.089  67.899  1.00  0.00    -0.316 A  
HETATM   34  C   UNL     1      -9.657  16.445  71.604  1.00  0.00     5.656 A  
BRANCH   4  35
HETATM   35  N   UNL     1     -10.430  11.112  65.930  1.00  0.00    -0.257 N  
HETATM   36  C   UNL     1     -10.734  11.500  64.544  1.00  0.00    -0.329 C  
HETATM   37  C   UNL     1     -10.480   9.717  66.121  1.00  0.00    -0.058 C  
HETATM   38  O   UNL     1     -10.837   8.928  65.230  1.00  0.00     2.589 OA 
BRANCH  37  39
HETATM   39  C   UNL     1     -10.182   9.078  67.419  1.00  0.00    -0.308 A  
HETATM   40  C   UNL     1     -10.178   9.228  69.840  1.00  0.00    -0.235 A  
HETATM   41  C   UNL     1     -10.418   9.807  68.590  1.00  0.00    -0.233 A  
HETATM   42  C   UNL     1      -9.688   7.929  69.923  1.00  0.00    -0.176 A  
HETATM   43  C   UNL     1      -9.505   7.189  68.753  1.00  0.00    -0.141 A  
HETATM   44  C   UNL     1      -9.810   7.744  67.515  1.00  0.00    -0.221 A  
ENDBRANCH  37  39
ENDBRANCH   4  35
ENDBRANCH   2   3
TORSDOF 3
ENDMDL
MODEL      162
REMARK 921   NORMALIZED FREE ENERGY PREDICTED BY IDOCK:   56.80 KCAL/MOL
REMARK 922        TOTAL FREE ENERGY PREDICTED BY IDOCK:   66.23 KCAL/MOL
REMARK 923 INTER-LIGAND FREE ENERGY PREDICTED BY IDOCK:   29.30 KCAL/MOL
REMARK 924 INTRA-LIGAND FREE ENERGY PREDICTED BY IDOCK:   36.94 KCAL/MOL
REMARK 927      BINDING AFFINITY PREDICTED BY RF-SCORE:    0.00 PKD
ROOT
HETATM    1  C   UNL     1      -9.945   6.458  68.960  1.00  0.00    -0.149 C  
HETATM    2  O   UNL     1      -9.969   7.457  67.939  1.00  0.00    -0.152 OA 
ENDROOT
BRANCH   2   3
HETATM    3  C   UNL     1      -9.288   8.760  68.136  1.00  0.00    -0.140 C  
HETATM    4  C   UNL     1      -9.987   9.423  69.351  1.00  0.00    -0.183 C  
HETATM    5  C   UNL     1     -11.244  10.156  68.880  1.00  0.00    -0.220 C  
HETATM    6  O   UNL     1      -9.592  16.948  67.974  1.00  0.00    -0.238 OA 
HETATM    7  C   UNL     1      -9.945  13.546  70.489  1.00  0.00     3.720 A  
HETATM    8  C   UNL     1      -9.025  16.193  67.193  1.00  0.00    -0.200 C  
HETATM    9  C   UNL     1     -11.070  10.844  67.510  1.00  0.00    -0.310 C  
HETATM   10  H   UNL     1      -8.890  17.515  65.538  1.00  0.00     0.000 HD 
HETATM   11  O   UNL     1     -10.466  10.015  66.453  1.00  0.00    -0.203 OA 
HETATM   12  C   UNL     1     -11.222  13.494  71.047  1.00  0.00     1.612 A  
HETATM   13  C   UNL     1     -12.323  13.746  70.233  1.00  0.00    -0.407 A  
HETATM   14  C   UNL     1      -9.123   9.558  66.732  1.00  0.00    -0.146 C  
HETATM   15  N   UNL     1      -8.706  16.574  65.885  1.00  0.00    -0.204 N  
HETATM   16  N   UNL     1      -8.265  10.700  66.289  1.00  0.00    -0.148 NA 
HETATM   17  C   UNL     1      -8.521   8.375  65.898  1.00  0.00    -0.159 C  
HETATM   18  C   UNL     1     -12.206  13.648  68.840  1.00  0.00    -0.221 A  
HETATM   19  C   UNL     1      -7.584  10.957  64.999  1.00  0.00     0.288 A  
HETATM   20  C   UNL     1      -7.427  12.392  64.746  1.00  0.00     5.309 A  
HETATM   21  N   UNL     1     -10.426  12.139  67.699  1.00  0.00    -0.203 NA 
HETATM   22  C   UNL     1      -8.098  15.552  65.047  1.00  0.00     5.994 C  
HETATM   23  C   UNL     1      -7.878  13.060  65.882  1.00  0.00     2.467 A  
HETATM   24  C   UNL     1      -6.894  12.845  63.511  1.00  0.00    12.237 A  
HETATM   25  C   UNL     1      -8.341  12.004  66.663  1.00  0.00    -0.085 A  
HETATM   26  C   UNL     1      -6.455  11.951  62.544  1.00  0.00     1.753 A  
HETATM   27  C   UNL     1      -6.532  10.599  62.787  1.00  0.00    -0.055 A  
HETATM   28  C   UNL     1      -9.095  12.443  67.714  1.00  0.00    -0.193 A  
HETATM   29  C   UNL     1      -8.722  13.731  68.211  1.00  0.00    -0.179 C  
HETATM   30  C   UNL     1      -7.083  10.098  63.981  1.00  0.00    -0.103 A  
HETATM   31  C   UNL     1      -9.824  13.817  69.102  1.00  0.00     0.216 A  
HETATM   32  C   UNL     1      -8.588  14.828  67.266  1.00  0.00    -0.230 C  
HETATM   33  C   UNL     1     -10.942  13.301  68.361  1.00  0.00    -0.264 A  
HETATM   34  C   UNL     1      -8.073  14.448  66.012  1.00  0.00     1.949 A  
BRANCH   4  35
HETATM   35  N   UNL     1     -10.258   8.446  70.531  1.00  0.00    -0.193 N  
HETATM   36  C   UNL     1     -10.958   8.929  71.731  1.00  0.00    -0.361 C  
HETATM   37  C   UNL     1     -10.085   7.048  70.536  1.00  0.00    -0.191 C  
HETATM   38  O   UNL     1     -10.408   6.333  71.500  1.00  0.00    -0.198 OA 
BRANCH  37  39
HETATM   39  C   UNL     1      -9.438   6.320  69.427  1.00  0.00    -0.148 A  
HETATM   40  C   UNL     1      -7.686   6.246  67.751  1.00  0.00    -0.102 A  
HETATM   41  C   UNL     1      -8.346   6.916  68.787  1.00  0.00    -0.121 A  
HETATM   42  C   UNL     1      -8.123   4.992  67.343  1.00  0.00    -0.103 A  
HETATM   43  C   UNL     1      -9.179   4.380  68.021  1.00  0.00    -0.174 A  
HETATM   44  C   UNL     1      -9.790   5.018  69.095  1.00  0.00    -0.262 A  
ENDBRANCH  37  39
ENDBRANCH   4  35
ENDBRANCH   2   3
TORSDOF 3
ENDMDL
MODEL      163
REMARK 921   NORMALIZED FREE ENERGY PREDICTED BY IDOCK:   60.25 KCAL/MOL
REMARK 922        TOTAL FREE ENERGY PREDICTED BY IDOCK:   70.29 KCAL/MOL
REMARK 923 INTER-LIGAND FREE ENERGY PREDICTED BY IDOCK:   69.02 KCAL/MOL
REMARK 924 INTRA-LIGAND FREE ENERGY PREDICTED BY IDOCK:    1.26 KCAL/MOL
REMARK 927      BINDING AFFINITY PREDICTED BY RF-SCORE:    0.00 PKD
ROOT
HETATM    1  C   UNL     1      -9.260  12.272  63.312  1.00  0.00     0.940 C  
HETATM    2  O   UNL     1      -8.152  12.358  64.210  1.00  0.00     3.033 OA 
ENDROOT
BRANCH   2   3
HETATM    3  C   UNL     1      -8.193  13.265  65.383  1.00  0.00     3.443 C  
HETATM    4  C   UNL     1      -9.294  12.699  66.316  1.00  0.00    -0.160 C  
HETATM    5  C   UNL     1     -10.661  13.220  65.868  1.00  0.00    -0.288 C  
HETATM    6  O   UNL     1     -12.243  18.840  69.819  1.00  0.00     8.314 OA 
HETATM    7  C   UNL     1     -11.347  14.702  69.488  1.00  0.00    -0.314 A  
HETATM    8  C   UNL     1     -11.278  19.009  69.082  1.00  0.00     2.431 C  
HETATM    9  C   UNL     1     -10.622  14.681  65.375  1.00  0.00    -0.374 C  
HETATM   10  H   UNL     1     -11.526  21.089  68.735  1.00  0.00     0.000 HD 
HETATM   11  O   UNL     1      -9.549  15.003  64.417  1.00  0.00     0.731 OA 
HETATM   12  C   UNL     1     -12.521  13.973  69.306  1.00  0.00    -0.046 A  
HETATM   13  C   UNL     1     -13.476  14.445  68.410  1.00  0.00     4.649 A  
HETATM   14  C   UNL     1      -8.208  14.822  64.924  1.00  0.00     7.093 C  
HETATM   15  N   UNL     1     -10.980  20.254  68.518  1.00  0.00     0.510 N  
HETATM   16  N   UNL     1      -7.924  16.109  65.633  1.00  0.00     0.885 NA 
HETATM   17  C   UNL     1      -7.007  14.748  63.921  1.00  0.00    23.685 C  
HETATM   18  C   UNL     1     -13.118  15.378  67.427  1.00  0.00     3.339 A  
HETATM   19  C   UNL     1      -7.255  17.344  65.165  1.00  0.00     2.166 A  
HETATM   20  C   UNL     1      -7.747  18.529  65.874  1.00  0.00    -0.130 A  
HETATM   21  N   UNL     1     -10.692  15.580  66.523  1.00  0.00    -0.308 NA 
HETATM   22  C   UNL     1      -9.848  20.293  67.606  1.00  0.00    -0.423 C  
HETATM   23  C   UNL     1      -8.623  18.080  66.861  1.00  0.00    -0.262 A  
HETATM   24  C   UNL     1      -7.307  19.823  65.495  1.00  0.00    -0.228 A  
HETATM   25  C   UNL     1      -8.654  16.711  66.607  1.00  0.00    -0.258 A  
HETATM   26  C   UNL     1      -6.362  19.998  64.493  1.00  0.00    -0.272 A  
HETATM   27  C   UNL     1      -5.837  18.895  63.857  1.00  0.00     0.055 A  
HETATM   28  C   UNL     1      -9.674  16.094  67.273  1.00  0.00    -0.233 A  
HETATM   29  C   UNL     1     -10.022  16.708  68.517  1.00  0.00    -0.261 C  
HETATM   30  C   UNL     1      -6.264  17.593  64.173  1.00  0.00     3.805 A  
HETATM   31  C   UNL     1     -11.158  15.881  68.722  1.00  0.00    -0.328 A  
HETATM   32  C   UNL     1     -10.273  18.140  68.540  1.00  0.00    -0.399 C  
HETATM   33  C   UNL     1     -11.782  15.781  67.431  1.00  0.00     0.213 A  
HETATM   34  C   UNL     1      -9.458  18.881  67.663  1.00  0.00    -0.340 A  
BRANCH   4  35
HETATM   35  N   UNL     1      -9.255  11.151  66.469  1.00  0.00    -0.174 N  
HETATM   36  C   UNL     1      -9.725  10.296  65.368  1.00  0.00    -0.278 C  
HETATM   37  C   UNL     1      -8.628  10.412  67.492  1.00  0.00    -0.125 C  
HETATM   38  O   UNL     1      -8.575   9.170  67.491  1.00  0.00    -0.116 OA 
BRANCH  37  39
HETATM   39  C   UNL     1      -8.045  11.045  68.692  1.00  0.00    -0.149 A  
HETATM   40  C   UNL     1      -8.202  12.755  70.406  1.00  0.00     4.877 A  
HETATM   41  C   UNL     1      -8.706  12.144  69.252  1.00  0.00     0.809 A  
HETATM   42  C   UNL     1      -7.034  12.281  70.991  1.00  0.00     3.546 A  
HETATM   43  C   UNL     1      -6.409  11.152  70.458  1.00  0.00     0.065 A  
HETATM   44  C   UNL     1      -6.949  10.505  69.351  1.00  0.00    -0.099 A  
ENDBRANCH  37  39
ENDBRANCH   4  35
ENDBRANCH   2   3
TORSDOF 3
ENDMDL
MODEL      164
REMARK 921   NORMALIZED FREE ENERGY PREDICTED BY IDOCK:   63.81 KCAL/MOL
REMARK 922        TOTAL FREE ENERGY PREDICTED BY IDOCK:   74.47 KCAL/MOL
REMARK 923 INTER-LIGAND FREE ENERGY PREDICTED BY IDOCK:   65.93 KCAL/MOL
REMARK 924 INTRA-LIGAND FREE ENERGY PREDICTED BY IDOCK:    8.55 KCAL/MOL
REMARK 927      BINDING AFFINITY PREDICTED BY RF-SCORE:    0.00 PKD
ROOT
HETATM    1  C   UNL     1      -9.348  13.077  72.701  1.00  0.00    19.691 C  
HETATM    2  O   UNL     1      -9.700  11.794  72.180  1.00  0.00    13.236 OA 
ENDROOT
BRANCH   2   3
HETATM    3  C   UNL     1      -8.825  11.107  71.198  1.00  0.00     7.048 C  
HETATM    4  C   UNL     1      -8.911  11.944  69.897  1.00  0.00     2.489 C  
HETATM    5  C   UNL     1     -10.140  11.518  69.094  1.00  0.00     0.006 C  
HETATM    6  O   UNL     1      -8.054   6.861  64.231  1.00  0.00    -0.117 OA 
HETATM    7  C   UNL     1      -7.878  10.752  65.921  1.00  0.00    -0.131 A  
HETATM    8  C   UNL     1      -7.935   6.459  65.384  1.00  0.00    -0.116 C  
HETATM    9  C   UNL     1     -10.411  10.000  69.156  1.00  0.00    -0.216 C  
HETATM   10  H   UNL     1      -8.264   4.394  65.019  1.00  0.00     0.000 HD 
HETATM   11  O   UNL     1     -10.374   9.400  70.502  1.00  0.00    -0.238 OA 
HETATM   12  C   UNL     1      -8.840  11.572  65.333  1.00  0.00     0.088 A  
HETATM   13  C   UNL     1     -10.124  11.070  65.134  1.00  0.00    -0.346 A  
HETATM   14  C   UNL     1      -9.102   9.507  71.179  1.00  0.00     0.204 C  
HETATM   15  N   UNL     1      -8.092   5.111  65.723  1.00  0.00    -0.108 N  
HETATM   16  N   UNL     1      -8.330   8.333  70.665  1.00  0.00    -0.116 NA 
HETATM   17  C   UNL     1      -9.029   9.272  72.727  1.00  0.00     1.718 C  
HETATM   18  C   UNL     1     -10.561   9.951  65.855  1.00  0.00     0.058 A  
HETATM   19  C   UNL     1      -8.166   6.967  71.214  1.00  0.00    -0.113 A  
HETATM   20  C   UNL     1      -7.924   5.983  70.154  1.00  0.00    -0.106 A  
HETATM   21  N   UNL     1      -9.574   9.320  68.173  1.00  0.00    -0.141 NA 
HETATM   22  C   UNL     1      -7.993   4.789  67.138  1.00  0.00    -0.102 C  
HETATM   23  C   UNL     1      -7.812   6.690  68.959  1.00  0.00    -0.111 A  
HETATM   24  C   UNL     1      -7.846   4.602  70.467  1.00  0.00    -0.054 A  
HETATM   25  C   UNL     1      -8.081   7.991  69.374  1.00  0.00    -0.118 A  
HETATM   26  C   UNL     1      -7.934   4.153  71.778  1.00  0.00    -0.083 A  
HETATM   27  C   UNL     1      -8.096   5.065  72.796  1.00  0.00    -0.105 A  
HETATM   28  C   UNL     1      -8.310   8.824  68.317  1.00  0.00    -0.126 A  
HETATM   29  C   UNL     1      -7.604   8.472  67.124  1.00  0.00    -0.096 C  
HETATM   30  C   UNL     1      -8.212   6.443  72.536  1.00  0.00    -0.105 A  
HETATM   31  C   UNL     1      -8.261   9.447  66.328  1.00  0.00    -0.111 A  
HETATM   32  C   UNL     1      -7.693   7.103  66.643  1.00  0.00    -0.097 C  
HETATM   33  C   UNL     1      -9.635   9.402  66.744  1.00  0.00    -0.179 A  
HETATM   34  C   UNL     1      -7.752   6.136  67.665  1.00  0.00    -0.098 A  
BRANCH   4  35
HETATM   35  N   UNL     1      -8.841  13.481  70.132  1.00  0.00     2.889 N  
HETATM   36  C   UNL     1      -9.804  14.366  69.458  1.00  0.00     0.267 C  
HETATM   37  C   UNL     1      -8.067  14.162  71.092  1.00  0.00     4.529 C  
HETATM   38  O   UNL     1      -8.137  15.391  71.266  1.00  0.00     2.525 OA 
BRANCH  37  39
HETATM   39  C   UNL     1      -7.052  13.485  71.924  1.00  0.00     4.803 A  
HETATM   40  C   UNL     1      -5.418  13.632  73.712  1.00  0.00    -0.062 A  
HETATM   41  C   UNL     1      -6.366  14.241  72.883  1.00  0.00     1.164 A  
HETATM   42  C   UNL     1      -5.142  12.276  73.576  1.00  0.00     0.416 A  
HETATM   43  C   UNL     1      -5.867  11.518  72.654  1.00  0.00     2.014 A  
HETATM   44  C   UNL     1      -6.857  12.111  71.878  1.00  0.00     5.978 A  
ENDBRANCH  37  39
ENDBRANCH   4  35
ENDBRANCH   2   3
TORSDOF 3
ENDMDL
MODEL      165
REMARK 921   NORMALIZED FREE ENERGY PREDICTED BY IDOCK:   64.08 KCAL/MOL
REMARK 922        TOTAL FREE ENERGY PREDICTED BY IDOCK:   74.79 KCAL/MOL
REMARK 923 INTER-LIGAND FREE ENERGY PREDICTED BY IDOCK:   62.67 KCAL/MOL
REMARK 924 INTRA-LIGAND FREE ENERGY PREDICTED BY IDOCK:   12.13 KCAL/MOL
REMARK 927      BINDING AFFINITY PREDICTED BY RF-SCORE:    0.00 PKD
ROOT
HETATM    1  C   UNL     1      -9.228   9.969  71.315  1.00  0.00     1.785 C  
HETATM    2  O   UNL     1      -8.574   9.717  70.070  1.00  0.00    -0.184 OA 
ENDROOT
BRANCH   2   3
HETATM    3  C   UNL     1      -9.229   8.899  69.020  1.00  0.00    -0.140 C  
HETATM    4  C   UNL     1     -10.386   8.149  69.729  1.00  0.00    -0.216 C  
HETATM    5  C   UNL     1      -9.846   6.875  70.381  1.00  0.00    -0.187 C  
HETATM    6  O   UNL     1     -11.020   1.509  65.963  1.00  0.00     3.682 OA 
HETATM    7  C   UNL     1     -12.482   4.669  68.393  1.00  0.00    14.883 A  
HETATM    8  C   UNL     1     -10.221   2.335  65.536  1.00  0.00     1.273 C  
HETATM    9  C   UNL     1      -8.759   6.175  69.539  1.00  0.00    -0.130 C  
HETATM   10  H   UNL     1      -9.012   1.021  64.388  1.00  0.00     0.000 HD 
HETATM   11  O   UNL     1      -7.689   7.048  69.025  1.00  0.00    -0.105 OA 
HETATM   12  C   UNL     1     -12.717   4.207  69.687  1.00  0.00    19.199 A  
HETATM   13  C   UNL     1     -11.769   3.385  70.292  1.00  0.00    10.016 A  
HETATM   14  C   UNL     1      -8.135   8.093  68.132  1.00  0.00    -0.128 C  
HETATM   15  N   UNL     1      -9.149   1.979  64.711  1.00  0.00    -0.127 N  
HETATM   16  N   UNL     1      -8.185   7.417  66.798  1.00  0.00    -0.118 NA 
HETATM   17  C   UNL     1      -7.189   9.306  67.829  1.00  0.00    -0.083 C  
HETATM   18  C   UNL     1     -10.455   3.350  69.805  1.00  0.00     1.886 A  
HETATM   19  C   UNL     1      -7.179   7.337  65.715  1.00  0.00    -0.070 A  
HETATM   20  C   UNL     1      -7.326   6.108  64.928  1.00  0.00    -0.074 A  
HETATM   21  N   UNL     1      -9.397   5.345  68.521  1.00  0.00    -0.114 NA 
HETATM   22  C   UNL     1      -8.241   3.052  64.338  1.00  0.00    -0.083 C  
HETATM   23  C   UNL     1      -8.465   5.457  65.397  1.00  0.00    -0.144 A  
HETATM   24  C   UNL     1      -6.389   5.795  63.910  1.00  0.00    -0.029 A  
HETATM   25  C   UNL     1      -8.842   6.278  66.458  1.00  0.00    -0.138 A  
HETATM   26  C   UNL     1      -5.352   6.663  63.593  1.00  0.00    -0.027 A  
HETATM   27  C   UNL     1      -5.233   7.852  64.275  1.00  0.00    -0.036 A  
HETATM   28  C   UNL     1      -9.776   5.681  67.254  1.00  0.00    -0.135 A  
HETATM   29  C   UNL     1     -10.644   4.774  66.568  1.00  0.00    -0.158 C  
HETATM   30  C   UNL     1      -6.116   8.195  65.314  1.00  0.00    -0.045 A  
HETATM   31  C   UNL     1     -11.265   4.311  67.758  1.00  0.00     4.062 A  
HETATM   32  C   UNL     1     -10.051   3.748  65.726  1.00  0.00     0.045 C  
HETATM   33  C   UNL     1     -10.194   4.169  68.705  1.00  0.00     0.444 A  
HETATM   34  C   UNL     1      -8.886   4.159  65.050  1.00  0.00    -0.131 A  
BRANCH   4  35
HETATM   35  N   UNL     1     -11.201   9.037  70.714  1.00  0.00    -0.263 N  
HETATM   36  C   UNL     1     -11.352  10.475  70.445  1.00  0.00    -0.328 C  
HETATM   37  C   UNL     1     -12.012   8.602  71.781  1.00  0.00    -0.336 C  
HETATM   38  O   UNL     1     -12.696   9.380  72.467  1.00  0.00    -0.317 OA 
BRANCH  37  39
HETATM   39  C   UNL     1     -12.061   7.194  72.223  1.00  0.00    -0.219 A  
HETATM   40  C   UNL     1     -12.210   5.611  74.056  1.00  0.00     3.993 A  
HETATM   41  C   UNL     1     -12.132   6.930  73.596  1.00  0.00     2.388 A  
HETATM   42  C   UNL     1     -12.202   4.556  73.151  1.00  0.00     0.305 A  
HETATM   43  C   UNL     1     -12.185   4.828  71.781  1.00  0.00     2.607 A  
HETATM   44  C   UNL     1     -12.176   6.142  71.324  1.00  0.00     0.167 A  
ENDBRANCH  37  39
ENDBRANCH   4  35
ENDBRANCH   2   3
TORSDOF 3
ENDMDL
MODEL      166
REMARK 921   NORMALIZED FREE ENERGY PREDICTED BY IDOCK:   64.64 KCAL/MOL
REMARK 922        TOTAL FREE ENERGY PREDICTED BY IDOCK:   75.45 KCAL/MOL
REMARK 923 INTER-LIGAND FREE ENERGY PREDICTED BY IDOCK:   54.82 KCAL/MOL
REMARK 924 INTRA-LIGAND FREE ENERGY PREDICTED BY IDOCK:   20.64 KCAL/MOL
REMARK 927      BINDING AFFINITY PREDICTED BY RF-SCORE:    0.00 PKD
ROOT
HETATM    1  C   UNL     1      -9.228   9.969  71.315  1.00  0.00     1.785 C  
HETATM    2  O   UNL     1      -8.572   9.720  70.070  1.00  0.00    -0.193 OA 
ENDROOT
BRANCH   2   3
HETATM    3  C   UNL     1      -9.225   8.904  69.018  1.00  0.00    -0.140 C  
HETATM    4  C   UNL     1     -10.382   8.152  69.723  1.00  0.00    -0.216 C  
HETATM    5  C   UNL     1      -9.843   6.877  70.372  1.00  0.00    -0.187 C  
HETATM    6  O   UNL     1     -11.008   1.521  65.940  1.00  0.00     3.478 OA 
HETATM    7  C   UNL     1     -12.475   4.675  68.375  1.00  0.00    14.883 A  
HETATM    8  C   UNL     1     -10.208   2.349  65.516  1.00  0.00     1.217 C  
HETATM    9  C   UNL     1      -8.755   6.180  69.530  1.00  0.00    -0.130 C  
HETATM   10  H   UNL     1      -8.998   1.038  64.366  1.00  0.00     0.000 HD 
HETATM   11  O   UNL     1      -7.684   7.055  69.020  1.00  0.00    -0.105 OA 
HETATM   12  C   UNL     1     -12.711   4.209  69.668  1.00  0.00    19.199 A  
HETATM   13  C   UNL     1     -11.764   3.387  70.272  1.00  0.00    10.016 A  
HETATM   14  C   UNL     1      -8.129   8.102  68.129  1.00  0.00    -0.128 C  
HETATM   15  N   UNL     1      -9.135   1.995  64.691  1.00  0.00    -0.122 N  
HETATM   16  N   UNL     1      -8.177   7.429  66.793  1.00  0.00    -0.118 NA 
HETATM   17  C   UNL     1      -7.184   9.316  67.830  1.00  0.00    -0.079 C  
HETATM   18  C   UNL     1     -10.449   3.353  69.787  1.00  0.00     1.886 A  
HETATM   19  C   UNL     1      -7.169   7.352  65.711  1.00  0.00    -0.066 A  
HETATM   20  C   UNL     1      -7.315   6.125  64.922  1.00  0.00    -0.074 A  
HETATM   21  N   UNL     1      -9.390   5.352  68.510  1.00  0.00    -0.114 NA 
HETATM   22  C   UNL     1      -8.227   3.070  64.322  1.00  0.00    -0.083 C  
HETATM   23  C   UNL     1      -8.454   5.472  65.387  1.00  0.00    -0.146 A  
HETATM   24  C   UNL     1      -6.376   5.815  63.904  1.00  0.00    -0.029 A  
HETATM   25  C   UNL     1      -8.833   6.290  66.449  1.00  0.00    -0.143 A  
HETATM   26  C   UNL     1      -5.339   6.683  63.591  1.00  0.00    -0.027 A  
HETATM   27  C   UNL     1      -5.221   7.872  64.275  1.00  0.00    -0.036 A  
HETATM   28  C   UNL     1      -9.768   5.690  67.243  1.00  0.00    -0.135 A  
HETATM   29  C   UNL     1     -10.634   4.785  66.553  1.00  0.00    -0.158 C  
HETATM   30  C   UNL     1      -6.107   8.211  65.314  1.00  0.00    -0.045 A  
HETATM   31  C   UNL     1     -11.257   4.319  67.741  1.00  0.00     4.062 A  
HETATM   32  C   UNL     1     -10.040   3.761  65.710  1.00  0.00     0.045 C  
HETATM   33  C   UNL     1     -10.187   4.175  68.689  1.00  0.00     0.444 A  
HETATM   34  C   UNL     1      -8.874   4.174  65.037  1.00  0.00    -0.131 A  
BRANCH   4  35
HETATM   35  N   UNL     1     -11.200   9.037  70.709  1.00  0.00    -0.263 N  
HETATM   36  C   UNL     1     -11.990   8.403  71.774  1.00  0.00    -0.325 C  
HETATM   37  C   UNL     1     -11.138  10.438  70.847  1.00  0.00    -0.008 C  
HETATM   38  O   UNL     1     -11.768  11.057  71.722  1.00  0.00     0.570 OA 
BRANCH  37  39
HETATM   39  C   UNL     1     -10.378  11.299  69.919  1.00  0.00     0.512 A  
HETATM   40  C   UNL     1     -10.231  13.388  68.694  1.00  0.00    -0.187 A  
HETATM   41  C   UNL     1     -10.932  12.529  69.547  1.00  0.00     0.029 A  
HETATM   42  C   UNL     1      -8.987  13.015  68.199  1.00  0.00    -0.198 A  
HETATM   43  C   UNL     1      -8.416  11.810  68.616  1.00  0.00    -0.068 A  
HETATM   44  C   UNL     1      -9.084  10.990  69.518  1.00  0.00     0.348 A  
ENDBRANCH  37  39
ENDBRANCH   4  35
ENDBRANCH   2   3
TORSDOF 3
ENDMDL
MODEL      167
REMARK 921   NORMALIZED FREE ENERGY PREDICTED BY IDOCK:   66.69 KCAL/MOL
REMARK 922        TOTAL FREE ENERGY PREDICTED BY IDOCK:   77.86 KCAL/MOL
REMARK 923 INTER-LIGAND FREE ENERGY PREDICTED BY IDOCK:   57.49 KCAL/MOL
REMARK 924 INTRA-LIGAND FREE ENERGY PREDICTED BY IDOCK:   20.37 KCAL/MOL
REMARK 927      BINDING AFFINITY PREDICTED BY RF-SCORE:    0.00 PKD
ROOT
HETATM    1  C   UNL     1     -10.087  11.239  72.304  1.00  0.00    12.730 C  
HETATM    2  O   UNL     1     -10.272  11.707  70.967  1.00  0.00     3.890 OA 
ENDROOT
BRANCH   2   3
HETATM    3  C   UNL     1      -9.135  11.761  70.016  1.00  0.00     2.789 C  
HETATM    4  C   UNL     1      -9.082  13.221  69.501  1.00  0.00     1.466 C  
HETATM    5  C   UNL     1     -10.059  13.388  68.336  1.00  0.00    -0.244 C  
HETATM    6  O   UNL     1      -6.426  12.682  62.337  1.00  0.00     2.528 OA 
HETATM    7  C   UNL     1      -7.136  14.713  65.997  1.00  0.00     4.715 A  
HETATM    8  C   UNL     1      -6.479  11.656  63.007  1.00  0.00     1.990 C  
HETATM    9  C   UNL     1     -10.118  12.154  67.412  1.00  0.00    -0.199 C  
HETATM   10  H   UNL     1      -6.434  10.253  61.414  1.00  0.00     0.000 HD 
HETATM   11  O   UNL     1     -10.260  10.854  68.091  1.00  0.00    -0.167 OA 
HETATM   12  C   UNL     1      -8.071  15.730  65.805  1.00  0.00     1.378 A  
HETATM   13  C   UNL     1      -9.207  15.467  65.044  1.00  0.00     1.395 A  
HETATM   14  C   UNL     1      -9.173  10.512  68.980  1.00  0.00    -0.185 C  
HETATM   15  N   UNL     1      -6.506  10.385  62.424  1.00  0.00    -0.135 N  
HETATM   16  N   UNL     1      -8.158   9.895  68.070  1.00  0.00    -0.108 NA 
HETATM   17  C   UNL     1      -9.371   9.375  70.040  1.00  0.00    -0.253 C  
HETATM   18  C   UNL     1      -9.614  14.144  64.821  1.00  0.00     0.717 A  
HETATM   19  C   UNL     1      -7.912   8.479  67.714  1.00  0.00    -0.107 A  
HETATM   20  C   UNL     1      -7.331   8.351  66.373  1.00  0.00    -0.083 A  
HETATM   21  N   UNL     1      -9.018  12.215  66.455  1.00  0.00    -0.178 NA 
HETATM   22  C   UNL     1      -6.641   9.261  63.337  1.00  0.00    -0.091 C  
HETATM   23  C   UNL     1      -7.089   9.642  65.908  1.00  0.00    -0.098 A  
HETATM   24  C   UNL     1      -7.120   7.068  65.806  1.00  0.00    -0.069 A  
HETATM   25  C   UNL     1      -7.616  10.416  66.939  1.00  0.00    -0.107 A  
HETATM   26  C   UNL     1      -7.398   5.909  66.519  1.00  0.00    -0.078 A  
HETATM   27  C   UNL     1      -7.883   6.005  67.804  1.00  0.00    -0.105 A  
HETATM   28  C   UNL     1      -7.750  11.724  66.573  1.00  0.00     0.046 A  
HETATM   29  C   UNL     1      -6.782  12.173  65.620  1.00  0.00     2.716 C  
HETATM   30  C   UNL     1      -8.140   7.253  68.400  1.00  0.00    -0.125 A  
HETATM   31  C   UNL     1      -7.402  13.437  65.437  1.00  0.00     7.394 A  
HETATM   32  C   UNL     1      -6.580  11.389  64.413  1.00  0.00     1.920 C  
HETATM   33  C   UNL     1      -8.811  13.158  65.396  1.00  0.00     1.410 A  
HETATM   34  C   UNL     1      -6.700   9.998  64.603  1.00  0.00    -0.128 A  
BRANCH   4  35
HETATM   35  N   UNL     1      -9.279  14.290  70.616  1.00  0.00     2.604 N  
HETATM   36  C   UNL     1      -8.422  15.485  70.640  1.00  0.00     1.944 C  
HETATM   37  C   UNL     1     -10.337  14.368  71.543  1.00  0.00     2.991 C  
HETATM   38  O   UNL     1     -10.458  15.307  72.348  1.00  0.00     0.855 OA 
BRANCH  37  39
HETATM   39  C   UNL     1     -11.352  13.306  71.688  1.00  0.00     3.008 A  
HETATM   40  C   UNL     1     -13.556  12.649  72.462  1.00  0.00    -0.280 A  
HETATM   41  C   UNL     1     -12.556  13.619  72.330  1.00  0.00    -0.121 A  
HETATM   42  C   UNL     1     -13.351  11.366  71.969  1.00  0.00    -0.388 A  
HETATM   43  C   UNL     1     -12.169  11.076  71.283  1.00  0.00    -0.365 A  
HETATM   44  C   UNL     1     -11.205  12.060  71.093  1.00  0.00     2.616 A  
ENDBRANCH  37  39
ENDBRANCH   4  35
ENDBRANCH   2   3
TORSDOF 3
ENDMDL
MODEL      168
REMARK 921   NORMALIZED FREE ENERGY PREDICTED BY IDOCK:   70.92 KCAL/MOL
REMARK 922        TOTAL FREE ENERGY PREDICTED BY IDOCK:   82.84 KCAL/MOL
REMARK 923 INTER-LIGAND FREE ENERGY PREDICTED BY IDOCK:   74.24 KCAL/MOL
REMARK 924 INTRA-LIGAND FREE ENERGY PREDICTED BY IDOCK:    8.60 KCAL/MOL
REMARK 927      BINDING AFFINITY PREDICTED BY RF-SCORE:    0.00 PKD
ROOT
HETATM    1  C   UNL     1     -12.718   9.158  63.627  1.00  0.00    17.735 C  
HETATM    2  O   UNL     1     -11.960  10.285  64.069  1.00  0.00     3.526 OA 
ENDROOT
BRANCH   2   3
HETATM    3  C   UNL     1     -10.606  10.109  64.649  1.00  0.00     0.690 C  
HETATM    4  C   UNL     1     -10.536   8.635  65.120  1.00  0.00     3.868 C  
HETATM    5  C   UNL     1     -11.147   8.515  66.518  1.00  0.00     1.277 C  
HETATM    6  O   UNL     1      -5.893   8.738  71.212  1.00  0.00    -0.037 OA 
HETATM    7  C   UNL     1      -7.802   6.883  67.904  1.00  0.00    -0.113 A  
HETATM    8  C   UNL     1      -6.046   9.784  70.590  1.00  0.00    -0.088 C  
HETATM    9  C   UNL     1     -10.829   9.721  67.425  1.00  0.00    -0.197 C  
HETATM   10  H   UNL     1      -5.422  11.131  72.109  1.00  0.00     0.000 HD 
HETATM   11  O   UNL     1     -11.046  11.048  66.822  1.00  0.00    -0.261 OA 
HETATM   12  C   UNL     1      -8.728   5.942  68.354  1.00  0.00    -0.112 A  
HETATM   13  C   UNL     1      -9.569   6.275  69.412  1.00  0.00    -0.157 A  
HETATM   14  C   UNL     1     -10.235  11.325  65.659  1.00  0.00    -0.253 C  
HETATM   15  N   UNL     1      -5.792  11.035  71.163  1.00  0.00     0.066 N  
HETATM   16  N   UNL     1      -8.951  11.829  66.238  1.00  0.00    -0.200 NA 
HETATM   17  C   UNL     1     -10.629  12.506  64.706  1.00  0.00    -0.333 C  
HETATM   18  C   UNL     1      -9.776   7.619  69.750  1.00  0.00    -0.171 A  
HETATM   19  C   UNL     1      -8.489  13.209  66.515  1.00  0.00     0.265 A  
HETATM   20  C   UNL     1      -7.538  13.248  67.630  1.00  0.00    -0.171 A  
HETATM   21  N   UNL     1      -9.509   9.541  68.022  1.00  0.00    -0.133 NA 
HETATM   22  C   UNL     1      -6.085  12.193  70.333  1.00  0.00    -0.019 C  
HETATM   23  C   UNL     1      -7.287  11.928  68.000  1.00  0.00    -0.100 A  
HETATM   24  C   UNL     1      -7.061  14.492  68.119  1.00  0.00    -0.125 A  
HETATM   25  C   UNL     1      -8.154  11.232  67.162  1.00  0.00    -0.150 A  
HETATM   26  C   UNL     1      -7.430  15.690  67.522  1.00  0.00    -0.205 A  
HETATM   27  C   UNL     1      -8.271  15.673  66.433  1.00  0.00    -0.133 A  
HETATM   28  C   UNL     1      -8.291   9.928  67.544  1.00  0.00    -0.114 A  
HETATM   29  C   UNL     1      -7.133   9.373  68.174  1.00  0.00    -0.076 C  
HETATM   30  C   UNL     1      -8.797  14.469  65.930  1.00  0.00     0.554 A  
HETATM   31  C   UNL     1      -7.782   8.159  68.523  1.00  0.00    -0.112 A  
HETATM   32  C   UNL     1      -6.524  10.101  69.275  1.00  0.00    -0.047 C  
HETATM   33  C   UNL     1      -9.090   8.553  68.971  1.00  0.00    -0.146 A  
HETATM   34  C   UNL     1      -6.571  11.502  69.135  1.00  0.00    -0.102 A  
BRANCH   4  35
HETATM   35  N   UNL     1     -11.138   7.620  64.105  1.00  0.00    13.528 N  
HETATM   36  C   UNL     1     -12.223   8.044  63.207  1.00  0.00    25.084 C  
HETATM   37  C   UNL     1     -10.639   6.343  63.779  1.00  0.00     7.747 C  
HETATM   38  O   UNL     1     -11.139   5.631  62.891  1.00  0.00     3.150 OA 
BRANCH  37  39
HETATM   39  C   UNL     1      -9.526   5.710  64.514  1.00  0.00     0.777 A  
HETATM   40  C   UNL     1      -7.178   5.730  65.121  1.00  0.00    -0.070 A  
HETATM   41  C   UNL     1      -8.253   6.282  64.417  1.00  0.00    -0.040 A  
HETATM   42  C   UNL     1      -7.367   4.601  65.908  1.00  0.00    -0.077 A  
HETATM   43  C   UNL     1      -8.650   4.066  66.043  1.00  0.00    -0.110 A  
HETATM   44  C   UNL     1      -9.731   4.657  65.397  1.00  0.00    -0.174 A  
ENDBRANCH  37  39
ENDBRANCH   4  35
ENDBRANCH   2   3
TORSDOF 3
ENDMDL
MODEL      169
REMARK 921   NORMALIZED FREE ENERGY PREDICTED BY IDOCK:   71.58 KCAL/MOL
REMARK 922        TOTAL FREE ENERGY PREDICTED BY IDOCK:   83.61 KCAL/MOL
REMARK 923 INTER-LIGAND FREE ENERGY PREDICTED BY IDOCK:   62.01 KCAL/MOL
REMARK 924 INTRA-LIGAND FREE ENERGY PREDICTED BY IDOCK:   21.60 KCAL/MOL
REMARK 927      BINDING AFFINITY PREDICTED BY RF-SCORE:    0.00 PKD
ROOT
HETATM    1  C   UNL     1     -12.180  11.825  65.447  1.00  0.00     0.533 C  
HETATM    2  O   UNL     1     -11.047  11.345  64.721  1.00  0.00    -0.275 OA 
ENDROOT
BRANCH   2   3
HETATM    3  C   UNL     1      -9.820  10.909  65.431  1.00  0.00    -0.255 C  
HETATM    4  C   UNL     1     -10.156   9.528  66.048  1.00  0.00    -0.249 C  
HETATM    5  C   UNL     1     -10.859   9.725  67.392  1.00  0.00    -0.265 C  
HETATM    6  O   UNL     1      -6.012   9.188  72.481  1.00  0.00    -0.206 OA 
HETATM    7  C   UNL     1      -8.130   7.491  69.216  1.00  0.00    -0.126 A  
HETATM    8  C   UNL     1      -5.856  10.160  71.750  1.00  0.00     0.273 C  
HETATM    9  C   UNL     1     -10.299  10.912  68.202  1.00  0.00    -0.178 C  
HETATM   10  H   UNL     1      -5.001  11.477  73.179  1.00  0.00     0.000 HD 
HETATM   11  O   UNL     1     -10.135  12.172  67.456  1.00  0.00    -0.194 OA 
HETATM   12  C   UNL     1      -9.290   6.865  69.673  1.00  0.00    -0.145 A  
HETATM   13  C   UNL     1     -10.079   7.516  70.616  1.00  0.00    -0.187 A  
HETATM   14  C   UNL     1      -9.211  12.104  66.346  1.00  0.00    -0.207 C  
HETATM   15  N   UNL     1      -5.327  11.367  72.218  1.00  0.00     0.408 N  
HETATM   16  N   UNL     1      -7.878  12.340  66.984  1.00  0.00    -0.145 NA 
HETATM   17  C   UNL     1      -9.235  13.227  65.253  1.00  0.00     0.729 C  
HETATM   18  C   UNL     1      -9.958   8.900  70.802  1.00  0.00    -0.282 A  
HETATM   19  C   UNL     1      -7.098  13.585  67.164  1.00  0.00     0.242 A  
HETATM   20  C   UNL     1      -6.237  13.517  68.349  1.00  0.00    -0.093 A  
HETATM   21  N   UNL     1      -9.107  10.483  68.926  1.00  0.00    -0.169 NA 
HETATM   22  C   UNL     1      -5.265  12.458  71.257  1.00  0.00    -0.118 C  
HETATM   23  C   UNL     1      -6.352  12.229  68.865  1.00  0.00    -0.084 A  
HETATM   24  C   UNL     1      -5.489  14.653  68.754  1.00  0.00    -0.088 A  
HETATM   25  C   UNL     1      -7.317  11.675  68.026  1.00  0.00    -0.089 A  
HETATM   26  C   UNL     1      -5.504  15.828  68.014  1.00  0.00    -0.136 A  
HETATM   27  C   UNL     1      -6.255  15.892  66.862  1.00  0.00     0.296 A  
HETATM   28  C   UNL     1      -7.804  10.499  68.521  1.00  0.00    -0.111 A  
HETATM   29  C   UNL     1      -6.866   9.752  69.300  1.00  0.00    -0.055 C  
HETATM   30  C   UNL     1      -7.039  14.806  66.435  1.00  0.00     2.442 A  
HETATM   31  C   UNL     1      -7.822   8.785  69.708  1.00  0.00    -0.090 A  
HETATM   32  C   UNL     1      -6.158  10.430  70.374  1.00  0.00    -0.118 C  
HETATM   33  C   UNL     1      -9.011   9.538  70.000  1.00  0.00    -0.223 A  
HETATM   34  C   UNL     1      -5.838  11.773  70.094  1.00  0.00    -0.156 A  
BRANCH   4  35
HETATM   35  N   UNL     1     -10.935   8.582  65.087  1.00  0.00     5.318 N  
HETATM   36  C   UNL     1     -10.800   7.125  65.231  1.00  0.00     5.394 C  
HETATM   37  C   UNL     1     -11.946   8.941  64.174  1.00  0.00    16.457 C  
HETATM   38  O   UNL     1     -12.575   8.105  63.503  1.00  0.00    21.000 OA 
BRANCH  37  39
HETATM   39  C   UNL     1     -12.295  10.346  63.881  1.00  0.00     5.204 A  
HETATM   40  C   UNL     1     -11.707  12.435  62.798  1.00  0.00     0.595 A  
HETATM   41  C   UNL     1     -11.400  11.110  63.123  1.00  0.00     0.395 A  
HETATM   42  C   UNL     1     -12.895  13.004  63.240  1.00  0.00     0.248 A  
HETATM   43  C   UNL     1     -13.807  12.221  63.951  1.00  0.00     1.849 A  
HETATM   44  C   UNL     1     -13.531  10.883  64.214  1.00  0.00     4.871 A  
ENDBRANCH  37  39
ENDBRANCH   4  35
ENDBRANCH   2   3
TORSDOF 3
ENDMDL
MODEL      170
REMARK 921   NORMALIZED FREE ENERGY PREDICTED BY IDOCK:   73.67 KCAL/MOL
REMARK 922        TOTAL FREE ENERGY PREDICTED BY IDOCK:   86.07 KCAL/MOL
REMARK 923 INTER-LIGAND FREE ENERGY PREDICTED BY IDOCK:   64.36 KCAL/MOL
REMARK 924 INTRA-LIGAND FREE ENERGY PREDICTED BY IDOCK:   21.71 KCAL/MOL
REMARK 927      BINDING AFFINITY PREDICTED BY RF-SCORE:    0.00 PKD
ROOT
HETATM    1  C   UNL     1      -7.095   9.571  70.560  1.00  0.00    -0.127 C  
HETATM    2  O   UNL     1      -8.095   9.689  69.546  1.00  0.00    -0.103 OA 
ENDROOT
BRANCH   2   3
HETATM    3  C   UNL     1      -8.535  11.022  69.065  1.00  0.00    -0.076 C  
HETATM    4  C   UNL     1      -8.881  10.838  67.566  1.00  0.00    -0.128 C  
HETATM    5  C   UNL     1      -7.607  10.960  66.728  1.00  0.00    -0.134 C  
HETATM    6  O   UNL     1      -7.215  17.575  64.324  1.00  0.00     4.480 OA 
HETATM    7  C   UNL     1      -9.244  13.852  64.554  1.00  0.00     2.539 A  
HETATM    8  C   UNL     1      -7.111  17.484  65.543  1.00  0.00     0.482 C  
HETATM    9  C   UNL     1      -6.633  12.032  67.257  1.00  0.00    -0.145 C  
HETATM   10  H   UNL     1      -5.823  19.142  65.860  1.00  0.00     0.000 HD 
HETATM   11  O   UNL     1      -6.359  11.987  68.705  1.00  0.00    -0.053 OA 
HETATM   12  C   UNL     1      -8.809  13.008  63.533  1.00  0.00     4.529 A  
HETATM   13  C   UNL     1      -7.446  12.923  63.263  1.00  0.00     9.892 A  
HETATM   14  C   UNL     1      -7.515  12.190  69.548  1.00  0.00     0.489 C  
HETATM   15  N   UNL     1      -6.315  18.359  66.290  1.00  0.00    -0.181 N  
HETATM   16  N   UNL     1      -7.623  13.679  69.643  1.00  0.00     0.481 NA 
HETATM   17  C   UNL     1      -7.448  11.786  71.061  1.00  0.00     5.150 C  
HETATM   18  C   UNL     1      -6.511  13.336  64.223  1.00  0.00    16.749 A  
HETATM   19  C   UNL     1      -7.097  14.625  70.654  1.00  0.00     0.617 A  
HETATM   20  C   UNL     1      -6.840  15.947  70.076  1.00  0.00     0.105 A  
HETATM   21  N   UNL     1      -7.043  13.343  66.765  1.00  0.00     0.504 NA 
HETATM   22  C   UNL     1      -6.230  18.090  67.717  1.00  0.00    -0.174 C  
HETATM   23  C   UNL     1      -7.294  15.913  68.759  1.00  0.00    -0.159 A  
HETATM   24  C   UNL     1      -6.233  16.963  70.858  1.00  0.00     1.196 A  
HETATM   25  C   UNL     1      -7.688  14.583  68.632  1.00  0.00    -0.137 A  
HETATM   26  C   UNL     1      -5.924  16.755  72.196  1.00  0.00     2.242 A  
HETATM   27  C   UNL     1      -6.216  15.542  72.777  1.00  0.00     2.145 A  
HETATM   28  C   UNL     1      -7.904  14.241  67.328  1.00  0.00    -0.147 A  
HETATM   29  C   UNL     1      -8.362  15.316  66.503  1.00  0.00    -0.124 C  
HETATM   30  C   UNL     1      -6.787  14.491  72.037  1.00  0.00     2.052 A  
HETATM   31  C   UNL     1      -8.271  14.565  65.302  1.00  0.00     4.937 A  
HETATM   32  C   UNL     1      -7.623  16.568  66.521  1.00  0.00    -0.304 C  
HETATM   33  C   UNL     1      -7.044  13.827  65.416  1.00  0.00     9.481 A  
HETATM   34  C   UNL     1      -7.091  16.905  67.780  1.00  0.00    -0.156 A  
BRANCH   4  35
HETATM   35  N   UNL     1      -9.687   9.542  67.261  1.00  0.00    -0.160 N  
HETATM   36  C   UNL     1      -9.924   9.142  65.865  1.00  0.00    -0.162 C  
HETATM   37  C   UNL     1     -10.081   8.548  68.179  1.00  0.00    -0.200 C  
HETATM   38  O   UNL     1     -10.653   7.500  67.833  1.00  0.00    -0.219 OA 
BRANCH  37  39
HETATM   39  C   UNL     1      -9.916   8.699  69.638  1.00  0.00    -0.191 A  
HETATM   40  C   UNL     1      -8.421   8.977  71.528  1.00  0.00    -0.092 A  
HETATM   41  C   UNL     1      -8.619   8.804  70.154  1.00  0.00    -0.149 A  
HETATM   42  C   UNL     1      -9.511   9.030  72.388  1.00  0.00     0.301 A  
HETATM   43  C   UNL     1     -10.803   8.978  71.861  1.00  0.00    -0.413 A  
HETATM   44  C   UNL     1     -11.000   8.875  70.488  1.00  0.00    -0.280 A  
ENDBRANCH  37  39
ENDBRANCH   4  35
ENDBRANCH   2   3
TORSDOF 3
ENDMDL
MODEL      171
REMARK 921   NORMALIZED FREE ENERGY PREDICTED BY IDOCK:   85.61 KCAL/MOL
REMARK 922        TOTAL FREE ENERGY PREDICTED BY IDOCK:  100.10 KCAL/MOL
REMARK 923 INTER-LIGAND FREE ENERGY PREDICTED BY IDOCK:   88.96 KCAL/MOL
REMARK 924 INTRA-LIGAND FREE ENERGY PREDICTED BY IDOCK:   11.14 KCAL/MOL
REMARK 927      BINDING AFFINITY PREDICTED BY RF-SCORE:    0.00 PKD
ROOT
HETATM    1  C   UNL     1      -7.099  10.997  64.548  1.00  0.00     0.766 C  
HETATM    2  O   UNL     1      -6.736  11.237  65.908  1.00  0.00     0.032 OA 
ENDROOT
BRANCH   2   3
HETATM    3  C   UNL     1      -7.690  11.875  66.848  1.00  0.00    -0.106 C  
HETATM    4  C   UNL     1      -8.417  12.974  66.032  1.00  0.00     1.002 C  
HETATM    5  C   UNL     1      -7.573  14.250  66.028  1.00  0.00     3.490 C  
HETATM    6  O   UNL     1      -9.999  18.476  71.121  1.00  0.00     2.801 OA 
HETATM    7  C   UNL     1     -10.612  16.335  67.506  1.00  0.00    -0.310 A  
HETATM    8  C   UNL     1      -9.495  17.439  71.537  1.00  0.00     7.914 C  
HETATM    9  C   UNL     1      -6.858  14.511  67.369  1.00  0.00    -0.038 C  
HETATM   10  H   UNL     1      -8.744  18.186  73.377  1.00  0.00     0.000 HD 
HETATM   11  O   UNL     1      -6.143  13.358  67.945  1.00  0.00    -0.117 OA 
HETATM   12  C   UNL     1     -10.284  17.138  66.414  1.00  0.00    -0.331 A  
HETATM   13  C   UNL     1      -9.119  17.898  66.462  1.00  0.00    -0.276 A  
HETATM   14  C   UNL     1      -6.978  12.223  68.265  1.00  0.00    -0.082 C  
HETATM   15  N   UNL     1      -8.811  17.379  72.756  1.00  0.00    14.949 N  
HETATM   16  N   UNL     1      -7.500  12.546  69.630  1.00  0.00     0.592 NA 
HETATM   17  C   UNL     1      -6.318  10.822  68.509  1.00  0.00    -0.050 C  
HETATM   18  C   UNL     1      -8.103  17.573  67.371  1.00  0.00    -0.213 A  
HETATM   19  C   UNL     1      -6.998  12.171  70.972  1.00  0.00     3.558 A  
HETATM   20  C   UNL     1      -7.354  13.172  71.982  1.00  0.00     7.832 A  
HETATM   21  N   UNL     1      -7.783  15.164  68.290  1.00  0.00    -0.113 NA 
HETATM   22  C   UNL     1      -8.203  16.101  73.091  1.00  0.00    16.542 C  
HETATM   23  C   UNL     1      -8.166  14.115  71.355  1.00  0.00     5.618 A  
HETATM   24  C   UNL     1      -6.872  13.048  73.311  1.00  0.00     5.757 A  
HETATM   25  C   UNL     1      -8.153  13.665  70.037  1.00  0.00     1.968 A  
HETATM   26  C   UNL     1      -6.110  11.956  73.703  1.00  0.00     3.119 A  
HETATM   27  C   UNL     1      -5.818  10.971  72.787  1.00  0.00     1.718 A  
HETATM   28  C   UNL     1      -8.653  14.600  69.177  1.00  0.00    -0.035 A  
HETATM   29  C   UNL     1      -9.653  15.450  69.746  1.00  0.00    -0.190 C  
HETATM   30  C   UNL     1      -6.244  11.062  71.449  1.00  0.00     0.976 A  
HETATM   31  C   UNL     1      -9.721  16.298  68.609  1.00  0.00    -0.235 A  
HETATM   32  C   UNL     1      -9.366  16.111  71.009  1.00  0.00     3.283 C  
HETATM   33  C   UNL     1      -8.356  16.474  68.195  1.00  0.00    -0.186 A  
HETATM   34  C   UNL     1      -8.594  15.341  71.899  1.00  0.00     5.799 A  
BRANCH   4  35
HETATM   35  N   UNL     1      -8.841  12.521  64.605  1.00  0.00     1.325 N  
HETATM   36  C   UNL     1      -7.931  11.687  63.804  1.00  0.00     1.734 C  
HETATM   37  C   UNL     1     -10.114  12.647  64.014  1.00  0.00    -0.254 C  
HETATM   38  O   UNL     1     -10.387  12.180  62.895  1.00  0.00    -0.150 OA 
BRANCH  37  39
HETATM   39  C   UNL     1     -11.213  13.409  64.641  1.00  0.00    -0.377 A  
HETATM   40  C   UNL     1     -11.950  15.444  65.736  1.00  0.00     0.420 A  
HETATM   41  C   UNL     1     -10.931  14.677  65.161  1.00  0.00    -0.395 A  
HETATM   42  C   UNL     1     -13.244  14.941  65.808  1.00  0.00     1.055 A  
HETATM   43  C   UNL     1     -13.529  13.697  65.240  1.00  0.00     0.670 A  
HETATM   44  C   UNL     1     -12.529  12.966  64.608  1.00  0.00    -0.499 A  
ENDBRANCH  37  39
ENDBRANCH   4  35
ENDBRANCH   2   3
TORSDOF 3
ENDMDL
MODEL      172
REMARK 921   NORMALIZED FREE ENERGY PREDICTED BY IDOCK:   94.53 KCAL/MOL
REMARK 922        TOTAL FREE ENERGY PREDICTED BY IDOCK:  110.58 KCAL/MOL
REMARK 923 INTER-LIGAND FREE ENERGY PREDICTED BY IDOCK:   76.97 KCAL/MOL
REMARK 924 INTRA-LIGAND FREE ENERGY PREDICTED BY IDOCK:   33.61 KCAL/MOL
REMARK 927      BINDING AFFINITY PREDICTED BY RF-SCORE:    0.00 PKD
ROOT
HETATM    1  C   UNL     1      -8.530   9.346  68.176  1.00  0.00    -0.120 C  
HETATM    2  O   UNL     1      -9.402  10.476  68.239  1.00  0.00    -0.147 OA 
ENDROOT
BRANCH   2   3
HETATM    3  C   UNL     1      -8.856  11.854  68.292  1.00  0.00    -0.174 C  
HETATM    4  C   UNL     1      -7.672  11.802  69.290  1.00  0.00     0.224 C  
HETATM    5  C   UNL     1      -8.198  11.959  70.717  1.00  0.00     6.584 C  
HETATM    6  O   UNL     1      -7.537  18.735  72.543  1.00  0.00     5.769 OA 
HETATM    7  C   UNL     1      -5.793  15.060  71.326  1.00  0.00     0.164 A  
HETATM    8  C   UNL     1      -8.341  18.543  71.637  1.00  0.00     9.338 C  
HETATM    9  C   UNL     1      -9.368  12.958  70.827  1.00  0.00     8.312 C  
HETATM   10  H   UNL     1      -9.675  20.135  72.076  1.00  0.00     0.000 HD 
HETATM   11  O   UNL     1     -10.447  12.788  69.838  1.00  0.00     0.777 OA 
HETATM   12  C   UNL     1      -5.473  14.290  72.444  1.00  0.00    -0.165 A  
HETATM   13  C   UNL     1      -6.395  14.193  73.482  1.00  0.00     1.087 A  
HETATM   14  C   UNL     1     -10.041  12.951  68.461  1.00  0.00    -0.189 C  
HETATM   15  N   UNL     1      -9.484  19.333  71.475  1.00  0.00     3.601 N  
HETATM   16  N   UNL     1     -10.115  14.430  68.246  1.00  0.00    -0.232 NA 
HETATM   17  C   UNL     1     -10.969  12.424  67.314  1.00  0.00    -0.302 C  
HETATM   18  C   UNL     1      -7.744  14.502  73.257  1.00  0.00     6.795 A  
HETATM   19  C   UNL     1     -11.205  15.276  67.709  1.00  0.00    -0.326 A  
HETATM   20  C   UNL     1     -11.157  16.635  68.259  1.00  0.00    -0.295 A  
HETATM   21  N   UNL     1      -8.837  14.315  70.908  1.00  0.00     3.465 NA 
HETATM   22  C   UNL     1     -10.386  18.946  70.401  1.00  0.00     1.678 C  
HETATM   23  C   UNL     1     -10.006  16.720  69.039  1.00  0.00    -0.272 A  
HETATM   24  C   UNL     1     -12.180  17.567  67.948  1.00  0.00     2.863 A  
HETATM   25  C   UNL     1      -9.522  15.415  68.969  1.00  0.00    -0.236 A  
HETATM   26  C   UNL     1     -13.211  17.243  67.077  1.00  0.00     8.327 A  
HETATM   27  C   UNL     1     -13.241  15.995  66.498  1.00  0.00     4.996 A  
HETATM   28  C   UNL     1      -8.548  15.186  69.897  1.00  0.00     0.210 A  
HETATM   29  C   UNL     1      -7.764  16.336  70.227  1.00  0.00     1.579 C  
HETATM   30  C   UNL     1     -12.269  15.023  66.798  1.00  0.00     0.275 A  
HETATM   31  C   UNL     1      -7.067  15.684  71.278  1.00  0.00     2.485 A  
HETATM   32  C   UNL     1      -8.452  17.563  70.595  1.00  0.00     4.957 C  
HETATM   33  C   UNL     1      -8.065  14.907  71.960  1.00  0.00     5.475 A  
HETATM   34  C   UNL     1      -9.653  17.782  69.893  1.00  0.00     1.097 A  
BRANCH   4  35
HETATM   35  N   UNL     1      -6.755  10.556  69.114  1.00  0.00    -0.062 N  
HETATM   36  C   UNL     1      -5.306  10.680  69.331  1.00  0.00    -0.037 C  
HETATM   37  C   UNL     1      -7.161   9.217  68.949  1.00  0.00    -0.068 C  
HETATM   38  O   UNL     1      -6.356   8.270  68.899  1.00  0.00    -0.043 OA 
BRANCH  37  39
HETATM   39  C   UNL     1      -8.571   8.829  68.747  1.00  0.00    -0.137 A  
HETATM   40  C   UNL     1     -10.793   8.562  69.684  1.00  0.00    -0.157 A  
HETATM   41  C   UNL     1      -9.442   8.893  69.840  1.00  0.00    -0.177 A  
HETATM   42  C   UNL     1     -11.271   8.153  68.445  1.00  0.00     0.552 A  
HETATM   43  C   UNL     1     -10.409   8.143  67.347  1.00  0.00    -0.351 A  
HETATM   44  C   UNL     1      -9.083   8.537  67.489  1.00  0.00    -0.146 A  
ENDBRANCH  37  39
ENDBRANCH   4  35
ENDBRANCH   2   3
TORSDOF 3
ENDMDL
MODEL      173
REMARK 921   NORMALIZED FREE ENERGY PREDICTED BY IDOCK:   94.80 KCAL/MOL
REMARK 922        TOTAL FREE ENERGY PREDICTED BY IDOCK:  110.90 KCAL/MOL
REMARK 923 INTER-LIGAND FREE ENERGY PREDICTED BY IDOCK:  103.05 KCAL/MOL
REMARK 924 INTRA-LIGAND FREE ENERGY PREDICTED BY IDOCK:    7.85 KCAL/MOL
REMARK 927      BINDING AFFINITY PREDICTED BY RF-SCORE:    0.00 PKD
ROOT
HETATM    1  C   UNL     1     -13.090  12.801  65.817  1.00  0.00     1.135 C  
HETATM    2  O   UNL     1     -13.184  12.684  67.238  1.00  0.00     2.312 OA 
ENDROOT
BRANCH   2   3
HETATM    3  C   UNL     1     -12.256  13.430  68.124  1.00  0.00    -0.086 C  
HETATM    4  C   UNL     1     -12.517  12.896  69.555  1.00  0.00     0.189 C  
HETATM    5  C   UNL     1     -13.701  13.643  70.171  1.00  0.00     1.847 C  
HETATM    6  O   UNL     1     -11.141  18.864  74.156  1.00  0.00     1.669 OA 
HETATM    7  C   UNL     1     -11.479  14.723  73.280  1.00  0.00     0.306 A  
HETATM    8  C   UNL     1     -10.918  19.001  72.958  1.00  0.00     3.598 C  
HETATM    9  C   UNL     1     -13.740  15.138  69.794  1.00  0.00     1.714 C  
HETATM   10  H   UNL     1     -10.950  21.122  72.887  1.00  0.00     0.000 HD 
HETATM   11  O   UNL     1     -13.561  15.439  68.362  1.00  0.00     3.549 OA 
HETATM   12  C   UNL     1     -12.575  14.181  73.951  1.00  0.00     1.090 A  
HETATM   13  C   UNL     1     -13.776  14.884  73.958  1.00  0.00     2.761 A  
HETATM   14  C   UNL     1     -12.292  15.022  67.808  1.00  0.00     0.417 C  
HETATM   15  N   UNL     1     -10.858  20.259  72.350  1.00  0.00     6.020 N  
HETATM   16  N   UNL     1     -11.376  16.160  68.134  1.00  0.00    -0.315 NA 
HETATM   17  C   UNL     1     -12.124  14.924  66.253  1.00  0.00     0.015 C  
HETATM   18  C   UNL     1     -14.013  15.882  73.003  1.00  0.00    -0.353 A  
HETATM   19  C   UNL     1     -10.989  17.348  67.340  1.00  0.00    -0.056 A  
HETATM   20  C   UNL     1     -10.646  18.485  68.200  1.00  0.00    -0.291 A  
HETATM   21  N   UNL     1     -12.851  15.883  70.679  1.00  0.00    -0.391 NA 
HETATM   22  C   UNL     1     -10.657  20.269  70.910  1.00  0.00     2.614 C  
HETATM   23  C   UNL     1     -10.688  18.030  69.516  1.00  0.00     0.804 A  
HETATM   24  C   UNL     1     -10.350  19.749  67.628  1.00  0.00    -0.579 A  
HETATM   25  C   UNL     1     -11.131  16.720  69.346  1.00  0.00    -0.083 A  
HETATM   26  C   UNL     1     -10.319  19.928  66.251  1.00  0.00    -0.608 A  
HETATM   27  C   UNL     1     -10.574  18.858  65.424  1.00  0.00     0.174 A  
HETATM   28  C   UNL     1     -11.523  16.161  70.528  1.00  0.00    -0.343 A  
HETATM   29  C   UNL     1     -10.821  16.649  71.674  1.00  0.00     1.238 C  
HETATM   30  C   UNL     1     -10.904  17.592  65.940  1.00  0.00     0.027 A  
HETATM   31  C   UNL     1     -11.646  15.956  72.599  1.00  0.00    -0.400 A  
HETATM   32  C   UNL     1     -10.724  18.086  71.870  1.00  0.00     3.197 C  
HETATM   33  C   UNL     1     -12.981  16.104  72.089  1.00  0.00    -0.110 A  
HETATM   34  C   UNL     1     -10.598  18.822  70.676  1.00  0.00     2.265 A  
BRANCH   4  35
HETATM   35  N   UNL     1     -12.668  11.349  69.632  1.00  0.00     0.069 N  
HETATM   36  C   UNL     1     -13.274  10.619  68.508  1.00  0.00     4.939 C  
HETATM   37  C   UNL     1     -12.109  10.486  70.595  1.00  0.00    -0.356 C  
HETATM   38  O   UNL     1     -12.212   9.249  70.532  1.00  0.00    -0.125 OA 
BRANCH  37  39
HETATM   39  C   UNL     1     -11.415  10.978  71.802  1.00  0.00     2.095 A  
HETATM   40  C   UNL     1      -9.989  10.495  73.704  1.00  0.00    14.994 A  
HETATM   41  C   UNL     1     -10.685  10.064  72.569  1.00  0.00     3.845 A  
HETATM   42  C   UNL     1     -10.034  11.832  74.082  1.00  0.00    23.577 A  
HETATM   43  C   UNL     1     -10.720  12.748  73.283  1.00  0.00    14.792 A  
HETATM   44  C   UNL     1     -11.355  12.329  72.118  1.00  0.00     5.893 A  
ENDBRANCH  37  39
ENDBRANCH   4  35
ENDBRANCH   2   3
TORSDOF 3
ENDMDL
MODEL      174
REMARK 921   NORMALIZED FREE ENERGY PREDICTED BY IDOCK:   95.73 KCAL/MOL
REMARK 922        TOTAL FREE ENERGY PREDICTED BY IDOCK:  111.99 KCAL/MOL
REMARK 923 INTER-LIGAND FREE ENERGY PREDICTED BY IDOCK:  110.64 KCAL/MOL
REMARK 924 INTRA-LIGAND FREE ENERGY PREDICTED BY IDOCK:    1.35 KCAL/MOL
REMARK 927      BINDING AFFINITY PREDICTED BY RF-SCORE:    0.00 PKD
ROOT
HETATM    1  C   UNL     1     -12.009  14.949  63.421  1.00  0.00     1.215 C  
HETATM    2  O   UNL     1     -10.975  14.156  64.008  1.00  0.00    -0.042 OA 
ENDROOT
BRANCH   2   3
HETATM    3  C   UNL     1     -10.655  14.274  65.452  1.00  0.00    -0.354 C  
HETATM    4  C   UNL     1     -10.331  12.837  65.932  1.00  0.00    -0.283 C  
HETATM    5  C   UNL     1     -11.630  12.110  66.283  1.00  0.00    -0.424 C  
HETATM    6  O   UNL     1     -12.611  12.648  73.242  1.00  0.00     1.894 OA 
HETATM    7  C   UNL     1     -10.285  11.343  69.939  1.00  0.00     0.782 A  
HETATM    8  C   UNL     1     -12.678  13.719  72.649  1.00  0.00    -0.098 C  
HETATM    9  C   UNL     1     -12.675  13.023  66.956  1.00  0.00     1.019 C  
HETATM   10  H   UNL     1     -14.087  14.677  73.915  1.00  0.00     0.000 HD 
HETATM   11  O   UNL     1     -12.909  14.320  66.295  1.00  0.00    -0.261 OA 
HETATM   12  C   UNL     1     -10.675  10.059  69.558  1.00  0.00    -0.269 A  
HETATM   13  C   UNL     1     -12.033   9.763  69.479  1.00  0.00     0.304 A  
HETATM   14  C   UNL     1     -11.753  15.184  66.227  1.00  0.00    -0.002 C  
HETATM   15  N   UNL     1     -13.523  14.752  73.068  1.00  0.00    -0.447 N  
HETATM   16  N   UNL     1     -11.763  15.887  67.548  1.00  0.00     0.092 NA 
HETATM   17  C   UNL     1     -11.751  16.395  65.231  1.00  0.00     0.755 C  
HETATM   18  C   UNL     1     -12.974  10.797  69.380  1.00  0.00     0.859 A  
HETATM   19  C   UNL     1     -12.339  17.192  67.945  1.00  0.00     2.673 A  
HETATM   20  C   UNL     1     -12.715  17.209  69.362  1.00  0.00     5.261 A  
HETATM   21  N   UNL     1     -12.383  13.121  68.382  1.00  0.00     0.010 NA 
HETATM   22  C   UNL     1     -13.552  15.939  72.228  1.00  0.00    -0.286 C  
HETATM   23  C   UNL     1     -12.292  16.001  69.912  1.00  0.00     0.066 A  
HETATM   24  C   UNL     1     -13.383  18.335  69.911  1.00  0.00    20.482 A  
HETATM   25  C   UNL     1     -11.796  15.341  68.791  1.00  0.00    -0.307 A  
HETATM   26  C   UNL     1     -13.642  19.463  69.145  1.00  0.00    17.201 A  
HETATM   27  C   UNL     1     -13.240  19.495  67.829  1.00  0.00     6.925 A  
HETATM   28  C   UNL     1     -11.584  14.014  69.036  1.00  0.00    -0.306 A  
HETATM   29  C   UNL     1     -11.235  13.712  70.389  1.00  0.00     0.369 C  
HETATM   30  C   UNL     1     -12.604  18.393  67.229  1.00  0.00     5.579 A  
HETATM   31  C   UNL     1     -11.293  12.307  70.196  1.00  0.00     0.129 A  
HETATM   32  C   UNL     1     -12.071  14.237  71.457  1.00  0.00    -0.317 C  
HETATM   33  C   UNL     1     -12.454  12.092  69.377  1.00  0.00     0.255 A  
HETATM   34  C   UNL     1     -12.598  15.517  71.198  1.00  0.00    -0.509 A  
BRANCH   4  35
HETATM   35  N   UNL     1      -9.431  12.033  64.949  1.00  0.00    -0.010 N  
HETATM   36  C   UNL     1      -9.995  10.892  64.211  1.00  0.00    -0.333 C  
HETATM   37  C   UNL     1      -8.139  12.375  64.504  1.00  0.00     3.731 C  
HETATM   38  O   UNL     1      -7.524  11.714  63.649  1.00  0.00     1.662 OA 
BRANCH  37  39
HETATM   39  C   UNL     1      -7.374  13.505  65.066  1.00  0.00    10.660 A  
HETATM   40  C   UNL     1      -5.489  14.265  66.391  1.00  0.00     4.094 A  
HETATM   41  C   UNL     1      -6.258  13.223  65.863  1.00  0.00     5.920 A  
HETATM   42  C   UNL     1      -5.839  15.587  66.139  1.00  0.00     3.819 A  
HETATM   43  C   UNL     1      -6.922  15.861  65.301  1.00  0.00     6.802 A  
HETATM   44  C   UNL     1      -7.644  14.823  64.721  1.00  0.00    12.325 A  
ENDBRANCH  37  39
ENDBRANCH   4  35
ENDBRANCH   2   3
TORSDOF 3
ENDMDL
MODEL      175
REMARK 921   NORMALIZED FREE ENERGY PREDICTED BY IDOCK:  116.34 KCAL/MOL
REMARK 922        TOTAL FREE ENERGY PREDICTED BY IDOCK:  136.22 KCAL/MOL
REMARK 923 INTER-LIGAND FREE ENERGY PREDICTED BY IDOCK:  134.36 KCAL/MOL
REMARK 924 INTRA-LIGAND FREE ENERGY PREDICTED BY IDOCK:    1.86 KCAL/MOL
REMARK 927      BINDING AFFINITY PREDICTED BY RF-SCORE:    0.00 PKD
ROOT
HETATM    1  C   UNL     1      -7.101   9.624  70.527  1.00  0.00    -0.132 C  
HETATM    2  O   UNL     1      -7.940   9.689  69.373  1.00  0.00    -0.092 OA 
ENDROOT
BRANCH   2   3
HETATM    3  C   UNL     1      -8.369  10.997  68.819  1.00  0.00    -0.144 C  
HETATM    4  C   UNL     1      -8.301  10.846  67.278  1.00  0.00    -0.123 C  
HETATM    5  C   UNL     1      -6.873  11.116  66.800  1.00  0.00    -0.134 C  
HETATM    6  O   UNL     1      -6.517  17.835  64.700  1.00  0.00     0.656 OA 
HETATM    7  C   UNL     1      -8.170  13.942  64.330  1.00  0.00    10.100 A  
HETATM    8  C   UNL     1      -6.720  17.703  65.902  1.00  0.00    -0.215 C  
HETATM    9  C   UNL     1      -6.174  12.247  67.583  1.00  0.00    -0.120 C  
HETATM   10  H   UNL     1      -5.721  19.453  66.571  1.00  0.00     0.000 HD 
HETATM   11  O   UNL     1      -6.276  12.164  69.051  1.00  0.00    -0.068 OA 
HETATM   12  C   UNL     1      -7.409  13.183  63.441  1.00  0.00    13.130 A  
HETATM   13  C   UNL     1      -6.020  13.230  63.531  1.00  0.00    14.947 A  
HETATM   14  C   UNL     1      -7.623  12.228  69.569  1.00  0.00     0.653 C  
HETATM   15  N   UNL     1      -6.230  18.612  66.845  1.00  0.00    -0.176 N  
HETATM   16  N   UNL     1      -7.895  13.697  69.661  1.00  0.00     0.669 NA 
HETATM   17  C   UNL     1      -7.907  11.769  71.041  1.00  0.00     6.625 C  
HETATM   18  C   UNL     1      -5.406  13.684  64.707  1.00  0.00    14.792 A  
HETATM   19  C   UNL     1      -7.738  14.642  70.790  1.00  0.00     1.730 A  
HETATM   20  C   UNL     1      -7.471  16.005  70.322  1.00  0.00     1.069 A  
HETATM   21  N   UNL     1      -6.569  13.536  67.025  1.00  0.00     0.093 NA 
HETATM   22  C   UNL     1      -6.487  18.291  68.241  1.00  0.00    -0.200 C  
HETATM   23  C   UNL     1      -7.567  15.987  68.932  1.00  0.00    -0.192 A  
HETATM   24  C   UNL     1      -7.184  17.037  71.253  1.00  0.00     5.297 A  
HETATM   25  C   UNL     1      -7.786  14.634  68.684  1.00  0.00    -0.135 A  
HETATM   26  C   UNL     1      -7.209  16.801  72.621  1.00  0.00    10.673 A  
HETATM   27  C   UNL     1      -7.521  15.543  73.085  1.00  0.00     8.651 A  
HETATM   28  C   UNL     1      -7.627  14.329  67.362  1.00  0.00    -0.163 A  
HETATM   29  C   UNL     1      -7.960  15.394  66.467  1.00  0.00     0.074 C  
HETATM   30  C   UNL     1      -7.781  14.478  72.203  1.00  0.00     4.993 A  
HETATM   31  C   UNL     1      -7.494  14.705  65.316  1.00  0.00     9.000 A  
HETATM   32  C   UNL     1      -7.374  16.704  66.697  1.00  0.00    -0.290 C  
HETATM   33  C   UNL     1      -6.271  14.074  65.731  1.00  0.00     8.683 A  
HETATM   34  C   UNL     1      -7.217  17.033  68.058  1.00  0.00    -0.172 A  
BRANCH   4  35
HETATM   35  N   UNL     1      -8.873   9.498  66.751  1.00  0.00    -0.130 N  
HETATM   36  C   UNL     1      -7.954   8.428  66.334  1.00  0.00    -0.099 C  
HETATM   37  C   UNL     1     -10.214   9.067  66.795  1.00  0.00    -0.271 C  
HETATM   38  O   UNL     1     -10.570   7.935  66.426  1.00  0.00    -0.028 OA 
BRANCH  37  39
HETATM   39  C   UNL     1     -11.322   9.948  67.214  1.00  0.00     0.425 A  
HETATM   40  C   UNL     1     -13.572  10.156  68.100  1.00  0.00    10.637 A  
HETATM   41  C   UNL     1     -12.508   9.357  67.666  1.00  0.00     6.929 A  
HETATM   42  C   UNL     1     -13.460  11.541  68.069  1.00  0.00     7.479 A  
HETATM   43  C   UNL     1     -12.256  12.123  67.668  1.00  0.00     0.308 A  
HETATM   44  C   UNL     1     -11.176  11.326  67.302  1.00  0.00    -0.364 A  
ENDBRANCH  37  39
ENDBRANCH   4  35
ENDBRANCH   2   3
TORSDOF 3
ENDMDL
MODEL      176
REMARK 921   NORMALIZED FREE ENERGY PREDICTED BY IDOCK:  144.58 KCAL/MOL
REMARK 922        TOTAL FREE ENERGY PREDICTED BY IDOCK:  169.41 KCAL/MOL
REMARK 923 INTER-LIGAND FREE ENERGY PREDICTED BY IDOCK:  165.97 KCAL/MOL
REMARK 924 INTRA-LIGAND FREE ENERGY PREDICTED BY IDOCK:    3.44 KCAL/MOL
REMARK 927      BINDING AFFINITY PREDICTED BY RF-SCORE:    0.00 PKD
ROOT
HETATM    1  C   UNL     1     -14.351  15.864  70.683  1.00  0.00     1.849 C  
HETATM    2  O   UNL     1     -13.696  15.326  69.534  1.00  0.00     1.445 OA 
ENDROOT
BRANCH   2   3
HETATM    3  C   UNL     1     -12.224  15.145  69.514  1.00  0.00    -0.233 C  
HETATM    4  C   UNL     1     -11.971  13.680  69.952  1.00  0.00    -0.348 C  
HETATM    5  C   UNL     1     -11.958  13.597  71.479  1.00  0.00     0.296 C  
HETATM    6  O   UNL     1      -5.244  13.853  73.610  1.00  0.00    -0.302 OA 
HETATM    7  C   UNL     1      -8.344  11.953  71.418  1.00  0.00    11.770 A  
HETATM    8  C   UNL     1      -5.635  14.888  73.080  1.00  0.00     0.269 C  
HETATM    9  C   UNL     1     -11.293  14.818  72.148  1.00  0.00     0.254 C  
HETATM   10  H   UNL     1      -4.440  16.258  74.177  1.00  0.00     0.000 HD 
HETATM   11  O   UNL     1     -11.734  16.135  71.653  1.00  0.00    -0.467 OA 
HETATM   12  C   UNL     1      -9.008  11.033  72.229  1.00  0.00    13.636 A  
HETATM   13  C   UNL     1      -9.341  11.400  73.530  1.00  0.00    21.597 A  
HETATM   14  C   UNL     1     -11.468  16.377  70.254  1.00  0.00    -0.114 C  
HETATM   15  N   UNL     1      -5.165  16.148  73.468  1.00  0.00     2.825 N  
HETATM   16  N   UNL     1     -10.058  16.877  70.245  1.00  0.00     0.705 NA 
HETATM   17  C   UNL     1     -12.214  17.542  69.517  1.00  0.00     5.044 C  
HETATM   18  C   UNL     1      -9.389  12.753  73.890  1.00  0.00    18.983 A  
HETATM   19  C   UNL     1      -9.519  18.256  70.276  1.00  0.00     2.231 A  
HETATM   20  C   UNL     1      -8.196  18.307  70.904  1.00  0.00     5.681 A  
HETATM   21  N   UNL     1      -9.846  14.634  72.158  1.00  0.00     3.912 NA 
HETATM   22  C   UNL     1      -5.768  17.291  72.802  1.00  0.00     2.936 C  
HETATM   23  C   UNL     1      -7.819  16.992  71.170  1.00  0.00     6.530 A  
HETATM   24  C   UNL     1      -7.557  19.554  71.124  1.00  0.00     2.193 A  
HETATM   25  C   UNL     1      -8.955  16.289  70.777  1.00  0.00     3.308 A  
HETATM   26  C   UNL     1      -8.134  20.745  70.701  1.00  0.00     2.822 A  
HETATM   27  C   UNL     1      -9.347  20.715  70.051  1.00  0.00     1.561 A  
HETATM   28  C   UNL     1      -8.928  14.996  71.214  1.00  0.00     3.434 A  
HETATM   29  C   UNL     1      -7.615  14.439  71.330  1.00  0.00     2.982 C  
HETATM   30  C   UNL     1     -10.036  19.508  69.836  1.00  0.00     0.339 A  
HETATM   31  C   UNL     1      -8.069  13.242  71.943  1.00  0.00    11.938 A  
HETATM   32  C   UNL     1      -6.608  15.183  72.068  1.00  0.00     1.763 C  
HETATM   33  C   UNL     1      -9.078  13.661  72.876  1.00  0.00    14.054 A  
HETATM   34  C   UNL     1      -6.703  16.581  71.924  1.00  0.00     4.823 A  
BRANCH   4  35
HETATM   35  N   UNL     1     -12.939  12.652  69.296  1.00  0.00     1.243 N  
HETATM   36  C   UNL     1     -14.299  13.067  68.920  1.00  0.00    12.585 C  
HETATM   37  C   UNL     1     -12.618  11.366  68.818  1.00  0.00     0.815 C  
HETATM   38  O   UNL     1     -13.440  10.642  68.230  1.00  0.00     4.775 OA 
BRANCH  37  39
HETATM   39  C   UNL     1     -11.301  10.738  69.038  1.00  0.00    -0.349 A  
HETATM   40  C   UNL     1      -8.884  10.935  68.972  1.00  0.00    -0.105 A  
HETATM   41  C   UNL     1     -10.151  11.483  68.750  1.00  0.00    -0.191 A  
HETATM   42  C   UNL     1      -8.760   9.642  69.466  1.00  0.00    -0.191 A  
HETATM   43  C   UNL     1      -9.910   8.923  69.802  1.00  0.00    -0.186 A  
HETATM   44  C   UNL     1     -11.169   9.495  69.644  1.00  0.00    -0.138 A  
ENDBRANCH  37  39
ENDBRANCH   4  35
ENDBRANCH   2   3
TORSDOF 3
ENDMDL
